REMARK SMILES Cc1cc(C(=O)OCCOCCOCCOCCOC(=O)c2ccc(-c3c4nc(c(-c5c(F)c(F)c(F)c(F)c5F)c5ccc([nH]5)c(-c5c(F)c(F)c(F)c(F)c5F)c5nc(c(-c6c(F)c(F)c(F)c(F)c6F)c6ccc3[nH]6)C=C5)C=C4)cc2)ccc1NCCCC(=O)NC1CC1
REMARK SMILES IDX 11 1 10 2 9 3 8 4 7 5 5 6 6 7 4 8 1 9 2 10 3 11 87 12 86 13
REMARK SMILES IDX 85 14 88 15 89 17 90 18 91 19 92 20 93 21 94 22 95 24 96 25
REMARK SMILES IDX 97 26 12 27 13 28 14 29 15 30 16 31 17 32 18 33 19 34 20 35
REMARK SMILES IDX 21 36 22 37 23 38 84 39 24 40 83 41 25 42 26 43 27 44 77 45
REMARK SMILES IDX 28 46 82 47 76 48 78 49 29 50 81 51 75 52 74 53 30 55 62 56
REMARK SMILES IDX 42 57 61 58 43 59 46 60 60 61 79 62 44 63 45 64 59 66 80 67
REMARK SMILES IDX 47 68 31 69 32 70 40 71 33 72 34 73 38 74 41 75 35 76 36 77
REMARK SMILES IDX 39 78 37 79 63 80 64 81 72 82 65 83 66 84 70 85 73 86 67 87
REMARK SMILES IDX 68 88 71 89 69 90 48 91 49 92 57 93 50 94 51 95 55 96 58 97
REMARK SMILES IDX 52 98 53 99 56 100 54 101
REMARK H PARENT 88 16 94 23 78 54 46 65
REMARK Flexibility Score: inf
ROOT
ATOM      1  C   UNL     1       0.245  -2.222  -2.035  1.00  0.00     0.188 C 
ENDROOT
BRANCH   1   2
ATOM      2  O   UNL     1       0.132  -3.633  -2.185  1.00  0.00    -0.376 OA
BRANCH   2   3
ATOM      3  C   UNL     1      -0.757  -4.290  -1.284  1.00  0.00     0.202 C 
BRANCH   3   4
ATOM      4  C   UNL     1      -0.337  -4.312   0.181  1.00  0.00     0.261 C 
BRANCH   4   5
ATOM      5  O   UNL     1      -0.578  -3.030   0.755  1.00  0.00    -0.460 OA
BRANCH   5   6
ATOM      6  C   UNL     1       0.411  -2.590   1.552  1.00  0.00     0.338 C 
ATOM      7  O   UNL     1       1.269  -3.257   2.099  1.00  0.00    -0.246 OA
BRANCH   6   8
ATOM      8  C   UNL     1       0.494  -1.133   1.365  1.00  0.00     0.060 A 
ATOM      9  C   UNL     1       3.418   1.087   0.622  1.00  0.00     0.046 C 
ATOM     10  C   UNL     1       1.999   0.698   0.940  1.00  0.00    -0.027 A 
ATOM     11  C   UNL     1       1.783  -0.651   1.194  1.00  0.00     0.021 A 
ATOM     12  C   UNL     1       0.901   1.586   0.920  1.00  0.00     0.037 A 
ATOM     13  C   UNL     1      -0.395   1.065   0.924  1.00  0.00     0.027 A 
ATOM     14  C   UNL     1      -0.603  -0.292   1.169  1.00  0.00     0.018 A 
BRANCH  12  15
ATOM     15  N   UNL     1       1.161   2.935   0.906  1.00  0.00    -0.385 N 
ATOM     16  H   UNL     1       2.108   3.191   0.987  1.00  0.00     0.160 HD
BRANCH  15  17
ATOM     17  C   UNL     1       0.221   4.024   0.788  1.00  0.00     0.113 C 
BRANCH  17  18
ATOM     18  C   UNL     1       0.919   5.341   1.150  1.00  0.00     0.031 C 
BRANCH  18  19
ATOM     19  C   UNL     1       2.390   5.497   0.750  1.00  0.00     0.102 C 
BRANCH  19  20
ATOM     20  C   UNL     1       2.736   6.114  -0.585  1.00  0.00     0.220 C 
ATOM     21  O   UNL     1       3.297   7.215  -0.617  1.00  0.00    -0.275 OA
ATOM     22  N   UNL     1       2.557   5.472  -1.770  1.00  0.00    -0.353 N 
ATOM     23  H   UNL     1       3.059   5.869  -2.518  1.00  0.00     0.163 HD
BRANCH  22  24
ATOM     24  C   UNL     1       1.782   4.337  -2.134  1.00  0.00     0.082 C 
ATOM     25  C   UNL     1       2.149   3.634  -3.426  1.00  0.00     0.027 C 
ATOM     26  C   UNL     1       2.258   2.914  -2.124  1.00  0.00     0.027 C 
ENDBRANCH  22  24
ENDBRANCH  19  20
ENDBRANCH  18  19
ENDBRANCH  17  18
ENDBRANCH  15  17
ENDBRANCH  12  15
ENDBRANCH   6   8
ENDBRANCH   5   6
ENDBRANCH   4   5
ENDBRANCH   3   4
ENDBRANCH   2   3
ENDBRANCH   1   2
BRANCH   1  27
ATOM     27  C   UNL     1      -0.505  -1.363  -3.054  1.00  0.00     0.188 C 
BRANCH  27  28
ATOM     28  O   UNL     1      -1.849  -1.017  -2.720  1.00  0.00    -0.377 OA
BRANCH  28  29
ATOM     29  C   UNL     1      -2.893  -1.907  -3.112  1.00  0.00     0.188 C 
BRANCH  29  30
ATOM     30  C   UNL     1      -2.809  -2.461  -4.534  1.00  0.00     0.188 C 
BRANCH  30  31
ATOM     31  O   UNL     1      -1.957  -3.607  -4.524  1.00  0.00    -0.376 OA
BRANCH  31  32
ATOM     32  C   UNL     1      -1.243  -3.845  -5.737  1.00  0.00     0.202 C 
BRANCH  32  33
ATOM     33  C   UNL     1      -2.143  -4.220  -6.920  1.00  0.00     0.261 C 
BRANCH  33  34
ATOM     34  O   UNL     1      -2.797  -5.470  -6.635  1.00  0.00    -0.460 OA
BRANCH  34  35
ATOM     35  C   UNL     1      -4.109  -5.362  -6.298  1.00  0.00     0.338 C 
ATOM     36  O   UNL     1      -4.952  -4.744  -6.924  1.00  0.00    -0.246 OA
BRANCH  35  37
ATOM     37  C   UNL     1      -4.309  -5.875  -4.913  1.00  0.00     0.060 A 
ATOM     38  C   UNL     1      -5.511  -5.608  -4.239  1.00  0.00     0.016 A 
ATOM     39  C   UNL     1      -3.217  -6.362  -4.201  1.00  0.00     0.016 A 
ATOM     40  C   UNL     1      -5.561  -5.673  -2.837  1.00  0.00     0.010 A 
ATOM     41  C   UNL     1      -3.256  -6.354  -2.819  1.00  0.00     0.010 A 
ATOM     42  C   UNL     1      -4.396  -5.946  -2.113  1.00  0.00    -0.014 A 
BRANCH  42  43
ATOM     43  C   UNL     1      -4.184  -5.582  -0.694  1.00  0.00     0.031 A 
ATOM     44  C   UNL     1      -3.454  -6.490   0.263  1.00  0.00     0.074 A 
ATOM     45  C   UNL     1      -4.307  -4.266  -0.369  1.00  0.00     0.049 A 
ATOM     46  N   UNL     1      -3.229  -6.209   1.508  1.00  0.00    -0.248 NA
ATOM     47  C   UNL     1      -2.899  -7.800  -0.089  1.00  0.00     0.031 C 
ATOM     48  C   UNL     1      -3.569  -3.565   0.681  1.00  0.00     0.029 A 
ATOM     49  N   UNL     1      -5.041  -3.231  -0.935  1.00  0.00    -0.354 N 
ATOM     50  C   UNL     1      -2.192  -7.010   1.944  1.00  0.00     0.074 A 
ATOM     51  C   UNL     1      -2.147  -8.083   0.985  1.00  0.00     0.031 C 
ATOM     52  C   UNL     1      -3.945  -2.281   0.747  1.00  0.00     0.029 A 
ATOM     53  C   UNL     1      -5.146  -2.167  -0.036  1.00  0.00     0.049 A 
ATOM     54  H   UNL     1      -5.431  -3.246  -1.839  1.00  0.00     0.167 HD
ATOM     55  C   UNL     1      -1.371  -6.569   2.948  1.00  0.00     0.037 A 
ATOM     56  C   UNL     1      -6.326  -1.764   0.530  1.00  0.00     0.037 A 
ATOM     57  C   UNL     1      -1.864  -5.335   3.586  1.00  0.00     0.049 A 
ATOM     58  C   UNL     1      -6.358  -2.038   2.026  1.00  0.00     0.074 A 
ATOM     59  C   UNL     1      -1.282  -4.134   3.951  1.00  0.00     0.029 A 
ATOM     60  N   UNL     1      -3.226  -5.184   3.855  1.00  0.00    -0.354 N 
ATOM     61  N   UNL     1      -5.576  -2.928   2.585  1.00  0.00    -0.248 NA
ATOM     62  C   UNL     1      -7.145  -1.314   3.022  1.00  0.00     0.031 C 
ATOM     63  C   UNL     1      -2.317  -3.218   4.289  1.00  0.00     0.029 A 
ATOM     64  C   UNL     1      -3.521  -3.904   4.266  1.00  0.00     0.049 A 
ATOM     65  H   UNL     1      -3.892  -5.903   3.763  1.00  0.00     0.167 HD
ATOM     66  C   UNL     1      -5.657  -2.844   3.940  1.00  0.00     0.074 A 
ATOM     67  C   UNL     1      -6.701  -1.863   4.172  1.00  0.00     0.031 C 
ATOM     68  C   UNL     1      -4.845  -3.564   4.766  1.00  0.00     0.037 A 
BRANCH  55  69
ATOM     69  C   UNL     1       0.025  -7.122   3.252  1.00  0.00     0.064 A 
ATOM     70  C   UNL     1       0.674  -6.805   4.470  1.00  0.00     0.173 A 
ATOM     71  C   UNL     1       0.822  -7.860   2.349  1.00  0.00     0.173 A 
ATOM     72  F   UNL     1       0.040  -6.119   5.431  1.00  0.00    -0.203 F 
ATOM     73  C   UNL     1       1.996  -7.184   4.750  1.00  0.00     0.198 A 
ATOM     74  C   UNL     1       2.117  -8.302   2.661  1.00  0.00     0.198 A 
ATOM     75  F   UNL     1       0.408  -8.139   1.107  1.00  0.00    -0.203 F 
ATOM     76  F   UNL     1       2.573  -6.802   5.899  1.00  0.00    -0.200 F 
ATOM     77  C   UNL     1       2.711  -7.950   3.854  1.00  0.00     0.200 A 
ATOM     78  F   UNL     1       2.791  -9.059   1.781  1.00  0.00    -0.200 F 
ATOM     79  F   UNL     1       3.962  -8.342   4.132  1.00  0.00    -0.200 F 
ENDBRANCH  55  69
BRANCH  56  80
ATOM     80  C   UNL     1      -7.426  -1.677  -0.464  1.00  0.00     0.064 A 
ATOM     81  C   UNL     1      -7.278  -0.627  -1.395  1.00  0.00     0.173 A 
ATOM     82  C   UNL     1      -8.067  -2.845  -0.902  1.00  0.00     0.173 A 
ATOM     83  F   UNL     1      -6.708   0.526  -1.011  1.00  0.00    -0.203 F 
ATOM     84  C   UNL     1      -7.506  -0.836  -2.753  1.00  0.00     0.198 A 
ATOM     85  C   UNL     1      -8.313  -3.042  -2.266  1.00  0.00     0.198 A 
ATOM     86  F   UNL     1      -8.248  -3.873  -0.061  1.00  0.00    -0.203 F 
ATOM     87  F   UNL     1      -7.143   0.099  -3.643  1.00  0.00    -0.200 F 
ATOM     88  C   UNL     1      -7.971  -2.064  -3.191  1.00  0.00     0.200 A 
ATOM     89  F   UNL     1      -8.733  -4.238  -2.701  1.00  0.00    -0.200 F 
ATOM     90  F   UNL     1      -8.012  -2.336  -4.503  1.00  0.00    -0.200 F 
ENDBRANCH  56  80
BRANCH  68  91
ATOM     91  C   UNL     1      -5.203  -4.006   6.161  1.00  0.00     0.064 A 
ATOM     92  C   UNL     1      -6.533  -4.177   6.576  1.00  0.00     0.173 A 
ATOM     93  C   UNL     1      -4.216  -4.535   7.032  1.00  0.00     0.173 A 
ATOM     94  F   UNL     1      -7.559  -3.799   5.801  1.00  0.00    -0.203 F 
ATOM     95  C   UNL     1      -6.852  -4.813   7.776  1.00  0.00     0.198 A 
ATOM     96  C   UNL     1      -4.542  -5.214   8.202  1.00  0.00     0.198 A 
ATOM     97  F   UNL     1      -2.907  -4.452   6.754  1.00  0.00    -0.203 F 
ATOM     98  F   UNL     1      -8.138  -4.944   8.130  1.00  0.00    -0.200 F 
ATOM     99  C   UNL     1      -5.861  -5.348   8.577  1.00  0.00     0.200 A 
ATOM    100  F   UNL     1      -3.572  -5.770   8.942  1.00  0.00    -0.200 F 
ATOM    101  F   UNL     1      -6.179  -6.011   9.696  1.00  0.00    -0.200 F 
ENDBRANCH  68  91
ENDBRANCH  42  43
ENDBRANCH  35  37
ENDBRANCH  34  35
ENDBRANCH  33  34
ENDBRANCH  32  33
ENDBRANCH  31  32
ENDBRANCH  30  31
ENDBRANCH  29  30
ENDBRANCH  28  29
ENDBRANCH  27  28
ENDBRANCH   1  27
TORSDOF 26
