REMARK SMILES CCc1cc(C(=O)c2[nH]c3cc(Cl)ccc3c2CC(=O)OCCOCCOCCOCCOC(=O)c2ccc(-c3c4nc(c(-c5c(F)c(F)c(F)c(F)c5F)c5ccc([nH]5)c(-c5c(F)c(F)c(F)c(F)c5F)c5nc(c(-c6c(F)c(F)c(F)c(F)c6F)c6ccc3[nH]6)C=C5)C=C4)cc2)ncc1Cl
REMARK SMILES IDX 26 1 25 2 24 3 23 4 22 5 21 6 19 7 20 8 18 9 17 10 8 11 9 12
REMARK SMILES IDX 10 13 16 15 11 16 15 17 12 18 14 19 13 20 6 21 7 22 5 23
REMARK SMILES IDX 3 24 4 25 101 26 100 27 102 28 99 29 2 30 1 31 27 32 28 33
REMARK SMILES IDX 29 34 30 35 31 36 32 37 33 38 34 39 35 40 36 41 37 42 98 43
REMARK SMILES IDX 38 44 97 45 39 46 40 47 41 48 91 49 42 50 96 51 90 52 92 53
REMARK SMILES IDX 43 54 95 55 89 56 88 57 44 59 76 60 56 61 75 62 57 63 60 64
REMARK SMILES IDX 74 65 93 66 58 67 59 68 73 70 94 71 61 72 45 73 46 74 54 75
REMARK SMILES IDX 47 76 48 77 52 78 55 79 49 80 50 81 53 82 51 83 77 84 78 85
REMARK SMILES IDX 86 86 79 87 80 88 84 89 87 90 81 91 82 92 85 93 83 94 62 95
REMARK SMILES IDX 63 96 71 97 64 98 65 99 69 100 72 101 66 102 67 103 70 104
REMARK SMILES IDX 68 105
REMARK H PARENT 9 14 92 58 60 69
REMARK Flexibility Score: inf
ROOT
ATOM      1  C   UNL     1       0.286   8.410   0.094  1.00  0.00     0.188 C 
ENDROOT
BRANCH   1   2
ATOM      2  C   UNL     1      -0.210   9.412  -0.946  1.00  0.00     0.188 C 
BRANCH   2   3
ATOM      3  O   UNL     1       0.016  10.781  -0.689  1.00  0.00    -0.376 OA
BRANCH   3   4
ATOM      4  C   UNL     1      -0.618  11.342   0.459  1.00  0.00     0.202 C 
BRANCH   4   5
ATOM      5  C   UNL     1      -2.029  10.875   0.879  1.00  0.00     0.261 C 
BRANCH   5   6
ATOM      6  O   UNL     1      -2.139   9.489   1.312  1.00  0.00    -0.463 OA
BRANCH   6   7
ATOM      7  C   UNL     1      -3.191   8.791   0.814  1.00  0.00     0.310 C 
ATOM      8  O   UNL     1      -4.034   9.304   0.075  1.00  0.00    -0.252 OA
BRANCH   7   9
ATOM      9  C   UNL     1      -3.327   7.322   1.182  1.00  0.00     0.161 C 
BRANCH   9  10
ATOM     10  C   UNL     1      -2.374   6.609   2.119  1.00  0.00     0.000 A 
ATOM     11  C   UNL     1      -1.300   5.766   1.784  1.00  0.00     0.093 A 
ATOM     12  N   UNL     1      -0.697   5.419   2.977  1.00  0.00    -0.351 N 
ATOM     13  C   UNL     1      -1.577   5.604   4.017  1.00  0.00     0.048 A 
ATOM     14  H   UNL     1       0.226   5.088   3.069  1.00  0.00     0.167 HD
ATOM     15  C   UNL     1      -2.631   6.366   3.516  1.00  0.00     0.004 A 
ATOM     16  C   UNL     1      -1.535   5.132   5.337  1.00  0.00     0.047 A 
ATOM     17  C   UNL     1      -3.716   6.649   4.374  1.00  0.00     0.012 A 
ATOM     18  C   UNL     1      -2.646   5.389   6.144  1.00  0.00     0.043 A 
ATOM     19  C   UNL     1      -3.725   6.131   5.675  1.00  0.00     0.021 A 
ATOM     20  Cl  UNL     1      -2.693   4.743   7.741  1.00  0.00    -0.084 Cl
BRANCH  11  21
ATOM     21  C   UNL     1      -0.884   5.320   0.453  1.00  0.00     0.227 C 
ATOM     22  O   UNL     1      -1.448   5.691  -0.577  1.00  0.00    -0.285 OA
BRANCH  21  23
ATOM     23  C   UNL     1       0.212   4.330   0.259  1.00  0.00     0.113 A 
ATOM     24  C   UNL     1       0.987   2.031   0.366  1.00  0.00    -0.026 A 
ATOM     25  C   UNL     1       0.115   3.055   0.806  1.00  0.00     0.037 A 
ATOM     26  C   UNL     1       1.967   2.378  -0.576  1.00  0.00     0.062 A 
ATOM     27  C   UNL     1       2.004   3.691  -1.041  1.00  0.00     0.132 A 
ATOM     28  Cl  UNL     1       3.146   1.299  -1.211  1.00  0.00    -0.082 Cl
ATOM     29  N   UNL     1       1.158   4.671  -0.646  1.00  0.00    -0.251 NA
BRANCH  24  30
ATOM     30  C   UNL     1       0.756   0.663   0.978  1.00  0.00     0.034 C 
ATOM     31  C   UNL     1       1.042  -0.582   0.152  1.00  0.00     0.009 C 
ENDBRANCH  24  30
ENDBRANCH  21  23
ENDBRANCH  11  21
ENDBRANCH   9  10
ENDBRANCH   7   9
ENDBRANCH   6   7
ENDBRANCH   5   6
ENDBRANCH   4   5
ENDBRANCH   3   4
ENDBRANCH   2   3
ENDBRANCH   1   2
BRANCH   1  32
ATOM     32  O   UNL     1       0.397   8.821   1.447  1.00  0.00    -0.377 OA
BRANCH  32  33
ATOM     33  C   UNL     1       1.648   9.254   1.958  1.00  0.00     0.188 C 
BRANCH  33  34
ATOM     34  C   UNL     1       2.841   9.300   1.006  1.00  0.00     0.188 C 
BRANCH  34  35
ATOM     35  O   UNL     1       3.349   8.069   0.488  1.00  0.00    -0.376 OA
BRANCH  35  36
ATOM     36  C   UNL     1       3.068   6.847   1.161  1.00  0.00     0.202 C 
BRANCH  36  37
ATOM     37  C   UNL     1       4.086   6.453   2.224  1.00  0.00     0.261 C 
BRANCH  37  38
ATOM     38  O   UNL     1       3.962   7.292   3.379  1.00  0.00    -0.460 OA
BRANCH  38  39
ATOM     39  C   UNL     1       4.845   8.312   3.424  1.00  0.00     0.338 C 
ATOM     40  O   UNL     1       5.786   8.519   2.672  1.00  0.00    -0.246 OA
BRANCH  39  41
ATOM     41  C   UNL     1       4.416   9.277   4.446  1.00  0.00     0.060 A 
ATOM     42  C   UNL     1       4.469  10.635   4.112  1.00  0.00     0.016 A 
ATOM     43  C   UNL     1       4.030   8.867   5.726  1.00  0.00     0.016 A 
ATOM     44  C   UNL     1       4.198  11.595   5.075  1.00  0.00     0.010 A 
ATOM     45  C   UNL     1       3.773   9.831   6.699  1.00  0.00     0.010 A 
ATOM     46  C   UNL     1       3.910  11.194   6.385  1.00  0.00    -0.014 A 
BRANCH  46  47
ATOM     47  C   UNL     1       3.994  12.208   7.455  1.00  0.00     0.031 A 
ATOM     48  C   UNL     1       5.281  12.323   8.220  1.00  0.00     0.074 A 
ATOM     49  C   UNL     1       2.978  13.058   7.670  1.00  0.00     0.049 A 
ATOM     50  N   UNL     1       5.610  13.150   9.178  1.00  0.00    -0.248 NA
ATOM     51  C   UNL     1       6.348  11.377   7.851  1.00  0.00     0.031 C 
ATOM     52  C   UNL     1       1.712  13.060   6.940  1.00  0.00     0.029 A 
ATOM     53  N   UNL     1       2.860  14.090   8.562  1.00  0.00    -0.354 N 
ATOM     54  C   UNL     1       6.914  12.823   9.525  1.00  0.00     0.074 A 
ATOM     55  C   UNL     1       7.306  11.698   8.706  1.00  0.00     0.031 C 
ATOM     56  C   UNL     1       0.939  14.050   7.418  1.00  0.00     0.029 A 
ATOM     57  C   UNL     1       1.646  14.725   8.504  1.00  0.00     0.049 A 
ATOM     58  H   UNL     1       3.576  14.350   9.185  1.00  0.00     0.167 HD
ATOM     59  C   UNL     1       7.716  13.419  10.438  1.00  0.00     0.037 A 
ATOM     60  C   UNL     1       1.164  15.728   9.261  1.00  0.00     0.037 A 
ATOM     61  C   UNL     1       7.308  14.536  11.248  1.00  0.00     0.049 A 
ATOM     62  C   UNL     1       2.051  16.323  10.325  1.00  0.00     0.074 A 
ATOM     63  C   UNL     1       8.034  15.222  12.204  1.00  0.00     0.029 A 
ATOM     64  N   UNL     1       6.051  15.124  11.201  1.00  0.00    -0.354 N 
ATOM     65  N   UNL     1       3.289  16.022  10.640  1.00  0.00    -0.248 NA
ATOM     66  C   UNL     1       1.474  17.405  11.132  1.00  0.00     0.031 C 
ATOM     67  C   UNL     1       7.196  16.183  12.780  1.00  0.00     0.029 A 
ATOM     68  C   UNL     1       5.971  16.146  12.133  1.00  0.00     0.049 A 
ATOM     69  H   UNL     1       5.324  14.855  10.594  1.00  0.00     0.167 HD
ATOM     70  C   UNL     1       3.648  16.896  11.659  1.00  0.00     0.074 A 
ATOM     71  C   UNL     1       2.503  17.753  11.889  1.00  0.00     0.031 C 
ATOM     72  C   UNL     1       4.816  16.984  12.345  1.00  0.00     0.037 A 
BRANCH  59  73
ATOM     73  C   UNL     1       9.091  12.848  10.631  1.00  0.00     0.064 A 
ATOM     74  C   UNL     1      10.085  12.948   9.645  1.00  0.00     0.173 A 
ATOM     75  C   UNL     1       9.425  12.199  11.830  1.00  0.00     0.173 A 
ATOM     76  F   UNL     1       9.815  13.540   8.471  1.00  0.00    -0.203 F 
ATOM     77  C   UNL     1      11.348  12.394   9.839  1.00  0.00     0.198 A 
ATOM     78  C   UNL     1      10.699  11.677  12.035  1.00  0.00     0.198 A 
ATOM     79  F   UNL     1       8.513  12.071  12.806  1.00  0.00    -0.203 F 
ATOM     80  F   UNL     1      12.262  12.451   8.860  1.00  0.00    -0.200 F 
ATOM     81  C   UNL     1      11.657  11.767  11.037  1.00  0.00     0.200 A 
ATOM     82  F   UNL     1      10.998  11.081  13.197  1.00  0.00    -0.200 F 
ATOM     83  F   UNL     1      12.874  11.239  11.225  1.00  0.00    -0.200 F 
ENDBRANCH  59  73
BRANCH  60  84
ATOM     84  C   UNL     1      -0.221  16.223   9.050  1.00  0.00     0.064 A 
ATOM     85  C   UNL     1      -0.466  17.523   8.587  1.00  0.00     0.173 A 
ATOM     86  C   UNL     1      -1.332  15.411   9.328  1.00  0.00     0.173 A 
ATOM     87  F   UNL     1       0.561  18.346   8.327  1.00  0.00    -0.203 F 
ATOM     88  C   UNL     1      -1.767  18.001   8.437  1.00  0.00     0.198 A 
ATOM     89  C   UNL     1      -2.631  15.879   9.144  1.00  0.00     0.198 A 
ATOM     90  F   UNL     1      -1.154  14.158   9.772  1.00  0.00    -0.203 F 
ATOM     91  F   UNL     1      -1.971  19.267   8.047  1.00  0.00    -0.200 F 
ATOM     92  C   UNL     1      -2.848  17.177   8.710  1.00  0.00     0.200 A 
ATOM     93  F   UNL     1      -3.672  15.073   9.395  1.00  0.00    -0.200 F 
ATOM     94  F   UNL     1      -4.098  17.637   8.563  1.00  0.00    -0.200 F 
ENDBRANCH  60  84
BRANCH  72  95
ATOM     95  C   UNL     1       4.918  18.069  13.381  1.00  0.00     0.064 A 
ATOM     96  C   UNL     1       4.161  18.040  14.562  1.00  0.00     0.173 A 
ATOM     97  C   UNL     1       5.793  19.150  13.191  1.00  0.00     0.173 A 
ATOM     98  F   UNL     1       3.302  17.035  14.789  1.00  0.00    -0.203 F 
ATOM     99  C   UNL     1       4.238  19.077  15.488  1.00  0.00     0.198 A 
ATOM    100  C   UNL     1       5.899  20.164  14.139  1.00  0.00     0.198 A 
ATOM    101  F   UNL     1       6.551  19.222  12.086  1.00  0.00    -0.203 F 
ATOM    102  F   UNL     1       3.449  19.064  16.571  1.00  0.00    -0.200 F 
ATOM    103  C   UNL     1       5.110  20.134  15.278  1.00  0.00     0.200 A 
ATOM    104  F   UNL     1       6.758  21.174  13.944  1.00  0.00    -0.200 F 
ATOM    105  F   UNL     1       5.182  21.132  16.170  1.00  0.00    -0.200 F 
ENDBRANCH  72  95
ENDBRANCH  46  47
ENDBRANCH  39  41
ENDBRANCH  38  39
ENDBRANCH  37  38
ENDBRANCH  36  37
ENDBRANCH  35  36
ENDBRANCH  34  35
ENDBRANCH  33  34
ENDBRANCH  32  33
ENDBRANCH   1  32
TORSDOF 24
