REMARK SMILES CN(CC(C)(C)O)C(=O)N1CCCC[C@H]1CC(=O)OCCOCCOCCOCCOC(=O)c1ccc(-c2c3nc(c(-c4c(F)c(F)c(F)c(F)c4F)c4ccc([nH]4)c(-c4c(F)c(F)c(F)c(F)c4F)c4nc(c(-c5c(F)c(F)c(F)c(F)c5F)c5ccc2[nH]5)C=C4)C=C3)cc1
REMARK SMILES IDX 23 1 22 2 21 3 20 4 19 5 17 6 18 7 16 8 15 9 10 10 11 11
REMARK SMILES IDX 12 12 14 13 13 14 8 15 9 16 2 17 1 18 3 19 4 20 5 21 6 22
REMARK SMILES IDX 7 23 24 25 25 26 26 27 27 28 28 29 29 30 30 31 31 32 32 33
REMARK SMILES IDX 33 34 34 35 35 36 96 37 36 38 95 39 37 40 38 41 39 42 89 43
REMARK SMILES IDX 40 44 94 45 88 46 90 47 41 48 93 49 87 50 86 51 42 53 74 54
REMARK SMILES IDX 54 55 73 56 55 57 58 58 72 59 91 60 56 61 57 62 71 64 92 65
REMARK SMILES IDX 59 66 43 67 44 68 52 69 45 70 46 71 50 72 53 73 47 74 48 75
REMARK SMILES IDX 51 76 49 77 75 78 76 79 84 80 77 81 78 82 82 83 85 84 79 85
REMARK SMILES IDX 80 86 83 87 81 88 60 89 61 90 69 91 62 92 63 93 67 94 70 95
REMARK SMILES IDX 64 96 65 97 68 98 66 99
REMARK H PARENT 7 24 90 52 58 63
REMARK Flexibility Score: inf
ROOT
ATOM      1  C   UNL     1       1.548  -4.443   2.208  1.00  0.00     0.188 C 
ENDROOT
BRANCH   1   2
ATOM      2  O   UNL     1       2.672  -5.224   2.598  1.00  0.00    -0.376 OA
BRANCH   2   3
ATOM      3  C   UNL     1       3.495  -5.743   1.549  1.00  0.00     0.202 C 
BRANCH   3   4
ATOM      4  C   UNL     1       2.800  -6.541   0.423  1.00  0.00     0.261 C 
BRANCH   4   5
ATOM      5  O   UNL     1       1.722  -5.830  -0.239  1.00  0.00    -0.463 OA
BRANCH   5   6
ATOM      6  C   UNL     1       0.558  -6.495  -0.428  1.00  0.00     0.307 C 
ATOM      7  O   UNL     1       0.409  -7.689  -0.185  1.00  0.00    -0.252 OA
BRANCH   6   8
ATOM      8  C   UNL     1      -0.637  -5.599  -0.716  1.00  0.00     0.147 C 
BRANCH   8   9
ATOM      9  C   UNL     1      -0.771  -4.539  -1.835  1.00  0.00     0.098 C 
ATOM     10  N   UNL     1       0.199  -3.436  -1.934  1.00  0.00    -0.321 N 
ATOM     11  C   UNL     1       1.448  -3.777  -2.650  1.00  0.00     0.121 C 
ATOM     12  C   UNL     1       1.230  -4.483  -3.990  1.00  0.00     0.022 C 
ATOM     13  C   UNL     1      -1.023  -5.167  -3.220  1.00  0.00     0.026 C 
ATOM     14  C   UNL     1       0.264  -5.652  -3.863  1.00  0.00     0.004 C 
BRANCH  10  15
ATOM     15  C   UNL     1      -0.097  -2.074  -1.851  1.00  0.00     0.320 C 
ATOM     16  O   UNL     1       0.533  -1.279  -2.562  1.00  0.00    -0.248 OA
BRANCH  15  17
ATOM     17  N   UNL     1      -1.037  -1.567  -0.949  1.00  0.00    -0.325 N 
ATOM     18  C   UNL     1      -1.167  -0.105  -0.951  1.00  0.00     0.148 C 
BRANCH  17  19
ATOM     19  C   UNL     1      -1.559  -2.207   0.276  1.00  0.00     0.155 C 
BRANCH  19  20
ATOM     20  C   UNL     1      -3.105  -2.267   0.460  1.00  0.00     0.077 C 
ATOM     21  C   UNL     1      -3.808  -3.010  -0.673  1.00  0.00     0.043 C 
ATOM     22  C   UNL     1      -3.424  -2.950   1.798  1.00  0.00     0.043 C 
BRANCH  20  23
ATOM     23  O   UNL     1      -3.666  -0.954   0.566  1.00  0.00    -0.389 OA
ATOM     24  H   UNL     1      -3.498  -0.464  -0.254  1.00  0.00     0.211 HD
ENDBRANCH  20  23
ENDBRANCH  19  20
ENDBRANCH  17  19
ENDBRANCH  15  17
ENDBRANCH  10  15
ENDBRANCH   8   9
ENDBRANCH   6   8
ENDBRANCH   5   6
ENDBRANCH   4   5
ENDBRANCH   3   4
ENDBRANCH   2   3
ENDBRANCH   1   2
BRANCH   1  25
ATOM     25  C   UNL     1       1.823  -3.222   1.320  1.00  0.00     0.188 C 
BRANCH  25  26
ATOM     26  O   UNL     1       2.820  -3.453   0.340  1.00  0.00    -0.377 OA
BRANCH  26  27
ATOM     27  C   UNL     1       3.505  -2.328  -0.192  1.00  0.00     0.188 C 
BRANCH  27  28
ATOM     28  C   UNL     1       4.056  -1.375   0.872  1.00  0.00     0.188 C 
BRANCH  28  29
ATOM     29  O   UNL     1       3.149  -0.449   1.481  1.00  0.00    -0.376 OA
BRANCH  29  30
ATOM     30  C   UNL     1       2.042   0.035   0.725  1.00  0.00     0.202 C 
BRANCH  30  31
ATOM     31  C   UNL     1       2.337   1.212  -0.196  1.00  0.00     0.261 C 
BRANCH  31  32
ATOM     32  O   UNL     1       3.125   0.792  -1.309  1.00  0.00    -0.460 OA
BRANCH  32  33
ATOM     33  C   UNL     1       4.439   1.071  -1.226  1.00  0.00     0.338 C 
ATOM     34  O   UNL     1       5.033   1.692  -0.360  1.00  0.00    -0.246 OA
BRANCH  33  35
ATOM     35  C   UNL     1       5.102   0.326  -2.299  1.00  0.00     0.060 A 
ATOM     36  C   UNL     1       6.226  -0.445  -1.978  1.00  0.00     0.016 A 
ATOM     37  C   UNL     1       4.623   0.412  -3.609  1.00  0.00     0.016 A 
ATOM     38  C   UNL     1       6.913  -1.101  -2.984  1.00  0.00     0.010 A 
ATOM     39  C   UNL     1       5.321  -0.226  -4.621  1.00  0.00     0.010 A 
ATOM     40  C   UNL     1       6.492  -0.936  -4.308  1.00  0.00    -0.014 A 
BRANCH  40  41
ATOM     41  C   UNL     1       7.421  -1.270  -5.394  1.00  0.00     0.031 A 
ATOM     42  C   UNL     1       8.269  -0.159  -5.933  1.00  0.00     0.074 A 
ATOM     43  C   UNL     1       7.478  -2.523  -5.862  1.00  0.00     0.049 A 
ATOM     44  N   UNL     1       9.100  -0.159  -6.938  1.00  0.00    -0.248 NA
ATOM     45  C   UNL     1       8.150   1.142  -5.249  1.00  0.00     0.031 C 
ATOM     46  C   UNL     1       6.710  -3.653  -5.343  1.00  0.00     0.029 A 
ATOM     47  N   UNL     1       8.209  -3.048  -6.889  1.00  0.00    -0.354 N 
ATOM     48  C   UNL     1       9.589   1.139  -7.014  1.00  0.00     0.074 A 
ATOM     49  C   UNL     1       8.937   1.910  -5.983  1.00  0.00     0.031 C 
ATOM     50  C   UNL     1       7.005  -4.746  -6.067  1.00  0.00     0.029 A 
ATOM     51  C   UNL     1       7.948  -4.374  -7.118  1.00  0.00     0.049 A 
ATOM     52  H   UNL     1       8.859  -2.526  -7.414  1.00  0.00     0.167 HD
ATOM     53  C   UNL     1      10.509   1.631  -7.875  1.00  0.00     0.037 A 
ATOM     54  C   UNL     1       8.414  -5.173  -8.093  1.00  0.00     0.037 A 
ATOM     55  C   UNL     1      11.120   0.828  -8.899  1.00  0.00     0.049 A 
ATOM     56  C   UNL     1       9.377  -4.582  -9.090  1.00  0.00     0.074 A 
ATOM     57  C   UNL     1      12.069   1.189  -9.834  1.00  0.00     0.029 A 
ATOM     58  N   UNL     1      10.817  -0.511  -9.123  1.00  0.00    -0.354 N 
ATOM     59  N   UNL     1       9.862  -3.363  -9.152  1.00  0.00    -0.248 NA
ATOM     60  C   UNL     1       9.857  -5.474 -10.151  1.00  0.00     0.031 C 
ATOM     61  C   UNL     1      12.293   0.086 -10.665  1.00  0.00     0.029 A 
ATOM     62  C   UNL     1      11.540  -0.984 -10.203  1.00  0.00     0.049 A 
ATOM     63  H   UNL     1      10.182  -1.043  -8.592  1.00  0.00     0.167 HD
ATOM     64  C   UNL     1      10.735  -3.350 -10.230  1.00  0.00     0.074 A 
ATOM     65  C   UNL     1      10.712  -4.688 -10.790  1.00  0.00     0.031 C 
ATOM     66  C   UNL     1      11.492  -2.333 -10.715  1.00  0.00     0.037 A 
BRANCH  53  67
ATOM     67  C   UNL     1      10.851   3.090  -7.765  1.00  0.00     0.064 A 
ATOM     68  C   UNL     1      11.506   3.620  -6.641  1.00  0.00     0.173 A 
ATOM     69  C   UNL     1      10.496   3.980  -8.789  1.00  0.00     0.173 A 
ATOM     70  F   UNL     1      11.852   2.820  -5.620  1.00  0.00    -0.203 F 
ATOM     71  C   UNL     1      11.751   4.987  -6.528  1.00  0.00     0.198 A 
ATOM     72  C   UNL     1      10.776   5.341  -8.691  1.00  0.00     0.198 A 
ATOM     73  F   UNL     1       9.865   3.533  -9.886  1.00  0.00    -0.203 F 
ATOM     74  F   UNL     1      12.311   5.476  -5.413  1.00  0.00    -0.200 F 
ATOM     75  C   UNL     1      11.391   5.845  -7.555  1.00  0.00     0.200 A 
ATOM     76  F   UNL     1      10.436   6.167  -9.690  1.00  0.00    -0.200 F 
ATOM     77  F   UNL     1      11.624   7.160  -7.445  1.00  0.00    -0.200 F 
ENDBRANCH  53  67
BRANCH  54  78
ATOM     78  C   UNL     1       7.994  -6.596  -8.153  1.00  0.00     0.064 A 
ATOM     79  C   UNL     1       8.912  -7.625  -7.904  1.00  0.00     0.173 A 
ATOM     80  C   UNL     1       6.668  -6.960  -8.434  1.00  0.00     0.173 A 
ATOM     81  F   UNL     1      10.193  -7.329  -7.641  1.00  0.00    -0.203 F 
ATOM     82  C   UNL     1       8.526  -8.963  -7.951  1.00  0.00     0.198 A 
ATOM     83  C   UNL     1       6.276  -8.297  -8.452  1.00  0.00     0.198 A 
ATOM     84  F   UNL     1       5.746  -6.015  -8.670  1.00  0.00    -0.203 F 
ATOM     85  F   UNL     1       9.433  -9.927  -7.746  1.00  0.00    -0.200 F 
ATOM     86  C   UNL     1       7.207  -9.298  -8.218  1.00  0.00     0.200 A 
ATOM     87  F   UNL     1       4.997  -8.616  -8.691  1.00  0.00    -0.200 F 
ATOM     88  F   UNL     1       6.834 -10.585  -8.254  1.00  0.00    -0.200 F 
ENDBRANCH  54  78
BRANCH  66  89
ATOM     89  C   UNL     1      12.395  -2.649 -11.870  1.00  0.00     0.064 A 
ATOM     90  C   UNL     1      11.895  -2.882 -13.159  1.00  0.00     0.173 A 
ATOM     91  C   UNL     1      13.787  -2.655 -11.690  1.00  0.00     0.173 A 
ATOM     92  F   UNL     1      10.572  -2.900 -13.377  1.00  0.00    -0.203 F 
ATOM     93  C   UNL     1      12.757  -3.136 -14.221  1.00  0.00     0.198 A 
ATOM     94  C   UNL     1      14.646  -2.871 -12.762  1.00  0.00     0.198 A 
ATOM     95  F   UNL     1      14.314  -2.427 -10.477  1.00  0.00    -0.203 F 
ATOM     96  F   UNL     1      12.258  -3.408 -15.435  1.00  0.00    -0.200 F 
ATOM     97  C   UNL     1      14.130  -3.119 -14.025  1.00  0.00     0.200 A 
ATOM     98  F   UNL     1      15.972  -2.833 -12.573  1.00  0.00    -0.200 F 
ATOM     99  F   UNL     1      14.958  -3.348 -15.053  1.00  0.00    -0.200 F 
ENDBRANCH  66  89
ENDBRANCH  40  41
ENDBRANCH  33  35
ENDBRANCH  32  33
ENDBRANCH  31  32
ENDBRANCH  30  31
ENDBRANCH  29  30
ENDBRANCH  28  29
ENDBRANCH  27  28
ENDBRANCH  26  27
ENDBRANCH  25  26
ENDBRANCH   1  25
TORSDOF 26
