REMARK SMILES O=C(OCCOCCOCCOCCOC(=O)c1ccc(-c2c3nc(c(-c4c(F)c(F)c(F)c(F)c4F)c4ccc([nH]4)c(-c4c(F)c(F)c(F)c(F)c4F)c4nc(c(-c5c(F)c(F)c(F)c(F)c5F)c5ccc2[nH]5)C=C4)C=C3)cc1)C1=Cc2cc(S(F)(F)(F)(F)F)cc(Br)c2O[C@H]1C(F)(F)F
REMARK SMILES IDX 10 1 9 2 8 3 7 4 6 5 5 6 4 7 3 8 2 9 1 10 81 11 82 12 97 13
REMARK SMILES IDX 83 14 96 15 84 16 95 17 85 18 93 19 92 20 94 21 98 22 99 23
REMARK SMILES IDX 100 24 101 25 86 26 87 27 88 28 89 29 90 30 91 31 11 32
REMARK SMILES IDX 12 33 13 34 14 35 15 36 16 37 17 38 18 39 19 40 80 41 20 42
REMARK SMILES IDX 79 43 21 44 22 45 23 46 73 47 24 48 78 49 72 50 74 51 25 52
REMARK SMILES IDX 77 53 71 54 70 55 26 57 58 58 38 59 57 60 39 61 42 62 56 63
REMARK SMILES IDX 75 64 40 65 41 66 55 68 76 69 43 70 27 71 28 72 36 73 29 74
REMARK SMILES IDX 30 75 34 76 37 77 31 78 32 79 35 80 33 81 59 82 60 83 68 84
REMARK SMILES IDX 61 85 62 86 66 87 69 88 63 89 64 90 67 91 65 92 44 93 45 94
REMARK SMILES IDX 53 95 46 96 47 97 51 98 54 99 48 100 49 101 52 102 50 103
REMARK H PARENT 74 56 42 67
REMARK Flexibility Score: inf
ROOT
ATOM      1  C   UNL     1       4.455   1.899  -2.131  1.00  0.00     0.188 C 
ENDROOT
BRANCH   1   2
ATOM      2  O   UNL     1       3.035   1.899  -2.131  1.00  0.00    -0.377 OA
BRANCH   2   3
ATOM      3  C   UNL     1       2.561   2.402  -0.890  1.00  0.00     0.188 C 
BRANCH   3   4
ATOM      4  C   UNL     1       3.068   1.521   0.240  1.00  0.00     0.188 C 
BRANCH   4   5
ATOM      5  O   UNL     1       4.488   1.521   0.240  1.00  0.00    -0.376 OA
BRANCH   5   6
ATOM      6  C   UNL     1       4.961   1.018  -1.001  1.00  0.00     0.202 C 
BRANCH   6   7
ATOM      7  C   UNL     1       4.455  -0.402  -1.199  1.00  0.00     0.261 C 
BRANCH   7   8
ATOM      8  O   UNL     1       3.035  -0.402  -1.199  1.00  0.00    -0.460 OA
BRANCH   8   9
ATOM      9  C   UNL     1       2.325   0.060  -0.059  1.00  0.00     0.338 C 
ATOM     10  O   UNL     1       1.054   0.060  -0.059  1.00  0.00    -0.246 OA
BRANCH   9  11
ATOM     11  C   UNL     1       3.085   0.555   1.161  1.00  0.00     0.087 C 
ATOM     12  C   UNL     1       4.445   0.555   1.161  1.00  0.00     0.027 C 
ATOM     13  C   UNL     1       2.325   1.049   2.381  1.00  0.00     0.316 C 
ATOM     14  C   UNL     1       5.205   0.060  -0.059  1.00  0.00     0.020 A 
ATOM     15  O   UNL     1       3.693   1.244  -1.459  1.00  0.00    -0.474 OA
ATOM     16  C   UNL     1       6.228  -0.851   0.142  1.00  0.00     0.036 A 
ATOM     17  C   UNL     1       4.847   0.435  -1.281  1.00  0.00     0.142 A 
ATOM     18  C   UNL     1       7.013  -1.096  -1.010  1.00  0.00     0.109 A 
ATOM     19  C   UNL     1       5.582   0.047  -2.375  1.00  0.00     0.062 A 
ATOM     20  C   UNL     1       6.642  -0.805  -2.244  1.00  0.00     0.044 A 
ATOM     21  Br  UNL     1       5.103   0.726  -4.151  1.00  0.00    -0.047 Br
BRANCH  13  22
ATOM     22  C   UNL     1       0.830   0.945   2.124  1.00  0.00     0.430 C 
ATOM     23  F   UNL     1       0.623   0.406   0.925  1.00  0.00    -0.167 F 
ATOM     24  F   UNL     1       0.272   0.178   3.056  1.00  0.00    -0.167 F 
ATOM     25  F   UNL     1       0.288   2.158   2.164  1.00  0.00    -0.167 F 
ENDBRANCH  13  22
BRANCH  18  26
ATOM     26  S   UNL     1       8.637  -1.859  -0.776  1.00  0.00     0.310 S 
ATOM     27  F   UNL     1       8.476  -1.861   0.802  1.00  0.00    -0.094 F 
ATOM     28  F   UNL     1       9.268  -0.422  -0.641  1.00  0.00    -0.094 F 
ATOM     29  F   UNL     1      10.030  -2.520  -0.573  1.00  0.00    -0.094 F 
ATOM     30  F   UNL     1       7.967  -3.290  -0.773  1.00  0.00    -0.094 F 
ATOM     31  F   UNL     1       7.202  -1.203  -0.869  1.00  0.00    -0.094 F 
ENDBRANCH  18  26
ENDBRANCH   9  11
ENDBRANCH   8   9
ENDBRANCH   7   8
ENDBRANCH   6   7
ENDBRANCH   5   6
ENDBRANCH   4   5
ENDBRANCH   3   4
ENDBRANCH   2   3
ENDBRANCH   1   2
BRANCH   1  32
ATOM     32  C   UNL     1       4.961   3.318  -1.933  1.00  0.00     0.188 C 
BRANCH  32  33
ATOM     33  O   UNL     1       4.488   3.821  -0.692  1.00  0.00    -0.376 OA
BRANCH  33  34
ATOM     34  C   UNL     1       3.068   3.821  -0.692  1.00  0.00     0.202 C 
BRANCH  34  35
ATOM     35  C   UNL     1       2.561   4.702  -1.822  1.00  0.00     0.261 C 
BRANCH  35  36
ATOM     36  O   UNL     1       3.035   4.199  -3.063  1.00  0.00    -0.460 OA
BRANCH  36  37
ATOM     37  C   UNL     1       4.431   4.102  -3.304  1.00  0.00     0.338 C 
ATOM     38  O   UNL     1       5.257   4.465  -2.408  1.00  0.00    -0.246 OA
BRANCH  37  39
ATOM     39  C   UNL     1       4.937   3.564  -4.632  1.00  0.00     0.060 A 
ATOM     40  C   UNL     1       5.889   2.558  -4.585  1.00  0.00     0.016 A 
ATOM     41  C   UNL     1       4.412   3.962  -5.784  1.00  0.00     0.016 A 
ATOM     42  C   UNL     1       6.437   2.229  -5.847  1.00  0.00     0.010 A 
ATOM     43  C   UNL     1       4.908   3.495  -6.978  1.00  0.00     0.010 A 
ATOM     44  C   UNL     1       5.890   2.544  -7.007  1.00  0.00    -0.014 A 
BRANCH  44  45
ATOM     45  C   UNL     1       6.327   1.885  -8.305  1.00  0.00     0.031 A 
ATOM     46  C   UNL     1       6.844   2.672  -9.335  1.00  0.00     0.074 A 
ATOM     47  C   UNL     1       6.045   0.535  -8.429  1.00  0.00     0.049 A 
ATOM     48  N   UNL     1       7.180   2.283 -10.566  1.00  0.00    -0.248 NA
ATOM     49  C   UNL     1       7.113   4.113  -9.217  1.00  0.00     0.031 C 
ATOM     50  C   UNL     1       5.532  -0.267  -7.391  1.00  0.00     0.029 A 
ATOM     51  N   UNL     1       6.200  -0.262  -9.541  1.00  0.00    -0.354 N 
ATOM     52  C   UNL     1       7.657   3.317 -11.262  1.00  0.00     0.074 A 
ATOM     53  C   UNL     1       7.615   4.510 -10.406  1.00  0.00     0.031 C 
ATOM     54  C   UNL     1       5.369  -1.527  -7.874  1.00  0.00     0.029 A 
ATOM     55  C   UNL     1       5.779  -1.534  -9.221  1.00  0.00     0.049 A 
ATOM     56  H   UNL     1       6.552   0.027 -10.414  1.00  0.00     0.167 HD
ATOM     57  C   UNL     1       8.128   3.311 -12.576  1.00  0.00     0.037 A 
ATOM     58  C   UNL     1       5.744  -2.648 -10.044  1.00  0.00     0.037 A 
ATOM     59  C   UNL     1       8.133   2.186 -13.386  1.00  0.00     0.049 A 
ATOM     60  C   UNL     1       6.160  -2.641 -11.377  1.00  0.00     0.074 A 
ATOM     61  C   UNL     1       8.611   2.160 -14.710  1.00  0.00     0.029 A 
ATOM     62  N   UNL     1       7.688   0.920 -13.074  1.00  0.00    -0.354 N 
ATOM     63  N   UNL     1       6.673  -1.617 -12.060  1.00  0.00    -0.248 NA
ATOM     64  C   UNL     1       6.097  -3.807 -12.268  1.00  0.00     0.031 C 
ATOM     65  C   UNL     1       8.448   0.900 -15.193  1.00  0.00     0.029 A 
ATOM     66  C   UNL     1       7.865   0.117 -14.179  1.00  0.00     0.049 A 
ATOM     67  H   UNL     1       7.309   0.638 -12.210  1.00  0.00     0.167 HD
ATOM     68  C   UNL     1       6.971  -1.997 -13.304  1.00  0.00     0.074 A 
ATOM     69  C   UNL     1       6.598  -3.410 -13.458  1.00  0.00     0.031 C 
ATOM     70  C   UNL     1       7.542  -1.224 -14.317  1.00  0.00     0.037 A 
BRANCH  57  71
ATOM     71  C   UNL     1       8.665   4.611 -13.152  1.00  0.00     0.064 A 
ATOM     72  C   UNL     1       9.780   5.263 -12.653  1.00  0.00     0.173 A 
ATOM     73  C   UNL     1       8.028   5.059 -14.228  1.00  0.00     0.173 A 
ATOM     74  F   UNL     1      10.591   4.724 -11.748  1.00  0.00    -0.203 F 
ATOM     75  C   UNL     1       9.979   6.555 -13.195  1.00  0.00     0.198 A 
ATOM     76  C   UNL     1       8.366   6.268 -14.787  1.00  0.00     0.198 A 
ATOM     77  F   UNL     1       7.056   4.331 -14.770  1.00  0.00    -0.203 F 
ATOM     78  F   UNL     1      10.784   7.385 -12.538  1.00  0.00    -0.200 F 
ATOM     79  C   UNL     1       9.420   6.995 -14.308  1.00  0.00     0.200 A 
ATOM     80  F   UNL     1       7.656   6.738 -15.809  1.00  0.00    -0.200 F 
ATOM     81  F   UNL     1       9.859   8.086 -14.929  1.00  0.00    -0.200 F 
ENDBRANCH  57  71
BRANCH  58  82
ATOM     82  C   UNL     1       5.222  -3.952  -9.462  1.00  0.00     0.064 A 
ATOM     83  C   UNL     1       5.973  -5.116  -9.506  1.00  0.00     0.173 A 
ATOM     84  C   UNL     1       3.975  -3.954  -9.008  1.00  0.00     0.173 A 
ATOM     85  F   UNL     1       7.287  -5.124  -9.709  1.00  0.00    -0.203 F 
ATOM     86  C   UNL     1       5.214  -6.295  -9.314  1.00  0.00     0.198 A 
ATOM     87  C   UNL     1       3.340  -5.136  -8.711  1.00  0.00     0.198 A 
ATOM     88  F   UNL     1       3.334  -2.801  -8.838  1.00  0.00    -0.203 F 
ATOM     89  F   UNL     1       5.759  -7.449  -9.689  1.00  0.00    -0.200 F 
ATOM     90  C   UNL     1       4.003  -6.329  -8.788  1.00  0.00     0.200 A 
ATOM     91  F   UNL     1       2.062  -5.119  -8.343  1.00  0.00    -0.200 F 
ATOM     92  F   UNL     1       3.458  -7.463  -8.358  1.00  0.00    -0.200 F 
ENDBRANCH  58  82
BRANCH  70  93
ATOM     93  C   UNL     1       7.827  -1.893 -15.651  1.00  0.00     0.064 A 
ATOM     94  C   UNL     1       6.727  -2.314 -16.380  1.00  0.00     0.173 A 
ATOM     95  C   UNL     1       9.054  -1.964 -16.154  1.00  0.00     0.173 A 
ATOM     96  F   UNL     1       5.475  -2.034 -16.030  1.00  0.00    -0.203 F 
ATOM     97  C   UNL     1       7.056  -3.069 -17.531  1.00  0.00     0.198 A 
ATOM     98  C   UNL     1       9.285  -2.598 -17.350  1.00  0.00     0.198 A 
ATOM     99  F   UNL     1      10.069  -1.415 -15.492  1.00  0.00    -0.203 F 
ATOM    100  F   UNL     1       6.097  -3.807 -18.082  1.00  0.00    -0.200 F 
ATOM    101  C   UNL     1       8.250  -3.091 -18.096  1.00  0.00     0.200 A 
ATOM    102  F   UNL     1      10.532  -2.735 -17.790  1.00  0.00    -0.200 F 
ATOM    103  F   UNL     1       8.435  -3.566 -19.324  1.00  0.00    -0.200 F 
ENDBRANCH  70  93
ENDBRANCH  44  45
ENDBRANCH  37  39
ENDBRANCH  36  37
ENDBRANCH  35  36
ENDBRANCH  34  35
ENDBRANCH  33  34
ENDBRANCH  32  33
ENDBRANCH   1  32
TORSDOF 22
