REMARK SMILES CCCCCCNC(=O)Oc1cccc(-c2ccc([C@@H](C)C(=O)OCCOCCOCCOCCOC(=O)c3ccc(-c4c5nc(c(-c6c(F)c(F)c(F)c(F)c6F)c6ccc([nH]6)c(-c6c(F)c(F)c(F)c(F)c6F)c6nc(c(-c7c(F)c(F)c(F)c(F)c7F)c7ccc4[nH]7)C=C6)C=C5)cc3)cc2)c1
REMARK SMILES IDX 26 1 25 2 24 3 22 4 23 5 20 6 21 7 19 8 16 9 17 10 103 11
REMARK SMILES IDX 18 12 102 13 15 14 11 15 12 16 104 17 13 18 14 19 10 20 8 21
REMARK SMILES IDX 7 22 9 24 6 25 5 26 4 27 3 28 2 29 1 30 27 31 28 32 29 33
REMARK SMILES IDX 30 34 31 35 32 36 33 37 34 38 35 39 36 40 37 41 38 42 39 43
REMARK SMILES IDX 40 44 101 45 41 46 100 47 42 48 43 49 44 50 94 51 45 52
REMARK SMILES IDX 99 53 93 54 95 55 46 56 98 57 92 58 91 59 47 61 79 62 59 63
REMARK SMILES IDX 78 64 60 65 63 66 77 67 96 68 61 69 62 70 76 72 97 73 64 74
REMARK SMILES IDX 48 75 49 76 57 77 50 78 51 79 55 80 58 81 52 82 53 83 56 84
REMARK SMILES IDX 54 85 80 86 81 87 89 88 82 89 83 90 87 91 90 92 84 93 85 94
REMARK SMILES IDX 88 95 86 96 65 97 66 98 74 99 67 100 68 101 72 102 75 103
REMARK SMILES IDX 69 104 70 105 73 106 71 107
REMARK H PARENT 7 23 95 60 63 71
REMARK Flexibility Score: inf
ROOT
ATOM      1  C   UNL     1      -1.416  14.407   6.206  1.00  0.00     0.202 C 
ENDROOT
BRANCH   1   2
ATOM      2  C   UNL     1      -2.909  14.726   6.417  1.00  0.00     0.261 C 
BRANCH   2   3
ATOM      3  O   UNL     1      -3.866  13.805   5.851  1.00  0.00    -0.463 OA
BRANCH   3   4
ATOM      4  C   UNL     1      -4.515  14.225   4.740  1.00  0.00     0.313 C 
ATOM      5  O   UNL     1      -4.342  15.335   4.239  1.00  0.00    -0.252 OA
BRANCH   4   6
ATOM      6  C   UNL     1      -5.527  13.249   4.138  1.00  0.00     0.126 C 
ATOM      7  C   UNL     1      -6.928  13.793   4.395  1.00  0.00     0.025 C 
BRANCH   6   8
ATOM      8  C   UNL     1      -5.457  11.746   4.415  1.00  0.00    -0.034 A 
ATOM      9  C   UNL     1      -5.289   8.905   4.797  1.00  0.00    -0.018 A 
ATOM     10  C   UNL     1      -5.441   9.790   5.880  1.00  0.00     0.009 A 
ATOM     11  C   UNL     1      -5.221   9.468   3.517  1.00  0.00     0.009 A 
ATOM     12  C   UNL     1      -5.528  11.185   5.696  1.00  0.00     0.005 A 
ATOM     13  C   UNL     1      -5.314  10.857   3.329  1.00  0.00     0.005 A 
BRANCH   9  14
ATOM     14  C   UNL     1      -5.275   7.436   4.984  1.00  0.00    -0.015 A 
ATOM     15  C   UNL     1      -4.301   5.229   4.642  1.00  0.00     0.133 A 
ATOM     16  C   UNL     1      -5.389   4.620   5.263  1.00  0.00     0.047 A 
ATOM     17  C   UNL     1      -4.237   6.620   4.491  1.00  0.00     0.056 A 
ATOM     18  C   UNL     1      -6.419   5.411   5.760  1.00  0.00     0.004 A 
ATOM     19  C   UNL     1      -6.361   6.802   5.620  1.00  0.00     0.009 A 
BRANCH  15  20
ATOM     20  O   UNL     1      -3.357   4.360   4.058  1.00  0.00    -0.410 OA
BRANCH  20  21
ATOM     21  C   UNL     1      -2.020   4.484   4.406  1.00  0.00     0.412 C 
ATOM     22  N   UNL     1      -1.215   3.540   3.824  1.00  0.00    -0.321 N 
ATOM     23  H   UNL     1      -0.250   3.623   3.998  1.00  0.00     0.167 HD
ATOM     24  O   UNL     1      -1.553   5.326   5.165  1.00  0.00    -0.224 OA
BRANCH  22  25
ATOM     25  C   UNL     1      -1.626   2.433   2.980  1.00  0.00     0.119 C 
BRANCH  25  26
ATOM     26  C   UNL     1      -1.012   2.505   1.581  1.00  0.00     0.021 C 
BRANCH  26  27
ATOM     27  C   UNL     1       0.517   2.382   1.535  1.00  0.00     0.002 C 
BRANCH  27  28
ATOM     28  C   UNL     1       1.096   1.065   2.066  1.00  0.00    -0.000 C 
BRANCH  28  29
ATOM     29  C   UNL     1       0.631  -0.201   1.341  1.00  0.00    -0.003 C 
ATOM     30  C   UNL     1       1.039  -0.245  -0.123  1.00  0.00     0.004 C 
ENDBRANCH  28  29
ENDBRANCH  27  28
ENDBRANCH  26  27
ENDBRANCH  25  26
ENDBRANCH  22  25
ENDBRANCH  20  21
ENDBRANCH  15  20
ENDBRANCH   9  14
ENDBRANCH   6   8
ENDBRANCH   4   6
ENDBRANCH   3   4
ENDBRANCH   2   3
ENDBRANCH   1   2
BRANCH   1  31
ATOM     31  O   UNL     1      -0.906  14.109   4.915  1.00  0.00    -0.376 OA
BRANCH  31  32
ATOM     32  C   UNL     1      -1.506  13.101   4.112  1.00  0.00     0.188 C 
BRANCH  32  33
ATOM     33  C   UNL     1      -2.079  11.823   4.741  1.00  0.00     0.188 C 
BRANCH  33  34
ATOM     34  O   UNL     1      -2.102  11.807   6.154  1.00  0.00    -0.377 OA
BRANCH  34  35
ATOM     35  C   UNL     1      -1.097  11.036   6.791  1.00  0.00     0.188 C 
BRANCH  35  36
ATOM     36  C   UNL     1       0.321  11.108   6.195  1.00  0.00     0.188 C 
BRANCH  36  37
ATOM     37  O   UNL     1       0.382  10.805   4.806  1.00  0.00    -0.376 OA
BRANCH  37  38
ATOM     38  C   UNL     1       0.699   9.477   4.411  1.00  0.00     0.202 C 
BRANCH  38  39
ATOM     39  C   UNL     1      -0.301   8.358   4.750  1.00  0.00     0.261 C 
BRANCH  39  40
ATOM     40  O   UNL     1      -0.618   8.183   6.138  1.00  0.00    -0.460 OA
BRANCH  40  41
ATOM     41  C   UNL     1       0.389   7.898   6.990  1.00  0.00     0.338 C 
ATOM     42  O   UNL     1       1.559   7.733   6.721  1.00  0.00    -0.246 OA
BRANCH  41  43
ATOM     43  C   UNL     1      -0.136   8.055   8.367  1.00  0.00     0.060 A 
ATOM     44  C   UNL     1       0.473   8.993   9.211  1.00  0.00     0.016 A 
ATOM     45  C   UNL     1      -1.207   7.285   8.826  1.00  0.00     0.016 A 
ATOM     46  C   UNL     1       0.050   9.126  10.533  1.00  0.00     0.010 A 
ATOM     47  C   UNL     1      -1.615   7.401  10.161  1.00  0.00     0.010 A 
ATOM     48  C   UNL     1      -0.958   8.291  11.031  1.00  0.00    -0.014 A 
BRANCH  48  49
ATOM     49  C   UNL     1      -1.155   8.198  12.501  1.00  0.00     0.031 A 
ATOM     50  C   UNL     1      -0.483   7.071  13.239  1.00  0.00     0.074 A 
ATOM     51  C   UNL     1      -1.860   9.120  13.180  1.00  0.00     0.049 A 
ATOM     52  N   UNL     1      -0.506   6.774  14.513  1.00  0.00    -0.248 NA
ATOM     53  C   UNL     1       0.329   6.153  12.423  1.00  0.00     0.031 C 
ATOM     54  C   UNL     1      -2.515  10.285  12.593  1.00  0.00     0.029 A 
ATOM     55  N   UNL     1      -2.141   9.213  14.522  1.00  0.00    -0.354 N 
ATOM     56  C   UNL     1       0.279   5.636  14.649  1.00  0.00     0.074 A 
ATOM     57  C   UNL     1       0.737   5.274  13.326  1.00  0.00     0.031 C 
ATOM     58  C   UNL     1      -3.133  10.974  13.569  1.00  0.00     0.029 A 
ATOM     59  C   UNL     1      -2.942  10.281  14.843  1.00  0.00     0.049 A 
ATOM     60  H   UNL     1      -1.800   8.575  15.190  1.00  0.00     0.167 HD
ATOM     61  C   UNL     1       0.599   4.957  15.777  1.00  0.00     0.037 A 
ATOM     62  C   UNL     1      -3.476  10.642  16.027  1.00  0.00     0.037 A 
ATOM     63  C   UNL     1       0.141   5.316  17.093  1.00  0.00     0.049 A 
ATOM     64  C   UNL     1      -3.170   9.823  17.258  1.00  0.00     0.074 A 
ATOM     65  C   UNL     1       0.420   4.700  18.301  1.00  0.00     0.029 A 
ATOM     66  N   UNL     1      -0.704   6.380  17.373  1.00  0.00    -0.354 N 
ATOM     67  N   UNL     1      -2.407   8.764  17.384  1.00  0.00    -0.248 NA
ATOM     68  C   UNL     1      -3.796  10.258  18.516  1.00  0.00     0.031 C 
ATOM     69  C   UNL     1      -0.307   5.352  19.302  1.00  0.00     0.029 A 
ATOM     70  C   UNL     1      -0.981   6.420  18.730  1.00  0.00     0.049 A 
ATOM     71  H   UNL     1      -1.054   7.013  16.706  1.00  0.00     0.167 HD
ATOM     72  C   UNL     1      -2.434   8.428  18.733  1.00  0.00     0.074 A 
ATOM     73  C   UNL     1      -3.277   9.406  19.388  1.00  0.00     0.031 C 
ATOM     74  C   UNL     1      -1.816   7.403  19.372  1.00  0.00     0.037 A 
BRANCH  61  75
ATOM     75  C   UNL     1       1.458   3.734  15.630  1.00  0.00     0.064 A 
ATOM     76  C   UNL     1       2.812   3.816  15.269  1.00  0.00     0.173 A 
ATOM     77  C   UNL     1       0.924   2.461  15.881  1.00  0.00     0.173 A 
ATOM     78  F   UNL     1       3.369   5.008  15.002  1.00  0.00    -0.203 F 
ATOM     79  C   UNL     1       3.590   2.668  15.136  1.00  0.00     0.198 A 
ATOM     80  C   UNL     1       1.714   1.319  15.781  1.00  0.00     0.198 A 
ATOM     81  F   UNL     1      -0.363   2.324  16.232  1.00  0.00    -0.203 F 
ATOM     82  F   UNL     1       4.866   2.767  14.738  1.00  0.00    -0.200 F 
ATOM     83  C   UNL     1       3.042   1.422  15.400  1.00  0.00     0.200 A 
ATOM     84  F   UNL     1       1.186   0.116  16.051  1.00  0.00    -0.200 F 
ATOM     85  F   UNL     1       3.794   0.319  15.281  1.00  0.00    -0.200 F 
ENDBRANCH  61  75
BRANCH  62  86
ATOM     86  C   UNL     1      -4.372  11.827  16.113  1.00  0.00     0.064 A 
ATOM     87  C   UNL     1      -4.000  12.970  16.836  1.00  0.00     0.173 A 
ATOM     88  C   UNL     1      -5.635  11.828  15.501  1.00  0.00     0.173 A 
ATOM     89  F   UNL     1      -2.816  13.009  17.464  1.00  0.00    -0.203 F 
ATOM     90  C   UNL     1      -4.865  14.056  16.962  1.00  0.00     0.198 A 
ATOM     91  C   UNL     1      -6.484  12.928  15.600  1.00  0.00     0.198 A 
ATOM     92  F   UNL     1      -6.043  10.759  14.802  1.00  0.00    -0.203 F 
ATOM     93  F   UNL     1      -4.507  15.111  17.707  1.00  0.00    -0.200 F 
ATOM     94  C   UNL     1      -6.103  14.037  16.339  1.00  0.00     0.200 A 
ATOM     95  F   UNL     1      -7.676  12.909  14.986  1.00  0.00    -0.200 F 
ATOM     96  F   UNL     1      -6.934  15.081  16.461  1.00  0.00    -0.200 F 
ENDBRANCH  62  86
BRANCH  74  97
ATOM     97  C   UNL     1      -1.986   7.312  20.864  1.00  0.00     0.064 A 
ATOM     98  C   UNL     1      -3.213   6.975  21.454  1.00  0.00     0.173 A 
ATOM     99  C   UNL     1      -0.892   7.535  21.716  1.00  0.00     0.173 A 
ATOM    100  F   UNL     1      -4.294   6.761  20.688  1.00  0.00    -0.203 F 
ATOM    101  C   UNL     1      -3.348   6.900  22.838  1.00  0.00     0.198 A 
ATOM    102  C   UNL     1      -1.021   7.423  23.098  1.00  0.00     0.198 A 
ATOM    103  F   UNL     1       0.309   7.850  21.207  1.00  0.00    -0.203 F 
ATOM    104  F   UNL     1      -4.545   6.636  23.380  1.00  0.00    -0.200 F 
ATOM    105  C   UNL     1      -2.251   7.117  23.658  1.00  0.00     0.200 A 
ATOM    106  F   UNL     1       0.046   7.613  23.887  1.00  0.00    -0.200 F 
ATOM    107  F   UNL     1      -2.381   7.039  24.990  1.00  0.00    -0.200 F 
ENDBRANCH  74  97
ENDBRANCH  48  49
ENDBRANCH  41  43
ENDBRANCH  40  41
ENDBRANCH  39  40
ENDBRANCH  38  39
ENDBRANCH  37  38
ENDBRANCH  36  37
ENDBRANCH  35  36
ENDBRANCH  34  35
ENDBRANCH  33  34
ENDBRANCH  32  33
ENDBRANCH  31  32
ENDBRANCH   1  31
TORSDOF 29
