REMARK SMILES COC(=O)[C@H]1CCN(S(=O)(=O)N2CCC[C@H](C(=O)OCCOCCOCCOCCOC(=O)c3ccc(-c4c5nc(c(-c6c(F)c(F)c(F)c(F)c6F)c6ccc([nH]6)c(-c6c(F)c(F)c(F)c(F)c6F)c6nc(c(-c7c(F)c(F)c(F)c(F)c7F)c7ccc4[nH]7)C=C6)C=C5)cc3)C2)C1
REMARK SMILES IDX 24 1 23 2 22 3 21 4 20 5 19 6 17 7 18 8 16 9 12 10 13 11
REMARK SMILES IDX 97 12 14 13 15 14 9 15 10 16 11 17 8 18 5 19 6 20 98 21 7 22
REMARK SMILES IDX 3 23 4 24 2 25 1 26 25 27 26 28 27 29 28 30 29 31 30 32
REMARK SMILES IDX 31 33 32 34 33 35 34 36 35 37 96 38 36 39 95 40 37 41 38 42
REMARK SMILES IDX 39 43 89 44 40 45 94 46 88 47 90 48 41 49 93 50 87 51 86 52
REMARK SMILES IDX 42 54 74 55 54 56 73 57 55 58 58 59 72 60 91 61 56 62 57 63
REMARK SMILES IDX 71 65 92 66 59 67 43 68 44 69 52 70 45 71 46 72 50 73 53 74
REMARK SMILES IDX 47 75 48 76 51 77 49 78 75 79 76 80 84 81 77 82 78 83 82 84
REMARK SMILES IDX 85 85 79 86 80 87 83 88 81 89 60 90 61 91 69 92 62 93 63 94
REMARK SMILES IDX 67 95 70 96 64 97 65 98 68 99 66 100
REMARK H PARENT 90 53 58 64
REMARK Flexibility Score: inf
ROOT
ATOM      1  C   UNL     1      -2.635  11.112  -4.178  1.00  0.00     0.188 C 
ENDROOT
BRANCH   1   2
ATOM      2  C   UNL     1      -3.788  10.264  -4.737  1.00  0.00     0.188 C 
BRANCH   2   3
ATOM      3  O   UNL     1      -5.065  10.586  -4.245  1.00  0.00    -0.376 OA
BRANCH   3   4
ATOM      4  C   UNL     1      -5.645   9.910  -3.144  1.00  0.00     0.202 C 
BRANCH   4   5
ATOM      5  C   UNL     1      -4.881   9.160  -2.035  1.00  0.00     0.261 C 
BRANCH   5   6
ATOM      6  O   UNL     1      -3.472   9.373  -1.918  1.00  0.00    -0.463 OA
BRANCH   6   7
ATOM      7  C   UNL     1      -2.713   8.414  -2.487  1.00  0.00     0.310 C 
ATOM      8  O   UNL     1      -3.172   7.468  -3.128  1.00  0.00    -0.252 OA
BRANCH   7   9
ATOM      9  C   UNL     1      -1.215   8.555  -2.296  1.00  0.00     0.114 C 
ATOM     10  N   UNL     1      -1.200   7.663  -0.011  1.00  0.00    -0.188 NA
ATOM     11  C   UNL     1      -0.507   8.837   0.562  1.00  0.00     0.103 C 
ATOM     12  C   UNL     1      -0.843   7.388  -1.417  1.00  0.00     0.118 C 
ATOM     13  C   UNL     1      -0.796  10.071  -0.288  1.00  0.00     0.018 C 
ATOM     14  C   UNL     1      -0.518   9.807  -1.759  1.00  0.00     0.018 C 
BRANCH  10  15
ATOM     15  S   UNL     1      -1.376   6.320   0.984  1.00  0.00     0.282 S 
ATOM     16  O   UNL     1      -2.306   5.403   0.379  1.00  0.00    -0.195 OA
ATOM     17  O   UNL     1      -1.561   6.796   2.339  1.00  0.00    -0.195 OA
BRANCH  15  18
ATOM     18  N   UNL     1       0.176   5.634   0.869  1.00  0.00    -0.188 NA
ATOM     19  C   UNL     1       1.041   3.453   1.425  1.00  0.00     0.116 C 
ATOM     20  C   UNL     1       0.386   3.397   0.062  1.00  0.00     0.033 C 
ATOM     21  C   UNL     1       0.518   4.750   2.030  1.00  0.00     0.118 C 
ATOM     22  C   UNL     1       0.478   4.843  -0.361  1.00  0.00     0.104 C 
BRANCH  19  23
ATOM     23  C   UNL     1       0.720   2.301   2.330  1.00  0.00     0.310 C 
ATOM     24  O   UNL     1       1.551   1.774   3.057  1.00  0.00    -0.252 OA
BRANCH  23  25
ATOM     25  O   UNL     1      -0.604   1.996   2.302  1.00  0.00    -0.469 OA
ATOM     26  C   UNL     1      -1.003   1.037   3.278  1.00  0.00     0.282 C 
ENDBRANCH  23  25
ENDBRANCH  19  23
ENDBRANCH  15  18
ENDBRANCH  10  15
ENDBRANCH   7   9
ENDBRANCH   6   7
ENDBRANCH   5   6
ENDBRANCH   4   5
ENDBRANCH   3   4
ENDBRANCH   2   3
ENDBRANCH   1   2
BRANCH   1  27
ATOM     27  O   UNL     1      -2.773  11.724  -2.904  1.00  0.00    -0.377 OA
BRANCH  27  28
ATOM     28  C   UNL     1      -3.836  12.636  -2.649  1.00  0.00     0.188 C 
BRANCH  28  29
ATOM     29  C   UNL     1      -4.548  13.343  -3.818  1.00  0.00     0.188 C 
BRANCH  29  30
ATOM     30  O   UNL     1      -3.837  13.336  -5.040  1.00  0.00    -0.376 OA
BRANCH  30  31
ATOM     31  C   UNL     1      -2.992  14.437  -5.337  1.00  0.00     0.202 C 
BRANCH  31  32
ATOM     32  C   UNL     1      -1.909  14.831  -4.317  1.00  0.00     0.261 C 
BRANCH  32  33
ATOM     33  O   UNL     1      -2.370  15.204  -3.006  1.00  0.00    -0.460 OA
BRANCH  33  34
ATOM     34  C   UNL     1      -3.254  16.219  -2.920  1.00  0.00     0.338 C 
ATOM     35  O   UNL     1      -3.670  16.918  -3.825  1.00  0.00    -0.246 OA
BRANCH  34  36
ATOM     36  C   UNL     1      -3.801  16.233  -1.548  1.00  0.00     0.060 A 
ATOM     37  C   UNL     1      -5.173  16.018  -1.369  1.00  0.00     0.016 A 
ATOM     38  C   UNL     1      -2.975  16.497  -0.453  1.00  0.00     0.016 A 
ATOM     39  C   UNL     1      -5.734  16.119  -0.099  1.00  0.00     0.010 A 
ATOM     40  C   UNL     1      -3.544  16.619   0.819  1.00  0.00     0.010 A 
ATOM     41  C   UNL     1      -4.932  16.476   0.993  1.00  0.00    -0.014 A 
BRANCH  41  42
ATOM     42  C   UNL     1      -5.593  16.894   2.253  1.00  0.00     0.031 A 
ATOM     43  C   UNL     1      -5.764  18.366   2.520  1.00  0.00     0.074 A 
ATOM     44  C   UNL     1      -6.099  15.986   3.107  1.00  0.00     0.049 A 
ATOM     45  N   UNL     1      -6.340  18.968   3.529  1.00  0.00    -0.248 NA
ATOM     46  C   UNL     1      -5.213  19.284   1.510  1.00  0.00     0.031 C 
ATOM     47  C   UNL     1      -6.033  14.537   2.936  1.00  0.00     0.029 A 
ATOM     48  N   UNL     1      -6.775  16.157   4.289  1.00  0.00    -0.354 N 
ATOM     49  C   UNL     1      -6.211  20.329   3.280  1.00  0.00     0.074 A 
ATOM     50  C   UNL     1      -5.477  20.467   2.042  1.00  0.00     0.031 C 
ATOM     51  C   UNL     1      -6.645  13.948   3.978  1.00  0.00     0.029 A 
ATOM     52  C   UNL     1      -7.118  14.977   4.902  1.00  0.00     0.049 A 
ATOM     53  H   UNL     1      -6.994  17.041   4.662  1.00  0.00     0.167 HD
ATOM     54  C   UNL     1      -6.670  21.369   4.016  1.00  0.00     0.037 A 
ATOM     55  C   UNL     1      -7.728  14.758   6.083  1.00  0.00     0.037 A 
ATOM     56  C   UNL     1      -7.410  21.227   5.242  1.00  0.00     0.049 A 
ATOM     57  C   UNL     1      -8.173  15.940   6.911  1.00  0.00     0.074 A 
ATOM     58  C   UNL     1      -7.951  22.219   6.042  1.00  0.00     0.029 A 
ATOM     59  N   UNL     1      -7.701  20.017   5.854  1.00  0.00    -0.354 N 
ATOM     60  N   UNL     1      -8.089  17.221   6.646  1.00  0.00    -0.248 NA
ATOM     61  C   UNL     1      -8.809  15.639   8.202  1.00  0.00     0.031 C 
ATOM     62  C   UNL     1      -8.505  21.613   7.174  1.00  0.00     0.029 A 
ATOM     63  C   UNL     1      -8.380  20.240   7.042  1.00  0.00     0.049 A 
ATOM     64  H   UNL     1      -7.461  19.131   5.498  1.00  0.00     0.167 HD
ATOM     65  C   UNL     1      -8.691  17.875   7.715  1.00  0.00     0.074 A 
ATOM     66  C   UNL     1      -9.157  16.846   8.621  1.00  0.00     0.031 C 
ATOM     67  C   UNL     1      -8.845  19.206   7.931  1.00  0.00     0.037 A 
BRANCH  54  68
ATOM     68  C   UNL     1      -6.354  22.759   3.539  1.00  0.00     0.064 A 
ATOM     69  C   UNL     1      -6.947  23.306   2.391  1.00  0.00     0.173 A 
ATOM     70  C   UNL     1      -5.480  23.573   4.277  1.00  0.00     0.173 A 
ATOM     71  F   UNL     1      -7.777  22.567   1.641  1.00  0.00    -0.203 F 
ATOM     72  C   UNL     1      -6.660  24.610   1.990  1.00  0.00     0.198 A 
ATOM     73  C   UNL     1      -5.223  24.885   3.891  1.00  0.00     0.198 A 
ATOM     74  F   UNL     1      -4.888  23.099   5.383  1.00  0.00    -0.203 F 
ATOM     75  F   UNL     1      -7.203  25.098   0.866  1.00  0.00    -0.200 F 
ATOM     76  C   UNL     1      -5.807  25.400   2.745  1.00  0.00     0.200 A 
ATOM     77  F   UNL     1      -4.410  25.651   4.632  1.00  0.00    -0.200 F 
ATOM     78  F   UNL     1      -5.545  26.659   2.366  1.00  0.00    -0.200 F 
ENDBRANCH  54  68
BRANCH  55  79
ATOM     79  C   UNL     1      -7.946  13.370   6.574  1.00  0.00     0.064 A 
ATOM     80  C   UNL     1      -9.238  12.855   6.756  1.00  0.00     0.173 A 
ATOM     81  C   UNL     1      -6.865  12.549   6.929  1.00  0.00     0.173 A 
ATOM     82  F   UNL     1     -10.307  13.608   6.458  1.00  0.00    -0.203 F 
ATOM     83  C   UNL     1      -9.440  11.590   7.306  1.00  0.00     0.198 A 
ATOM     84  C   UNL     1      -7.067  11.270   7.445  1.00  0.00     0.198 A 
ATOM     85  F   UNL     1      -5.607  12.991   6.781  1.00  0.00    -0.203 F 
ATOM     86  F   UNL     1     -10.686  11.154   7.536  1.00  0.00    -0.200 F 
ATOM     87  C   UNL     1      -8.355  10.797   7.646  1.00  0.00     0.200 A 
ATOM     88  F   UNL     1      -6.015  10.504   7.762  1.00  0.00    -0.200 F 
ATOM     89  F   UNL     1      -8.550   9.585   8.183  1.00  0.00    -0.200 F 
ENDBRANCH  55  79
BRANCH  67  90
ATOM     90  C   UNL     1      -9.589  19.622   9.170  1.00  0.00     0.064 A 
ATOM     91  C   UNL     1      -9.064  19.421  10.456  1.00  0.00     0.173 A 
ATOM     92  C   UNL     1     -10.843  20.245   9.068  1.00  0.00     0.173 A 
ATOM     93  F   UNL     1      -7.873  18.822  10.614  1.00  0.00    -0.203 F 
ATOM     94  C   UNL     1      -9.786  19.783  11.591  1.00  0.00     0.198 A 
ATOM     95  C   UNL     1     -11.544  20.644  10.203  1.00  0.00     0.198 A 
ATOM     96  F   UNL     1     -11.389  20.476   7.864  1.00  0.00    -0.203 F 
ATOM     97  F   UNL     1      -9.296  19.513  12.808  1.00  0.00    -0.200 F 
ATOM     98  C   UNL     1     -11.022  20.398  11.463  1.00  0.00     0.200 A 
ATOM     99  F   UNL     1     -12.728  21.258  10.076  1.00  0.00    -0.200 F 
ATOM    100  F   UNL     1     -11.715  20.746  12.556  1.00  0.00    -0.200 F 
ENDBRANCH  67  90
ENDBRANCH  41  42
ENDBRANCH  34  36
ENDBRANCH  33  34
ENDBRANCH  32  33
ENDBRANCH  31  32
ENDBRANCH  30  31
ENDBRANCH  29  30
ENDBRANCH  28  29
ENDBRANCH  27  28
ENDBRANCH   1  27
TORSDOF 24
