REMARK SMILES O=C(OCCOCCOCCOCCOC(=O)c1cc(F)c(F)cc1NS(=O)(=O)c1ccc2c(c1)CCC2)c1ccc(-c2c3nc(c(-c4c(F)c(F)c(F)c(F)c4F)c4ccc([nH]4)c(-c4c(F)c(F)c(F)c(F)c4F)c4nc(c(-c5c(F)c(F)c(F)c(F)c5F)c5ccc2[nH]5)C=C4)C=C3)cc1
REMARK SMILES IDX 10 1 9 2 8 3 7 4 6 5 5 6 4 7 3 8 2 9 1 10 39 11 40 12 101 13
REMARK SMILES IDX 41 14 100 15 42 16 43 17 44 18 94 19 45 20 99 21 93 22 95 23
REMARK SMILES IDX 46 24 98 25 92 26 91 27 47 29 79 30 59 31 78 32 60 33 63 34
REMARK SMILES IDX 77 35 96 36 61 37 62 38 76 40 97 41 64 42 48 43 49 44 57 45
REMARK SMILES IDX 50 46 51 47 55 48 58 49 52 50 53 51 56 52 54 53 80 54 81 55
REMARK SMILES IDX 89 56 82 57 83 58 87 59 90 60 84 61 85 62 88 63 86 64 65 65
REMARK SMILES IDX 66 66 74 67 67 68 68 69 72 70 75 71 69 72 70 73 73 74 71 75
REMARK SMILES IDX 11 76 12 77 13 78 14 79 15 80 16 81 17 82 18 83 19 84 25 85
REMARK SMILES IDX 20 86 24 87 21 88 22 89 23 90 26 91 27 93 28 94 29 95 30 96
REMARK SMILES IDX 31 97 35 98 32 99 34 100 33 101 36 102 38 103 37 104
REMARK H PARENT 95 28 63 39 26 92
REMARK Flexibility Score: inf
ROOT
ATOM      1  C   UNL     1       3.596   3.643  -0.752  1.00  0.00     0.188 C 
ENDROOT
BRANCH   1   2
ATOM      2  O   UNL     1       2.171   3.638  -0.755  1.00  0.00    -0.377 OA
BRANCH   2   3
ATOM      3  C   UNL     1       1.544   2.471  -0.227  1.00  0.00     0.188 C 
BRANCH   3   4
ATOM      4  C   UNL     1       1.986   1.182  -0.911  1.00  0.00     0.188 C 
BRANCH   4   5
ATOM      5  O   UNL     1       3.321   0.858  -0.506  1.00  0.00    -0.376 OA
BRANCH   5   6
ATOM      6  C   UNL     1       4.133   0.278  -1.527  1.00  0.00     0.202 C 
BRANCH   6   7
ATOM      7  C   UNL     1       4.064  -1.250  -1.553  1.00  0.00     0.261 C 
BRANCH   7   8
ATOM      8  O   UNL     1       2.745  -1.734  -1.253  1.00  0.00    -0.460 OA
BRANCH   8   9
ATOM      9  C   UNL     1       2.200  -1.984  -0.036  1.00  0.00     0.338 C 
ATOM     10  O   UNL     1       1.022  -2.341   0.006  1.00  0.00    -0.246 OA
BRANCH   9  11
ATOM     11  C   UNL     1       2.943  -1.905   1.265  1.00  0.00     0.060 A 
ATOM     12  C   UNL     1       4.110  -1.177   1.505  1.00  0.00     0.016 A 
ATOM     13  C   UNL     1       2.387  -2.614   2.349  1.00  0.00     0.016 A 
ATOM     14  C   UNL     1       4.763  -1.228   2.729  1.00  0.00     0.010 A 
ATOM     15  C   UNL     1       3.018  -2.648   3.596  1.00  0.00     0.010 A 
ATOM     16  C   UNL     1       4.238  -1.990   3.768  1.00  0.00    -0.014 A 
BRANCH  16  17
ATOM     17  C   UNL     1       5.102  -2.229   4.936  1.00  0.00     0.031 A 
ATOM     18  C   UNL     1       5.851  -3.526   4.991  1.00  0.00     0.074 A 
ATOM     19  C   UNL     1       5.341  -1.237   5.809  1.00  0.00     0.049 A 
ATOM     20  N   UNL     1       6.689  -3.964   5.891  1.00  0.00    -0.248 NA
ATOM     21  C   UNL     1       5.646  -4.448   3.860  1.00  0.00     0.031 C 
ATOM     22  C   UNL     1       4.762   0.104   5.731  1.00  0.00     0.029 A 
ATOM     23  N   UNL     1       6.168  -1.185   6.898  1.00  0.00    -0.354 N 
ATOM     24  C   UNL     1       7.088  -5.218   5.448  1.00  0.00     0.074 A 
ATOM     25  C   UNL     1       6.403  -5.477   4.203  1.00  0.00     0.031 C 
ATOM     26  C   UNL     1       5.280   0.860   6.712  1.00  0.00     0.029 A 
ATOM     27  C   UNL     1       6.175   0.038   7.522  1.00  0.00     0.049 A 
ATOM     28  H   UNL     1       6.706  -1.950   7.205  1.00  0.00     0.167 HD
ATOM     29  C   UNL     1       7.949  -6.074   6.041  1.00  0.00     0.037 A 
ATOM     30  C   UNL     1       6.819   0.431   8.637  1.00  0.00     0.037 A 
ATOM     31  C   UNL     1       8.620  -5.780   7.276  1.00  0.00     0.049 A 
ATOM     32  C   UNL     1       7.692  -0.574   9.338  1.00  0.00     0.074 A 
ATOM     33  C   UNL     1       9.462  -6.585   8.017  1.00  0.00     0.029 A 
ATOM     34  N   UNL     1       8.518  -4.568   7.948  1.00  0.00    -0.354 N 
ATOM     35  N   UNL     1       8.003  -1.795   8.968  1.00  0.00    -0.248 NA
ATOM     36  C   UNL     1       8.284  -0.167  10.618  1.00  0.00     0.031 C 
ATOM     37  C   UNL     1       9.833  -5.875   9.164  1.00  0.00     0.029 A 
ATOM     38  C   UNL     1       9.262  -4.610   9.112  1.00  0.00     0.049 A 
ATOM     39  H   UNL     1       7.994  -3.793   7.640  1.00  0.00     0.167 HD
ATOM     40  C   UNL     1       8.824  -2.303   9.963  1.00  0.00     0.074 A 
ATOM     41  C   UNL     1       8.981  -1.248  10.946  1.00  0.00     0.031 C 
ATOM     42  C   UNL     1       9.389  -3.532  10.062  1.00  0.00     0.037 A 
BRANCH  29  43
ATOM     43  C   UNL     1       8.132  -7.415   5.398  1.00  0.00     0.064 A 
ATOM     44  C   UNL     1       7.552  -8.555   5.976  1.00  0.00     0.173 A 
ATOM     45  C   UNL     1       8.841  -7.578   4.198  1.00  0.00     0.173 A 
ATOM     46  F   UNL     1       6.856  -8.452   7.119  1.00  0.00    -0.203 F 
ATOM     47  C   UNL     1       7.671  -9.805   5.376  1.00  0.00     0.198 A 
ATOM     48  C   UNL     1       8.936  -8.826   3.587  1.00  0.00     0.198 A 
ATOM     49  F   UNL     1       9.388  -6.516   3.588  1.00  0.00    -0.203 F 
ATOM     50  F   UNL     1       7.109 -10.878   5.950  1.00  0.00    -0.200 F 
ATOM     51  C   UNL     1       8.354  -9.939   4.177  1.00  0.00     0.200 A 
ATOM     52  F   UNL     1       9.566  -8.949   2.410  1.00  0.00    -0.200 F 
ATOM     53  F   UNL     1       8.439 -11.137   3.583  1.00  0.00    -0.200 F 
ENDBRANCH  29  43
BRANCH  30  54
ATOM     54  C   UNL     1       6.625   1.812   9.152  1.00  0.00     0.064 A 
ATOM     55  C   UNL     1       5.370   2.243   9.616  1.00  0.00     0.173 A 
ATOM     56  C   UNL     1       7.667   2.748   9.142  1.00  0.00     0.173 A 
ATOM     57  F   UNL     1       4.338   1.387   9.653  1.00  0.00    -0.203 F 
ATOM     58  C   UNL     1       5.157   3.562  10.011  1.00  0.00     0.198 A 
ATOM     59  C   UNL     1       7.459   4.062   9.564  1.00  0.00     0.198 A 
ATOM     60  F   UNL     1       8.890   2.385   8.732  1.00  0.00    -0.203 F 
ATOM     61  F   UNL     1       3.937   3.954  10.402  1.00  0.00    -0.200 F 
ATOM     62  C   UNL     1       6.202   4.471   9.985  1.00  0.00     0.200 A 
ATOM     63  F   UNL     1       8.477   4.934   9.559  1.00  0.00    -0.200 F 
ATOM     64  F   UNL     1       5.998   5.740  10.366  1.00  0.00    -0.200 F 
ENDBRANCH  30  54
BRANCH  42  65
ATOM     65  C   UNL     1      10.227  -3.808  11.272  1.00  0.00     0.064 A 
ATOM     66  C   UNL     1      11.620  -3.928  11.156  1.00  0.00     0.173 A 
ATOM     67  C   UNL     1       9.638  -4.077  12.514  1.00  0.00     0.173 A 
ATOM     68  F   UNL     1      12.224  -3.690   9.982  1.00  0.00    -0.203 F 
ATOM     69  C   UNL     1      12.391  -4.336  12.239  1.00  0.00     0.198 A 
ATOM     70  C   UNL     1      10.416  -4.460  13.602  1.00  0.00     0.198 A 
ATOM     71  F   UNL     1       8.310  -3.965  12.671  1.00  0.00    -0.203 F 
ATOM     72  F   UNL     1      13.715  -4.491  12.096  1.00  0.00    -0.200 F 
ATOM     73  C   UNL     1      11.789  -4.603  13.460  1.00  0.00     0.200 A 
ATOM     74  F   UNL     1       9.837  -4.701  14.786  1.00  0.00    -0.200 F 
ATOM     75  F   UNL     1      12.533  -5.002  14.500  1.00  0.00    -0.200 F 
ENDBRANCH  42  65
ENDBRANCH  16  17
ENDBRANCH   9  11
ENDBRANCH   8   9
ENDBRANCH   7   8
ENDBRANCH   6   7
ENDBRANCH   5   6
ENDBRANCH   4   5
ENDBRANCH   3   4
ENDBRANCH   2   3
ENDBRANCH   1   2
BRANCH   1  76
ATOM     76  C   UNL     1       4.303   3.472   0.606  1.00  0.00     0.188 C 
BRANCH  76  77
ATOM     77  O   UNL     1       3.417   3.676   1.697  1.00  0.00    -0.376 OA
BRANCH  77  78
ATOM     78  C   UNL     1       3.603   4.857   2.455  1.00  0.00     0.202 C 
BRANCH  78  79
ATOM     79  C   UNL     1       3.276   6.191   1.772  1.00  0.00     0.261 C 
BRANCH  79  80
ATOM     80  O   UNL     1       3.800   6.412   0.455  1.00  0.00    -0.460 OA
BRANCH  80  81
ATOM     81  C   UNL     1       5.117   6.670   0.248  1.00  0.00     0.340 C 
ATOM     82  O   UNL     1       6.012   6.683   1.050  1.00  0.00    -0.246 OA
BRANCH  81  83
ATOM     83  C   UNL     1       5.258   6.742  -1.234  1.00  0.00     0.087 A 
ATOM     84  C   UNL     1       4.394   7.607  -1.928  1.00  0.00     0.060 A 
ATOM     85  C   UNL     1       6.054   5.798  -1.924  1.00  0.00     0.066 A 
ATOM     86  C   UNL     1       4.290   7.508  -3.307  1.00  0.00     0.159 A 
ATOM     87  C   UNL     1       5.846   5.664  -3.304  1.00  0.00     0.070 A 
ATOM     88  F   UNL     1       3.473   8.336  -3.969  1.00  0.00    -0.204 F 
ATOM     89  C   UNL     1       4.992   6.528  -3.986  1.00  0.00     0.160 A 
ATOM     90  F   UNL     1       4.865   6.404  -5.314  1.00  0.00    -0.204 F 
BRANCH  85  91
ATOM     91  N   UNL     1       7.058   5.052  -1.219  1.00  0.00    -0.279 N 
ATOM     92  H   UNL     1       7.301   5.378  -0.322  1.00  0.00     0.180 HD
BRANCH  91  93
ATOM     93  S   UNL     1       7.862   3.681  -1.765  1.00  0.00     0.261 S 
ATOM     94  O   UNL     1       8.870   3.368  -0.778  1.00  0.00    -0.201 OA
ATOM     95  O   UNL     1       6.845   2.717  -2.136  1.00  0.00    -0.201 OA
BRANCH  93  96
ATOM     96  C   UNL     1       8.714   4.175  -3.255  1.00  0.00     0.088 A 
ATOM     97  C   UNL     1       8.780   3.242  -4.312  1.00  0.00     0.022 A 
ATOM     98  C   UNL     1       8.999   5.529  -3.462  1.00  0.00     0.026 A 
ATOM     99  C   UNL     1       9.040   3.673  -5.614  1.00  0.00     0.005 A 
ATOM    100  C   UNL     1       9.154   5.948  -4.771  1.00  0.00    -0.043 A 
ATOM    101  C   UNL     1       9.164   5.034  -5.834  1.00  0.00    -0.045 A 
ATOM    102  C   UNL     1       9.208   7.356  -5.282  1.00  0.00     0.036 C 
ATOM    103  C   UNL     1       9.260   5.754  -7.145  1.00  0.00     0.036 C 
ATOM    104  C   UNL     1       8.761   7.148  -6.736  1.00  0.00     0.010 C 
ENDBRANCH  93  96
ENDBRANCH  91  93
ENDBRANCH  85  91
ENDBRANCH  81  83
ENDBRANCH  80  81
ENDBRANCH  79  80
ENDBRANCH  78  79
ENDBRANCH  77  78
ENDBRANCH  76  77
ENDBRANCH   1  76
TORSDOF 23
