REMARK SMILES O=C(OCCOCCOCCOCCOC(=O)[C@@H]1CCCC[C@@H]1Sc1ccncc1)c1ccc(-c2c3nc(c(-c4c(F)c(F)c(F)c(F)c4F)c4ccc([nH]4)c(-c4c(F)c(F)c(F)c(F)c4F)c4nc(c(-c5c(F)c(F)c(F)c(F)c5F)c5ccc2[nH]5)C=C4)C=C3)cc1
REMARK SMILES IDX 9 1 8 2 7 3 6 4 5 5 4 6 3 7 2 8 1 9 31 10 32 11 93 12 33 13
REMARK SMILES IDX 92 14 34 15 35 16 36 17 86 18 37 19 91 20 85 21 87 22 38 23
REMARK SMILES IDX 90 24 84 25 83 26 39 28 71 29 51 30 70 31 52 32 55 33 69 34
REMARK SMILES IDX 88 35 53 36 54 37 68 39 89 40 56 41 40 42 41 43 49 44 42 45
REMARK SMILES IDX 43 46 47 47 50 48 44 49 45 50 48 51 46 52 72 53 73 54 81 55
REMARK SMILES IDX 74 56 75 57 79 58 82 59 76 60 77 61 80 62 78 63 57 64 58 65
REMARK SMILES IDX 66 66 59 67 60 68 64 69 67 70 61 71 62 72 65 73 63 74 10 75
REMARK SMILES IDX 11 76 12 77 13 78 14 79 15 80 16 81 17 82 18 83 19 84 23 85
REMARK SMILES IDX 20 86 22 87 21 88 24 89 25 90 26 91 30 92 27 93 29 94 28 95
REMARK H PARENT 87 27 55 38
REMARK Flexibility Score: inf
ROOT
ATOM      1  O   UNL     1       2.169   3.325  -1.167  1.00  0.00    -0.377 OA
ENDROOT
BRANCH   1   2
ATOM      2  C   UNL     1       1.589   2.264  -0.422  1.00  0.00     0.188 C 
BRANCH   2   3
ATOM      3  C   UNL     1       2.109   0.876  -0.786  1.00  0.00     0.188 C 
BRANCH   3   4
ATOM      4  O   UNL     1       3.475   0.714  -0.396  1.00  0.00    -0.376 OA
BRANCH   4   5
ATOM      5  C   UNL     1       4.325   0.078  -1.352  1.00  0.00     0.202 C 
BRANCH   5   6
ATOM      6  C   UNL     1       4.269  -1.448  -1.313  1.00  0.00     0.261 C 
BRANCH   6   7
ATOM      7  O   UNL     1       2.968  -1.943  -0.972  1.00  0.00    -0.460 OA
BRANCH   7   8
ATOM      8  C   UNL     1       2.421  -2.091   0.259  1.00  0.00     0.338 C 
ATOM      9  O   UNL     1       1.258  -2.492   0.322  1.00  0.00    -0.246 OA
BRANCH   8  10
ATOM     10  C   UNL     1       3.120  -1.801   1.558  1.00  0.00     0.060 A 
ATOM     11  C   UNL     1       4.281  -1.043   1.725  1.00  0.00     0.016 A 
ATOM     12  C   UNL     1       2.512  -2.317   2.719  1.00  0.00     0.016 A 
ATOM     13  C   UNL     1       4.852  -0.839   2.972  1.00  0.00     0.010 A 
ATOM     14  C   UNL     1       3.082  -2.131   3.982  1.00  0.00     0.010 A 
ATOM     15  C   UNL     1       4.279  -1.419   4.096  1.00  0.00    -0.014 A 
BRANCH  15  16
ATOM     16  C   UNL     1       5.114  -1.482   5.305  1.00  0.00     0.031 A 
ATOM     17  C   UNL     1       5.873  -2.753   5.538  1.00  0.00     0.074 A 
ATOM     18  C   UNL     1       5.330  -0.376   6.035  1.00  0.00     0.049 A 
ATOM     19  N   UNL     1       6.656  -3.089   6.526  1.00  0.00    -0.248 NA
ATOM     20  C   UNL     1       5.752  -3.786   4.491  1.00  0.00     0.031 C 
ATOM     21  C   UNL     1       4.761   0.944   5.754  1.00  0.00     0.029 A 
ATOM     22  N   UNL     1       6.114  -0.177   7.137  1.00  0.00    -0.354 N 
ATOM     23  C   UNL     1       7.098  -4.372   6.230  1.00  0.00     0.074 A 
ATOM     24  C   UNL     1       6.495  -4.764   4.980  1.00  0.00     0.031 C 
ATOM     25  C   UNL     1       5.222   1.819   6.663  1.00  0.00     0.029 A 
ATOM     26  C   UNL     1       6.058   1.106   7.623  1.00  0.00     0.049 A 
ATOM     27  H   UNL     1       6.665  -0.885   7.543  1.00  0.00     0.167 HD
ATOM     28  C   UNL     1       7.936  -5.147   6.953  1.00  0.00     0.037 A 
ATOM     29  C   UNL     1       6.593   1.614   8.748  1.00  0.00     0.037 A 
ATOM     30  C   UNL     1       8.508  -4.719   8.198  1.00  0.00     0.049 A 
ATOM     31  C   UNL     1       7.408   0.684   9.611  1.00  0.00     0.074 A 
ATOM     32  C   UNL     1       9.285  -5.430   9.090  1.00  0.00     0.029 A 
ATOM     33  N   UNL     1       8.353  -3.440   8.722  1.00  0.00    -0.354 N 
ATOM     34  N   UNL     1       7.747  -0.566   9.391  1.00  0.00    -0.248 NA
ATOM     35  C   UNL     1       7.901   1.223  10.882  1.00  0.00     0.031 C 
ATOM     36  C   UNL     1       9.563  -4.594  10.177  1.00  0.00     0.029 A 
ATOM     37  C   UNL     1       9.009  -3.344   9.934  1.00  0.00     0.049 A 
ATOM     38  H   UNL     1       7.850  -2.711   8.293  1.00  0.00     0.167 HD
ATOM     39  C   UNL     1       8.510  -0.956  10.481  1.00  0.00     0.074 A 
ATOM     40  C   UNL     1       8.602   0.201  11.351  1.00  0.00     0.031 C 
ATOM     41  C   UNL     1       9.081  -2.158  10.752  1.00  0.00     0.037 A 
BRANCH  28  42
ATOM     42  C   UNL     1       8.195  -6.534   6.443  1.00  0.00     0.064 A 
ATOM     43  C   UNL     1       8.957  -6.774   5.288  1.00  0.00     0.173 A 
ATOM     44  C   UNL     1       7.622  -7.640   7.089  1.00  0.00     0.173 A 
ATOM     45  F   UNL     1       9.496  -5.749   4.610  1.00  0.00    -0.203 F 
ATOM     46  C   UNL     1       9.108  -8.064   4.784  1.00  0.00     0.198 A 
ATOM     47  C   UNL     1       7.799  -8.931   6.598  1.00  0.00     0.198 A 
ATOM     48  F   UNL     1       6.872  -7.467   8.188  1.00  0.00    -0.203 F 
ATOM     49  F   UNL     1       9.783  -8.261   3.642  1.00  0.00    -0.200 F 
ATOM     50  C   UNL     1       8.533  -9.141   5.441  1.00  0.00     0.200 A 
ATOM     51  F   UNL     1       7.242  -9.970   7.235  1.00  0.00    -0.200 F 
ATOM     52  F   UNL     1       8.670 -10.380   4.948  1.00  0.00    -0.200 F 
ENDBRANCH  28  42
BRANCH  29  53
ATOM     53  C   UNL     1       6.320   3.021   9.153  1.00  0.00     0.064 A 
ATOM     54  C   UNL     1       7.353   3.958   9.295  1.00  0.00     0.173 A 
ATOM     55  C   UNL     1       5.016   3.449   9.451  1.00  0.00     0.173 A 
ATOM     56  F   UNL     1       8.621   3.601   9.046  1.00  0.00    -0.203 F 
ATOM     57  C   UNL     1       7.096   5.255   9.743  1.00  0.00     0.198 A 
ATOM     58  C   UNL     1       4.755   4.754   9.864  1.00  0.00     0.198 A 
ATOM     59  F   UNL     1       3.986   2.596   9.341  1.00  0.00    -0.203 F 
ATOM     60  F   UNL     1       8.111   6.110   9.929  1.00  0.00    -0.200 F 
ATOM     61  C   UNL     1       5.797   5.652  10.023  1.00  0.00     0.200 A 
ATOM     62  F   UNL     1       3.496   5.135  10.118  1.00  0.00    -0.200 F 
ATOM     63  F   UNL     1       5.552   6.896  10.458  1.00  0.00    -0.200 F 
ENDBRANCH  29  53
BRANCH  41  64
ATOM     64  C   UNL     1       9.886  -2.252  12.012  1.00  0.00     0.064 A 
ATOM     65  C   UNL     1       9.277  -2.266  13.275  1.00  0.00     0.173 A 
ATOM     66  C   UNL     1      11.281  -2.381  11.946  1.00  0.00     0.173 A 
ATOM     67  F   UNL     1       7.947  -2.131  13.386  1.00  0.00    -0.203 F 
ATOM     68  C   UNL     1      10.043  -2.377  14.431  1.00  0.00     0.198 A 
ATOM     69  C   UNL     1      12.039  -2.528  13.102  1.00  0.00     0.198 A 
ATOM     70  F   UNL     1      11.905  -2.383  10.758  1.00  0.00    -0.203 F 
ATOM     71  F   UNL     1       9.448  -2.335  15.631  1.00  0.00    -0.200 F 
ATOM     72  C   UNL     1      11.420  -2.517  14.343  1.00  0.00     0.200 A 
ATOM     73  F   UNL     1      13.367  -2.682  13.015  1.00  0.00    -0.200 F 
ATOM     74  F   UNL     1      12.154  -2.635  15.458  1.00  0.00    -0.200 F 
ENDBRANCH  41  64
ENDBRANCH  15  16
ENDBRANCH   8  10
ENDBRANCH   7   8
ENDBRANCH   6   7
ENDBRANCH   5   6
ENDBRANCH   4   5
ENDBRANCH   3   4
ENDBRANCH   2   3
ENDBRANCH   1   2
BRANCH   1  75
ATOM     75  C   UNL     1       3.587   3.349  -1.229  1.00  0.00     0.188 C 
BRANCH  75  76
ATOM     76  C   UNL     1       4.398   3.345   0.095  1.00  0.00     0.188 C 
BRANCH  76  77
ATOM     77  O   UNL     1       3.619   3.508   1.269  1.00  0.00    -0.376 OA
BRANCH  77  78
ATOM     78  C   UNL     1       3.582   4.834   1.786  1.00  0.00     0.202 C 
BRANCH  78  79
ATOM     79  C   UNL     1       2.912   5.873   0.873  1.00  0.00     0.261 C 
BRANCH  79  80
ATOM     80  O   UNL     1       3.547   6.095  -0.408  1.00  0.00    -0.463 OA
BRANCH  80  81
ATOM     81  C   UNL     1       4.862   6.444  -0.463  1.00  0.00     0.310 C 
ATOM     82  O   UNL     1       5.532   6.735   0.519  1.00  0.00    -0.252 OA
BRANCH  81  83
ATOM     83  C   UNL     1       5.374   6.319  -1.907  1.00  0.00     0.112 C 
ATOM     84  C   UNL     1       6.346   5.147  -2.172  1.00  0.00     0.016 C 
ATOM     85  C   UNL     1       5.957   7.642  -2.413  1.00  0.00     0.066 C 
ATOM     86  C   UNL     1       6.679   5.021  -3.660  1.00  0.00     0.001 C 
ATOM     87  C   UNL     1       6.213   7.506  -3.927  1.00  0.00     0.016 C 
ATOM     88  C   UNL     1       7.137   6.335  -4.284  1.00  0.00     0.001 C 
BRANCH  85  89
ATOM     89  S   UNL     1       7.552   8.023  -1.566  1.00  0.00    -0.122 SA
BRANCH  89  90
ATOM     90  C   UNL     1       7.485   9.767  -1.280  1.00  0.00     0.011 A 
ATOM     91  C   UNL     1       6.757  10.665  -2.051  1.00  0.00     0.035 A 
ATOM     92  C   UNL     1       8.283  10.253  -0.246  1.00  0.00     0.035 A 
ATOM     93  C   UNL     1       6.860  12.012  -1.756  1.00  0.00     0.112 A 
ATOM     94  C   UNL     1       8.327  11.616  -0.033  1.00  0.00     0.112 A 
ATOM     95  N   UNL     1       7.631  12.508  -0.766  1.00  0.00    -0.265 NA
ENDBRANCH  89  90
ENDBRANCH  85  89
ENDBRANCH  81  83
ENDBRANCH  80  81
ENDBRANCH  79  80
ENDBRANCH  78  79
ENDBRANCH  77  78
ENDBRANCH  76  77
ENDBRANCH  75  76
ENDBRANCH   1  75
TORSDOF 22
