REMARK SMILES Cc1sc(NC(=O)[C@@H]2CC=CC[C@H]2C(=O)OCCOCCOCCOCCOC(=O)c2ccc(-c3c4nc(c(-c5c(F)c(F)c(F)c(F)c5F)c5ccc([nH]5)c(-c5c(F)c(F)c(F)c(F)c5F)c5nc(c(-c6c(F)c(F)c(F)c(F)c6F)c6ccc3[nH]6)C=C5)C=C4)cc2)nc1-c1ccc(C(C)C)cc1
REMARK SMILES IDX 21 1 20 2 19 3 18 4 17 5 16 6 14 7 15 8 13 9 8 10 9 11 10 12
REMARK SMILES IDX 12 13 11 14 6 15 5 16 7 18 4 19 1 20 2 21 3 22 95 23 94 24
REMARK SMILES IDX 96 25 97 26 104 27 98 28 103 29 99 30 100 31 101 32 102 33
REMARK SMILES IDX 22 34 23 35 24 36 25 37 26 38 27 39 28 40 29 41 30 42 31 43
REMARK SMILES IDX 32 44 93 45 33 46 92 47 34 48 35 49 36 50 86 51 37 52 91 53
REMARK SMILES IDX 85 54 87 55 38 56 90 57 84 58 83 59 39 61 71 62 51 63 70 64
REMARK SMILES IDX 52 65 55 66 69 67 88 68 53 69 54 70 68 72 89 73 56 74 40 75
REMARK SMILES IDX 41 76 49 77 42 78 43 79 47 80 50 81 44 82 45 83 48 84 46 85
REMARK SMILES IDX 72 86 73 87 81 88 74 89 75 90 79 91 82 92 76 93 77 94 80 95
REMARK SMILES IDX 78 96 57 97 58 98 66 99 59 100 60 101 64 102 67 103 61 104
REMARK SMILES IDX 62 105 65 106 63 107
REMARK H PARENT 5 17 87 60 55 71
REMARK Flexibility Score: inf
ROOT
ATOM      1  C   UNL     1      -0.344   6.681  -2.397  1.00  0.00     0.188 C 
ENDROOT
BRANCH   1   2
ATOM      2  C   UNL     1       0.121   5.744  -3.516  1.00  0.00     0.188 C 
BRANCH   2   3
ATOM      3  O   UNL     1      -0.568   5.905  -4.758  1.00  0.00    -0.376 OA
BRANCH   3   4
ATOM      4  C   UNL     1      -1.959   5.585  -4.766  1.00  0.00     0.202 C 
BRANCH   4   5
ATOM      5  C   UNL     1      -2.314   4.137  -4.423  1.00  0.00     0.261 C 
BRANCH   5   6
ATOM      6  O   UNL     1      -2.040   3.770  -3.045  1.00  0.00    -0.463 OA
BRANCH   6   7
ATOM      7  C   UNL     1      -1.452   2.560  -2.894  1.00  0.00     0.310 C 
ATOM      8  O   UNL     1      -1.159   1.847  -3.853  1.00  0.00    -0.252 OA
BRANCH   7   9
ATOM      9  C   UNL     1      -1.050   2.167  -1.468  1.00  0.00     0.116 C 
ATOM     10  C   UNL     1      -1.853   2.536  -0.200  1.00  0.00     0.097 C 
ATOM     11  C   UNL     1      -1.055   2.035   1.041  1.00  0.00     0.041 C 
ATOM     12  C   UNL     1      -0.728   0.576   0.953  1.00  0.00    -0.030 C 
ATOM     13  C   UNL     1      -0.986   0.608  -1.521  1.00  0.00     0.043 C 
ATOM     14  C   UNL     1      -0.728  -0.076  -0.214  1.00  0.00    -0.030 C 
BRANCH  10  15
ATOM     15  C   UNL     1      -2.162   3.999   0.059  1.00  0.00     0.230 C 
ATOM     16  N   UNL     1      -3.337   4.593  -0.265  1.00  0.00    -0.302 N 
ATOM     17  H   UNL     1      -3.490   5.447   0.201  1.00  0.00     0.172 HD
ATOM     18  O   UNL     1      -1.331   4.709   0.644  1.00  0.00    -0.274 OA
BRANCH  16  19
ATOM     19  C   UNL     1      -4.350   4.243  -1.109  1.00  0.00     0.190 A 
ATOM     20  C   UNL     1      -6.087   2.225  -3.873  1.00  0.00     0.059 C 
ATOM     21  C   UNL     1      -5.654   3.198  -2.838  1.00  0.00     0.031 A 
ATOM     22  S   UNL     1      -4.743   2.642  -1.505  1.00  0.00    -0.101 S 
ATOM     23  C   UNL     1      -5.795   4.571  -2.731  1.00  0.00     0.086 A 
ATOM     24  N   UNL     1      -5.088   5.157  -1.694  1.00  0.00    -0.220 NA
BRANCH  23  25
ATOM     25  C   UNL     1      -6.554   5.381  -3.662  1.00  0.00     0.001 A 
ATOM     26  C   UNL     1      -5.954   6.452  -4.326  1.00  0.00     0.011 A 
ATOM     27  C   UNL     1      -7.897   5.092  -3.904  1.00  0.00     0.011 A 
ATOM     28  C   UNL     1      -6.692   7.222  -5.229  1.00  0.00     0.004 A 
ATOM     29  C   UNL     1      -8.644   5.877  -4.778  1.00  0.00     0.004 A 
ATOM     30  C   UNL     1      -8.050   6.951  -5.453  1.00  0.00    -0.045 A 
BRANCH  30  31
ATOM     31  C   UNL     1      -8.888   7.761  -6.424  1.00  0.00     0.013 C 
ATOM     32  C   UNL     1      -8.790   9.266  -6.165  1.00  0.00     0.012 C 
ATOM     33  C   UNL     1      -8.516   7.420  -7.867  1.00  0.00     0.012 C 
ENDBRANCH  30  31
ENDBRANCH  23  25
ENDBRANCH  16  19
ENDBRANCH  10  15
ENDBRANCH   7   9
ENDBRANCH   6   7
ENDBRANCH   5   6
ENDBRANCH   4   5
ENDBRANCH   3   4
ENDBRANCH   2   3
ENDBRANCH   1   2
BRANCH   1  34
ATOM     34  O   UNL     1      -1.692   6.430  -2.018  1.00  0.00    -0.377 OA
BRANCH  34  35
ATOM     35  C   UNL     1      -2.575   7.534  -1.825  1.00  0.00     0.188 C 
BRANCH  35  36
ATOM     36  C   UNL     1      -2.017   8.954  -1.778  1.00  0.00     0.188 C 
BRANCH  36  37
ATOM     37  O   UNL     1      -0.978   9.200  -0.835  1.00  0.00    -0.376 OA
BRANCH  37  38
ATOM     38  C   UNL     1      -1.035   8.538   0.428  1.00  0.00     0.202 C 
BRANCH  38  39
ATOM     39  C   UNL     1      -2.035   9.120   1.428  1.00  0.00     0.261 C 
BRANCH  39  40
ATOM     40  O   UNL     1      -3.377   8.653   1.191  1.00  0.00    -0.460 OA
BRANCH  40  41
ATOM     41  C   UNL     1      -4.223   9.551   0.645  1.00  0.00     0.338 C 
ATOM     42  O   UNL     1      -3.967  10.695   0.290  1.00  0.00    -0.246 OA
BRANCH  41  43
ATOM     43  C   UNL     1      -5.552   8.949   0.450  1.00  0.00     0.060 A 
ATOM     44  C   UNL     1      -6.178   9.099  -0.793  1.00  0.00     0.016 A 
ATOM     45  C   UNL     1      -6.234   8.378   1.528  1.00  0.00     0.016 A 
ATOM     46  C   UNL     1      -7.518   8.741  -0.941  1.00  0.00     0.010 A 
ATOM     47  C   UNL     1      -7.577   8.028   1.379  1.00  0.00     0.010 A 
ATOM     48  C   UNL     1      -8.238   8.255   0.160  1.00  0.00    -0.014 A 
BRANCH  48  49
ATOM     49  C   UNL     1      -9.714   8.136   0.085  1.00  0.00     0.031 A 
ATOM     50  C   UNL     1     -10.565   9.244   0.635  1.00  0.00     0.074 A 
ATOM     51  C   UNL     1     -10.289   7.052  -0.460  1.00  0.00     0.049 A 
ATOM     52  N   UNL     1     -11.869   9.332   0.705  1.00  0.00    -0.248 NA
ATOM     53  C   UNL     1      -9.851  10.398   1.204  1.00  0.00     0.031 C 
ATOM     54  C   UNL     1      -9.564   5.911  -1.004  1.00  0.00     0.029 A 
ATOM     55  N   UNL     1     -11.611   6.734  -0.643  1.00  0.00    -0.354 N 
ATOM     56  C   UNL     1     -12.131  10.531   1.355  1.00  0.00     0.074 A 
ATOM     57  C   UNL     1     -10.852  11.134   1.664  1.00  0.00     0.031 C 
ATOM     58  C   UNL     1     -10.451   5.027  -1.490  1.00  0.00     0.029 A 
ATOM     59  C   UNL     1     -11.803   5.528  -1.270  1.00  0.00     0.049 A 
ATOM     60  H   UNL     1     -12.351   7.314  -0.352  1.00  0.00     0.167 HD
ATOM     61  C   UNL     1     -13.331  11.071   1.672  1.00  0.00     0.037 A 
ATOM     62  C   UNL     1     -12.941   4.900  -1.624  1.00  0.00     0.037 A 
ATOM     63  C   UNL     1     -14.600  10.473   1.350  1.00  0.00     0.049 A 
ATOM     64  C   UNL     1     -14.261   5.531  -1.273  1.00  0.00     0.074 A 
ATOM     65  C   UNL     1     -15.872  10.959   1.597  1.00  0.00     0.029 A 
ATOM     66  N   UNL     1     -14.756   9.250   0.713  1.00  0.00    -0.354 N 
ATOM     67  N   UNL     1     -14.501   6.679  -0.688  1.00  0.00    -0.248 NA
ATOM     68  C   UNL     1     -15.470   4.766  -1.612  1.00  0.00     0.031 C 
ATOM     69  C   UNL     1     -16.797  10.009   1.151  1.00  0.00     0.029 A 
ATOM     70  C   UNL     1     -16.103   8.954   0.581  1.00  0.00     0.049 A 
ATOM     71  H   UNL     1     -14.018   8.677   0.401  1.00  0.00     0.167 HD
ATOM     72  C   UNL     1     -15.882   6.779  -0.594  1.00  0.00     0.074 A 
ATOM     73  C   UNL     1     -16.430   5.588  -1.210  1.00  0.00     0.031 C 
ATOM     74  C   UNL     1     -16.629   7.763  -0.036  1.00  0.00     0.037 A 
BRANCH  61  75
ATOM     75  C   UNL     1     -13.326  12.357   2.445  1.00  0.00     0.064 A 
ATOM     76  C   UNL     1     -12.952  13.575   1.858  1.00  0.00     0.173 A 
ATOM     77  C   UNL     1     -13.721  12.371   3.792  1.00  0.00     0.173 A 
ATOM     78  F   UNL     1     -12.551  13.612   0.579  1.00  0.00    -0.203 F 
ATOM     79  C   UNL     1     -12.947  14.755   2.599  1.00  0.00     0.198 A 
ATOM     80  C   UNL     1     -13.742  13.557   4.521  1.00  0.00     0.198 A 
ATOM     81  F   UNL     1     -14.091  11.234   4.400  1.00  0.00    -0.203 F 
ATOM     82  F   UNL     1     -12.540  15.898   2.031  1.00  0.00    -0.200 F 
ATOM     83  C   UNL     1     -13.348  14.746   3.926  1.00  0.00     0.200 A 
ATOM     84  F   UNL     1     -14.140  13.548   5.801  1.00  0.00    -0.200 F 
ATOM     85  F   UNL     1     -13.346  15.883   4.636  1.00  0.00    -0.200 F 
ENDBRANCH  61  75
BRANCH  62  86
ATOM     86  C   UNL     1     -12.886   3.612  -2.366  1.00  0.00     0.064 A 
ATOM     87  C   UNL     1     -13.322   3.536  -3.697  1.00  0.00     0.173 A 
ATOM     88  C   UNL     1     -12.403   2.438  -1.772  1.00  0.00     0.173 A 
ATOM     89  F   UNL     1     -13.811   4.627  -4.306  1.00  0.00    -0.203 F 
ATOM     90  C   UNL     1     -13.289   2.333  -4.400  1.00  0.00     0.198 A 
ATOM     91  C   UNL     1     -12.340   1.243  -2.485  1.00  0.00     0.198 A 
ATOM     92  F   UNL     1     -11.970   2.456  -0.503  1.00  0.00    -0.203 F 
ATOM     93  F   UNL     1     -13.748   2.281  -5.657  1.00  0.00    -0.200 F 
ATOM     94  C   UNL     1     -12.791   1.189  -3.796  1.00  0.00     0.200 A 
ATOM     95  F   UNL     1     -11.839   0.144  -1.904  1.00  0.00    -0.200 F 
ATOM     96  F   UNL     1     -12.747   0.035  -4.475  1.00  0.00    -0.200 F 
ENDBRANCH  62  86
BRANCH  74  97
ATOM     97  C   UNL     1     -18.120   7.600  -0.083  1.00  0.00     0.064 A 
ATOM     98  C   UNL     1     -18.781   6.666   0.728  1.00  0.00     0.173 A 
ATOM     99  C   UNL     1     -18.897   8.411  -0.923  1.00  0.00     0.173 A 
ATOM    100  F   UNL     1     -18.079   5.856   1.535  1.00  0.00    -0.203 F 
ATOM    101  C   UNL     1     -20.166   6.535   0.683  1.00  0.00     0.198 A 
ATOM    102  C   UNL     1     -20.284   8.296  -0.945  1.00  0.00     0.198 A 
ATOM    103  F   UNL     1     -18.312   9.322  -1.715  1.00  0.00    -0.203 F 
ATOM    104  F   UNL     1     -20.774   5.605   1.433  1.00  0.00    -0.200 F 
ATOM    105  C   UNL     1     -20.917   7.354  -0.148  1.00  0.00     0.200 A 
ATOM    106  F   UNL     1     -21.009   9.095  -1.740  1.00  0.00    -0.200 F 
ATOM    107  F   UNL     1     -22.250   7.229  -0.186  1.00  0.00    -0.200 F 
ENDBRANCH  74  97
ENDBRANCH  48  49
ENDBRANCH  41  43
ENDBRANCH  40  41
ENDBRANCH  39  40
ENDBRANCH  38  39
ENDBRANCH  37  38
ENDBRANCH  36  37
ENDBRANCH  35  36
ENDBRANCH  34  35
ENDBRANCH   1  34
TORSDOF 24
