REMARK SMILES [NH3+][C@H](c1ccc(C(=O)OCCOCCOCCOCCOC(=O)c2ccc(-c3c4nc(c(-c5c(F)c(F)c(F)c(F)c5F)c5ccc([nH]5)c(-c5c(F)c(F)c(F)c(F)c5F)c5nc(c(-c6c(F)c(F)c(F)c(F)c6F)c6ccc3[nH]6)C=C5)C=C4)cc2)cc1Cl)C(F)(F)F
REMARK SMILES IDX 15 1 14 2 13 3 12 4 11 5 10 6 9 7 7 8 8 9 6 10 3 11 4 12
REMARK SMILES IDX 88 13 5 14 87 15 89 16 2 17 1 18 90 22 91 23 92 24 93 25
REMARK SMILES IDX 16 26 17 27 18 28 19 29 20 30 21 31 22 32 23 33 24 34 25 35
REMARK SMILES IDX 86 36 26 37 85 38 27 39 28 40 29 41 79 42 30 43 84 44 78 45
REMARK SMILES IDX 80 46 31 47 83 48 77 49 76 50 32 52 64 53 44 54 63 55 45 56
REMARK SMILES IDX 48 57 62 58 81 59 46 60 47 61 61 63 82 64 49 65 33 66 34 67
REMARK SMILES IDX 42 68 35 69 36 70 40 71 43 72 37 73 38 74 41 75 39 76 65 77
REMARK SMILES IDX 66 78 74 79 67 80 68 81 72 82 75 83 69 84 70 85 73 86 71 87
REMARK SMILES IDX 50 88 51 89 59 90 52 91 53 92 57 93 60 94 54 95 55 96 58 97
REMARK SMILES IDX 56 98
REMARK H PARENT 1 19 1 20 1 21 80 51 48 62
REMARK Flexibility Score: inf
ROOT
ATOM      1  O   UNL     1       1.262  -4.384   3.402  1.00  0.00    -0.377 OA
ENDROOT
BRANCH   1   2
ATOM      2  C   UNL     1       1.783  -4.314   2.083  1.00  0.00     0.188 C 
BRANCH   2   3
ATOM      3  C   UNL     1       3.280  -4.630   1.884  1.00  0.00     0.188 C 
BRANCH   3   4
ATOM      4  O   UNL     1       3.883  -5.243   3.010  1.00  0.00    -0.376 OA
BRANCH   4   5
ATOM      5  C   UNL     1       4.776  -4.490   3.808  1.00  0.00     0.202 C 
BRANCH   5   6
ATOM      6  C   UNL     1       4.281  -3.197   4.478  1.00  0.00     0.261 C 
BRANCH   6   7
ATOM      7  O   UNL     1       3.470  -2.329   3.676  1.00  0.00    -0.460 OA
BRANCH   7   8
ATOM      8  C   UNL     1       4.100  -1.636   2.706  1.00  0.00     0.338 C 
ATOM      9  O   UNL     1       5.290  -1.653   2.450  1.00  0.00    -0.246 OA
BRANCH   8  10
ATOM     10  C   UNL     1       3.075  -1.001   1.845  1.00  0.00     0.061 A 
ATOM     11  C   UNL     1       1.242   0.304   0.118  1.00  0.00     0.037 A 
ATOM     12  C   UNL     1       2.233  -0.570  -0.382  1.00  0.00     0.013 A 
ATOM     13  C   UNL     1       1.141   0.418   1.524  1.00  0.00     0.051 A 
ATOM     14  C   UNL     1       3.166  -1.176   0.465  1.00  0.00     0.016 A 
ATOM     15  C   UNL     1       2.026  -0.257   2.380  1.00  0.00     0.036 A 
ATOM     16  Cl  UNL     1       0.005   1.465   2.297  1.00  0.00    -0.084 Cl
BRANCH  11  17
ATOM     17  C   UNL     1       0.420   1.189  -0.840  1.00  0.00     0.320 C 
BRANCH  17  18
ATOM     18  N   UNL     1       1.075   1.293  -2.186  1.00  0.00    -0.344 N 
ATOM     19  H   UNL     1       0.508   1.883  -2.795  1.00  0.00     0.345 HD
ATOM     20  H   UNL     1       1.158   0.363  -2.597  1.00  0.00     0.345 HD
ATOM     21  H   UNL     1       2.003   1.703  -2.083  1.00  0.00     0.345 HD
ENDBRANCH  17  18
BRANCH  17  22
ATOM     22  C   UNL     1      -1.104   0.845  -0.958  1.00  0.00     0.445 C 
ATOM     23  F   UNL     1      -1.784   0.984   0.196  1.00  0.00    -0.165 F 
ATOM     24  F   UNL     1      -1.705   1.665  -1.859  1.00  0.00    -0.165 F 
ATOM     25  F   UNL     1      -1.287  -0.424  -1.395  1.00  0.00    -0.165 F 
ENDBRANCH  17  22
ENDBRANCH  11  17
ENDBRANCH   8  10
ENDBRANCH   7   8
ENDBRANCH   6   7
ENDBRANCH   5   6
ENDBRANCH   4   5
ENDBRANCH   3   4
ENDBRANCH   2   3
ENDBRANCH   1   2
BRANCH   1  26
ATOM     26  C   UNL     1       1.423  -5.578   4.166  1.00  0.00     0.188 C 
BRANCH  26  27
ATOM     27  C   UNL     1       1.807  -6.937   3.526  1.00  0.00     0.188 C 
BRANCH  27  28
ATOM     28  O   UNL     1       1.723  -6.973   2.113  1.00  0.00    -0.376 OA
BRANCH  28  29
ATOM     29  C   UNL     1       0.688  -7.733   1.521  1.00  0.00     0.202 C 
BRANCH  29  30
ATOM     30  C   UNL     1      -0.750  -7.268   1.782  1.00  0.00     0.261 C 
BRANCH  30  31
ATOM     31  O   UNL     1      -1.103  -7.051   3.155  1.00  0.00    -0.460 OA
BRANCH  31  32
ATOM     32  C   UNL     1      -1.153  -8.129   3.964  1.00  0.00     0.338 C 
ATOM     33  O   UNL     1      -0.914  -9.290   3.672  1.00  0.00    -0.246 OA
BRANCH  32  34
ATOM     34  C   UNL     1      -1.391  -7.633   5.333  1.00  0.00     0.060 A 
ATOM     35  C   UNL     1      -0.437  -7.866   6.334  1.00  0.00     0.016 A 
ATOM     36  C   UNL     1      -2.555  -6.916   5.611  1.00  0.00     0.016 A 
ATOM     37  C   UNL     1      -0.664  -7.404   7.633  1.00  0.00     0.010 A 
ATOM     38  C   UNL     1      -2.791  -6.477   6.912  1.00  0.00     0.010 A 
ATOM     39  C   UNL     1      -1.864  -6.749   7.935  1.00  0.00    -0.014 A 
BRANCH  39  40
ATOM     40  C   UNL     1      -2.282  -6.544   9.341  1.00  0.00     0.031 A 
ATOM     41  C   UNL     1      -3.234  -7.542   9.937  1.00  0.00     0.074 A 
ATOM     42  C   UNL     1      -1.871  -5.482  10.055  1.00  0.00     0.049 A 
ATOM     43  N   UNL     1      -3.885  -7.503  11.069  1.00  0.00    -0.248 NA
ATOM     44  C   UNL     1      -3.497  -8.745   9.130  1.00  0.00     0.031 C 
ATOM     45  C   UNL     1      -0.913  -4.477   9.605  1.00  0.00     0.029 A 
ATOM     46  N   UNL     1      -2.240  -5.063  11.310  1.00  0.00    -0.354 N 
ATOM     47  C   UNL     1      -4.650  -8.662  11.100  1.00  0.00     0.074 A 
ATOM     48  C   UNL     1      -4.402  -9.372   9.864  1.00  0.00     0.031 C 
ATOM     49  C   UNL     1      -0.789  -3.539  10.560  1.00  0.00     0.029 A 
ATOM     50  C   UNL     1      -1.694  -3.855  11.665  1.00  0.00     0.049 A 
ATOM     51  H   UNL     1      -2.838  -5.579  11.897  1.00  0.00     0.167 HD
ATOM     52  C   UNL     1      -5.484  -9.094  12.074  1.00  0.00     0.037 A 
ATOM     53  C   UNL     1      -1.934  -3.079  12.741  1.00  0.00     0.037 A 
ATOM     54  C   UNL     1      -5.729  -8.378  13.296  1.00  0.00     0.049 A 
ATOM     55  C   UNL     1      -2.931  -3.541  13.776  1.00  0.00     0.074 A 
ATOM     56  C   UNL     1      -6.546  -8.731  14.354  1.00  0.00     0.029 A 
ATOM     57  N   UNL     1      -5.162  -7.152  13.617  1.00  0.00    -0.354 N 
ATOM     58  N   UNL     1      -3.643  -4.642  13.811  1.00  0.00    -0.248 NA
ATOM     59  C   UNL     1      -3.158  -2.650  14.924  1.00  0.00     0.031 C 
ATOM     60  C   UNL     1      -6.524  -7.691  15.287  1.00  0.00     0.029 A 
ATOM     61  C   UNL     1      -5.632  -6.724  14.848  1.00  0.00     0.049 A 
ATOM     62  H   UNL     1      -4.522  -6.660  13.054  1.00  0.00     0.167 HD
ATOM     63  C   UNL     1      -4.364  -4.597  14.999  1.00  0.00     0.074 A 
ATOM     64  C   UNL     1      -4.004  -3.360  15.658  1.00  0.00     0.031 C 
ATOM     65  C   UNL     1      -5.240  -5.502  15.502  1.00  0.00     0.037 A 
BRANCH  52  66
ATOM     66  C   UNL     1      -6.221 -10.380  11.837  1.00  0.00     0.064 A 
ATOM     67  C   UNL     1      -5.562 -11.619  11.808  1.00  0.00     0.173 A 
ATOM     68  C   UNL     1      -7.613 -10.375  11.658  1.00  0.00     0.173 A 
ATOM     69  F   UNL     1      -4.230 -11.679  11.956  1.00  0.00    -0.203 F 
ATOM     70  C   UNL     1      -6.265 -12.799  11.581  1.00  0.00     0.198 A 
ATOM     71  C   UNL     1      -8.317 -11.561  11.467  1.00  0.00     0.198 A 
ATOM     72  F   UNL     1      -8.293  -9.219  11.677  1.00  0.00    -0.203 F 
ATOM     73  F   UNL     1      -5.606 -13.964  11.504  1.00  0.00    -0.200 F 
ATOM     74  C   UNL     1      -7.642 -12.770  11.420  1.00  0.00     0.200 A 
ATOM     75  F   UNL     1      -9.649 -11.531  11.326  1.00  0.00    -0.200 F 
ATOM     76  F   UNL     1      -8.318 -13.908  11.211  1.00  0.00    -0.200 F 
ENDBRANCH  52  66
BRANCH  53  77
ATOM     77  C   UNL     1      -1.236  -1.774  12.892  1.00  0.00     0.064 A 
ATOM     78  C   UNL     1      -0.313  -1.564  13.927  1.00  0.00     0.173 A 
ATOM     79  C   UNL     1      -1.495  -0.701  12.026  1.00  0.00     0.173 A 
ATOM     80  F   UNL     1      -0.049  -2.550  14.798  1.00  0.00    -0.203 F 
ATOM     81  C   UNL     1       0.305  -0.328  14.103  1.00  0.00     0.198 A 
ATOM     82  C   UNL     1      -0.852   0.525  12.184  1.00  0.00     0.198 A 
ATOM     83  F   UNL     1      -2.372  -0.845  11.021  1.00  0.00    -0.203 F 
ATOM     84  F   UNL     1       1.140  -0.140  15.134  1.00  0.00    -0.200 F 
ATOM     85  C   UNL     1       0.039   0.714  13.228  1.00  0.00     0.200 A 
ATOM     86  F   UNL     1      -1.102   1.526  11.328  1.00  0.00    -0.200 F 
ATOM     87  F   UNL     1       0.635   1.903  13.397  1.00  0.00    -0.200 F 
ENDBRANCH  53  77
BRANCH  65  88
ATOM     88  C   UNL     1      -5.817  -5.237  16.865  1.00  0.00     0.064 A 
ATOM     89  C   UNL     1      -6.761  -4.226  17.093  1.00  0.00     0.173 A 
ATOM     90  C   UNL     1      -5.464  -6.060  17.947  1.00  0.00     0.173 A 
ATOM     91  F   UNL     1      -7.125  -3.404  16.097  1.00  0.00    -0.203 F 
ATOM     92  C   UNL     1      -7.314  -4.035  18.357  1.00  0.00     0.198 A 
ATOM     93  C   UNL     1      -6.045  -5.890  19.200  1.00  0.00     0.198 A 
ATOM     94  F   UNL     1      -4.572  -7.049  17.781  1.00  0.00    -0.203 F 
ATOM     95  F   UNL     1      -8.182  -3.035  18.562  1.00  0.00    -0.200 F 
ATOM     96  C   UNL     1      -6.964  -4.873  19.405  1.00  0.00     0.200 A 
ATOM     97  F   UNL     1      -5.720  -6.714  20.205  1.00  0.00    -0.200 F 
ATOM     98  F   UNL     1      -7.511  -4.699  20.616  1.00  0.00    -0.200 F 
ENDBRANCH  65  88
ENDBRANCH  39  40
ENDBRANCH  32  34
ENDBRANCH  31  32
ENDBRANCH  30  31
ENDBRANCH  29  30
ENDBRANCH  28  29
ENDBRANCH  27  28
ENDBRANCH  26  27
ENDBRANCH   1  26
TORSDOF 23
