REMARK SMILES Cc1ccc(S(=O)(=O)N[C@@H](Cc2cccc(F)c2)C(=O)OCCOCCOCCOCCOC(=O)c2ccc(-c3c4nc(c(-c5c(F)c(F)c(F)c(F)c5F)c5ccc([nH]5)c(-c5c(F)c(F)c(F)c(F)c5F)c5nc(c(-c6c(F)c(F)c(F)c(F)c6F)c6ccc3[nH]6)C=C5)C=C4)cc2)cc1
REMARK SMILES IDX 26 1 25 2 24 3 23 4 22 5 21 6 19 7 20 8 10 9 9 10 6 12 7 13
REMARK SMILES IDX 8 14 5 15 1 16 2 17 3 18 100 19 4 20 99 21 11 22 12 23 13 24
REMARK SMILES IDX 18 25 14 26 16 27 15 28 17 29 27 30 28 31 29 32 30 33 31 34
REMARK SMILES IDX 32 35 33 36 34 37 35 38 36 39 37 40 98 41 38 42 97 43 39 44
REMARK SMILES IDX 40 45 41 46 91 47 42 48 96 49 90 50 92 51 43 52 95 53 89 54
REMARK SMILES IDX 88 55 44 57 76 58 56 59 75 60 57 61 60 62 74 63 93 64 58 65
REMARK SMILES IDX 59 66 73 68 94 69 61 70 45 71 46 72 54 73 47 74 48 75 52 76
REMARK SMILES IDX 55 77 49 78 50 79 53 80 51 81 77 82 78 83 86 84 79 85 80 86
REMARK SMILES IDX 84 87 87 88 81 89 82 90 85 91 83 92 62 93 63 94 71 95 64 96
REMARK SMILES IDX 65 97 69 98 72 99 66 100 67 101 70 102 68 103
REMARK H PARENT 9 11 92 56 60 67
REMARK Flexibility Score: inf
ROOT
ATOM      1  C   UNL     1      -3.307   3.041   1.629  1.00  0.00     0.188 C 
ENDROOT
BRANCH   1   2
ATOM      2  C   UNL     1      -2.010   3.772   1.223  1.00  0.00     0.188 C 
BRANCH   2   3
ATOM      3  O   UNL     1      -2.045   5.141   0.890  1.00  0.00    -0.376 OA
BRANCH   3   4
ATOM      4  C   UNL     1      -2.683   5.406  -0.356  1.00  0.00     0.202 C 
BRANCH   4   5
ATOM      5  C   UNL     1      -2.190   4.617  -1.582  1.00  0.00     0.261 C 
BRANCH   5   6
ATOM      6  O   UNL     1      -2.682   3.249  -1.568  1.00  0.00    -0.462 OA
BRANCH   6   7
ATOM      7  C   UNL     1      -1.989   2.353  -2.339  1.00  0.00     0.324 C 
ATOM      8  O   UNL     1      -1.028   2.656  -3.036  1.00  0.00    -0.250 OA
BRANCH   7   9
ATOM      9  C   UNL     1      -2.517   0.917  -2.193  1.00  0.00     0.184 C 
BRANCH   9  10
ATOM     10  N   UNL     1      -3.431   0.739  -1.031  1.00  0.00    -0.197 NA
ATOM     11  H   UNL     1      -3.328   1.569  -0.447  1.00  0.00     0.142 HD
BRANCH  10  12
ATOM     12  S   UNL     1      -3.259  -0.596  -0.015  1.00  0.00     0.241 S 
ATOM     13  O   UNL     1      -3.561  -1.772  -0.820  1.00  0.00    -0.207 OA
ATOM     14  O   UNL     1      -3.951  -0.315   1.208  1.00  0.00    -0.207 OA
BRANCH  12  15
ATOM     15  C   UNL     1      -1.505  -0.634   0.332  1.00  0.00     0.082 A 
ATOM     16  C   UNL     1       2.759  -0.257  -0.002  1.00  0.00     0.044 C 
ATOM     17  C   UNL     1       1.279  -0.407   0.178  1.00  0.00    -0.051 A 
ATOM     18  C   UNL     1       0.646  -1.647  -0.009  1.00  0.00     0.005 A 
ATOM     19  C   UNL     1       0.514   0.695   0.541  1.00  0.00     0.005 A 
ATOM     20  C   UNL     1      -0.748  -1.762   0.048  1.00  0.00     0.022 A 
ATOM     21  C   UNL     1      -0.862   0.558   0.646  1.00  0.00     0.022 A 
ENDBRANCH  12  15
ENDBRANCH  10  12
ENDBRANCH   9  10
BRANCH   9  22
ATOM     22  C   UNL     1      -3.037   0.168  -3.442  1.00  0.00     0.067 C 
BRANCH  22  23
ATOM     23  C   UNL     1      -3.892   0.804  -4.500  1.00  0.00    -0.043 A 
ATOM     24  C   UNL     1      -4.499   0.004  -5.495  1.00  0.00     0.004 A 
ATOM     25  C   UNL     1      -4.193   2.140  -4.500  1.00  0.00     0.043 A 
ATOM     26  C   UNL     1      -5.429   0.525  -6.411  1.00  0.00     0.003 A 
ATOM     27  C   UNL     1      -5.222   2.577  -5.307  1.00  0.00     0.123 A 
ATOM     28  C   UNL     1      -5.826   1.835  -6.290  1.00  0.00     0.039 A 
ATOM     29  F   UNL     1      -5.746   3.742  -5.001  1.00  0.00    -0.207 F 
ENDBRANCH  22  23
ENDBRANCH   9  22
ENDBRANCH   7   9
ENDBRANCH   6   7
ENDBRANCH   5   6
ENDBRANCH   4   5
ENDBRANCH   3   4
ENDBRANCH   2   3
ENDBRANCH   1   2
BRANCH   1  30
ATOM     30  O   UNL     1      -4.559   3.531   1.148  1.00  0.00    -0.377 OA
BRANCH  30  31
ATOM     31  C   UNL     1      -5.542   3.366   2.172  1.00  0.00     0.188 C 
BRANCH  31  32
ATOM     32  C   UNL     1      -5.375   4.367   3.308  1.00  0.00     0.188 C 
BRANCH  32  33
ATOM     33  O   UNL     1      -4.106   5.008   3.322  1.00  0.00    -0.376 OA
BRANCH  33  34
ATOM     34  C   UNL     1      -3.418   5.042   4.567  1.00  0.00     0.202 C 
BRANCH  34  35
ATOM     35  C   UNL     1      -4.257   5.595   5.727  1.00  0.00     0.261 C 
BRANCH  35  36
ATOM     36  O   UNL     1      -4.706   6.929   5.399  1.00  0.00    -0.460 OA
BRANCH  36  37
ATOM     37  C   UNL     1      -6.007   7.044   5.003  1.00  0.00     0.338 C 
ATOM     38  O   UNL     1      -6.955   6.495   5.542  1.00  0.00    -0.246 OA
BRANCH  37  39
ATOM     39  C   UNL     1      -6.074   7.638   3.623  1.00  0.00     0.060 A 
ATOM     40  C   UNL     1      -7.273   7.565   2.885  1.00  0.00     0.016 A 
ATOM     41  C   UNL     1      -4.876   7.811   2.942  1.00  0.00     0.016 A 
ATOM     42  C   UNL     1      -7.243   7.463   1.475  1.00  0.00     0.010 A 
ATOM     43  C   UNL     1      -4.853   7.577   1.578  1.00  0.00     0.010 A 
ATOM     44  C   UNL     1      -6.019   7.373   0.814  1.00  0.00    -0.014 A 
BRANCH  44  45
ATOM     45  C   UNL     1      -5.788   6.985  -0.606  1.00  0.00     0.031 A 
ATOM     46  C   UNL     1      -4.795   7.771  -1.406  1.00  0.00     0.074 A 
ATOM     47  C   UNL     1      -6.121   5.740  -1.042  1.00  0.00     0.049 A 
ATOM     48  N   UNL     1      -4.296   7.400  -2.533  1.00  0.00    -0.248 NA
ATOM     49  C   UNL     1      -4.186   9.010  -0.936  1.00  0.00     0.031 C 
ATOM     50  C   UNL     1      -5.473   4.939  -2.100  1.00  0.00     0.029 A 
ATOM     51  N   UNL     1      -7.046   4.827  -0.516  1.00  0.00    -0.354 N 
ATOM     52  C   UNL     1      -3.187   8.163  -2.828  1.00  0.00     0.074 A 
ATOM     53  C   UNL     1      -3.137   9.129  -1.760  1.00  0.00     0.031 C 
ATOM     54  C   UNL     1      -6.094   3.761  -2.226  1.00  0.00     0.029 A 
ATOM     55  C   UNL     1      -7.325   3.882  -1.532  1.00  0.00     0.049 A 
ATOM     56  H   UNL     1      -7.429   4.841   0.391  1.00  0.00     0.167 HD
ATOM     57  C   UNL     1      -2.430   7.801  -3.909  1.00  0.00     0.037 A 
ATOM     58  C   UNL     1      -8.514   3.889  -2.195  1.00  0.00     0.037 A 
ATOM     59  C   UNL     1      -3.171   6.858  -4.777  1.00  0.00     0.049 A 
ATOM     60  C   UNL     1      -8.401   4.535  -3.598  1.00  0.00     0.074 A 
ATOM     61  C   UNL     1      -2.897   5.644  -5.375  1.00  0.00     0.029 A 
ATOM     62  N   UNL     1      -4.548   7.074  -5.019  1.00  0.00    -0.354 N 
ATOM     63  N   UNL     1      -7.449   5.359  -4.003  1.00  0.00    -0.248 NA
ATOM     64  C   UNL     1      -9.320   4.213  -4.685  1.00  0.00     0.031 C 
ATOM     65  C   UNL     1      -4.014   5.283  -6.152  1.00  0.00     0.029 A 
ATOM     66  C   UNL     1      -5.102   6.050  -5.749  1.00  0.00     0.049 A 
ATOM     67  H   UNL     1      -5.047   7.861  -4.703  1.00  0.00     0.167 HD
ATOM     68  C   UNL     1      -7.519   5.538  -5.378  1.00  0.00     0.074 A 
ATOM     69  C   UNL     1      -8.800   4.915  -5.711  1.00  0.00     0.031 C 
ATOM     70  C   UNL     1      -6.506   6.010  -6.204  1.00  0.00     0.037 A 
BRANCH  57  71
ATOM     71  C   UNL     1      -0.970   8.224  -4.182  1.00  0.00     0.064 A 
ATOM     72  C   UNL     1      -0.097   7.459  -5.002  1.00  0.00     0.173 A 
ATOM     73  C   UNL     1      -0.346   9.374  -3.656  1.00  0.00     0.173 A 
ATOM     74  F   UNL     1      -0.485   6.344  -5.619  1.00  0.00    -0.203 F 
ATOM     75  C   UNL     1       1.245   7.785  -5.244  1.00  0.00     0.198 A 
ATOM     76  C   UNL     1       1.006   9.695  -3.881  1.00  0.00     0.198 A 
ATOM     77  F   UNL     1      -1.022  10.274  -2.940  1.00  0.00    -0.203 F 
ATOM     78  F   UNL     1       1.988   6.995  -6.035  1.00  0.00    -0.200 F 
ATOM     79  C   UNL     1       1.802   8.903  -4.678  1.00  0.00     0.200 A 
ATOM     80  F   UNL     1       1.527  10.797  -3.322  1.00  0.00    -0.200 F 
ATOM     81  F   UNL     1       3.082   9.221  -4.911  1.00  0.00    -0.200 F 
ENDBRANCH  57  71
BRANCH  58  82
ATOM     82  C   UNL     1      -9.598   3.824  -1.154  1.00  0.00     0.064 A 
ATOM     83  C   UNL     1      -9.506   2.692  -0.290  1.00  0.00     0.173 A 
ATOM     84  C   UNL     1     -10.040   5.018  -0.573  1.00  0.00     0.173 A 
ATOM     85  F   UNL     1      -9.130   1.501  -0.788  1.00  0.00    -0.203 F 
ATOM     86  C   UNL     1      -9.521   2.839   1.099  1.00  0.00     0.198 A 
ATOM     87  C   UNL     1     -10.094   5.147   0.822  1.00  0.00     0.198 A 
ATOM     88  F   UNL     1     -10.210   6.107  -1.334  1.00  0.00    -0.203 F 
ATOM     89  F   UNL     1      -9.158   1.818   1.891  1.00  0.00    -0.200 F 
ATOM     90  C   UNL     1      -9.756   4.085   1.651  1.00  0.00     0.200 A 
ATOM     91  F   UNL     1     -10.343   6.346   1.369  1.00  0.00    -0.200 F 
ATOM     92  F   UNL     1      -9.585   4.278   2.968  1.00  0.00    -0.200 F 
ENDBRANCH  58  82
BRANCH  70  93
ATOM     93  C   UNL     1      -6.607   6.274  -7.693  1.00  0.00     0.064 A 
ATOM     94  C   UNL     1      -7.312   5.500  -8.618  1.00  0.00     0.173 A 
ATOM     95  C   UNL     1      -5.784   7.293  -8.248  1.00  0.00     0.173 A 
ATOM     96  F   UNL     1      -7.934   4.371  -8.257  1.00  0.00    -0.203 F 
ATOM     97  C   UNL     1      -7.323   5.822  -9.979  1.00  0.00     0.198 A 
ATOM     98  C   UNL     1      -5.705   7.533  -9.615  1.00  0.00     0.198 A 
ATOM     99  F   UNL     1      -5.011   8.070  -7.472  1.00  0.00    -0.203 F 
ATOM    100  F   UNL     1      -8.104   5.125 -10.815  1.00  0.00    -0.200 F 
ATOM    101  C   UNL     1      -6.516   6.830 -10.477  1.00  0.00     0.200 A 
ATOM    102  F   UNL     1      -4.840   8.442 -10.085  1.00  0.00    -0.200 F 
ATOM    103  F   UNL     1      -6.505   7.108 -11.787  1.00  0.00    -0.200 F 
ENDBRANCH  70  93
ENDBRANCH  44  45
ENDBRANCH  37  39
ENDBRANCH  36  37
ENDBRANCH  35  36
ENDBRANCH  34  35
ENDBRANCH  33  34
ENDBRANCH  32  33
ENDBRANCH  31  32
ENDBRANCH  30  31
ENDBRANCH   1  30
TORSDOF 25
