REMARK SMILES O=C(CCCNc1ccccc1SC(F)F)OCCOCCOCCOCCOC(=O)c1ccc(-c2c3nc(c(-c4c(F)c(F)c(F)c(F)c4F)c4ccc([nH]4)c(-c4c(F)c(F)c(F)c(F)c4F)c4nc(c(-c5c(F)c(F)c(F)c(F)c5F)c5ccc2[nH]5)C=C4)C=C3)cc1
REMARK SMILES IDX 21 1 20 2 19 3 18 4 17 5 2 6 1 7 3 8 4 9 5 10 6 11 7 13 8 14
REMARK SMILES IDX 12 15 9 16 11 17 10 18 13 19 14 20 15 21 16 22 22 23 23 24
REMARK SMILES IDX 24 25 25 26 26 27 27 28 28 29 29 30 30 31 31 32 32 33 33 34
REMARK SMILES IDX 94 35 34 36 93 37 35 38 36 39 37 40 87 41 38 42 92 43 86 44
REMARK SMILES IDX 88 45 39 46 91 47 85 48 84 49 40 51 72 52 52 53 71 54 53 55
REMARK SMILES IDX 56 56 70 57 89 58 54 59 55 60 69 62 90 63 57 64 41 65 42 66
REMARK SMILES IDX 50 67 43 68 44 69 48 70 51 71 45 72 46 73 49 74 47 75 73 76
REMARK SMILES IDX 74 77 82 78 75 79 76 80 80 81 83 82 77 83 78 84 81 85 79 86
REMARK SMILES IDX 58 87 59 88 67 89 60 90 61 91 65 92 68 93 62 94 63 95 66 96
REMARK SMILES IDX 64 97
REMARK H PARENT 6 12 88 50 56 61
REMARK Flexibility Score: inf
ROOT
ATOM      1  C   UNL     1       2.707  -1.612   0.419  1.00  0.00     0.188 C 
ENDROOT
BRANCH   1   2
ATOM      2  O   UNL     1       3.817  -0.724   0.291  1.00  0.00    -0.376 OA
BRANCH   2   3
ATOM      3  C   UNL     1       3.848   0.356   1.213  1.00  0.00     0.202 C 
BRANCH   3   4
ATOM      4  C   UNL     1       3.059   1.569   0.755  1.00  0.00     0.261 C 
BRANCH   4   5
ATOM      5  O   UNL     1       1.868   1.238   0.034  1.00  0.00    -0.463 OA
BRANCH   5   6
ATOM      6  C   UNL     1       1.829   1.455  -1.304  1.00  0.00     0.305 C 
ATOM      7  O   UNL     1       0.924   2.126  -1.795  1.00  0.00    -0.252 OA
BRANCH   6   8
ATOM      8  C   UNL     1       2.786   0.673  -2.186  1.00  0.00     0.124 C 
BRANCH   8   9
ATOM      9  C   UNL     1       3.868   1.466  -2.909  1.00  0.00     0.033 C 
BRANCH   9  10
ATOM     10  C   UNL     1       5.145   1.809  -2.138  1.00  0.00     0.113 C 
BRANCH  10  11
ATOM     11  N   UNL     1       5.873   0.650  -1.665  1.00  0.00    -0.384 N 
ATOM     12  H   UNL     1       5.402  -0.214  -1.706  1.00  0.00     0.160 HD
BRANCH  11  13
ATOM     13  C   UNL     1       7.171   0.628  -1.159  1.00  0.00     0.048 A 
ATOM     14  C   UNL     1       7.788  -0.648  -1.137  1.00  0.00     0.027 A 
ATOM     15  C   UNL     1       7.974   1.726  -0.764  1.00  0.00     0.036 A 
ATOM     16  C   UNL     1       9.113  -0.846  -0.735  1.00  0.00     0.002 A 
ATOM     17  C   UNL     1       9.304   1.508  -0.331  1.00  0.00     0.017 A 
ATOM     18  C   UNL     1       9.870   0.235  -0.317  1.00  0.00     0.001 A 
BRANCH  15  19
ATOM     19  S   UNL     1       7.528   3.466  -0.839  1.00  0.00    -0.053 SA
BRANCH  19  20
ATOM     20  C   UNL     1       6.510   3.659   0.634  1.00  0.00     0.405 C 
ATOM     21  F   UNL     1       5.266   4.084   0.285  1.00  0.00    -0.198 F 
ATOM     22  F   UNL     1       6.338   2.508   1.329  1.00  0.00    -0.198 F 
ENDBRANCH  19  20
ENDBRANCH  15  19
ENDBRANCH  11  13
ENDBRANCH  10  11
ENDBRANCH   9  10
ENDBRANCH   8   9
ENDBRANCH   6   8
ENDBRANCH   5   6
ENDBRANCH   4   5
ENDBRANCH   3   4
ENDBRANCH   2   3
ENDBRANCH   1   2
BRANCH   1  23
ATOM     23  C   UNL     1       2.489  -2.226   1.805  1.00  0.00     0.188 C 
BRANCH  23  24
ATOM     24  O   UNL     1       3.610  -2.466   2.656  1.00  0.00    -0.377 OA
BRANCH  24  25
ATOM     25  C   UNL     1       4.895  -2.648   2.079  1.00  0.00     0.188 C 
BRANCH  25  26
ATOM     26  C   UNL     1       5.112  -3.855   1.165  1.00  0.00     0.188 C 
BRANCH  26  27
ATOM     27  O   UNL     1       3.930  -4.284   0.501  1.00  0.00    -0.376 OA
BRANCH  27  28
ATOM     28  C   UNL     1       3.578  -5.639   0.764  1.00  0.00     0.202 C 
BRANCH  28  29
ATOM     29  C   UNL     1       2.799  -5.866   2.072  1.00  0.00     0.261 C 
BRANCH  29  30
ATOM     30  O   UNL     1       3.314  -5.219   3.250  1.00  0.00    -0.460 OA
BRANCH  30  31
ATOM     31  C   UNL     1       4.458  -5.705   3.783  1.00  0.00     0.338 C 
ATOM     32  O   UNL     1       5.106  -6.643   3.373  1.00  0.00    -0.246 OA
BRANCH  31  33
ATOM     33  C   UNL     1       4.901  -4.804   4.881  1.00  0.00     0.060 A 
ATOM     34  C   UNL     1       6.221  -4.332   4.866  1.00  0.00     0.016 A 
ATOM     35  C   UNL     1       4.049  -4.450   5.931  1.00  0.00     0.016 A 
ATOM     36  C   UNL     1       6.694  -3.517   5.899  1.00  0.00     0.010 A 
ATOM     37  C   UNL     1       4.536  -3.667   6.990  1.00  0.00     0.010 A 
ATOM     38  C   UNL     1       5.871  -3.224   6.995  1.00  0.00    -0.014 A 
BRANCH  38  39
ATOM     39  C   UNL     1       6.492  -2.709   8.246  1.00  0.00     0.031 A 
ATOM     40  C   UNL     1       6.975  -3.723   9.250  1.00  0.00     0.074 A 
ATOM     41  C   UNL     1       6.673  -1.398   8.485  1.00  0.00     0.049 A 
ATOM     42  N   UNL     1       7.569  -3.547  10.404  1.00  0.00    -0.248 NA
ATOM     43  C   UNL     1       6.757  -5.136   8.898  1.00  0.00     0.031 C 
ATOM     44  C   UNL     1       6.298  -0.311   7.585  1.00  0.00     0.029 A 
ATOM     45  N   UNL     1       7.228  -0.760   9.570  1.00  0.00    -0.354 N 
ATOM     46  C   UNL     1       7.795  -4.821  10.909  1.00  0.00     0.074 A 
ATOM     47  C   UNL     1       7.244  -5.760   9.957  1.00  0.00     0.031 C 
ATOM     48  C   UNL     1       6.630   0.862   8.158  1.00  0.00     0.029 A 
ATOM     49  C   UNL     1       7.219   0.610   9.474  1.00  0.00     0.049 A 
ATOM     50  H   UNL     1       7.598  -1.242  10.345  1.00  0.00     0.167 HD
ATOM     51  C   UNL     1       8.413  -5.183  12.058  1.00  0.00     0.037 A 
ATOM     52  C   UNL     1       7.631   1.547  10.352  1.00  0.00     0.037 A 
ATOM     53  C   UNL     1       8.948  -4.255  13.017  1.00  0.00     0.049 A 
ATOM     54  C   UNL     1       8.236   1.121  11.670  1.00  0.00     0.074 A 
ATOM     55  C   UNL     1       9.603  -4.524  14.206  1.00  0.00     0.029 A 
ATOM     56  N   UNL     1       8.872  -2.874  12.905  1.00  0.00    -0.354 N 
ATOM     57  N   UNL     1       8.486  -0.085  12.121  1.00  0.00    -0.248 NA
ATOM     58  C   UNL     1       8.623   2.194  12.600  1.00  0.00     0.031 C 
ATOM     59  C   UNL     1       9.868  -3.308  14.844  1.00  0.00     0.029 A 
ATOM     60  C   UNL     1       9.441  -2.278  14.020  1.00  0.00     0.049 A 
ATOM     61  H   UNL     1       8.474  -2.390  12.147  1.00  0.00     0.167 HD
ATOM     62  C   UNL     1       9.094   0.085  13.361  1.00  0.00     0.074 A 
ATOM     63  C   UNL     1       9.184   1.511  13.588  1.00  0.00     0.031 C 
ATOM     64  C   UNL     1       9.540  -0.856  14.230  1.00  0.00     0.037 A 
BRANCH  51  65
ATOM     65  C   UNL     1       8.503  -6.652  12.354  1.00  0.00     0.064 A 
ATOM     66  C   UNL     1       9.322  -7.511  11.604  1.00  0.00     0.173 A 
ATOM     67  C   UNL     1       7.760  -7.209  13.406  1.00  0.00     0.173 A 
ATOM     68  F   UNL     1      10.039  -7.033  10.576  1.00  0.00    -0.203 F 
ATOM     69  C   UNL     1       9.364  -8.877  11.873  1.00  0.00     0.198 A 
ATOM     70  C   UNL     1       7.832  -8.569  13.694  1.00  0.00     0.198 A 
ATOM     71  F   UNL     1       6.963  -6.433  14.156  1.00  0.00    -0.203 F 
ATOM     72  F   UNL     1      10.104  -9.687  11.103  1.00  0.00    -0.200 F 
ATOM     73  C   UNL     1       8.624  -9.403  12.921  1.00  0.00     0.200 A 
ATOM     74  F   UNL     1       7.126  -9.073  14.715  1.00  0.00    -0.200 F 
ATOM     75  F   UNL     1       8.666 -10.717  13.179  1.00  0.00    -0.200 F 
ENDBRANCH  51  65
BRANCH  52  76
ATOM     76  C   UNL     1       7.495   2.995  10.029  1.00  0.00     0.064 A 
ATOM     77  C   UNL     1       8.625   3.805   9.844  1.00  0.00     0.173 A 
ATOM     78  C   UNL     1       6.236   3.609   9.947  1.00  0.00     0.173 A 
ATOM     79  F   UNL     1       9.853   3.275   9.945  1.00  0.00    -0.203 F 
ATOM     80  C   UNL     1       8.502   5.174   9.611  1.00  0.00     0.198 A 
ATOM     81  C   UNL     1       6.114   4.973   9.684  1.00  0.00     0.198 A 
ATOM     82  F   UNL     1       5.122   2.885  10.127  1.00  0.00    -0.203 F 
ATOM     83  F   UNL     1       9.601   5.933   9.493  1.00  0.00    -0.200 F 
ATOM     84  C   UNL     1       7.247   5.756   9.525  1.00  0.00     0.200 A 
ATOM     85  F   UNL     1       4.899   5.529   9.594  1.00  0.00    -0.200 F 
ATOM     86  F   UNL     1       7.129   7.072   9.300  1.00  0.00    -0.200 F 
ENDBRANCH  52  76
BRANCH  64  87
ATOM     87  C   UNL     1      10.221  -0.380  15.485  1.00  0.00     0.064 A 
ATOM     88  C   UNL     1       9.518   0.259  16.517  1.00  0.00     0.173 A 
ATOM     89  C   UNL     1      11.595  -0.605  15.672  1.00  0.00     0.173 A 
ATOM     90  F   UNL     1       8.206   0.508  16.387  1.00  0.00    -0.203 F 
ATOM     91  C   UNL     1      10.171   0.686  17.672  1.00  0.00     0.198 A 
ATOM     92  C   UNL     1      12.236  -0.209  16.842  1.00  0.00     0.198 A 
ATOM     93  F   UNL     1      12.315  -1.222  14.723  1.00  0.00    -0.203 F 
ATOM     94  F   UNL     1       9.489   1.345  18.619  1.00  0.00    -0.200 F 
ATOM     95  C   UNL     1      11.526   0.445  17.837  1.00  0.00     0.200 A 
ATOM     96  F   UNL     1      13.543  -0.460  17.006  1.00  0.00    -0.200 F 
ATOM     97  F   UNL     1      12.151   0.851  18.951  1.00  0.00    -0.200 F 
ENDBRANCH  64  87
ENDBRANCH  38  39
ENDBRANCH  31  33
ENDBRANCH  30  31
ENDBRANCH  29  30
ENDBRANCH  28  29
ENDBRANCH  27  28
ENDBRANCH  26  27
ENDBRANCH  25  26
ENDBRANCH  24  25
ENDBRANCH  23  24
ENDBRANCH   1  23
TORSDOF 26
