REMARK SMILES CC(C)N1C(=O)C[C@@H]([N@@H+]2CC[C@H](C(=O)OCCOCCOCCOCCOC(=O)c3ccc(-c4c5nc(c(-c6c(F)c(F)c(F)c(F)c6F)c6ccc([nH]6)c(-c6c(F)c(F)c(F)c(F)c6F)c6nc(c(-c7c(F)c(F)c(F)c(F)c7F)c7ccc4[nH]7)C=C6)C=C5)cc3)[C@@H]2C)C1=O
REMARK SMILES IDX 21 1 20 2 19 3 18 4 17 5 16 6 15 7 13 8 14 9 12 10 9 11
REMARK SMILES IDX 10 12 93 13 11 15 94 16 8 17 4 18 5 19 95 20 6 21 7 22 96 23
REMARK SMILES IDX 2 24 1 25 3 26 22 27 23 28 24 29 25 30 26 31 27 32 28 33
REMARK SMILES IDX 29 34 30 35 31 36 92 37 32 38 91 39 33 40 34 41 35 42 85 43
REMARK SMILES IDX 36 44 90 45 84 46 86 47 37 48 89 49 83 50 82 51 38 53 70 54
REMARK SMILES IDX 50 55 69 56 51 57 54 58 68 59 87 60 52 61 53 62 67 64 88 65
REMARK SMILES IDX 55 66 39 67 40 68 48 69 41 70 42 71 46 72 49 73 43 74 44 75
REMARK SMILES IDX 47 76 45 77 71 78 72 79 80 80 73 81 74 82 78 83 81 84 75 85
REMARK SMILES IDX 76 86 79 87 77 88 56 89 57 90 65 91 58 92 59 93 63 94 66 95
REMARK SMILES IDX 60 96 61 97 64 98 62 99
REMARK H PARENT 9 14 86 52 54 63
REMARK Flexibility Score: inf
ROOT
ATOM      1  O   UNL     1      -3.197   3.837  -1.083  1.00  0.00    -0.377 OA
ENDROOT
BRANCH   1   2
ATOM      2  C   UNL     1      -3.909   2.922  -1.905  1.00  0.00     0.188 C 
BRANCH   2   3
ATOM      3  C   UNL     1      -5.029   3.365  -2.869  1.00  0.00     0.188 C 
BRANCH   3   4
ATOM      4  O   UNL     1      -5.870   4.369  -2.329  1.00  0.00    -0.376 OA
BRANCH   4   5
ATOM      5  C   UNL     1      -7.146   4.049  -1.824  1.00  0.00     0.202 C 
BRANCH   5   6
ATOM      6  C   UNL     1      -7.290   3.002  -0.715  1.00  0.00     0.261 C 
BRANCH   6   7
ATOM      7  O   UNL     1      -6.398   1.881  -0.749  1.00  0.00    -0.463 OA
BRANCH   7   8
ATOM      8  C   UNL     1      -6.756   0.800  -1.475  1.00  0.00     0.315 C 
ATOM      9  O   UNL     1      -7.679   0.802  -2.280  1.00  0.00    -0.252 OA
BRANCH   8  10
ATOM     10  C   UNL     1      -5.869  -0.416  -1.217  1.00  0.00     0.162 C 
ATOM     11  N   UNL     1      -3.932  -0.739   0.196  1.00  0.00    -0.321 N 
ATOM     12  C   UNL     1      -3.417  -0.485  -1.137  1.00  0.00     0.264 C 
ATOM     13  C   UNL     1      -5.398  -0.712   0.220  1.00  0.00     0.196 C 
ATOM     14  H   UNL     1      -3.721  -1.711   0.421  1.00  0.00     0.349 HD
ATOM     15  C   UNL     1      -4.612  -0.472  -2.083  1.00  0.00     0.083 C 
ATOM     16  C   UNL     1      -6.089   0.047   1.352  1.00  0.00     0.076 C 
BRANCH  11  17
ATOM     17  C   UNL     1      -3.150  -0.265   1.346  1.00  0.00     0.284 C 
ATOM     18  N   UNL     1      -0.910   0.514   1.301  1.00  0.00    -0.275 N 
ATOM     19  C   UNL     1      -1.677   1.618   1.546  1.00  0.00     0.236 C 
ATOM     20  C   UNL     1      -1.671  -0.630   1.250  1.00  0.00     0.288 C 
ATOM     21  O   UNL     1      -1.302   2.760   1.771  1.00  0.00    -0.274 OA
ATOM     22  C   UNL     1      -3.123   1.237   1.571  1.00  0.00     0.176 C 
ATOM     23  O   UNL     1      -1.240  -1.774   1.169  1.00  0.00    -0.267 OA
BRANCH  18  24
ATOM     24  C   UNL     1       0.561   0.468   1.231  1.00  0.00     0.087 C 
ATOM     25  C   UNL     1       1.035  -0.065  -0.128  1.00  0.00     0.031 C 
ATOM     26  C   UNL     1       1.279   1.793   1.510  1.00  0.00     0.031 C 
ENDBRANCH  18  24
ENDBRANCH  11  17
ENDBRANCH   8  10
ENDBRANCH   7   8
ENDBRANCH   6   7
ENDBRANCH   5   6
ENDBRANCH   4   5
ENDBRANCH   3   4
ENDBRANCH   2   3
ENDBRANCH   1   2
BRANCH   1  27
ATOM     27  C   UNL     1      -3.906   4.970  -0.603  1.00  0.00     0.188 C 
BRANCH  27  28
ATOM     28  C   UNL     1      -3.853   6.142  -1.601  1.00  0.00     0.188 C 
BRANCH  28  29
ATOM     29  O   UNL     1      -3.425   5.757  -2.895  1.00  0.00    -0.376 OA
BRANCH  29  30
ATOM     30  C   UNL     1      -2.043   5.651  -3.196  1.00  0.00     0.202 C 
BRANCH  30  31
ATOM     31  C   UNL     1      -0.924   5.307  -2.189  1.00  0.00     0.261 C 
BRANCH  31  32
ATOM     32  O   UNL     1      -1.090   5.660  -0.815  1.00  0.00    -0.460 OA
BRANCH  32  33
ATOM     33  C   UNL     1      -0.962   6.950  -0.463  1.00  0.00     0.338 C 
ATOM     34  O   UNL     1      -0.735   7.903  -1.192  1.00  0.00    -0.246 OA
BRANCH  33  35
ATOM     35  C   UNL     1      -1.323   7.038   0.965  1.00  0.00     0.060 A 
ATOM     36  C   UNL     1      -2.468   7.753   1.344  1.00  0.00     0.016 A 
ATOM     37  C   UNL     1      -0.542   6.390   1.924  1.00  0.00     0.016 A 
ATOM     38  C   UNL     1      -2.819   7.847   2.691  1.00  0.00     0.010 A 
ATOM     39  C   UNL     1      -0.873   6.513   3.273  1.00  0.00     0.010 A 
ATOM     40  C   UNL     1      -1.993   7.269   3.663  1.00  0.00    -0.014 A 
BRANCH  40  41
ATOM     41  C   UNL     1      -2.162   7.632   5.088  1.00  0.00     0.031 A 
ATOM     42  C   UNL     1      -1.297   8.730   5.637  1.00  0.00     0.074 A 
ATOM     43  C   UNL     1      -3.048   6.999   5.876  1.00  0.00     0.049 A 
ATOM     44  N   UNL     1      -1.165   9.151   6.868  1.00  0.00    -0.248 NA
ATOM     45  C   UNL     1      -0.459   9.446   4.661  1.00  0.00     0.031 C 
ATOM     46  C   UNL     1      -3.974   5.958   5.441  1.00  0.00     0.029 A 
ATOM     47  N   UNL     1      -3.293   7.133   7.220  1.00  0.00    -0.354 N 
ATOM     48  C   UNL     1      -0.220  10.167   6.815  1.00  0.00     0.074 A 
ATOM     49  C   UNL     1       0.207  10.285   5.439  1.00  0.00     0.031 C 
ATOM     50  C   UNL     1      -4.673   5.527   6.506  1.00  0.00     0.029 A 
ATOM     51  C   UNL     1      -4.209   6.232   7.702  1.00  0.00     0.049 A 
ATOM     52  H   UNL     1      -2.853   7.810   7.784  1.00  0.00     0.167 HD
ATOM     53  C   UNL     1       0.248  10.934   7.827  1.00  0.00     0.037 A 
ATOM     54  C   UNL     1      -4.596   5.985   8.969  1.00  0.00     0.037 A 
ATOM     55  C   UNL     1      -0.178  10.804   9.195  1.00  0.00     0.049 A 
ATOM     56  C   UNL     1      -3.994   6.794  10.093  1.00  0.00     0.074 A 
ATOM     57  C   UNL     1       0.222  11.540  10.295  1.00  0.00     0.029 A 
ATOM     58  N   UNL     1      -1.093   9.866   9.649  1.00  0.00    -0.354 N 
ATOM     59  N   UNL     1      -3.118   7.768  10.039  1.00  0.00    -0.248 NA
ATOM     60  C   UNL     1      -4.436   6.467  11.457  1.00  0.00     0.031 C 
ATOM     61  C   UNL     1      -0.402  11.005  11.426  1.00  0.00     0.029 A 
ATOM     62  C   UNL     1      -1.248   9.985  11.020  1.00  0.00     0.049 A 
ATOM     63  H   UNL     1      -1.563   9.213   9.081  1.00  0.00     0.167 HD
ATOM     64  C   UNL     1      -2.935   8.195  11.349  1.00  0.00     0.074 A 
ATOM     65  C   UNL     1      -3.797   7.379  12.177  1.00  0.00     0.031 C 
ATOM     66  C   UNL     1      -2.129   9.177  11.825  1.00  0.00     0.037 A 
BRANCH  53  67
ATOM     67  C   UNL     1       1.300  11.953   7.500  1.00  0.00     0.064 A 
ATOM     68  C   UNL     1       1.013  13.097   6.740  1.00  0.00     0.173 A 
ATOM     69  C   UNL     1       2.608  11.798   7.983  1.00  0.00     0.173 A 
ATOM     70  F   UNL     1      -0.218  13.285   6.240  1.00  0.00    -0.203 F 
ATOM     71  C   UNL     1       2.002  14.035   6.456  1.00  0.00     0.198 A 
ATOM     72  C   UNL     1       3.586  12.755   7.726  1.00  0.00     0.198 A 
ATOM     73  F   UNL     1       2.936  10.723   8.716  1.00  0.00    -0.203 F 
ATOM     74  F   UNL     1       1.717  15.095   5.687  1.00  0.00    -0.200 F 
ATOM     75  C   UNL     1       3.285  13.867   6.957  1.00  0.00     0.200 A 
ATOM     76  F   UNL     1       4.820  12.598   8.224  1.00  0.00    -0.200 F 
ATOM     77  F   UNL     1       4.233  14.777   6.693  1.00  0.00    -0.200 F 
ENDBRANCH  53  67
BRANCH  54  78
ATOM     78  C   UNL     1      -5.582   4.909   9.255  1.00  0.00     0.064 A 
ATOM     79  C   UNL     1      -6.848   5.208   9.779  1.00  0.00     0.173 A 
ATOM     80  C   UNL     1      -5.269   3.557   9.045  1.00  0.00     0.173 A 
ATOM     81  F   UNL     1      -7.188   6.482  10.021  1.00  0.00    -0.203 F 
ATOM     82  C   UNL     1      -7.751   4.197  10.105  1.00  0.00     0.198 A 
ATOM     83  C   UNL     1      -6.185   2.549   9.340  1.00  0.00     0.198 A 
ATOM     84  F   UNL     1      -4.072   3.213   8.547  1.00  0.00    -0.203 F 
ATOM     85  F   UNL     1      -8.931   4.510  10.659  1.00  0.00    -0.200 F 
ATOM     86  C   UNL     1      -7.421   2.869   9.881  1.00  0.00     0.200 A 
ATOM     87  F   UNL     1      -5.868   1.269   9.106  1.00  0.00    -0.200 F 
ATOM     88  F   UNL     1      -8.290   1.898  10.194  1.00  0.00    -0.200 F 
ENDBRANCH  54  78
BRANCH  66  89
ATOM     89  C   UNL     1      -2.181   9.473  13.298  1.00  0.00     0.064 A 
ATOM     90  C   UNL     1      -1.652   8.592  14.252  1.00  0.00     0.173 A 
ATOM     91  C   UNL     1      -2.711  10.692  13.752  1.00  0.00     0.173 A 
ATOM     92  F   UNL     1      -1.146   7.409  13.873  1.00  0.00    -0.203 F 
ATOM     93  C   UNL     1      -1.671   8.912  15.608  1.00  0.00     0.198 A 
ATOM     94  C   UNL     1      -2.695  11.023  15.103  1.00  0.00     0.198 A 
ATOM     95  F   UNL     1      -3.221  11.574  12.880  1.00  0.00    -0.203 F 
ATOM     96  F   UNL     1      -1.201   8.036  16.507  1.00  0.00    -0.200 F 
ATOM     97  C   UNL     1      -2.182  10.130  16.031  1.00  0.00     0.200 A 
ATOM     98  F   UNL     1      -3.171  12.209  15.507  1.00  0.00    -0.200 F 
ATOM     99  F   UNL     1      -2.183  10.442  17.334  1.00  0.00    -0.200 F 
ENDBRANCH  66  89
ENDBRANCH  40  41
ENDBRANCH  33  35
ENDBRANCH  32  33
ENDBRANCH  31  32
ENDBRANCH  30  31
ENDBRANCH  29  30
ENDBRANCH  28  29
ENDBRANCH  27  28
ENDBRANCH   1  27
TORSDOF 22
