REMARK SMILES CC(C)n1cncc1[C@@H](NC(=O)OC(C)(C)C)C(=O)OCCOCCOCCOCCOC(=O)c1ccc(-c2c3nc(c(-c4c(F)c(F)c(F)c(F)c4F)c4ccc([nH]4)c(-c4c(F)c(F)c(F)c(F)c4F)c4nc(c(-c5c(F)c(F)c(F)c(F)c5F)c5ccc2[nH]5)C=C4)C=C3)cc1
REMARK SMILES IDX 25 1 24 2 23 3 22 4 21 5 20 6 18 7 19 8 9 9 8 10 4 11 5 12
REMARK SMILES IDX 6 13 7 14 2 15 1 16 3 17 10 18 11 19 12 21 13 22 14 23 15 24
REMARK SMILES IDX 16 25 17 26 26 27 27 28 28 29 29 30 30 31 31 32 32 33 33 34
REMARK SMILES IDX 34 35 35 36 36 37 97 38 37 39 96 40 38 41 39 42 40 43 90 44
REMARK SMILES IDX 41 45 95 46 89 47 91 48 42 49 94 50 88 51 87 52 43 54 75 55
REMARK SMILES IDX 55 56 74 57 56 58 59 59 73 60 92 61 57 62 58 63 72 65 93 66
REMARK SMILES IDX 60 67 44 68 45 69 53 70 46 71 47 72 51 73 54 74 48 75 49 76
REMARK SMILES IDX 52 77 50 78 76 79 77 80 85 81 78 82 79 83 83 84 86 85 80 86
REMARK SMILES IDX 81 87 84 88 82 89 61 90 62 91 70 92 63 93 64 94 68 95 71 96
REMARK SMILES IDX 65 97 66 98 69 99 67 100
REMARK H PARENT 10 20 91 53 59 64
REMARK Flexibility Score: inf
ROOT
ATOM      1  C   UNL     1      -1.801   0.104   2.451  1.00  0.00     0.188 C 
ENDROOT
BRANCH   1   2
ATOM      2  C   UNL     1      -0.826   1.211   2.922  1.00  0.00     0.188 C 
BRANCH   2   3
ATOM      3  O   UNL     1      -1.294   2.290   3.717  1.00  0.00    -0.376 OA
BRANCH   3   4
ATOM      4  C   UNL     1      -2.526   2.890   3.372  1.00  0.00     0.202 C 
BRANCH   4   5
ATOM      5  C   UNL     1      -2.812   3.232   1.912  1.00  0.00     0.261 C 
BRANCH   5   6
ATOM      6  O   UNL     1      -2.542   2.257   0.897  1.00  0.00    -0.461 OA
BRANCH   6   7
ATOM      7  C   UNL     1      -1.500   2.520   0.063  1.00  0.00     0.335 C 
ATOM      8  O   UNL     1      -0.681   3.419   0.236  1.00  0.00    -0.249 OA
BRANCH   7   9
ATOM      9  C   UNL     1      -1.548   1.692  -1.226  1.00  0.00     0.244 C 
BRANCH   9  10
ATOM     10  C   UNL     1      -1.927   0.235  -1.094  1.00  0.00     0.072 A 
ATOM     11  N   UNL     1      -1.103  -0.890  -0.966  1.00  0.00    -0.330 N 
ATOM     12  C   UNL     1      -1.946  -1.985  -1.024  1.00  0.00     0.199 A 
ATOM     13  N   UNL     1      -3.210  -1.652  -1.057  1.00  0.00    -0.245 NA
ATOM     14  C   UNL     1      -3.212  -0.292  -1.087  1.00  0.00     0.137 A 
BRANCH  11  15
ATOM     15  C   UNL     1       0.354  -1.062  -0.836  1.00  0.00     0.082 C 
ATOM     16  C   UNL     1       1.143   0.125  -0.281  1.00  0.00     0.031 C 
ATOM     17  C   UNL     1       0.742  -2.280   0.044  1.00  0.00     0.031 C 
ENDBRANCH  11  15
ENDBRANCH   9  10
BRANCH   9  18
ATOM     18  N   UNL     1      -2.333   2.312  -2.287  1.00  0.00    -0.302 N 
ATOM     19  C   UNL     1      -3.164   3.398  -2.280  1.00  0.00     0.408 C 
ATOM     20  H   UNL     1      -2.251   1.871  -3.163  1.00  0.00     0.168 HD
ATOM     21  O   UNL     1      -3.625   3.783  -3.347  1.00  0.00    -0.225 OA
BRANCH  19  22
ATOM     22  O   UNL     1      -3.404   3.979  -1.069  1.00  0.00    -0.444 OA
BRANCH  22  23
ATOM     23  C   UNL     1      -4.226   5.187  -0.998  1.00  0.00     0.106 C 
ATOM     24  C   UNL     1      -3.508   6.345  -1.697  1.00  0.00     0.056 C 
ATOM     25  C   UNL     1      -5.639   4.912  -1.525  1.00  0.00     0.056 C 
ATOM     26  C   UNL     1      -4.398   5.617   0.473  1.00  0.00     0.056 C 
ENDBRANCH  22  23
ENDBRANCH  19  22
ENDBRANCH   9  18
ENDBRANCH   7   9
ENDBRANCH   6   7
ENDBRANCH   5   6
ENDBRANCH   4   5
ENDBRANCH   3   4
ENDBRANCH   2   3
ENDBRANCH   1   2
BRANCH   1  27
ATOM     27  O   UNL     1      -3.179   0.357   2.658  1.00  0.00    -0.377 OA
BRANCH  27  28
ATOM     28  C   UNL     1      -3.759  -0.224   3.819  1.00  0.00     0.188 C 
BRANCH  28  29
ATOM     29  C   UNL     1      -2.956  -0.130   5.139  1.00  0.00     0.188 C 
BRANCH  29  30
ATOM     30  O   UNL     1      -1.555  -0.331   5.006  1.00  0.00    -0.376 OA
BRANCH  30  31
ATOM     31  C   UNL     1      -0.899  -1.556   5.273  1.00  0.00     0.202 C 
BRANCH  31  32
ATOM     32  C   UNL     1      -1.245  -2.800   4.455  1.00  0.00     0.261 C 
BRANCH  32  33
ATOM     33  O   UNL     1      -2.616  -2.942   4.160  1.00  0.00    -0.460 OA
BRANCH  33  34
ATOM     34  C   UNL     1      -3.394  -3.143   5.239  1.00  0.00     0.338 C 
ATOM     35  O   UNL     1      -3.078  -3.060   6.409  1.00  0.00    -0.246 OA
BRANCH  34  36
ATOM     36  C   UNL     1      -4.690  -3.630   4.771  1.00  0.00     0.060 A 
ATOM     37  C   UNL     1      -5.645  -3.807   5.768  1.00  0.00     0.016 A 
ATOM     38  C   UNL     1      -4.741  -4.288   3.531  1.00  0.00     0.016 A 
ATOM     39  C   UNL     1      -6.466  -4.894   5.651  1.00  0.00     0.010 A 
ATOM     40  C   UNL     1      -5.550  -5.384   3.425  1.00  0.00     0.010 A 
ATOM     41  C   UNL     1      -6.315  -5.726   4.533  1.00  0.00    -0.014 A 
BRANCH  41  42
ATOM     42  C   UNL     1      -7.089  -6.937   4.515  1.00  0.00     0.031 A 
ATOM     43  C   UNL     1      -8.522  -6.659   4.321  1.00  0.00     0.074 A 
ATOM     44  C   UNL     1      -6.529  -8.154   4.616  1.00  0.00     0.049 A 
ATOM     45  N   UNL     1      -9.467  -6.856   5.175  1.00  0.00    -0.248 NA
ATOM     46  C   UNL     1      -8.920  -5.881   3.136  1.00  0.00     0.031 C 
ATOM     47  C   UNL     1      -5.112  -8.516   4.578  1.00  0.00     0.029 A 
ATOM     48  N   UNL     1      -7.149  -9.360   4.675  1.00  0.00    -0.354 N 
ATOM     49  C   UNL     1     -10.622  -6.425   4.542  1.00  0.00     0.074 A 
ATOM     50  C   UNL     1     -10.210  -5.665   3.392  1.00  0.00     0.031 C 
ATOM     51  C   UNL     1      -5.003  -9.848   4.365  1.00  0.00     0.029 A 
ATOM     52  C   UNL     1      -6.332 -10.436   4.362  1.00  0.00     0.049 A 
ATOM     53  H   UNL     1      -8.097  -9.462   4.919  1.00  0.00     0.167 HD
ATOM     54  C   UNL     1     -11.812  -7.000   4.849  1.00  0.00     0.037 A 
ATOM     55  C   UNL     1      -6.768 -11.674   4.012  1.00  0.00     0.037 A 
ATOM     56  C   UNL     1     -11.780  -7.598   6.162  1.00  0.00     0.049 A 
ATOM     57  C   UNL     1      -8.169 -11.804   4.508  1.00  0.00     0.074 A 
ATOM     58  C   UNL     1     -11.460  -7.119   7.421  1.00  0.00     0.029 A 
ATOM     59  N   UNL     1     -11.704  -8.967   6.262  1.00  0.00    -0.354 N 
ATOM     60  N   UNL     1      -8.483 -11.882   5.772  1.00  0.00    -0.248 NA
ATOM     61  C   UNL     1      -9.241 -11.347   3.629  1.00  0.00     0.031 C 
ATOM     62  C   UNL     1     -10.725  -8.170   8.042  1.00  0.00     0.029 A 
ATOM     63  C   UNL     1     -10.711  -9.253   7.165  1.00  0.00     0.049 A 
ATOM     64  H   UNL     1     -12.258  -9.620   5.776  1.00  0.00     0.167 HD
ATOM     65  C   UNL     1      -9.604 -11.076   5.907  1.00  0.00     0.074 A 
ATOM     66  C   UNL     1     -10.069 -10.832   4.543  1.00  0.00     0.031 C 
ATOM     67  C   UNL     1      -9.875 -10.426   7.077  1.00  0.00     0.037 A 
BRANCH  54  68
ATOM     68  C   UNL     1     -12.808  -7.383   3.789  1.00  0.00     0.064 A 
ATOM     69  C   UNL     1     -14.071  -7.854   4.185  1.00  0.00     0.173 A 
ATOM     70  C   UNL     1     -12.472  -7.598   2.431  1.00  0.00     0.173 A 
ATOM     71  F   UNL     1     -14.475  -7.729   5.459  1.00  0.00    -0.203 F 
ATOM     72  C   UNL     1     -14.898  -8.557   3.309  1.00  0.00     0.198 A 
ATOM     73  C   UNL     1     -13.325  -8.247   1.546  1.00  0.00     0.198 A 
ATOM     74  F   UNL     1     -11.266  -7.306   1.931  1.00  0.00    -0.203 F 
ATOM     75  F   UNL     1     -16.030  -9.108   3.766  1.00  0.00    -0.200 F 
ATOM     76  C   UNL     1     -14.523  -8.757   1.992  1.00  0.00     0.200 A 
ATOM     77  F   UNL     1     -12.929  -8.450   0.281  1.00  0.00    -0.200 F 
ATOM     78  F   UNL     1     -15.286  -9.487   1.169  1.00  0.00    -0.200 F 
ENDBRANCH  54  68
BRANCH  55  79
ATOM     79  C   UNL     1      -6.190 -12.591   2.994  1.00  0.00     0.064 A 
ATOM     80  C   UNL     1      -6.667 -13.907   2.859  1.00  0.00     0.173 A 
ATOM     81  C   UNL     1      -5.350 -12.130   1.960  1.00  0.00     0.173 A 
ATOM     82  F   UNL     1      -7.508 -14.418   3.771  1.00  0.00    -0.203 F 
ATOM     83  C   UNL     1      -6.347 -14.697   1.748  1.00  0.00     0.198 A 
ATOM     84  C   UNL     1      -5.021 -12.924   0.860  1.00  0.00     0.198 A 
ATOM     85  F   UNL     1      -4.899 -10.869   1.938  1.00  0.00    -0.203 F 
ATOM     86  F   UNL     1      -6.877 -15.922   1.625  1.00  0.00    -0.200 F 
ATOM     87  C   UNL     1      -5.532 -14.201   0.745  1.00  0.00     0.200 A 
ATOM     88  F   UNL     1      -4.256 -12.417  -0.118  1.00  0.00    -0.200 F 
ATOM     89  F   UNL     1      -5.272 -14.934  -0.346  1.00  0.00    -0.200 F 
ENDBRANCH  55  79
BRANCH  67  90
ATOM     90  C   UNL     1      -9.087 -10.794   8.303  1.00  0.00     0.064 A 
ATOM     91  C   UNL     1      -7.687 -10.696   8.405  1.00  0.00     0.173 A 
ATOM     92  C   UNL     1      -9.794 -11.119   9.470  1.00  0.00     0.173 A 
ATOM     93  F   UNL     1      -6.945 -10.279   7.371  1.00  0.00    -0.203 F 
ATOM     94  C   UNL     1      -7.029 -10.966   9.605  1.00  0.00     0.198 A 
ATOM     95  C   UNL     1      -9.138 -11.345  10.676  1.00  0.00     0.198 A 
ATOM     96  F   UNL     1     -11.135 -11.171   9.450  1.00  0.00    -0.203 F 
ATOM     97  F   UNL     1      -5.692 -10.884   9.671  1.00  0.00    -0.200 F 
ATOM     98  C   UNL     1      -7.756 -11.283  10.740  1.00  0.00     0.200 A 
ATOM     99  F   UNL     1      -9.849 -11.598  11.783  1.00  0.00    -0.200 F 
ATOM    100  F   UNL     1      -7.127 -11.501  11.904  1.00  0.00    -0.200 F 
ENDBRANCH  67  90
ENDBRANCH  41  42
ENDBRANCH  34  36
ENDBRANCH  33  34
ENDBRANCH  32  33
ENDBRANCH  31  32
ENDBRANCH  30  31
ENDBRANCH  29  30
ENDBRANCH  28  29
ENDBRANCH  27  28
ENDBRANCH   1  27
TORSDOF 25
