REMARK SMILES Cc1ccc(NC(=O)C[C@H]([NH2+]Cc2cccnc2)C(=O)OCCOCCOCCOCCOC(=O)c2ccc(-c3c4nc(c(-c5c(F)c(F)c(F)c(F)c5F)c5ccc([nH]5)c(-c5c(F)c(F)c(F)c(F)c5F)c5nc(c(-c6c(F)c(F)c(F)c(F)c6F)c6ccc3[nH]6)C=C5)C=C4)cc2)cc1Cl
REMARK SMILES IDX 26 1 25 2 24 3 23 4 22 5 21 6 19 7 20 8 10 9 9 10 7 11 6 12
REMARK SMILES IDX 8 14 5 15 1 16 2 17 3 18 100 19 4 20 99 21 101 22 11 23
REMARK SMILES IDX 12 26 13 27 14 28 18 29 15 30 17 31 16 32 27 33 28 34 29 35
REMARK SMILES IDX 30 36 31 37 32 38 33 39 34 40 35 41 36 42 37 43 98 44 38 45
REMARK SMILES IDX 97 46 39 47 40 48 41 49 91 50 42 51 96 52 90 53 92 54 43 55
REMARK SMILES IDX 95 56 89 57 88 58 44 60 76 61 56 62 75 63 57 64 60 65 74 66
REMARK SMILES IDX 93 67 58 68 59 69 73 71 94 72 61 73 45 74 46 75 54 76 47 77
REMARK SMILES IDX 48 78 52 79 55 80 49 81 50 82 53 83 51 84 77 85 78 86 86 87
REMARK SMILES IDX 79 88 80 89 84 90 87 91 81 92 82 93 85 94 83 95 62 96 63 97
REMARK SMILES IDX 71 98 64 99 65 100 69 101 72 102 66 103 67 104 70 105 68 106
REMARK H PARENT 6 13 11 24 11 25 92 59 60 70
REMARK Flexibility Score: inf
ROOT
ATOM      1  C   UNL     1       2.211  -5.380  -0.787  1.00  0.00     0.188 C 
ENDROOT
BRANCH   1   2
ATOM      2  C   UNL     1       2.941  -5.327  -2.126  1.00  0.00     0.188 C 
BRANCH   2   3
ATOM      3  O   UNL     1       3.939  -4.353  -2.398  1.00  0.00    -0.376 OA
BRANCH   3   4
ATOM      4  C   UNL     1       4.183  -3.289  -1.496  1.00  0.00     0.202 C 
BRANCH   4   5
ATOM      5  C   UNL     1       3.151  -2.151  -1.472  1.00  0.00     0.261 C 
BRANCH   5   6
ATOM      6  O   UNL     1       1.809  -2.439  -1.024  1.00  0.00    -0.459 OA
BRANCH   6   7
ATOM      7  C   UNL     1       0.844  -2.569  -1.978  1.00  0.00     0.365 C 
ATOM      8  O   UNL     1       1.072  -2.802  -3.160  1.00  0.00    -0.245 OA
BRANCH   7   9
ATOM      9  C   UNL     1      -0.591  -2.311  -1.446  1.00  0.00     0.303 C 
BRANCH   9  10
ATOM     10  C   UNL     1      -0.621  -0.972  -0.721  1.00  0.00     0.177 C 
BRANCH  10  11
ATOM     11  C   UNL     1       0.194  -0.545   0.496  1.00  0.00     0.231 C 
ATOM     12  N   UNL     1       0.340  -1.123   1.710  1.00  0.00    -0.326 N 
ATOM     13  H   UNL     1       0.600  -0.446   2.375  1.00  0.00     0.169 HD
ATOM     14  O   UNL     1       0.636   0.621   0.456  1.00  0.00    -0.274 OA
BRANCH  12  15
ATOM     15  C   UNL     1       0.240  -2.383   2.322  1.00  0.00     0.042 A 
ATOM     16  C   UNL     1      -0.247  -6.127   4.477  1.00  0.00     0.046 C 
ATOM     17  C   UNL     1      -0.016  -4.845   3.735  1.00  0.00    -0.032 A 
ATOM     18  C   UNL     1       0.090  -3.631   4.420  1.00  0.00     0.007 A 
ATOM     19  C   UNL     1       0.043  -4.810   2.344  1.00  0.00     0.046 A 
ATOM     20  C   UNL     1       0.207  -2.418   3.720  1.00  0.00     0.026 A 
ATOM     21  C   UNL     1       0.243  -3.597   1.669  1.00  0.00     0.047 A 
ATOM     22  Cl  UNL     1      -0.188  -6.254   1.414  1.00  0.00    -0.084 Cl
ENDBRANCH  12  15
ENDBRANCH  10  11
ENDBRANCH   9  10
BRANCH   9  23
ATOM     23  N   UNL     1      -1.262  -3.464  -0.795  1.00  0.00    -0.330 N 
ATOM     24  H   UNL     1      -0.749  -3.688   0.058  1.00  0.00     0.347 HD
ATOM     25  H   UNL     1      -1.259  -4.219  -1.480  1.00  0.00     0.347 HD
BRANCH  23  26
ATOM     26  C   UNL     1      -2.671  -3.241  -0.434  1.00  0.00     0.299 C 
BRANCH  26  27
ATOM     27  C   UNL     1      -3.086  -3.924   0.848  1.00  0.00     0.024 A 
ATOM     28  C   UNL     1      -3.428  -5.277   0.905  1.00  0.00     0.013 A 
ATOM     29  C   UNL     1      -3.158  -3.212   2.048  1.00  0.00     0.120 A 
ATOM     30  C   UNL     1      -3.810  -5.849   2.121  1.00  0.00     0.021 A 
ATOM     31  N   UNL     1      -3.534  -3.737   3.240  1.00  0.00    -0.264 NA
ATOM     32  C   UNL     1      -3.847  -5.047   3.249  1.00  0.00     0.111 A 
ENDBRANCH  26  27
ENDBRANCH  23  26
ENDBRANCH   9  23
ENDBRANCH   7   9
ENDBRANCH   6   7
ENDBRANCH   5   6
ENDBRANCH   4   5
ENDBRANCH   3   4
ENDBRANCH   2   3
ENDBRANCH   1   2
BRANCH   1  33
ATOM     33  O   UNL     1       2.932  -4.861   0.308  1.00  0.00    -0.377 OA
BRANCH  33  34
ATOM     34  C   UNL     1       3.453  -5.790   1.240  1.00  0.00     0.188 C 
BRANCH  34  35
ATOM     35  C   UNL     1       4.346  -6.896   0.674  1.00  0.00     0.188 C 
BRANCH  35  36
ATOM     36  O   UNL     1       3.775  -7.943  -0.094  1.00  0.00    -0.376 OA
BRANCH  36  37
ATOM     37  C   UNL     1       2.629  -8.683   0.293  1.00  0.00     0.202 C 
BRANCH  37  38
ATOM     38  C   UNL     1       2.275  -9.095   1.730  1.00  0.00     0.261 C 
BRANCH  38  39
ATOM     39  O   UNL     1       2.617  -8.179   2.769  1.00  0.00    -0.460 OA
BRANCH  39  40
ATOM     40  C   UNL     1       3.729  -8.495   3.456  1.00  0.00     0.338 C 
ATOM     41  O   UNL     1       4.457  -9.472   3.282  1.00  0.00    -0.246 OA
BRANCH  40  42
ATOM     42  C   UNL     1       4.071  -7.412   4.385  1.00  0.00     0.060 A 
ATOM     43  C   UNL     1       5.350  -6.856   4.290  1.00  0.00     0.016 A 
ATOM     44  C   UNL     1       3.202  -7.032   5.411  1.00  0.00     0.016 A 
ATOM     45  C   UNL     1       5.798  -5.979   5.269  1.00  0.00     0.010 A 
ATOM     46  C   UNL     1       3.651  -6.147   6.395  1.00  0.00     0.010 A 
ATOM     47  C   UNL     1       4.974  -5.676   6.361  1.00  0.00    -0.014 A 
BRANCH  47  48
ATOM     48  C   UNL     1       5.604  -5.091   7.568  1.00  0.00     0.031 A 
ATOM     49  C   UNL     1       5.976  -6.016   8.697  1.00  0.00     0.074 A 
ATOM     50  C   UNL     1       5.931  -3.790   7.619  1.00  0.00     0.049 A 
ATOM     51  N   UNL     1       6.584  -5.753   9.826  1.00  0.00    -0.248 NA
ATOM     52  C   UNL     1       5.613  -7.434   8.530  1.00  0.00     0.031 C 
ATOM     53  C   UNL     1       5.666  -2.811   6.567  1.00  0.00     0.029 A 
ATOM     54  N   UNL     1       6.571  -3.073   8.597  1.00  0.00    -0.354 N 
ATOM     55  C   UNL     1       6.673  -6.965  10.498  1.00  0.00     0.074 A 
ATOM     56  C   UNL     1       6.018  -7.958   9.676  1.00  0.00     0.031 C 
ATOM     57  C   UNL     1       6.144  -1.617   6.955  1.00  0.00     0.029 A 
ATOM     58  C   UNL     1       6.724  -1.744   8.292  1.00  0.00     0.049 A 
ATOM     59  H   UNL     1       6.891  -3.474   9.438  1.00  0.00     0.167 HD
ATOM     60  C   UNL     1       7.264  -7.232  11.686  1.00  0.00     0.037 A 
ATOM     61  C   UNL     1       7.263  -0.746   9.019  1.00  0.00     0.037 A 
ATOM     62  C   UNL     1       7.922  -6.244  12.498  1.00  0.00     0.049 A 
ATOM     63  C   UNL     1       7.855  -1.057  10.370  1.00  0.00     0.074 A 
ATOM     64  C   UNL     1       8.562  -6.410  13.713  1.00  0.00     0.029 A 
ATOM     65  N   UNL     1       8.017  -4.897  12.176  1.00  0.00    -0.354 N 
ATOM     66  N   UNL     1       7.958  -2.210  10.988  1.00  0.00    -0.248 NA
ATOM     67  C   UNL     1       8.419   0.074  11.120  1.00  0.00     0.031 C 
ATOM     68  C   UNL     1       8.991  -5.155  14.155  1.00  0.00     0.029 A 
ATOM     69  C   UNL     1       8.682  -4.217  13.184  1.00  0.00     0.049 A 
ATOM     70  H   UNL     1       7.665  -4.487  11.354  1.00  0.00     0.167 HD
ATOM     71  C   UNL     1       8.627  -1.949  12.178  1.00  0.00     0.074 A 
ATOM     72  C   UNL     1       8.919  -0.531  12.188  1.00  0.00     0.031 C 
ATOM     73  C   UNL     1       8.973  -2.806  13.172  1.00  0.00     0.037 A 
BRANCH  60  74
ATOM     74  C   UNL     1       7.199  -8.645  12.192  1.00  0.00     0.064 A 
ATOM     75  C   UNL     1       7.912  -9.688  11.579  1.00  0.00     0.173 A 
ATOM     76  C   UNL     1       6.427  -8.957  13.321  1.00  0.00     0.173 A 
ATOM     77  F   UNL     1       8.651  -9.448  10.485  1.00  0.00    -0.203 F 
ATOM     78  C   UNL     1       7.831 -10.992  12.061  1.00  0.00     0.198 A 
ATOM     79  C   UNL     1       6.375 -10.255  13.820  1.00  0.00     0.198 A 
ATOM     80  F   UNL     1       5.725  -7.999  13.946  1.00  0.00    -0.203 F 
ATOM     81  F   UNL     1       8.477 -11.980  11.427  1.00  0.00    -0.200 F 
ATOM     82  C   UNL     1       7.069 -11.273  13.185  1.00  0.00     0.200 A 
ATOM     83  F   UNL     1       5.649 -10.522  14.915  1.00  0.00    -0.200 F 
ATOM     84  F   UNL     1       6.998 -12.527  13.652  1.00  0.00    -0.200 F 
ENDBRANCH  60  74
BRANCH  61  85
ATOM     85  C   UNL     1       7.266   0.642   8.488  1.00  0.00     0.064 A 
ATOM     86  C   UNL     1       8.464   1.294   8.160  1.00  0.00     0.173 A 
ATOM     87  C   UNL     1       6.070   1.358   8.324  1.00  0.00     0.173 A 
ATOM     88  F   UNL     1       9.636   0.661   8.321  1.00  0.00    -0.203 F 
ATOM     89  C   UNL     1       8.466   2.614   7.713  1.00  0.00     0.198 A 
ATOM     90  C   UNL     1       6.072   2.666   7.847  1.00  0.00     0.198 A 
ATOM     91  F   UNL     1       4.897   0.782   8.624  1.00  0.00    -0.203 F 
ATOM     92  F   UNL     1       9.629   3.230   7.461  1.00  0.00    -0.200 F 
ATOM     93  C   UNL     1       7.271   3.297   7.552  1.00  0.00     0.200 A 
ATOM     94  F   UNL     1       4.913   3.317   7.681  1.00  0.00    -0.200 F 
ATOM     95  F   UNL     1       7.274   4.566   7.124  1.00  0.00    -0.200 F 
ENDBRANCH  61  85
BRANCH  73  96
ATOM     96  C   UNL     1       9.750  -2.243  14.330  1.00  0.00     0.064 A 
ATOM     97  C   UNL     1       9.170  -1.364  15.257  1.00  0.00     0.173 A 
ATOM     98  C   UNL     1      11.088  -2.617  14.531  1.00  0.00     0.173 A 
ATOM     99  F   UNL     1       7.898  -0.966  15.106  1.00  0.00    -0.203 F 
ATOM    100  C   UNL     1       9.912  -0.850  16.317  1.00  0.00     0.198 A 
ATOM    101  C   UNL     1      11.815  -2.131  15.614  1.00  0.00     0.198 A 
ATOM    102  F   UNL     1      11.689  -3.465  13.683  1.00  0.00    -0.203 F 
ATOM    103  F   UNL     1       9.355   0.036  17.154  1.00  0.00    -0.200 F 
ATOM    104  C   UNL     1      11.231  -1.239  16.499  1.00  0.00     0.200 A 
ATOM    105  F   UNL     1      13.083  -2.524  15.798  1.00  0.00    -0.200 F 
ATOM    106  F   UNL     1      11.941  -0.747  17.523  1.00  0.00    -0.200 F 
ENDBRANCH  73  96
ENDBRANCH  47  48
ENDBRANCH  40  42
ENDBRANCH  39  40
ENDBRANCH  38  39
ENDBRANCH  37  38
ENDBRANCH  36  37
ENDBRANCH  35  36
ENDBRANCH  34  35
ENDBRANCH  33  34
ENDBRANCH   1  33
TORSDOF 26
