REMARK SMILES COc1ccc(-c2[nH]nc3nc(-c4ccc(C(F)(F)F)cc4)cc(C(=O)OCCOCCOCCOCCOC(=O)c4ccc(-c5c6nc(c(-c7c(F)c(F)c(F)c(F)c7F)c7ccc([nH]7)c(-c7c(F)c(F)c(F)c(F)c7F)c7nc(c(-c8c(F)c(F)c(F)c(F)c8F)c8ccc5[nH]8)C=C7)C=C6)cc4)c23)cc1
REMARK SMILES IDX 33 1 32 2 31 3 30 4 29 5 28 6 27 7 25 8 26 9 24 10 7 11 8 12
REMARK SMILES IDX 105 13 9 14 10 16 11 17 23 18 12 19 6 20 3 21 4 22 107 23
REMARK SMILES IDX 5 24 106 25 2 26 1 27 13 28 14 29 22 30 15 31 21 32 16 33
REMARK SMILES IDX 17 34 18 35 19 36 20 37 34 38 35 39 36 40 37 41 38 42 39 43
REMARK SMILES IDX 40 44 41 45 42 46 43 47 104 48 44 49 103 50 45 51 46 52
REMARK SMILES IDX 47 53 97 54 48 55 102 56 96 57 98 58 49 59 101 60 95 61
REMARK SMILES IDX 94 62 50 64 82 65 62 66 81 67 63 68 66 69 80 70 99 71 64 72
REMARK SMILES IDX 65 73 79 75 100 76 67 77 51 78 52 79 60 80 53 81 54 82 58 83
REMARK SMILES IDX 61 84 55 85 56 86 59 87 57 88 83 89 84 90 92 91 85 92 86 93
REMARK SMILES IDX 90 94 93 95 87 96 88 97 91 98 89 99 68 100 69 101 77 102
REMARK SMILES IDX 70 103 71 104 75 105 78 106 72 107 73 108 76 109 74 110
REMARK H PARENT 8 15 98 63 66 74
REMARK Flexibility Score: inf
ROOT
ATOM      1  O   UNL     1       7.247  -3.049   3.155  1.00  0.00    -0.377 OA
ENDROOT
BRANCH   1   2
ATOM      2  C   UNL     1       6.088  -3.862   2.979  1.00  0.00     0.188 C 
BRANCH   2   3
ATOM      3  C   UNL     1       4.889  -3.486   3.842  1.00  0.00     0.188 C 
BRANCH   3   4
ATOM      4  O   UNL     1       4.455  -2.145   3.704  1.00  0.00    -0.376 OA
BRANCH   4   5
ATOM      5  C   UNL     1       3.460  -1.621   4.570  1.00  0.00     0.202 C 
BRANCH   5   6
ATOM      6  C   UNL     1       3.459  -2.114   6.023  1.00  0.00     0.261 C 
BRANCH   6   7
ATOM      7  O   UNL     1       3.411  -3.549   6.153  1.00  0.00    -0.460 OA
BRANCH   7   8
ATOM      8  C   UNL     1       2.371  -4.197   5.579  1.00  0.00     0.339 C 
ATOM      9  O   UNL     1       1.280  -3.707   5.343  1.00  0.00    -0.246 OA
BRANCH   8  10
ATOM     10  C   UNL     1       2.833  -5.551   5.200  1.00  0.00     0.075 A 
ATOM     11  C   UNL     1       1.673  -5.947   2.981  1.00  0.00     0.075 A 
ATOM     12  N   UNL     1       1.571  -7.107   2.245  1.00  0.00    -0.275 N 
ATOM     13  C   UNL     1       2.417  -6.310   4.095  1.00  0.00     0.061 A 
ATOM     14  N   UNL     1       2.347  -8.112   2.675  1.00  0.00    -0.154 NA
ATOM     15  H   UNL     1       0.975  -7.191   1.466  1.00  0.00     0.190 HD
ATOM     16  C   UNL     1       2.910  -7.621   3.777  1.00  0.00     0.182 A 
ATOM     17  N   UNL     1       3.882  -8.233   4.494  1.00  0.00    -0.226 NA
ATOM     18  C   UNL     1       3.874  -6.209   5.896  1.00  0.00     0.045 A 
ATOM     19  C   UNL     1       4.360  -7.494   5.532  1.00  0.00     0.074 A 
BRANCH  11  20
ATOM     20  C   UNL     1       1.233  -4.682   2.405  1.00  0.00     0.001 A 
ATOM     21  C   UNL     1       0.516  -2.182   1.320  1.00  0.00     0.118 A 
ATOM     22  C   UNL     1      -0.307  -2.824   2.249  1.00  0.00     0.047 A 
ATOM     23  C   UNL     1       1.678  -2.819   0.894  1.00  0.00     0.047 A 
ATOM     24  C   UNL     1       0.039  -4.073   2.780  1.00  0.00     0.014 A 
ATOM     25  C   UNL     1       2.031  -4.062   1.432  1.00  0.00     0.014 A 
BRANCH  21  26
ATOM     26  O   UNL     1       0.085  -0.947   0.922  1.00  0.00    -0.497 OA
ATOM     27  C   UNL     1       0.921  -0.229   0.022  1.00  0.00     0.278 C 
ENDBRANCH  21  26
ENDBRANCH  11  20
BRANCH  19  28
ATOM     28  C   UNL     1       5.446  -8.157   6.302  1.00  0.00     0.000 A 
ATOM     29  C   UNL     1       6.361  -9.029   5.680  1.00  0.00     0.011 A 
ATOM     30  C   UNL     1       5.572  -7.988   7.692  1.00  0.00     0.011 A 
ATOM     31  C   UNL     1       7.329  -9.727   6.416  1.00  0.00     0.014 A 
ATOM     32  C   UNL     1       6.537  -8.682   8.432  1.00  0.00     0.014 A 
ATOM     33  C   UNL     1       7.414  -9.574   7.806  1.00  0.00     0.056 A 
BRANCH  33  34
ATOM     34  C   UNL     1       8.407 -10.381   8.608  1.00  0.00     0.416 C 
ATOM     35  F   UNL     1       8.208 -11.723   8.487  1.00  0.00    -0.166 F 
ATOM     36  F   UNL     1       9.695 -10.157   8.230  1.00  0.00    -0.166 F 
ATOM     37  F   UNL     1       8.362 -10.120   9.946  1.00  0.00    -0.166 F 
ENDBRANCH  33  34
ENDBRANCH  19  28
ENDBRANCH   8  10
ENDBRANCH   7   8
ENDBRANCH   6   7
ENDBRANCH   5   6
ENDBRANCH   4   5
ENDBRANCH   3   4
ENDBRANCH   2   3
ENDBRANCH   1   2
BRANCH   1  38
ATOM     38  C   UNL     1       7.026  -1.637   3.204  1.00  0.00     0.188 C 
BRANCH  38  39
ATOM     39  C   UNL     1       6.341  -0.953   1.984  1.00  0.00     0.188 C 
BRANCH  39  40
ATOM     40  O   UNL     1       5.376  -1.751   1.310  1.00  0.00    -0.376 OA
BRANCH  40  41
ATOM     41  C   UNL     1       5.563  -2.250  -0.006  1.00  0.00     0.202 C 
BRANCH  41  42
ATOM     42  C   UNL     1       6.779  -3.093  -0.402  1.00  0.00     0.261 C 
BRANCH  42  43
ATOM     43  O   UNL     1       7.881  -2.969   0.462  1.00  0.00    -0.460 OA
BRANCH  43  44
ATOM     44  C   UNL     1       8.602  -1.853   0.280  1.00  0.00     0.338 C 
ATOM     45  O   UNL     1       8.398  -0.967  -0.533  1.00  0.00    -0.246 OA
BRANCH  44  46
ATOM     46  C   UNL     1       9.751  -1.898   1.190  1.00  0.00     0.060 A 
ATOM     47  C   UNL     1      10.617  -0.814   1.088  1.00  0.00     0.016 A 
ATOM     48  C   UNL     1      10.137  -3.140   1.717  1.00  0.00     0.016 A 
ATOM     49  C   UNL     1      11.954  -1.095   1.127  1.00  0.00     0.010 A 
ATOM     50  C   UNL     1      11.472  -3.425   1.743  1.00  0.00     0.010 A 
ATOM     51  C   UNL     1      12.337  -2.428   1.313  1.00  0.00    -0.014 A 
BRANCH  51  52
ATOM     52  C   UNL     1      13.708  -2.755   1.038  1.00  0.00     0.031 A 
ATOM     53  C   UNL     1      14.605  -2.322   2.118  1.00  0.00     0.074 A 
ATOM     54  C   UNL     1      14.064  -3.418  -0.075  1.00  0.00     0.049 A 
ATOM     55  N   UNL     1      15.476  -1.373   2.077  1.00  0.00    -0.248 NA
ATOM     56  C   UNL     1      14.351  -2.868   3.459  1.00  0.00     0.031 C 
ATOM     57  C   UNL     1      13.211  -4.101  -1.051  1.00  0.00     0.029 A 
ATOM     58  N   UNL     1      15.316  -3.698  -0.511  1.00  0.00    -0.354 N 
ATOM     59  C   UNL     1      16.028  -1.339   3.349  1.00  0.00     0.074 A 
ATOM     60  C   UNL     1      15.163  -2.114   4.197  1.00  0.00     0.031 C 
ATOM     61  C   UNL     1      13.980  -4.906  -1.821  1.00  0.00     0.029 A 
ATOM     62  C   UNL     1      15.375  -4.697  -1.469  1.00  0.00     0.049 A 
ATOM     63  H   UNL     1      16.115  -3.232  -0.176  1.00  0.00     0.167 HD
ATOM     64  C   UNL     1      17.307  -0.923   3.529  1.00  0.00     0.037 A 
ATOM     65  C   UNL     1      16.502  -5.363  -1.822  1.00  0.00     0.037 A 
ATOM     66  C   UNL     1      17.755  -0.119   2.418  1.00  0.00     0.049 A 
ATOM     67  C   UNL     1      17.661  -4.527  -1.394  1.00  0.00     0.074 A 
ATOM     68  C   UNL     1      17.320   1.064   1.850  1.00  0.00     0.029 A 
ATOM     69  N   UNL     1      18.569  -0.704   1.478  1.00  0.00    -0.354 N 
ATOM     70  N   UNL     1      17.962  -3.376  -1.935  1.00  0.00    -0.248 NA
ATOM     71  C   UNL     1      18.185  -4.735  -0.050  1.00  0.00     0.031 C 
ATOM     72  C   UNL     1      17.507   0.895   0.446  1.00  0.00     0.029 A 
ATOM     73  C   UNL     1      18.092  -0.354   0.241  1.00  0.00     0.049 A 
ATOM     74  H   UNL     1      19.353  -1.272   1.660  1.00  0.00     0.167 HD
ATOM     75  C   UNL     1      18.337  -2.567  -0.870  1.00  0.00     0.074 A 
ATOM     76  C   UNL     1      18.526  -3.479   0.255  1.00  0.00     0.031 C 
ATOM     77  C   UNL     1      18.171  -1.212  -0.918  1.00  0.00     0.037 A 
BRANCH  64  78
ATOM     78  C   UNL     1      18.253  -1.589   4.495  1.00  0.00     0.064 A 
ATOM     79  C   UNL     1      19.526  -1.023   4.686  1.00  0.00     0.173 A 
ATOM     80  C   UNL     1      18.086  -2.900   5.000  1.00  0.00     0.173 A 
ATOM     81  F   UNL     1      19.798   0.211   4.236  1.00  0.00    -0.203 F 
ATOM     82  C   UNL     1      20.575  -1.749   5.252  1.00  0.00     0.198 A 
ATOM     83  C   UNL     1      19.119  -3.598   5.617  1.00  0.00     0.198 A 
ATOM     84  F   UNL     1      16.966  -3.608   4.822  1.00  0.00    -0.203 F 
ATOM     85  F   UNL     1      21.804  -1.219   5.287  1.00  0.00    -0.200 F 
ATOM     86  C   UNL     1      20.372  -3.039   5.709  1.00  0.00     0.200 A 
ATOM     87  F   UNL     1      18.902  -4.853   6.038  1.00  0.00    -0.200 F 
ATOM     88  F   UNL     1      21.392  -3.760   6.190  1.00  0.00    -0.200 F 
ENDBRANCH  64  78
BRANCH  65  89
ATOM     89  C   UNL     1      16.622  -6.808  -2.133  1.00  0.00     0.064 A 
ATOM     90  C   UNL     1      17.776  -7.323  -2.743  1.00  0.00     0.173 A 
ATOM     91  C   UNL     1      15.718  -7.755  -1.608  1.00  0.00     0.173 A 
ATOM     92  F   UNL     1      18.713  -6.492  -3.221  1.00  0.00    -0.203 F 
ATOM     93  C   UNL     1      18.017  -8.700  -2.811  1.00  0.00     0.198 A 
ATOM     94  C   UNL     1      15.954  -9.127  -1.686  1.00  0.00     0.198 A 
ATOM     95  F   UNL     1      14.633  -7.369  -0.923  1.00  0.00    -0.203 F 
ATOM     96  F   UNL     1      19.158  -9.154  -3.349  1.00  0.00    -0.200 F 
ATOM     97  C   UNL     1      17.109  -9.600  -2.277  1.00  0.00     0.200 A 
ATOM     98  F   UNL     1      15.084  -9.983  -1.130  1.00  0.00    -0.200 F 
ATOM     99  F   UNL     1      17.364 -10.916  -2.294  1.00  0.00    -0.200 F 
ENDBRANCH  65  89
BRANCH  77 100
ATOM    100  C   UNL     1      17.802  -0.598  -2.240  1.00  0.00     0.064 A 
ATOM    101  C   UNL     1      16.602  -0.870  -2.921  1.00  0.00     0.173 A 
ATOM    102  C   UNL     1      18.620   0.414  -2.758  1.00  0.00     0.173 A 
ATOM    103  F   UNL     1      15.716  -1.746  -2.431  1.00  0.00    -0.203 F 
ATOM    104  C   UNL     1      16.263  -0.191  -4.090  1.00  0.00     0.198 A 
ATOM    105  C   UNL     1      18.261   1.118  -3.905  1.00  0.00     0.198 A 
ATOM    106  F   UNL     1      19.748   0.759  -2.118  1.00  0.00    -0.203 F 
ATOM    107  F   UNL     1      15.118  -0.477  -4.727  1.00  0.00    -0.200 F 
ATOM    108  C   UNL     1      17.090   0.808  -4.577  1.00  0.00     0.200 A 
ATOM    109  F   UNL     1      19.038   2.118  -4.342  1.00  0.00    -0.200 F 
ATOM    110  F   UNL     1      16.745   1.492  -5.676  1.00  0.00    -0.200 F 
ENDBRANCH  77 100
ENDBRANCH  51  52
ENDBRANCH  44  46
ENDBRANCH  43  44
ENDBRANCH  42  43
ENDBRANCH  41  42
ENDBRANCH  40  41
ENDBRANCH  39  40
ENDBRANCH  38  39
ENDBRANCH   1  38
TORSDOF 24
