REMARK SMILES CC(C)[NH2+][C@@H](CSc1cccc(F)c1)C(=O)OCCOCCOCCOCCOC(=O)c1ccc(-c2c3nc(c(-c4c(F)c(F)c(F)c(F)c4F)c4ccc([nH]4)c(-c4c(F)c(F)c(F)c(F)c4F)c4nc(c(-c5c(F)c(F)c(F)c(F)c5F)c5ccc2[nH]5)C=C4)C=C3)cc1
REMARK SMILES IDX 22 1 21 2 20 3 19 4 18 5 17 6 15 7 16 8 5 9 4 10 2 13 1 14
REMARK SMILES IDX 3 15 6 16 7 17 8 18 9 19 14 20 10 21 12 22 11 23 13 24 23 25
REMARK SMILES IDX 24 26 25 27 26 28 27 29 28 30 29 31 30 32 31 33 32 34 33 35
REMARK SMILES IDX 94 36 34 37 93 38 35 39 36 40 37 41 87 42 38 43 92 44 86 45
REMARK SMILES IDX 88 46 39 47 91 48 85 49 84 50 40 52 72 53 52 54 71 55 53 56
REMARK SMILES IDX 56 57 70 58 89 59 54 60 55 61 69 63 90 64 57 65 41 66 42 67
REMARK SMILES IDX 50 68 43 69 44 70 48 71 51 72 45 73 46 74 49 75 47 76 73 77
REMARK SMILES IDX 74 78 82 79 75 80 76 81 80 82 83 83 77 84 78 85 81 86 79 87
REMARK SMILES IDX 58 88 59 89 67 90 60 91 61 92 65 93 68 94 62 95 63 96 66 97
REMARK SMILES IDX 64 98
REMARK H PARENT 4 11 4 12 88 51 56 62
REMARK Flexibility Score: inf
ROOT
ATOM      1  C   UNL     1      -3.152  -0.542  -1.611  1.00  0.00     0.188 C 
ENDROOT
BRANCH   1   2
ATOM      2  C   UNL     1      -3.744  -1.680  -2.454  1.00  0.00     0.188 C 
BRANCH   2   3
ATOM      3  O   UNL     1      -5.099  -2.032  -2.257  1.00  0.00    -0.376 OA
BRANCH   3   4
ATOM      4  C   UNL     1      -5.554  -2.625  -1.053  1.00  0.00     0.202 C 
BRANCH   4   5
ATOM      5  C   UNL     1      -4.673  -3.254   0.042  1.00  0.00     0.261 C 
BRANCH   5   6
ATOM      6  O   UNL     1      -3.285  -2.925   0.076  1.00  0.00    -0.459 OA
BRANCH   6   7
ATOM      7  C   UNL     1      -2.426  -3.872  -0.386  1.00  0.00     0.365 C 
ATOM      8  O   UNL     1      -2.775  -4.906  -0.948  1.00  0.00    -0.245 OA
BRANCH   7   9
ATOM      9  C   UNL     1      -0.958  -3.561  -0.036  1.00  0.00     0.304 C 
BRANCH   9  10
ATOM     10  N   UNL     1      -0.631  -2.138  -0.224  1.00  0.00    -0.332 N 
ATOM     11  H   UNL     1      -1.230  -1.792  -0.974  1.00  0.00     0.347 HD
ATOM     12  H   UNL     1      -0.769  -1.737   0.704  1.00  0.00     0.347 HD
BRANCH  10  13
ATOM     13  C   UNL     1       0.736  -1.748  -0.562  1.00  0.00     0.176 C 
ATOM     14  C   UNL     1       0.873  -0.226  -0.412  1.00  0.00     0.075 C 
ATOM     15  C   UNL     1       1.838  -2.430   0.243  1.00  0.00     0.075 C 
ENDBRANCH  10  13
ENDBRANCH   9  10
BRANCH   9  16
ATOM     16  C   UNL     1      -0.696  -4.162   1.362  1.00  0.00     0.152 C 
BRANCH  16  17
ATOM     17  S   UNL     1      -1.671  -3.542   2.805  1.00  0.00    -0.119 SA
BRANCH  17  18
ATOM     18  C   UNL     1      -1.075  -1.878   3.015  1.00  0.00     0.010 A 
ATOM     19  C   UNL     1      -1.896  -0.804   2.640  1.00  0.00     0.015 A 
ATOM     20  C   UNL     1       0.167  -1.615   3.594  1.00  0.00     0.054 A 
ATOM     21  C   UNL     1      -1.461   0.516   2.789  1.00  0.00     0.004 A 
ATOM     22  C   UNL     1       0.584  -0.296   3.754  1.00  0.00     0.124 A 
ATOM     23  C   UNL     1      -0.213   0.770   3.352  1.00  0.00     0.039 A 
ATOM     24  F   UNL     1       1.784  -0.047   4.296  1.00  0.00    -0.207 F 
ENDBRANCH  17  18
ENDBRANCH  16  17
ENDBRANCH   9  16
ENDBRANCH   7   9
ENDBRANCH   6   7
ENDBRANCH   5   6
ENDBRANCH   4   5
ENDBRANCH   3   4
ENDBRANCH   2   3
ENDBRANCH   1   2
BRANCH   1  25
ATOM     25  O   UNL     1      -3.785  -0.332  -0.363  1.00  0.00    -0.377 OA
BRANCH  25  26
ATOM     26  C   UNL     1      -4.892   0.560  -0.316  1.00  0.00     0.188 C 
BRANCH  26  27
ATOM     27  C   UNL     1      -5.705   0.901  -1.585  1.00  0.00     0.188 C 
BRANCH  27  28
ATOM     28  O   UNL     1      -4.946   1.050  -2.774  1.00  0.00    -0.376 OA
BRANCH  28  29
ATOM     29  C   UNL     1      -4.602   2.357  -3.210  1.00  0.00     0.202 C 
BRANCH  29  30
ATOM     30  C   UNL     1      -3.636   3.163  -2.325  1.00  0.00     0.261 C 
BRANCH  30  31
ATOM     31  O   UNL     1      -4.068   3.391  -0.975  1.00  0.00    -0.460 OA
BRANCH  31  32
ATOM     32  C   UNL     1      -5.208   4.090  -0.806  1.00  0.00     0.338 C 
ATOM     33  O   UNL     1      -5.897   4.603  -1.675  1.00  0.00    -0.246 OA
BRANCH  32  34
ATOM     34  C   UNL     1      -5.607   3.988   0.611  1.00  0.00     0.060 A 
ATOM     35  C   UNL     1      -6.848   3.415   0.918  1.00  0.00     0.016 A 
ATOM     36  C   UNL     1      -4.778   4.470   1.626  1.00  0.00     0.016 A 
ATOM     37  C   UNL     1      -7.287   3.373   2.240  1.00  0.00     0.010 A 
ATOM     38  C   UNL     1      -5.228   4.446   2.950  1.00  0.00     0.010 A 
ATOM     39  C   UNL     1      -6.503   3.937   3.256  1.00  0.00    -0.014 A 
BRANCH  39  40
ATOM     40  C   UNL     1      -7.110   4.178   4.589  1.00  0.00     0.031 A 
ATOM     41  C   UNL     1      -7.644   5.552   4.893  1.00  0.00     0.074 A 
ATOM     42  C   UNL     1      -7.247   3.185   5.486  1.00  0.00     0.049 A 
ATOM     43  N   UNL     1      -8.209   6.002   5.984  1.00  0.00    -0.248 NA
ATOM     44  C   UNL     1      -7.532   6.555   3.820  1.00  0.00     0.031 C 
ATOM     45  C   UNL     1      -6.826   1.801   5.284  1.00  0.00     0.029 A 
ATOM     46  N   UNL     1      -7.791   3.193   6.747  1.00  0.00    -0.354 N 
ATOM     47  C   UNL     1      -8.521   7.331   5.727  1.00  0.00     0.074 A 
ATOM     48  C   UNL     1      -8.050   7.630   4.394  1.00  0.00     0.031 C 
ATOM     49  C   UNL     1      -7.131   1.089   6.384  1.00  0.00     0.029 A 
ATOM     50  C   UNL     1      -7.737   1.974   7.378  1.00  0.00     0.049 A 
ATOM     51  H   UNL     1      -8.182   3.997   7.160  1.00  0.00     0.167 HD
ATOM     52  C   UNL     1      -9.160   8.216   6.525  1.00  0.00     0.037 A 
ATOM     53  C   UNL     1      -8.121   1.621   8.622  1.00  0.00     0.037 A 
ATOM     54  C   UNL     1      -9.636   7.916   7.849  1.00  0.00     0.049 A 
ATOM     55  C   UNL     1      -8.744   2.656   9.526  1.00  0.00     0.074 A 
ATOM     56  C   UNL     1     -10.293   8.751   8.736  1.00  0.00     0.029 A 
ATOM     57  N   UNL     1      -9.508   6.686   8.476  1.00  0.00    -0.354 N 
ATOM     58  N   UNL     1      -9.039   3.909   9.274  1.00  0.00    -0.248 NA
ATOM     59  C   UNL     1      -9.090   2.227  10.890  1.00  0.00     0.031 C 
ATOM     60  C   UNL     1     -10.512   8.045   9.920  1.00  0.00     0.029 A 
ATOM     61  C   UNL     1     -10.053   6.749   9.748  1.00  0.00     0.049 A 
ATOM     62  H   UNL     1      -9.091   5.888   8.078  1.00  0.00     0.167 HD
ATOM     63  C   UNL     1      -9.634   4.404  10.428  1.00  0.00     0.074 A 
ATOM     64  C   UNL     1      -9.672   3.313  11.378  1.00  0.00     0.031 C 
ATOM     65  C   UNL     1     -10.104   5.650  10.679  1.00  0.00     0.037 A 
BRANCH  52  66
ATOM     66  C   UNL     1      -9.390   9.603   6.002  1.00  0.00     0.064 A 
ATOM     67  C   UNL     1      -8.721  10.697   6.572  1.00  0.00     0.173 A 
ATOM     68  C   UNL     1     -10.348   9.863   5.012  1.00  0.00     0.173 A 
ATOM     69  F   UNL     1      -7.796  10.502   7.524  1.00  0.00    -0.203 F 
ATOM     70  C   UNL     1      -9.025  12.001   6.192  1.00  0.00     0.198 A 
ATOM     71  C   UNL     1     -10.630  11.167   4.613  1.00  0.00     0.198 A 
ATOM     72  F   UNL     1     -11.004   8.850   4.424  1.00  0.00    -0.203 F 
ATOM     73  F   UNL     1      -8.407  13.031   6.785  1.00  0.00    -0.200 F 
ATOM     74  C   UNL     1      -9.979  12.235   5.213  1.00  0.00     0.200 A 
ATOM     75  F   UNL     1     -11.536  11.391   3.651  1.00  0.00    -0.200 F 
ATOM     76  F   UNL     1     -10.274  13.491   4.850  1.00  0.00    -0.200 F 
ENDBRANCH  52  66
BRANCH  53  77
ATOM     77  C   UNL     1      -7.934   0.221   9.092  1.00  0.00     0.064 A 
ATOM     78  C   UNL     1      -6.655  -0.320   9.288  1.00  0.00     0.173 A 
ATOM     79  C   UNL     1      -9.036  -0.599   9.377  1.00  0.00     0.173 A 
ATOM     80  F   UNL     1      -5.566   0.423   9.039  1.00  0.00    -0.203 F 
ATOM     81  C   UNL     1      -6.485  -1.629   9.735  1.00  0.00     0.198 A 
ATOM     82  C   UNL     1      -8.865  -1.897   9.855  1.00  0.00     0.198 A 
ATOM     83  F   UNL     1     -10.281  -0.121   9.234  1.00  0.00    -0.203 F 
ATOM     84  F   UNL     1      -5.250  -2.127   9.888  1.00  0.00    -0.200 F 
ATOM     85  C   UNL     1      -7.590  -2.413  10.026  1.00  0.00     0.200 A 
ATOM     86  F   UNL     1      -9.936  -2.639  10.168  1.00  0.00    -0.200 F 
ATOM     87  F   UNL     1      -7.426  -3.663  10.481  1.00  0.00    -0.200 F 
ENDBRANCH  53  77
BRANCH  65  88
ATOM     88  C   UNL     1     -10.742   5.908  12.015  1.00  0.00     0.064 A 
ATOM     89  C   UNL     1     -12.115   6.188  12.103  1.00  0.00     0.173 A 
ATOM     90  C   UNL     1      -9.986   5.960  13.195  1.00  0.00     0.173 A 
ATOM     91  F   UNL     1     -12.883   6.165  11.003  1.00  0.00    -0.203 F 
ATOM     92  C   UNL     1     -12.704   6.524  13.319  1.00  0.00     0.198 A 
ATOM     93  C   UNL     1     -10.585   6.262  14.416  1.00  0.00     0.198 A 
ATOM     94  F   UNL     1      -8.672   5.694  13.168  1.00  0.00    -0.203 F 
ATOM     95  F   UNL     1     -14.008   6.829  13.370  1.00  0.00    -0.200 F 
ATOM     96  C   UNL     1     -11.940   6.555  14.475  1.00  0.00     0.200 A 
ATOM     97  F   UNL     1      -9.851   6.266  15.537  1.00  0.00    -0.200 F 
ATOM     98  F   UNL     1     -12.509   6.865  15.648  1.00  0.00    -0.200 F 
ENDBRANCH  65  88
ENDBRANCH  39  40
ENDBRANCH  32  34
ENDBRANCH  31  32
ENDBRANCH  30  31
ENDBRANCH  29  30
ENDBRANCH  28  29
ENDBRANCH  27  28
ENDBRANCH  26  27
ENDBRANCH  25  26
ENDBRANCH   1  25
TORSDOF 25
