REMARK SMILES COc1ccc(NC(=O)[C@@H]2[C@@H](C(=O)OCCOCCOCCOCCOC(=O)c3ccc(-c4c5nc(c(-c6c(F)c(F)c(F)c(F)c6F)c6ccc([nH]6)c(-c6c(F)c(F)c(F)c(F)c6F)c6nc(c(-c7c(F)c(F)c(F)c(F)c7F)c7ccc4[nH]7)C=C6)C=C5)cc3)[C@@H]3CC[C@H]2C3=C(C)C)cc1
REMARK SMILES IDX 19 1 18 2 17 3 16 4 15 5 14 6 12 7 13 8 11 9 10 10 95 11
REMARK SMILES IDX 92 12 94 13 96 14 93 15 97 16 98 17 99 18 8 19 7 20 9 22
REMARK SMILES IDX 6 23 3 24 4 25 101 26 5 27 100 28 2 29 1 30 20 31 21 32
REMARK SMILES IDX 22 33 23 34 24 35 25 36 26 37 27 38 28 39 29 40 30 41 91 42
REMARK SMILES IDX 31 43 90 44 32 45 33 46 34 47 84 48 35 49 89 50 83 51 85 52
REMARK SMILES IDX 36 53 88 54 82 55 81 56 37 58 69 59 49 60 68 61 50 62 53 63
REMARK SMILES IDX 67 64 86 65 51 66 52 67 66 69 87 70 54 71 38 72 39 73 47 74
REMARK SMILES IDX 40 75 41 76 45 77 48 78 42 79 43 80 46 81 44 82 70 83 71 84
REMARK SMILES IDX 79 85 72 86 73 87 77 88 80 89 74 90 75 91 78 92 76 93 55 94
REMARK SMILES IDX 56 95 64 96 57 97 58 98 62 99 65 100 59 101 60 102 63 103
REMARK SMILES IDX 61 104
REMARK H PARENT 7 21 85 57 53 68
REMARK Flexibility Score: inf
ROOT
ATOM      1  C   UNL     1      -0.341  -1.287   5.722  1.00  0.00     0.188 C 
ENDROOT
BRANCH   1   2
ATOM      2  C   UNL     1      -1.678  -1.473   4.972  1.00  0.00     0.188 C 
BRANCH   2   3
ATOM      3  O   UNL     1      -2.693  -0.573   5.396  1.00  0.00    -0.376 OA
BRANCH   3   4
ATOM      4  C   UNL     1      -3.548  -0.983   6.452  1.00  0.00     0.202 C 
BRANCH   4   5
ATOM      5  C   UNL     1      -2.919  -1.382   7.807  1.00  0.00     0.261 C 
BRANCH   5   6
ATOM      6  O   UNL     1      -1.955  -2.462   7.824  1.00  0.00    -0.463 OA
BRANCH   6   7
ATOM      7  C   UNL     1      -2.316  -3.591   7.177  1.00  0.00     0.310 C 
ATOM      8  O   UNL     1      -3.396  -3.708   6.620  1.00  0.00    -0.252 OA
BRANCH   7   9
ATOM      9  C   UNL     1      -1.229  -4.665   7.200  1.00  0.00     0.119 C 
ATOM     10  C   UNL     1      -0.650  -5.009   5.778  1.00  0.00     0.101 C 
ATOM     11  C   UNL     1      -1.132  -6.467   5.545  1.00  0.00     0.029 C 
ATOM     12  C   UNL     1      -1.942  -5.967   7.609  1.00  0.00     0.030 C 
ATOM     13  C   UNL     1      -0.468  -7.493   6.475  1.00  0.00     0.009 C 
ATOM     14  C   UNL     1      -2.459  -6.380   6.249  1.00  0.00    -0.064 C 
ATOM     15  C   UNL     1      -0.907  -7.059   7.882  1.00  0.00     0.009 C 
ATOM     16  C   UNL     1      -3.710  -6.453   5.759  1.00  0.00    -0.077 C 
ATOM     17  C   UNL     1      -4.938  -6.113   6.566  1.00  0.00     0.039 C 
ATOM     18  C   UNL     1      -3.962  -6.693   4.297  1.00  0.00     0.039 C 
BRANCH  10  19
ATOM     19  C   UNL     1       0.867  -4.900   5.674  1.00  0.00     0.228 C 
ATOM     20  N   UNL     1       1.552  -4.429   4.592  1.00  0.00    -0.326 N 
ATOM     21  H   UNL     1       2.521  -4.568   4.691  1.00  0.00     0.169 HD
ATOM     22  O   UNL     1       1.574  -5.251   6.629  1.00  0.00    -0.274 OA
BRANCH  20  23
ATOM     23  C   UNL     1       1.244  -3.798   3.371  1.00  0.00     0.041 A 
ATOM     24  C   UNL     1       0.834  -2.165   1.084  1.00  0.00     0.119 A 
ATOM     25  C   UNL     1      -0.215  -2.876   1.674  1.00  0.00     0.048 A 
ATOM     26  C   UNL     1       2.116  -2.353   1.579  1.00  0.00     0.048 A 
ATOM     27  C   UNL     1      -0.012  -3.703   2.791  1.00  0.00     0.030 A 
ATOM     28  C   UNL     1       2.315  -3.161   2.713  1.00  0.00     0.030 A 
BRANCH  24  29
ATOM     29  O   UNL     1       0.450  -1.333   0.075  1.00  0.00    -0.497 OA
ATOM     30  C   UNL     1       1.371  -0.397  -0.470  1.00  0.00     0.278 C 
ENDBRANCH  24  29
ENDBRANCH  20  23
ENDBRANCH  10  19
ENDBRANCH   7   9
ENDBRANCH   6   7
ENDBRANCH   5   6
ENDBRANCH   4   5
ENDBRANCH   3   4
ENDBRANCH   2   3
ENDBRANCH   1   2
BRANCH   1  31
ATOM     31  O   UNL     1      -0.426  -0.331   6.775  1.00  0.00    -0.377 OA
BRANCH  31  32
ATOM     32  C   UNL     1      -0.177   1.025   6.415  1.00  0.00     0.188 C 
BRANCH  32  33
ATOM     33  C   UNL     1      -0.830   1.561   5.127  1.00  0.00     0.188 C 
BRANCH  33  34
ATOM     34  O   UNL     1      -0.546   0.779   3.983  1.00  0.00    -0.376 OA
BRANCH  34  35
ATOM     35  C   UNL     1       0.559   1.023   3.141  1.00  0.00     0.202 C 
BRANCH  35  36
ATOM     36  C   UNL     1       1.969   1.180   3.720  1.00  0.00     0.261 C 
BRANCH  36  37
ATOM     37  O   UNL     1       2.128   2.130   4.776  1.00  0.00    -0.460 OA
BRANCH  37  38
ATOM     38  C   UNL     1       1.725   3.399   4.568  1.00  0.00     0.338 C 
ATOM     39  O   UNL     1       1.344   3.894   3.523  1.00  0.00    -0.246 OA
BRANCH  38  40
ATOM     40  C   UNL     1       1.583   4.005   5.911  1.00  0.00     0.060 A 
ATOM     41  C   UNL     1       0.374   4.630   6.244  1.00  0.00     0.016 A 
ATOM     42  C   UNL     1       2.598   3.865   6.863  1.00  0.00     0.016 A 
ATOM     43  C   UNL     1       0.180   5.128   7.528  1.00  0.00     0.010 A 
ATOM     44  C   UNL     1       2.420   4.397   8.138  1.00  0.00     0.010 A 
ATOM     45  C   UNL     1       1.222   5.056   8.460  1.00  0.00    -0.014 A 
BRANCH  45  46
ATOM     46  C   UNL     1       1.152   5.898   9.671  1.00  0.00     0.031 A 
ATOM     47  C   UNL     1       1.770   7.264   9.595  1.00  0.00     0.074 A 
ATOM     48  C   UNL     1       0.528   5.474  10.781  1.00  0.00     0.049 A 
ATOM     49  N   UNL     1       1.871   8.186  10.514  1.00  0.00    -0.248 NA
ATOM     50  C   UNL     1       2.358   7.641   8.296  1.00  0.00     0.031 C 
ATOM     51  C   UNL     1      -0.143   4.186  10.936  1.00  0.00     0.029 A 
ATOM     52  N   UNL     1       0.364   6.092  11.994  1.00  0.00    -0.354 N 
ATOM     53  C   UNL     1       2.532   9.245   9.908  1.00  0.00     0.074 A 
ATOM     54  C   UNL     1       2.839   8.846   8.554  1.00  0.00     0.031 C 
ATOM     55  C   UNL     1      -0.637   4.102  12.184  1.00  0.00     0.029 A 
ATOM     56  C   UNL     1      -0.288   5.316  12.920  1.00  0.00     0.049 A 
ATOM     57  H   UNL     1       0.683   7.004  12.183  1.00  0.00     0.167 HD
ATOM     58  C   UNL     1       2.847  10.449  10.437  1.00  0.00     0.037 A 
ATOM     59  C   UNL     1      -0.543   5.561  14.219  1.00  0.00     0.037 A 
ATOM     60  C   UNL     1       2.542  10.827  11.790  1.00  0.00     0.049 A 
ATOM     61  C   UNL     1      -0.110   6.881  14.807  1.00  0.00     0.074 A 
ATOM     62  C   UNL     1       2.806  12.022  12.432  1.00  0.00     0.029 A 
ATOM     63  N   UNL     1       1.912  10.003  12.713  1.00  0.00    -0.354 N 
ATOM     64  N   UNL     1       0.492   7.892  14.226  1.00  0.00    -0.248 NA
ATOM     65  C   UNL     1      -0.396   7.097  16.232  1.00  0.00     0.031 C 
ATOM     66  C   UNL     1       2.391  11.900  13.761  1.00  0.00     0.029 A 
ATOM     67  C   UNL     1       1.806  10.654  13.930  1.00  0.00     0.049 A 
ATOM     68  H   UNL     1       1.589   9.092  12.528  1.00  0.00     0.167 HD
ATOM     69  C   UNL     1       0.629   8.871  15.202  1.00  0.00     0.074 A 
ATOM     70  C   UNL     1       0.031   8.339  16.409  1.00  0.00     0.031 C 
ATOM     71  C   UNL     1       1.198  10.100  15.113  1.00  0.00     0.037 A 
BRANCH  58  72
ATOM     72  C   UNL     1       3.588  11.418   9.565  1.00  0.00     0.064 A 
ATOM     73  C   UNL     1       2.979  12.043   8.466  1.00  0.00     0.173 A 
ATOM     74  C   UNL     1       4.924  11.742   9.846  1.00  0.00     0.173 A 
ATOM     75  F   UNL     1       1.711  11.751   8.140  1.00  0.00    -0.203 F 
ATOM     76  C   UNL     1       3.687  12.940   7.669  1.00  0.00     0.198 A 
ATOM     77  C   UNL     1       5.618  12.662   9.066  1.00  0.00     0.198 A 
ATOM     78  F   UNL     1       5.556  11.167  10.880  1.00  0.00    -0.203 F 
ATOM     79  F   UNL     1       3.100  13.487   6.595  1.00  0.00    -0.200 F 
ATOM     80  C   UNL     1       5.002  13.255   7.975  1.00  0.00     0.200 A 
ATOM     81  F   UNL     1       6.886  12.972   9.369  1.00  0.00    -0.200 F 
ATOM     82  F   UNL     1       5.679  14.126   7.213  1.00  0.00    -0.200 F 
ENDBRANCH  58  72
BRANCH  59  83
ATOM     83  C   UNL     1      -1.221   4.536  15.057  1.00  0.00     0.064 A 
ATOM     84  C   UNL     1      -2.496   4.761  15.594  1.00  0.00     0.173 A 
ATOM     85  C   UNL     1      -0.593   3.319  15.364  1.00  0.00     0.173 A 
ATOM     86  F   UNL     1      -3.130   5.918  15.352  1.00  0.00    -0.203 F 
ATOM     87  C   UNL     1      -3.105   3.821  16.425  1.00  0.00     0.198 A 
ATOM     88  C   UNL     1      -1.216   2.366  16.167  1.00  0.00     0.198 A 
ATOM     89  F   UNL     1       0.629   3.052  14.879  1.00  0.00    -0.203 F 
ATOM     90  F   UNL     1      -4.300   4.088  16.971  1.00  0.00    -0.200 F 
ATOM     91  C   UNL     1      -2.467   2.623  16.706  1.00  0.00     0.200 A 
ATOM     92  F   UNL     1      -0.601   1.205  16.426  1.00  0.00    -0.200 F 
ATOM     93  F   UNL     1      -3.053   1.721  17.506  1.00  0.00    -0.200 F 
ENDBRANCH  59  83
BRANCH  71  94
ATOM     94  C   UNL     1       1.163  10.966  16.340  1.00  0.00     0.064 A 
ATOM     95  C   UNL     1       1.937  10.675  17.473  1.00  0.00     0.173 A 
ATOM     96  C   UNL     1       0.374  12.127  16.364  1.00  0.00     0.173 A 
ATOM     97  F   UNL     1       2.699   9.571  17.505  1.00  0.00    -0.203 F 
ATOM     98  C   UNL     1       1.899  11.497  18.596  1.00  0.00     0.198 A 
ATOM     99  C   UNL     1       0.367  12.966  17.474  1.00  0.00     0.198 A 
ATOM    100  F   UNL     1      -0.376  12.458  15.302  1.00  0.00    -0.203 F 
ATOM    101  F   UNL     1       2.604  11.170  19.687  1.00  0.00    -0.200 F 
ATOM    102  C   UNL     1       1.121  12.646  18.592  1.00  0.00     0.200 A 
ATOM    103  F   UNL     1      -0.369  14.086  17.460  1.00  0.00    -0.200 F 
ATOM    104  F   UNL     1       1.093  13.440  19.671  1.00  0.00    -0.200 F 
ENDBRANCH  71  94
ENDBRANCH  45  46
ENDBRANCH  38  40
ENDBRANCH  37  38
ENDBRANCH  36  37
ENDBRANCH  35  36
ENDBRANCH  34  35
ENDBRANCH  33  34
ENDBRANCH  32  33
ENDBRANCH  31  32
ENDBRANCH   1  31
TORSDOF 23
