REMARK SMILES O=C(CCCCCN1C(=O)[C@@H]2CC=CC[C@H]2C1=O)OCCOCCOCCOCCOC(=O)c1ccc(-c2c3nc(c(-c4c(F)c(F)c(F)c(F)c4F)c4ccc([nH]4)c(-c4c(F)c(F)c(F)c(F)c4F)c4nc(c(-c5c(F)c(F)c(F)c(F)c5F)c5ccc2[nH]5)C=C4)C=C3)cc1
REMARK SMILES IDX 23 1 22 2 21 3 20 4 19 5 2 6 1 7 3 8 4 9 5 10 6 11 7 12 8 13
REMARK SMILES IDX 9 14 17 15 10 16 11 17 16 18 18 19 12 20 15 21 13 22 14 23
REMARK SMILES IDX 24 24 25 25 26 26 27 27 28 28 29 29 30 30 31 31 32 32 33 33
REMARK SMILES IDX 34 34 35 35 96 36 36 37 95 38 37 39 38 40 39 41 89 42 40 43
REMARK SMILES IDX 94 44 88 45 90 46 41 47 93 48 87 49 86 50 42 52 74 53 54 54
REMARK SMILES IDX 73 55 55 56 58 57 72 58 91 59 56 60 57 61 71 63 92 64 59 65
REMARK SMILES IDX 43 66 44 67 52 68 45 69 46 70 50 71 53 72 47 73 48 74 51 75
REMARK SMILES IDX 49 76 75 77 76 78 84 79 77 80 78 81 82 82 85 83 79 84 80 85
REMARK SMILES IDX 83 86 81 87 60 88 61 89 69 90 62 91 63 92 67 93 70 94 64 95
REMARK SMILES IDX 65 96 68 97 66 98
REMARK H PARENT 90 51 58 62
REMARK Flexibility Score: inf
ROOT
ATOM      1  C   UNL     1       2.271  -1.655   0.234  1.00  0.00     0.188 C 
ENDROOT
BRANCH   1   2
ATOM      2  O   UNL     1       3.263  -0.654   0.449  1.00  0.00    -0.376 OA
BRANCH   2   3
ATOM      3  C   UNL     1       3.429  -0.105   1.738  1.00  0.00     0.202 C 
BRANCH   3   4
ATOM      4  C   UNL     1       2.987   1.355   1.893  1.00  0.00     0.261 C 
BRANCH   4   5
ATOM      5  O   UNL     1       2.570   2.106   0.737  1.00  0.00    -0.463 OA
BRANCH   5   6
ATOM      6  C   UNL     1       1.834   1.516  -0.230  1.00  0.00     0.305 C 
ATOM      7  O   UNL     1       0.653   1.220  -0.091  1.00  0.00    -0.252 OA
BRANCH   6   8
ATOM      8  C   UNL     1       2.617   1.271  -1.513  1.00  0.00     0.123 C 
BRANCH   8   9
ATOM      9  C   UNL     1       3.891   2.089  -1.708  1.00  0.00     0.012 C 
BRANCH   9  10
ATOM     10  C   UNL     1       5.106   1.760  -0.824  1.00  0.00     0.002 C 
BRANCH  10  11
ATOM     11  C   UNL     1       5.878   0.464  -1.116  1.00  0.00     0.022 C 
BRANCH  11  12
ATOM     12  C   UNL     1       6.579   0.376  -2.479  1.00  0.00     0.128 C 
BRANCH  12  13
ATOM     13  N   UNL     1       7.553   1.437  -2.642  1.00  0.00    -0.282 N 
ATOM     14  C   UNL     1       7.209   2.745  -2.882  1.00  0.00     0.233 C 
ATOM     15  C   UNL     1       8.919   1.313  -2.496  1.00  0.00     0.233 C 
ATOM     16  O   UNL     1       6.187   3.193  -3.375  1.00  0.00    -0.274 OA
ATOM     17  C   UNL     1       8.344   3.532  -2.325  1.00  0.00     0.095 C 
ATOM     18  C   UNL     1       9.485   2.672  -2.842  1.00  0.00     0.095 C 
ATOM     19  O   UNL     1       9.556   0.320  -2.195  1.00  0.00    -0.274 OA
ATOM     20  C   UNL     1       8.453   4.991  -2.684  1.00  0.00     0.041 C 
ATOM     21  C   UNL     1      10.802   3.116  -2.246  1.00  0.00     0.041 C 
ATOM     22  C   UNL     1       9.877   5.453  -2.521  1.00  0.00    -0.030 C 
ATOM     23  C   UNL     1      10.917   4.625  -2.307  1.00  0.00    -0.030 C 
ENDBRANCH  12  13
ENDBRANCH  11  12
ENDBRANCH  10  11
ENDBRANCH   9  10
ENDBRANCH   8   9
ENDBRANCH   6   8
ENDBRANCH   5   6
ENDBRANCH   4   5
ENDBRANCH   3   4
ENDBRANCH   2   3
ENDBRANCH   1   2
BRANCH   1  24
ATOM     24  C   UNL     1       2.104  -2.701   1.328  1.00  0.00     0.188 C 
BRANCH  24  25
ATOM     25  O   UNL     1       3.219  -3.514   1.683  1.00  0.00    -0.377 OA
BRANCH  25  26
ATOM     26  C   UNL     1       4.520  -3.227   1.199  1.00  0.00     0.188 C 
BRANCH  26  27
ATOM     27  C   UNL     1       5.110  -4.265   0.235  1.00  0.00     0.188 C 
BRANCH  27  28
ATOM     28  O   UNL     1       4.323  -4.655  -0.878  1.00  0.00    -0.376 OA
BRANCH  28  29
ATOM     29  C   UNL     1       3.087  -5.323  -0.633  1.00  0.00     0.202 C 
BRANCH  29  30
ATOM     30  C   UNL     1       3.017  -6.493   0.371  1.00  0.00     0.261 C 
BRANCH  30  31
ATOM     31  O   UNL     1       3.283  -6.129   1.743  1.00  0.00    -0.460 OA
BRANCH  31  32
ATOM     32  C   UNL     1       4.393  -6.660   2.307  1.00  0.00     0.338 C 
ATOM     33  O   UNL     1       5.139  -7.492   1.815  1.00  0.00    -0.246 OA
BRANCH  32  34
ATOM     34  C   UNL     1       4.736  -5.952   3.562  1.00  0.00     0.060 A 
ATOM     35  C   UNL     1       5.993  -5.333   3.654  1.00  0.00     0.016 A 
ATOM     36  C   UNL     1       3.894  -5.986   4.673  1.00  0.00     0.016 A 
ATOM     37  C   UNL     1       6.424  -4.773   4.859  1.00  0.00     0.010 A 
ATOM     38  C   UNL     1       4.341  -5.455   5.892  1.00  0.00     0.010 A 
ATOM     39  C   UNL     1       5.622  -4.879   6.001  1.00  0.00    -0.014 A 
BRANCH  39  40
ATOM     40  C   UNL     1       6.214  -4.617   7.340  1.00  0.00     0.031 A 
ATOM     41  C   UNL     1       6.773  -5.785   8.108  1.00  0.00     0.074 A 
ATOM     42  C   UNL     1       6.279  -3.381   7.866  1.00  0.00     0.049 A 
ATOM     43  N   UNL     1       7.275  -5.830   9.317  1.00  0.00    -0.248 NA
ATOM     44  C   UNL     1       6.759  -7.084   7.415  1.00  0.00     0.031 C 
ATOM     45  C   UNL     1       5.829  -2.157   7.210  1.00  0.00     0.029 A 
ATOM     46  N   UNL     1       6.743  -2.957   9.089  1.00  0.00    -0.354 N 
ATOM     47  C   UNL     1       7.623  -7.158   9.531  1.00  0.00     0.074 A 
ATOM     48  C   UNL     1       7.253  -7.891   8.341  1.00  0.00     0.031 C 
ATOM     49  C   UNL     1       6.015  -1.121   8.047  1.00  0.00     0.029 A 
ATOM     50  C   UNL     1       6.567  -1.613   9.310  1.00  0.00     0.049 A 
ATOM     51  H   UNL     1       7.162  -3.560   9.745  1.00  0.00     0.167 HD
ATOM     52  C   UNL     1       8.201  -7.717  10.621  1.00  0.00     0.037 A 
ATOM     53  C   UNL     1       6.796  -0.874  10.415  1.00  0.00     0.037 A 
ATOM     54  C   UNL     1       8.565  -6.990  11.808  1.00  0.00     0.049 A 
ATOM     55  C   UNL     1       7.368  -1.534  11.648  1.00  0.00     0.074 A 
ATOM     56  C   UNL     1       9.173  -7.465  12.957  1.00  0.00     0.029 A 
ATOM     57  N   UNL     1       8.343  -5.635  12.005  1.00  0.00    -0.354 N 
ATOM     58  N   UNL     1       7.716  -2.784  11.836  1.00  0.00    -0.248 NA
ATOM     59  C   UNL     1       7.583  -0.675  12.823  1.00  0.00     0.031 C 
ATOM     60  C   UNL     1       9.258  -6.413  13.874  1.00  0.00     0.029 A 
ATOM     61  C   UNL     1       8.772  -5.265  13.269  1.00  0.00     0.049 A 
ATOM     62  H   UNL     1       7.940  -5.027  11.344  1.00  0.00     0.167 HD
ATOM     63  C   UNL     1       8.219  -2.854  13.131  1.00  0.00     0.074 A 
ATOM     64  C   UNL     1       8.144  -1.517  13.679  1.00  0.00     0.031 C 
ATOM     65  C   UNL     1       8.702  -3.928  13.804  1.00  0.00     0.037 A 
BRANCH  52  66
ATOM     66  C   UNL     1       8.440  -9.199  10.597  1.00  0.00     0.064 A 
ATOM     67  C   UNL     1       9.409  -9.781   9.765  1.00  0.00     0.173 A 
ATOM     68  C   UNL     1       7.709 -10.046  11.444  1.00  0.00     0.173 A 
ATOM     69  F   UNL     1      10.125  -9.019   8.926  1.00  0.00    -0.203 F 
ATOM     70  C   UNL     1       9.618 -11.159   9.764  1.00  0.00     0.198 A 
ATOM     71  C   UNL     1       7.944 -11.418  11.465  1.00  0.00     0.198 A 
ATOM     72  F   UNL     1       6.772  -9.542  12.261  1.00  0.00    -0.203 F 
ATOM     73  F   UNL     1      10.513 -11.698   8.926  1.00  0.00    -0.200 F 
ATOM     74  C   UNL     1       8.892 -11.974  10.620  1.00  0.00     0.200 A 
ATOM     75  F   UNL     1       7.252 -12.202  12.304  1.00  0.00    -0.200 F 
ATOM     76  F   UNL     1       9.102 -13.298  10.625  1.00  0.00    -0.200 F 
ENDBRANCH  52  66
BRANCH  53  77
ATOM     77  C   UNL     1       6.464   0.578  10.426  1.00  0.00     0.064 A 
ATOM     78  C   UNL     1       7.466   1.553  10.532  1.00  0.00     0.173 A 
ATOM     79  C   UNL     1       5.133   1.018  10.365  1.00  0.00     0.173 A 
ATOM     80  F   UNL     1       8.752   1.184  10.624  1.00  0.00    -0.203 F 
ATOM     81  C   UNL     1       7.149   2.909  10.597  1.00  0.00     0.198 A 
ATOM     82  C   UNL     1       4.819   2.376  10.397  1.00  0.00     0.198 A 
ATOM     83  F   UNL     1       4.134   0.129  10.270  1.00  0.00    -0.203 F 
ATOM     84  F   UNL     1       8.123   3.816  10.752  1.00  0.00    -0.200 F 
ATOM     85  C   UNL     1       5.827   3.320  10.522  1.00  0.00     0.200 A 
ATOM     86  F   UNL     1       3.541   2.768  10.312  1.00  0.00    -0.200 F 
ATOM     87  F   UNL     1       5.523   4.623  10.580  1.00  0.00    -0.200 F 
ENDBRANCH  53  77
BRANCH  65  88
ATOM     88  C   UNL     1       9.236  -3.703  15.192  1.00  0.00     0.064 A 
ATOM     89  C   UNL     1       8.395  -3.394  16.271  1.00  0.00     0.173 A 
ATOM     90  C   UNL     1      10.608  -3.848  15.454  1.00  0.00     0.173 A 
ATOM     91  F   UNL     1       7.077  -3.233  16.076  1.00  0.00    -0.203 F 
ATOM     92  C   UNL     1       8.910  -3.209  17.552  1.00  0.00     0.198 A 
ATOM     93  C   UNL     1      11.115  -3.698  16.743  1.00  0.00     0.198 A 
ATOM     94  F   UNL     1      11.458  -4.153  14.463  1.00  0.00    -0.203 F 
ATOM     95  F   UNL     1       8.093  -2.862  18.557  1.00  0.00    -0.200 F 
ATOM     96  C   UNL     1      10.267  -3.369  17.789  1.00  0.00     0.200 A 
ATOM     97  F   UNL     1      12.424  -3.873  16.971  1.00  0.00    -0.200 F 
ATOM     98  F   UNL     1      10.759  -3.201  19.024  1.00  0.00    -0.200 F 
ENDBRANCH  65  88
ENDBRANCH  39  40
ENDBRANCH  32  34
ENDBRANCH  31  32
ENDBRANCH  30  31
ENDBRANCH  29  30
ENDBRANCH  28  29
ENDBRANCH  27  28
ENDBRANCH  26  27
ENDBRANCH  25  26
ENDBRANCH  24  25
ENDBRANCH   1  24
TORSDOF 25
