REMARK SMILES C[C@H](Nc1ccc2c(c1)Cc1ccccc1-2)[C@@H](C)C(=O)OCCOCCOCCOCCOC(=O)c1ccc(-c2c3nc(c(-c4c(F)c(F)c(F)c(F)c4F)c4ccc([nH]4)c(-c4c(F)c(F)c(F)c(F)c4F)c4nc(c(-c5c(F)c(F)c(F)c(F)c5F)c5ccc2[nH]5)C=C4)C=C3)cc1
REMARK SMILES IDX 26 1 25 2 24 3 23 4 22 5 21 6 19 7 20 8 17 9 18 10 2 11 1 12
REMARK SMILES IDX 3 13 4 15 5 16 9 17 6 18 8 19 7 20 10 21 16 22 11 23 15 24
REMARK SMILES IDX 12 25 14 26 13 27 27 28 28 29 29 30 30 31 31 32 32 33 33 34
REMARK SMILES IDX 34 35 35 36 36 37 37 38 98 39 38 40 97 41 39 42 40 43 41 44
REMARK SMILES IDX 91 45 42 46 96 47 90 48 92 49 43 50 95 51 89 52 88 53 44 55
REMARK SMILES IDX 76 56 56 57 75 58 57 59 60 60 74 61 93 62 58 63 59 64 73 66
REMARK SMILES IDX 94 67 61 68 45 69 46 70 54 71 47 72 48 73 52 74 55 75 49 76
REMARK SMILES IDX 50 77 53 78 51 79 77 80 78 81 86 82 79 83 80 84 84 85 87 86
REMARK SMILES IDX 81 87 82 88 85 89 83 90 62 91 63 92 71 93 64 94 65 95 69 96
REMARK SMILES IDX 72 97 66 98 67 99 70 100 68 101
REMARK H PARENT 3 14 92 54 60 65
REMARK Flexibility Score: inf
ROOT
ATOM      1  C   UNL     1      -0.198   1.928   4.021  1.00  0.00     0.188 C 
ENDROOT
BRANCH   1   2
ATOM      2  C   UNL     1      -1.533   2.673   3.775  1.00  0.00     0.188 C 
BRANCH   2   3
ATOM      3  O   UNL     1      -2.693   2.317   4.513  1.00  0.00    -0.376 OA
BRANCH   3   4
ATOM      4  C   UNL     1      -2.755   1.034   5.100  1.00  0.00     0.202 C 
BRANCH   4   5
ATOM      5  C   UNL     1      -2.707  -0.207   4.182  1.00  0.00     0.261 C 
BRANCH   5   6
ATOM      6  O   UNL     1      -1.758  -0.254   3.079  1.00  0.00    -0.463 OA
BRANCH   6   7
ATOM      7  C   UNL     1      -2.189   0.207   1.871  1.00  0.00     0.310 C 
ATOM      8  O   UNL     1      -3.302   0.696   1.700  1.00  0.00    -0.252 OA
BRANCH   7   9
ATOM      9  C   UNL     1      -1.243  -0.067   0.682  1.00  0.00     0.118 C 
ATOM     10  C   UNL     1      -1.458  -1.541   0.334  1.00  0.00     0.022 C 
BRANCH   9  11
ATOM     11  C   UNL     1       0.264   0.332   0.780  1.00  0.00     0.090 C 
ATOM     12  C   UNL     1       0.451   1.855   0.908  1.00  0.00     0.031 C 
BRANCH  11  13
ATOM     13  N   UNL     1       1.062  -0.189  -0.374  1.00  0.00    -0.382 N 
ATOM     14  H   UNL     1       1.247  -1.155  -0.425  1.00  0.00     0.160 HD
BRANCH  13  15
ATOM     15  C   UNL     1       1.554   0.645  -1.380  1.00  0.00     0.035 A 
ATOM     16  C   UNL     1       2.619   1.536  -1.113  1.00  0.00     0.026 A 
ATOM     17  C   UNL     1       0.905   0.721  -2.619  1.00  0.00     0.030 A 
ATOM     18  C   UNL     1       2.959   2.574  -1.990  1.00  0.00     0.011 A 
ATOM     19  C   UNL     1       1.273   1.728  -3.506  1.00  0.00    -0.034 A 
ATOM     20  C   UNL     1       2.256   2.684  -3.173  1.00  0.00    -0.014 A 
ATOM     21  C   UNL     1       0.726   2.011  -4.892  1.00  0.00     0.072 C 
ATOM     22  C   UNL     1       2.350   3.657  -4.241  1.00  0.00    -0.015 A 
ATOM     23  C   UNL     1       1.493   3.259  -5.289  1.00  0.00    -0.036 A 
ATOM     24  C   UNL     1       3.086   4.826  -4.343  1.00  0.00     0.009 A 
ATOM     25  C   UNL     1       1.419   3.974  -6.473  1.00  0.00     0.005 A 
ATOM     26  C   UNL     1       3.001   5.567  -5.526  1.00  0.00     0.001 A 
ATOM     27  C   UNL     1       2.190   5.133  -6.589  1.00  0.00     0.000 A 
ENDBRANCH  13  15
ENDBRANCH  11  13
ENDBRANCH   9  11
ENDBRANCH   7   9
ENDBRANCH   6   7
ENDBRANCH   5   6
ENDBRANCH   4   5
ENDBRANCH   3   4
ENDBRANCH   2   3
ENDBRANCH   1   2
BRANCH   1  28
ATOM     28  O   UNL     1      -0.065   1.386   5.319  1.00  0.00    -0.377 OA
BRANCH  28  29
ATOM     29  C   UNL     1       0.810   2.095   6.170  1.00  0.00     0.188 C 
BRANCH  29  30
ATOM     30  C   UNL     1       0.505   3.594   6.303  1.00  0.00     0.188 C 
BRANCH  30  31
ATOM     31  O   UNL     1       0.515   4.283   5.056  1.00  0.00    -0.376 OA
BRANCH  31  32
ATOM     32  C   UNL     1       1.659   5.036   4.684  1.00  0.00     0.202 C 
BRANCH  32  33
ATOM     33  C   UNL     1       2.896   4.248   4.219  1.00  0.00     0.261 C 
BRANCH  33  34
ATOM     34  O   UNL     1       3.418   3.281   5.144  1.00  0.00    -0.460 OA
BRANCH  34  35
ATOM     35  C   UNL     1       3.825   3.737   6.346  1.00  0.00     0.338 C 
ATOM     36  O   UNL     1       3.866   4.901   6.716  1.00  0.00    -0.246 OA
BRANCH  35  37
ATOM     37  C   UNL     1       4.001   2.578   7.246  1.00  0.00     0.060 A 
ATOM     38  C   UNL     1       3.223   2.525   8.409  1.00  0.00     0.016 A 
ATOM     39  C   UNL     1       4.898   1.548   6.948  1.00  0.00     0.016 A 
ATOM     40  C   UNL     1       3.360   1.460   9.293  1.00  0.00     0.010 A 
ATOM     41  C   UNL     1       5.063   0.496   7.857  1.00  0.00     0.010 A 
ATOM     42  C   UNL     1       4.320   0.470   9.050  1.00  0.00    -0.014 A 
BRANCH  42  43
ATOM     43  C   UNL     1       4.666  -0.443  10.165  1.00  0.00     0.031 A 
ATOM     44  C   UNL     1       5.835  -0.083  11.041  1.00  0.00     0.074 A 
ATOM     45  C   UNL     1       3.889  -1.497  10.465  1.00  0.00     0.049 A 
ATOM     46  N   UNL     1       6.267  -0.658  12.134  1.00  0.00    -0.248 NA
ATOM     47  C   UNL     1       6.618   1.094  10.631  1.00  0.00     0.031 C 
ATOM     48  C   UNL     1       2.705  -1.913   9.716  1.00  0.00     0.029 A 
ATOM     49  N   UNL     1       3.972  -2.400  11.495  1.00  0.00    -0.354 N 
ATOM     50  C   UNL     1       7.364   0.088  12.543  1.00  0.00     0.074 A 
ATOM     51  C   UNL     1       7.559   1.133  11.562  1.00  0.00     0.031 C 
ATOM     52  C   UNL     1       2.167  -2.988  10.317  1.00  0.00     0.029 A 
ATOM     53  C   UNL     1       2.981  -3.349  11.476  1.00  0.00     0.049 A 
ATOM     54  H   UNL     1       4.676  -2.369  12.183  1.00  0.00     0.167 HD
ATOM     55  C   UNL     1       8.133  -0.075  13.646  1.00  0.00     0.037 A 
ATOM     56  C   UNL     1       2.765  -4.393  12.300  1.00  0.00     0.037 A 
ATOM     57  C   UNL     1       7.939  -1.124  14.613  1.00  0.00     0.049 A 
ATOM     58  C   UNL     1       3.677  -4.592  13.484  1.00  0.00     0.074 A 
ATOM     59  C   UNL     1       8.659  -1.379  15.767  1.00  0.00     0.029 A 
ATOM     60  N   UNL     1       6.958  -2.103  14.530  1.00  0.00    -0.354 N 
ATOM     61  N   UNL     1       4.697  -3.868  13.881  1.00  0.00    -0.248 NA
ATOM     62  C   UNL     1       3.397  -5.750  14.345  1.00  0.00     0.031 C 
ATOM     63  C   UNL     1       8.157  -2.549  16.346  1.00  0.00     0.029 A 
ATOM     64  C   UNL     1       7.073  -2.980  15.598  1.00  0.00     0.049 A 
ATOM     65  H   UNL     1       6.281  -2.164  13.819  1.00  0.00     0.167 HD
ATOM     66  C   UNL     1       5.157  -4.460  15.051  1.00  0.00     0.074 A 
ATOM     67  C   UNL     1       4.290  -5.590  15.310  1.00  0.00     0.031 C 
ATOM     68  C   UNL     1       6.202  -4.103  15.840  1.00  0.00     0.037 A 
BRANCH  55  69
ATOM     69  C   UNL     1       9.277   0.878  13.840  1.00  0.00     0.064 A 
ATOM     70  C   UNL     1       9.074   2.233  14.147  1.00  0.00     0.173 A 
ATOM     71  C   UNL     1      10.601   0.424  13.737  1.00  0.00     0.173 A 
ATOM     72  F   UNL     1       7.829   2.726  14.239  1.00  0.00    -0.203 F 
ATOM     73  C   UNL     1      10.151   3.101  14.313  1.00  0.00     0.198 A 
ATOM     74  C   UNL     1      11.675   1.286  13.938  1.00  0.00     0.198 A 
ATOM     75  F   UNL     1      10.854  -0.861  13.445  1.00  0.00    -0.203 F 
ATOM     76  F   UNL     1       9.931   4.402  14.550  1.00  0.00    -0.200 F 
ATOM     77  C   UNL     1      11.450   2.625  14.217  1.00  0.00     0.200 A 
ATOM     78  F   UNL     1      12.930   0.821  13.857  1.00  0.00    -0.200 F 
ATOM     79  F   UNL     1      12.486   3.460  14.384  1.00  0.00    -0.200 F 
ENDBRANCH  55  69
BRANCH  56  80
ATOM     80  C   UNL     1       1.641  -5.332  12.036  1.00  0.00     0.064 A 
ATOM     81  C   UNL     1       0.557  -5.442  12.918  1.00  0.00     0.173 A 
ATOM     82  C   UNL     1       1.645  -6.162  10.905  1.00  0.00     0.173 A 
ATOM     83  F   UNL     1       0.516  -4.691  14.028  1.00  0.00    -0.203 F 
ATOM     84  C   UNL     1      -0.466  -6.362  12.691  1.00  0.00     0.198 A 
ATOM     85  C   UNL     1       0.605  -7.056  10.661  1.00  0.00     0.198 A 
ATOM     86  F   UNL     1       2.660  -6.100  10.030  1.00  0.00    -0.203 F 
ATOM     87  F   UNL     1      -1.461  -6.487  13.580  1.00  0.00    -0.200 F 
ATOM     88  C   UNL     1      -0.444  -7.164  11.560  1.00  0.00     0.200 A 
ATOM     89  F   UNL     1       0.625  -7.818   9.559  1.00  0.00    -0.200 F 
ATOM     90  F   UNL     1      -1.429  -8.046  11.341  1.00  0.00    -0.200 F 
ENDBRANCH  56  80
BRANCH  68  91
ATOM     91  C   UNL     1       6.432  -4.919  17.084  1.00  0.00     0.064 A 
ATOM     92  C   UNL     1       6.851  -6.257  17.029  1.00  0.00     0.173 A 
ATOM     93  C   UNL     1       6.230  -4.349  18.351  1.00  0.00     0.173 A 
ATOM     94  F   UNL     1       7.051  -6.855  15.845  1.00  0.00    -0.203 F 
ATOM     95  C   UNL     1       7.004  -7.009  18.192  1.00  0.00     0.198 A 
ATOM     96  C   UNL     1       6.426  -5.091  19.513  1.00  0.00     0.198 A 
ATOM     97  F   UNL     1       5.844  -3.070  18.466  1.00  0.00    -0.203 F 
ATOM     98  F   UNL     1       7.327  -8.307  18.110  1.00  0.00    -0.200 F 
ATOM     99  C   UNL     1       6.796  -6.425  19.432  1.00  0.00     0.200 A 
ATOM    100  F   UNL     1       6.244  -4.518  20.711  1.00  0.00    -0.200 F 
ATOM    101  F   UNL     1       6.940  -7.150  20.549  1.00  0.00    -0.200 F 
ENDBRANCH  68  91
ENDBRANCH  42  43
ENDBRANCH  35  37
ENDBRANCH  34  35
ENDBRANCH  33  34
ENDBRANCH  32  33
ENDBRANCH  31  32
ENDBRANCH  30  31
ENDBRANCH  29  30
ENDBRANCH  28  29
ENDBRANCH   1  28
TORSDOF 23
