REMARK SMILES O=C(COc1ccc([N+](=O)[O-])cc1)Nc1ccc(C(=O)OCCOCCOCCOCCOC(=O)c2ccc(-c3c4nc(c(-c5c(F)c(F)c(F)c(F)c5F)c5ccc([nH]5)c(-c5c(F)c(F)c(F)c(F)c5F)c5nc(c(-c6c(F)c(F)c(F)c(F)c6F)c6ccc3[nH]6)C=C5)C=C4)cc2)c(O)c1
REMARK SMILES IDX 25 1 24 2 23 3 22 4 21 5 19 6 20 7 18 8 15 9 16 10 101 11
REMARK SMILES IDX 17 12 99 13 14 14 1 15 2 16 3 18 4 19 5 20 6 21 13 22 7 23
REMARK SMILES IDX 12 24 8 25 9 26 10 27 11 28 100 29 26 31 27 32 28 33 29 34
REMARK SMILES IDX 30 35 31 36 32 37 33 38 34 39 35 40 36 41 37 42 98 43 38 44
REMARK SMILES IDX 97 45 39 46 40 47 41 48 91 49 42 50 96 51 90 52 92 53 43 54
REMARK SMILES IDX 95 55 89 56 88 57 44 59 76 60 56 61 75 62 57 63 60 64 74 65
REMARK SMILES IDX 93 66 58 67 59 68 73 70 94 71 61 72 45 73 46 74 54 75 47 76
REMARK SMILES IDX 48 77 52 78 55 79 49 80 50 81 53 82 51 83 77 84 78 85 86 86
REMARK SMILES IDX 79 87 80 88 84 89 87 90 81 91 82 92 85 93 83 94 62 95 63 96
REMARK SMILES IDX 71 97 64 98 65 99 69 100 72 101 66 102 67 103 70 104 68 105
REMARK H PARENT 14 17 100 30 92 58 60 69
REMARK Flexibility Score: inf
ROOT
ATOM      1  C   UNL     1       0.648  -5.356  -5.599  1.00  0.00     0.188 C 
ENDROOT
BRANCH   1   2
ATOM      2  O   UNL     1      -0.521  -5.812  -6.254  1.00  0.00    -0.376 OA
BRANCH   2   3
ATOM      3  C   UNL     1      -1.695  -6.059  -5.508  1.00  0.00     0.202 C 
BRANCH   3   4
ATOM      4  C   UNL     1      -2.343  -4.877  -4.782  1.00  0.00     0.261 C 
BRANCH   4   5
ATOM      5  O   UNL     1      -1.421  -3.960  -4.195  1.00  0.00    -0.460 OA
BRANCH   5   6
ATOM      6  C   UNL     1      -0.924  -4.288  -2.985  1.00  0.00     0.341 C 
ATOM      7  O   UNL     1      -1.141  -5.319  -2.369  1.00  0.00    -0.246 OA
BRANCH   6   8
ATOM      8  C   UNL     1       0.107  -3.301  -2.591  1.00  0.00     0.101 A 
ATOM      9  C   UNL     1       2.033  -1.537  -1.592  1.00  0.00     0.045 A 
ATOM     10  C   UNL     1       2.276  -2.913  -1.568  1.00  0.00     0.027 A 
ATOM     11  C   UNL     1       0.911  -1.046  -2.264  1.00  0.00     0.073 A 
ATOM     12  C   UNL     1       1.299  -3.795  -2.040  1.00  0.00     0.022 A 
ATOM     13  C   UNL     1      -0.051  -1.924  -2.759  1.00  0.00     0.132 A 
BRANCH   9  14
ATOM     14  N   UNL     1       2.847  -0.724  -0.775  1.00  0.00    -0.323 N 
ATOM     15  O   UNL     1       1.402   1.086  -0.452  1.00  0.00    -0.271 OA
ATOM     16  C   UNL     1       2.393   0.428  -0.142  1.00  0.00     0.262 C 
ATOM     17  H   UNL     1       3.787  -0.987  -0.645  1.00  0.00     0.170 HD
BRANCH  16  18
ATOM     18  C   UNL     1       3.211   0.800   1.097  1.00  0.00     0.329 C 
BRANCH  18  19
ATOM     19  O   UNL     1       3.974  -0.241   1.699  1.00  0.00    -0.484 OA
BRANCH  19  20
ATOM     20  C   UNL     1       3.302  -1.047   2.581  1.00  0.00     0.120 A 
ATOM     21  C   UNL     1       3.905  -1.241   3.827  1.00  0.00     0.053 A 
ATOM     22  C   UNL     1       2.181  -1.803   2.233  1.00  0.00     0.053 A 
ATOM     23  C   UNL     1       3.414  -2.210   4.710  1.00  0.00     0.089 A 
ATOM     24  C   UNL     1       1.698  -2.794   3.094  1.00  0.00     0.089 A 
ATOM     25  C   UNL     1       2.329  -3.007   4.324  1.00  0.00     0.269 A 
BRANCH  25  26
ATOM     26  N   UNL     1       1.880  -4.105   5.189  1.00  0.00     0.062 N 
ATOM     27  O   UNL     1       2.434  -4.235   6.289  1.00  0.00    -0.258 OA
ATOM     28  O   UNL     1       0.985  -4.847   4.760  1.00  0.00    -0.258 OA
ENDBRANCH  25  26
ENDBRANCH  19  20
ENDBRANCH  18  19
ENDBRANCH  16  18
ENDBRANCH   9  14
BRANCH  13  29
ATOM     29  O   UNL     1      -1.164  -1.408  -3.361  1.00  0.00    -0.507 OA
ATOM     30  H   UNL     1      -1.822  -1.982  -3.700  1.00  0.00     0.293 HD
ENDBRANCH  13  29
ENDBRANCH   6   8
ENDBRANCH   5   6
ENDBRANCH   4   5
ENDBRANCH   3   4
ENDBRANCH   2   3
ENDBRANCH   1   2
BRANCH   1  31
ATOM     31  C   UNL     1       1.085  -3.910  -5.961  1.00  0.00     0.188 C 
BRANCH  31  32
ATOM     32  O   UNL     1       0.414  -3.110  -6.932  1.00  0.00    -0.377 OA
BRANCH  32  33
ATOM     33  C   UNL     1      -0.439  -3.724  -7.886  1.00  0.00     0.188 C 
BRANCH  33  34
ATOM     34  C   UNL     1       0.140  -4.887  -8.720  1.00  0.00     0.188 C 
BRANCH  34  35
ATOM     35  O   UNL     1       1.437  -5.282  -8.307  1.00  0.00    -0.376 OA
BRANCH  35  36
ATOM     36  C   UNL     1       2.539  -4.849  -9.083  1.00  0.00     0.202 C 
BRANCH  36  37
ATOM     37  C   UNL     1       2.726  -3.347  -9.353  1.00  0.00     0.261 C 
BRANCH  37  38
ATOM     38  O   UNL     1       1.581  -2.618  -9.823  1.00  0.00    -0.460 OA
BRANCH  38  39
ATOM     39  C   UNL     1       1.120  -2.888 -11.061  1.00  0.00     0.338 C 
ATOM     40  O   UNL     1       1.564  -3.699 -11.858  1.00  0.00    -0.246 OA
BRANCH  39  41
ATOM     41  C   UNL     1      -0.153  -2.154 -11.221  1.00  0.00     0.060 A 
ATOM     42  C   UNL     1      -1.346  -2.871 -11.389  1.00  0.00     0.016 A 
ATOM     43  C   UNL     1      -0.169  -0.758 -11.172  1.00  0.00     0.016 A 
ATOM     44  C   UNL     1      -2.557  -2.190 -11.526  1.00  0.00     0.010 A 
ATOM     45  C   UNL     1      -1.378  -0.078 -11.335  1.00  0.00     0.010 A 
ATOM     46  C   UNL     1      -2.574  -0.789 -11.538  1.00  0.00    -0.014 A 
BRANCH  46  47
ATOM     47  C   UNL     1      -3.805  -0.065 -11.935  1.00  0.00     0.031 A 
ATOM     48  C   UNL     1      -3.925   0.416 -13.354  1.00  0.00     0.074 A 
ATOM     49  C   UNL     1      -4.801   0.157 -11.059  1.00  0.00     0.049 A 
ATOM     50  N   UNL     1      -4.866   1.129 -13.917  1.00  0.00    -0.248 NA
ATOM     51  C   UNL     1      -2.827   0.043 -14.260  1.00  0.00     0.031 C 
ATOM     52  C   UNL     1      -4.823  -0.296  -9.671  1.00  0.00     0.029 A 
ATOM     53  N   UNL     1      -5.985   0.837 -11.212  1.00  0.00    -0.354 N 
ATOM     54  C   UNL     1      -4.471   1.296 -15.238  1.00  0.00     0.074 A 
ATOM     55  C   UNL     1      -3.191   0.638 -15.386  1.00  0.00     0.031 C 
ATOM     56  C   UNL     1      -5.959   0.131  -9.092  1.00  0.00     0.029 A 
ATOM     57  C   UNL     1      -6.724   0.920 -10.057  1.00  0.00     0.049 A 
ATOM     58  H   UNL     1      -6.277   1.226 -12.068  1.00  0.00     0.167 HD
ATOM     59  C   UNL     1      -5.122   1.934 -16.239  1.00  0.00     0.037 A 
ATOM     60  C   UNL     1      -7.870   1.583  -9.806  1.00  0.00     0.037 A 
ATOM     61  C   UNL     1      -6.393   2.592 -16.085  1.00  0.00     0.049 A 
ATOM     62  C   UNL     1      -8.532   2.362 -10.916  1.00  0.00     0.074 A 
ATOM     63  C   UNL     1      -7.144   3.251 -17.042  1.00  0.00     0.029 A 
ATOM     64  N   UNL     1      -7.094   2.687 -14.892  1.00  0.00    -0.354 N 
ATOM     65  N   UNL     1      -8.170   2.492 -12.170  1.00  0.00    -0.248 NA
ATOM     66  C   UNL     1      -9.765   3.086 -10.574  1.00  0.00     0.031 C 
ATOM     67  C   UNL     1      -8.266   3.800 -16.415  1.00  0.00     0.029 A 
ATOM     68  C   UNL     1      -8.252   3.424 -15.081  1.00  0.00     0.049 A 
ATOM     69  H   UNL     1      -6.810   2.289 -14.037  1.00  0.00     0.167 HD
ATOM     70  C   UNL     1      -9.142   3.283 -12.771  1.00  0.00     0.074 A 
ATOM     71  C   UNL     1     -10.119   3.590 -11.748  1.00  0.00     0.031 C 
ATOM     72  C   UNL     1      -9.220   3.717 -14.054  1.00  0.00     0.037 A 
BRANCH  59  73
ATOM     73  C   UNL     1      -4.453   1.982 -17.583  1.00  0.00     0.064 A 
ATOM     74  C   UNL     1      -4.306   0.836 -18.379  1.00  0.00     0.173 A 
ATOM     75  C   UNL     1      -3.980   3.200 -18.095  1.00  0.00     0.173 A 
ATOM     76  F   UNL     1      -4.728  -0.356 -17.931  1.00  0.00    -0.203 F 
ATOM     77  C   UNL     1      -3.687   0.904 -19.625  1.00  0.00     0.198 A 
ATOM     78  C   UNL     1      -3.392   3.270 -19.354  1.00  0.00     0.198 A 
ATOM     79  F   UNL     1      -4.097   4.327 -17.376  1.00  0.00    -0.203 F 
ATOM     80  F   UNL     1      -3.512  -0.213 -20.346  1.00  0.00    -0.200 F 
ATOM     81  C   UNL     1      -3.239   2.121 -20.115  1.00  0.00     0.200 A 
ATOM     82  F   UNL     1      -2.973   4.450 -19.832  1.00  0.00    -0.200 F 
ATOM     83  F   UNL     1      -2.652   2.186 -21.318  1.00  0.00    -0.200 F 
ENDBRANCH  59  73
BRANCH  60  84
ATOM     84  C   UNL     1      -8.461   1.562  -8.440  1.00  0.00     0.064 A 
ATOM     85  C   UNL     1      -9.696   0.946  -8.194  1.00  0.00     0.173 A 
ATOM     86  C   UNL     1      -7.819   2.186  -7.360  1.00  0.00     0.173 A 
ATOM     87  F   UNL     1     -10.364   0.361  -9.198  1.00  0.00    -0.203 F 
ATOM     88  C   UNL     1     -10.275   0.974  -6.926  1.00  0.00     0.198 A 
ATOM     89  C   UNL     1      -8.383   2.185  -6.086  1.00  0.00     0.198 A 
ATOM     90  F   UNL     1      -6.638   2.796  -7.541  1.00  0.00    -0.203 F 
ATOM     91  F   UNL     1     -11.483   0.427  -6.732  1.00  0.00    -0.200 F 
ATOM     92  C   UNL     1      -9.616   1.587  -5.872  1.00  0.00     0.200 A 
ATOM     93  F   UNL     1      -7.736   2.769  -5.069  1.00  0.00    -0.200 F 
ATOM     94  F   UNL     1     -10.173   1.614  -4.654  1.00  0.00    -0.200 F 
ENDBRANCH  60  84
BRANCH  72  95
ATOM     95  C   UNL     1     -10.420   4.537 -14.439  1.00  0.00     0.064 A 
ATOM     96  C   UNL     1     -10.603   5.847 -13.971  1.00  0.00     0.173 A 
ATOM     97  C   UNL     1     -11.377   4.020 -15.326  1.00  0.00     0.173 A 
ATOM     98  F   UNL     1      -9.725   6.386 -13.111  1.00  0.00    -0.203 F 
ATOM     99  C   UNL     1     -11.714   6.596 -14.352  1.00  0.00     0.198 A 
ATOM    100  C   UNL     1     -12.467   4.784 -15.734  1.00  0.00     0.198 A 
ATOM    101  F   UNL     1     -11.247   2.777 -15.813  1.00  0.00    -0.203 F 
ATOM    102  F   UNL     1     -11.895   7.825 -13.849  1.00  0.00    -0.200 F 
ATOM    103  C   UNL     1     -12.640   6.068 -15.239  1.00  0.00     0.200 A 
ATOM    104  F   UNL     1     -13.350   4.279 -16.606  1.00  0.00    -0.200 F 
ATOM    105  F   UNL     1     -13.702   6.794 -15.613  1.00  0.00    -0.200 F 
ENDBRANCH  72  95
ENDBRANCH  46  47
ENDBRANCH  39  41
ENDBRANCH  38  39
ENDBRANCH  37  38
ENDBRANCH  36  37
ENDBRANCH  35  36
ENDBRANCH  34  35
ENDBRANCH  33  34
ENDBRANCH  32  33
ENDBRANCH  31  32
ENDBRANCH   1  31
TORSDOF 26
