REMARK SMILES O=C(OCCOCCOCCOCCOC(=O)[C@@H](Cc1ccc(F)cc1)NC(=O)c1ccn(C2CCCC2)n1)c1ccc(-c2c3nc(c(-c4c(F)c(F)c(F)c(F)c4F)c4ccc([nH]4)c(-c4c(F)c(F)c(F)c(F)c4F)c4nc(c(-c5c(F)c(F)c(F)c(F)c5F)c5ccc2[nH]5)C=C4)C=C3)cc1
REMARK SMILES IDX 10 1 9 2 8 3 7 4 6 5 5 6 4 7 3 8 2 9 1 10 40 11 41 12 102 13
REMARK SMILES IDX 42 14 101 15 43 16 44 17 45 18 95 19 46 20 100 21 94 22
REMARK SMILES IDX 96 23 47 24 99 25 93 26 92 27 48 29 80 30 60 31 79 32 61 33
REMARK SMILES IDX 64 34 78 35 97 36 62 37 63 38 77 40 98 41 65 42 49 43 50 44
REMARK SMILES IDX 58 45 51 46 52 47 56 48 59 49 53 50 54 51 57 52 55 53 81 54
REMARK SMILES IDX 82 55 90 56 83 57 84 58 88 59 91 60 85 61 86 62 89 63 87 64
REMARK SMILES IDX 66 65 67 66 75 67 68 68 69 69 73 70 76 71 70 72 71 73 74 74
REMARK SMILES IDX 72 75 11 76 12 77 13 78 14 79 15 80 16 81 17 82 18 83 19 84
REMARK SMILES IDX 20 85 21 86 26 87 22 88 25 89 23 90 24 91 27 92 28 93 29 95
REMARK SMILES IDX 30 96 31 97 39 98 32 99 33 100 34 101 35 102 38 103 36 104
REMARK SMILES IDX 37 105
REMARK H PARENT 96 28 64 39 27 94
REMARK Flexibility Score: inf
ROOT
ATOM      1  C   UNL     1       4.368  -2.983  -1.012  1.00  0.00     0.188 C 
ENDROOT
BRANCH   1   2
ATOM      2  O   UNL     1       2.992  -2.813  -1.278  1.00  0.00    -0.377 OA
BRANCH   2   3
ATOM      3  C   UNL     1       2.436  -1.546  -0.979  1.00  0.00     0.188 C 
BRANCH   3   4
ATOM      4  C   UNL     1       3.203  -0.330  -1.525  1.00  0.00     0.188 C 
BRANCH   4   5
ATOM      5  O   UNL     1       4.599  -0.351  -1.291  1.00  0.00    -0.376 OA
BRANCH   5   6
ATOM      6  C   UNL     1       5.239   0.160  -0.140  1.00  0.00     0.202 C 
BRANCH   6   7
ATOM      7  C   UNL     1       4.755  -0.044   1.308  1.00  0.00     0.261 C 
BRANCH   7   8
ATOM      8  O   UNL     1       3.384  -0.361   1.555  1.00  0.00    -0.460 OA
BRANCH   8   9
ATOM      9  C   UNL     1       2.273   0.397   1.611  1.00  0.00     0.338 C 
ATOM     10  O   UNL     1       1.237  -0.098   2.048  1.00  0.00    -0.246 OA
BRANCH   9  11
ATOM     11  C   UNL     1       2.201   1.752   1.022  1.00  0.00     0.060 A 
ATOM     12  C   UNL     1       3.288   2.608   0.862  1.00  0.00     0.016 A 
ATOM     13  C   UNL     1       0.914   2.191   0.650  1.00  0.00     0.016 A 
ATOM     14  C   UNL     1       3.092   3.906   0.439  1.00  0.00     0.010 A 
ATOM     15  C   UNL     1       0.706   3.498   0.243  1.00  0.00     0.010 A 
ATOM     16  C   UNL     1       1.795   4.359   0.213  1.00  0.00    -0.014 A 
BRANCH  16  17
ATOM     17  C   UNL     1       1.647   5.793   0.076  1.00  0.00     0.031 A 
ATOM     18  C   UNL     1       2.187   6.395  -1.167  1.00  0.00     0.074 A 
ATOM     19  C   UNL     1       1.087   6.508   1.068  1.00  0.00     0.049 A 
ATOM     20  N   UNL     1       3.129   7.274  -1.287  1.00  0.00    -0.248 NA
ATOM     21  C   UNL     1       1.666   5.886  -2.442  1.00  0.00     0.031 C 
ATOM     22  C   UNL     1       0.324   6.019   2.220  1.00  0.00     0.029 A 
ATOM     23  N   UNL     1       1.011   7.857   1.195  1.00  0.00    -0.354 N 
ATOM     24  C   UNL     1       3.219   7.549  -2.648  1.00  0.00     0.074 A 
ATOM     25  C   UNL     1       2.376   6.593  -3.321  1.00  0.00     0.031 C 
ATOM     26  C   UNL     1      -0.330   7.056   2.787  1.00  0.00     0.029 A 
ATOM     27  C   UNL     1       0.074   8.282   2.121  1.00  0.00     0.049 A 
ATOM     28  H   UNL     1       1.572   8.478   0.676  1.00  0.00     0.167 HD
ATOM     29  C   UNL     1       3.834   8.665  -3.124  1.00  0.00     0.037 A 
ATOM     30  C   UNL     1      -0.403   9.542   2.241  1.00  0.00     0.037 A 
ATOM     31  C   UNL     1       4.742   9.235  -2.169  1.00  0.00     0.049 A 
ATOM     32  C   UNL     1       0.581  10.454   1.601  1.00  0.00     0.074 A 
ATOM     33  C   UNL     1       5.907   8.800  -1.568  1.00  0.00     0.029 A 
ATOM     34  N   UNL     1       4.333  10.323  -1.442  1.00  0.00    -0.354 N 
ATOM     35  N   UNL     1       1.775  10.691   2.071  1.00  0.00    -0.248 NA
ATOM     36  C   UNL     1       0.389  10.782   0.195  1.00  0.00     0.031 C 
ATOM     37  C   UNL     1       5.868   9.339  -0.250  1.00  0.00     0.029 A 
ATOM     38  C   UNL     1       4.701  10.096  -0.141  1.00  0.00     0.049 A 
ATOM     39  H   UNL     1       3.865  11.117  -1.789  1.00  0.00     0.167 HD
ATOM     40  C   UNL     1       2.583  10.805   0.949  1.00  0.00     0.074 A 
ATOM     41  C   UNL     1       1.662  10.950  -0.173  1.00  0.00     0.031 C 
ATOM     42  C   UNL     1       3.910  10.493   1.000  1.00  0.00     0.037 A 
BRANCH  29  43
ATOM     43  C   UNL     1       3.382   9.400  -4.354  1.00  0.00     0.064 A 
ATOM     44  C   UNL     1       2.043   9.384  -4.798  1.00  0.00     0.173 A 
ATOM     45  C   UNL     1       4.216  10.362  -4.952  1.00  0.00     0.173 A 
ATOM     46  F   UNL     1       1.118   8.608  -4.217  1.00  0.00    -0.203 F 
ATOM     47  C   UNL     1       1.575  10.247  -5.785  1.00  0.00     0.198 A 
ATOM     48  C   UNL     1       3.730  11.264  -5.904  1.00  0.00     0.198 A 
ATOM     49  F   UNL     1       5.494  10.492  -4.567  1.00  0.00    -0.203 F 
ATOM     50  F   UNL     1       0.288  10.190  -6.155  1.00  0.00    -0.200 F 
ATOM     51  C   UNL     1       2.412  11.204  -6.321  1.00  0.00     0.200 A 
ATOM     52  F   UNL     1       4.529  12.232  -6.373  1.00  0.00    -0.200 F 
ATOM     53  F   UNL     1       1.933  12.097  -7.197  1.00  0.00    -0.200 F 
ENDBRANCH  29  43
BRANCH  30  54
ATOM     54  C   UNL     1      -1.803   9.938   2.523  1.00  0.00     0.064 A 
ATOM     55  C   UNL     1      -2.891   9.098   2.207  1.00  0.00     0.173 A 
ATOM     56  C   UNL     1      -2.116  11.264   2.858  1.00  0.00     0.173 A 
ATOM     57  F   UNL     1      -2.698   7.838   1.793  1.00  0.00    -0.203 F 
ATOM     58  C   UNL     1      -4.206   9.560   2.210  1.00  0.00     0.198 A 
ATOM     59  C   UNL     1      -3.435  11.730   2.846  1.00  0.00     0.198 A 
ATOM     60  F   UNL     1      -1.137  12.139   3.129  1.00  0.00    -0.203 F 
ATOM     61  F   UNL     1      -5.200   8.735   1.853  1.00  0.00    -0.200 F 
ATOM     62  C   UNL     1      -4.477  10.880   2.513  1.00  0.00     0.200 A 
ATOM     63  F   UNL     1      -3.688  13.021   3.101  1.00  0.00    -0.200 F 
ATOM     64  F   UNL     1      -5.733  11.342   2.440  1.00  0.00    -0.200 F 
ENDBRANCH  30  54
BRANCH  42  65
ATOM     65  C   UNL     1       4.530  10.278   2.352  1.00  0.00     0.064 A 
ATOM     66  C   UNL     1       5.641  11.055   2.710  1.00  0.00     0.173 A 
ATOM     67  C   UNL     1       4.171   9.226   3.211  1.00  0.00     0.173 A 
ATOM     68  F   UNL     1       6.067  12.033   1.895  1.00  0.00    -0.203 F 
ATOM     69  C   UNL     1       6.360  10.792   3.872  1.00  0.00     0.198 A 
ATOM     70  C   UNL     1       4.871   8.988   4.393  1.00  0.00     0.198 A 
ATOM     71  F   UNL     1       3.192   8.373   2.885  1.00  0.00    -0.203 F 
ATOM     72  F   UNL     1       7.456  11.510   4.154  1.00  0.00    -0.200 F 
ATOM     73  C   UNL     1       5.971   9.766   4.717  1.00  0.00     0.200 A 
ATOM     74  F   UNL     1       4.510   7.976   5.197  1.00  0.00    -0.200 F 
ATOM     75  F   UNL     1       6.677   9.503   5.826  1.00  0.00    -0.200 F 
ENDBRANCH  42  65
ENDBRANCH  16  17
ENDBRANCH   9  11
ENDBRANCH   8   9
ENDBRANCH   7   8
ENDBRANCH   6   7
ENDBRANCH   5   6
ENDBRANCH   4   5
ENDBRANCH   3   4
ENDBRANCH   2   3
ENDBRANCH   1   2
BRANCH   1  76
ATOM     76  C   UNL     1       5.271  -3.062  -2.254  1.00  0.00     0.188 C 
BRANCH  76  77
ATOM     77  O   UNL     1       4.736  -2.885  -3.559  1.00  0.00    -0.376 OA
BRANCH  77  78
ATOM     78  C   UNL     1       3.423  -3.335  -3.866  1.00  0.00     0.202 C 
BRANCH  78  79
ATOM     79  C   UNL     1       3.043  -4.801  -3.595  1.00  0.00     0.261 C 
BRANCH  79  80
ATOM     80  O   UNL     1       3.280  -5.271  -2.249  1.00  0.00    -0.462 OA
BRANCH  80  81
ATOM     81  C   UNL     1       4.200  -6.249  -2.115  1.00  0.00     0.329 C 
ATOM     82  O   UNL     1       4.788  -6.756  -3.068  1.00  0.00    -0.250 OA
BRANCH  81  83
ATOM     83  C   UNL     1       4.551  -6.651  -0.662  1.00  0.00     0.197 C 
BRANCH  83  84
ATOM     84  C   UNL     1       3.880  -6.128   0.624  1.00  0.00     0.072 C 
BRANCH  84  85
ATOM     85  C   UNL     1       2.413  -5.805   0.675  1.00  0.00    -0.045 A 
ATOM     86  C   UNL     1       1.995  -4.611   1.297  1.00  0.00     0.007 A 
ATOM     87  C   UNL     1       1.442  -6.694   0.205  1.00  0.00     0.007 A 
ATOM     88  C   UNL     1       0.642  -4.290   1.398  1.00  0.00     0.039 A 
ATOM     89  C   UNL     1       0.087  -6.375   0.311  1.00  0.00     0.039 A 
ATOM     90  C   UNL     1      -0.300  -5.176   0.898  1.00  0.00     0.123 A 
ATOM     91  F   UNL     1      -1.602  -4.876   0.990  1.00  0.00    -0.207 F 
ENDBRANCH  84  85
ENDBRANCH  83  84
BRANCH  83  92
ATOM     92  N   UNL     1       4.585  -8.116  -0.632  1.00  0.00    -0.337 N 
ATOM     93  C   UNL     1       5.659  -8.946  -0.852  1.00  0.00     0.272 C 
ATOM     94  H   UNL     1       3.731  -8.562  -0.428  1.00  0.00     0.164 HD
ATOM     95  O   UNL     1       5.418 -10.133  -1.061  1.00  0.00    -0.267 OA
BRANCH  93  96
ATOM     96  C   UNL     1       7.022  -8.398  -0.810  1.00  0.00     0.150 A 
ATOM     97  C   UNL     1       7.618  -7.515   0.137  1.00  0.00     0.056 A 
ATOM     98  N   UNL     1       7.925  -8.754  -1.736  1.00  0.00    -0.167 NA
ATOM     99  C   UNL     1       8.919  -7.349  -0.277  1.00  0.00     0.110 A 
ATOM    100  N   UNL     1       9.060  -8.138  -1.380  1.00  0.00    -0.269 N 
BRANCH 100 101
ATOM    101  C   UNL     1      10.277  -8.416  -2.111  1.00  0.00     0.107 C 
ATOM    102  C   UNL     1      10.562  -9.911  -2.258  1.00  0.00     0.027 C 
ATOM    103  C   UNL     1      10.261  -7.917  -3.555  1.00  0.00     0.027 C 
ATOM    104  C   UNL     1      11.581  -9.978  -3.382  1.00  0.00     0.002 C 
ATOM    105  C   UNL     1      11.285  -8.783  -4.287  1.00  0.00     0.002 C 
ENDBRANCH 100 101
ENDBRANCH  93  96
ENDBRANCH  83  92
ENDBRANCH  81  83
ENDBRANCH  80  81
ENDBRANCH  79  80
ENDBRANCH  78  79
ENDBRANCH  77  78
ENDBRANCH  76  77
ENDBRANCH   1  76
TORSDOF 25
