REMARK SMILES Cc1cc(C(=O)NNC(=O)[C@H]2[C@@H](C(=O)OCCOCCOCCOCCOC(=O)c3ccc(-c4c5nc(c(-c6c(F)c(F)c(F)c(F)c6F)c6ccc([nH]6)c(-c6c(F)c(F)c(F)c(F)c6F)c6nc(c(-c7c(F)c(F)c(F)c(F)c7F)c7ccc4[nH]7)C=C6)C=C5)cc3)[C@@H]3C=C[C@H]2C3)cs1
REMARK SMILES IDX 20 1 19 2 18 3 17 4 16 5 15 6 13 7 14 8 12 9 11 10 96 11
REMARK SMILES IDX 93 12 95 13 97 14 94 15 9 16 8 17 10 19 7 20 5 21 6 22 4 24
REMARK SMILES IDX 1 25 2 26 3 27 99 28 98 29 21 30 22 31 23 32 24 33 25 34
REMARK SMILES IDX 26 35 27 36 28 37 29 38 30 39 31 40 92 41 32 42 91 43 33 44
REMARK SMILES IDX 34 45 35 46 85 47 36 48 90 49 84 50 86 51 37 52 89 53 83 54
REMARK SMILES IDX 82 55 38 57 70 58 50 59 69 60 51 61 54 62 68 63 87 64 52 65
REMARK SMILES IDX 53 66 67 68 88 69 55 70 39 71 40 72 48 73 41 74 42 75 46 76
REMARK SMILES IDX 49 77 43 78 44 79 47 80 45 81 71 82 72 83 80 84 73 85 74 86
REMARK SMILES IDX 78 87 81 88 75 89 76 90 79 91 77 92 56 93 57 94 65 95 58 96
REMARK SMILES IDX 59 97 63 98 66 99 60 100 61 101 64 102 62 103
REMARK H PARENT 8 18 7 23 86 56 54 67
REMARK Flexibility Score: inf
ROOT
ATOM      1  C   UNL     1      -0.761 -10.178  -0.895  1.00  0.00     0.188 C 
ENDROOT
BRANCH   1   2
ATOM      2  C   UNL     1      -1.575 -10.286   0.411  1.00  0.00     0.188 C 
BRANCH   2   3
ATOM      3  O   UNL     1      -2.567 -11.293   0.397  1.00  0.00    -0.376 OA
BRANCH   3   4
ATOM      4  C   UNL     1      -3.845 -11.067  -0.163  1.00  0.00     0.202 C 
BRANCH   4   5
ATOM      5  C   UNL     1      -4.190 -10.095  -1.311  1.00  0.00     0.261 C 
BRANCH   5   6
ATOM      6  O   UNL     1      -3.302  -9.029  -1.649  1.00  0.00    -0.463 OA
BRANCH   6   7
ATOM      7  C   UNL     1      -3.226  -7.985  -0.795  1.00  0.00     0.310 C 
ATOM      8  O   UNL     1      -3.833  -7.913   0.264  1.00  0.00    -0.252 OA
BRANCH   7   9
ATOM      9  C   UNL     1      -2.292  -6.923  -1.355  1.00  0.00     0.119 C 
ATOM     10  C   UNL     1      -1.423  -6.146  -0.305  1.00  0.00     0.102 C 
ATOM     11  C   UNL     1      -2.135  -4.766  -0.268  1.00  0.00     0.025 C 
ATOM     12  C   UNL     1      -3.163  -5.808  -1.968  1.00  0.00     0.027 C 
ATOM     13  C   UNL     1      -1.696  -4.080  -1.550  1.00  0.00    -0.027 C 
ATOM     14  C   UNL     1      -3.578  -5.052  -0.702  1.00  0.00     0.017 C 
ATOM     15  C   UNL     1      -2.271  -4.741  -2.570  1.00  0.00    -0.027 C 
BRANCH  10  16
ATOM     16  C   UNL     1      -1.060  -6.911   0.961  1.00  0.00     0.242 C 
ATOM     17  N   UNL     1      -1.676  -6.620   2.148  1.00  0.00    -0.267 N 
ATOM     18  H   UNL     1      -2.465  -7.117   2.465  1.00  0.00     0.191 HD
ATOM     19  O   UNL     1      -0.221  -7.814   0.919  1.00  0.00    -0.273 OA
BRANCH  17  20
ATOM     20  N   UNL     1      -1.113  -5.569   2.882  1.00  0.00    -0.263 N 
ATOM     21  C   UNL     1      -0.609  -5.567   4.170  1.00  0.00     0.270 C 
ATOM     22  O   UNL     1      -0.184  -4.476   4.566  1.00  0.00    -0.267 OA
ATOM     23  H   UNL     1      -1.069  -4.705   2.412  1.00  0.00     0.191 HD
BRANCH  21  24
ATOM     24  C   UNL     1      -0.600  -6.734   5.070  1.00  0.00     0.052 A 
ATOM     25  C   UNL     1      -0.760 -10.383   6.193  1.00  0.00     0.056 C 
ATOM     26  C   UNL     1      -0.655  -8.905   6.008  1.00  0.00     0.002 A 
ATOM     27  C   UNL     1      -0.697  -8.154   4.843  1.00  0.00     0.029 A 
ATOM     28  S   UNL     1      -0.427  -7.922   7.383  1.00  0.00    -0.148 S 
ATOM     29  C   UNL     1      -0.407  -6.513   6.430  1.00  0.00     0.079 A 
ENDBRANCH  21  24
ENDBRANCH  17  20
ENDBRANCH  10  16
ENDBRANCH   7   9
ENDBRANCH   6   7
ENDBRANCH   5   6
ENDBRANCH   4   5
ENDBRANCH   3   4
ENDBRANCH   2   3
ENDBRANCH   1   2
BRANCH   1  30
ATOM     30  O   UNL     1      -1.346 -10.903  -1.965  1.00  0.00    -0.377 OA
BRANCH  30  31
ATOM     31  C   UNL     1      -1.111 -12.308  -2.006  1.00  0.00     0.188 C 
BRANCH  31  32
ATOM     32  C   UNL     1      -0.737 -13.103  -0.730  1.00  0.00     0.188 C 
BRANCH  32  33
ATOM     33  O   UNL     1       0.172 -12.436   0.131  1.00  0.00    -0.376 OA
BRANCH  33  34
ATOM     34  C   UNL     1       1.538 -12.799   0.146  1.00  0.00     0.202 C 
BRANCH  34  35
ATOM     35  C   UNL     1       2.353 -12.609  -1.140  1.00  0.00     0.261 C 
BRANCH  35  36
ATOM     36  O   UNL     1       1.795 -13.163  -2.338  1.00  0.00    -0.460 OA
BRANCH  36  37
ATOM     37  C   UNL     1       1.615 -14.498  -2.396  1.00  0.00     0.338 C 
ATOM     38  O   UNL     1       1.902 -15.324  -1.546  1.00  0.00    -0.246 OA
BRANCH  37  39
ATOM     39  C   UNL     1       0.816 -14.772  -3.608  1.00  0.00     0.060 A 
ATOM     40  C   UNL     1      -0.430 -15.405  -3.487  1.00  0.00     0.016 A 
ATOM     41  C   UNL     1       1.288 -14.368  -4.858  1.00  0.00     0.016 A 
ATOM     42  C   UNL     1      -1.190 -15.673  -4.626  1.00  0.00     0.010 A 
ATOM     43  C   UNL     1       0.541 -14.660  -5.999  1.00  0.00     0.010 A 
ATOM     44  C   UNL     1      -0.680 -15.350  -5.889  1.00  0.00    -0.014 A 
BRANCH  44  45
ATOM     45  C   UNL     1      -1.273 -15.954  -7.104  1.00  0.00     0.031 A 
ATOM     46  C   UNL     1      -0.629 -17.201  -7.643  1.00  0.00     0.074 A 
ATOM     47  C   UNL     1      -2.337 -15.414  -7.720  1.00  0.00     0.049 A 
ATOM     48  N   UNL     1      -0.870 -17.856  -8.748  1.00  0.00    -0.248 NA
ATOM     49  C   UNL     1       0.445 -17.782  -6.819  1.00  0.00     0.031 C 
ATOM     50  C   UNL     1      -3.075 -14.240  -7.264  1.00  0.00     0.029 A 
ATOM     51  N   UNL     1      -2.966 -15.781  -8.884  1.00  0.00    -0.354 N 
ATOM     52  C   UNL     1       0.033 -18.911  -8.760  1.00  0.00     0.074 A 
ATOM     53  C   UNL     1       0.846 -18.795  -7.571  1.00  0.00     0.031 C 
ATOM     54  C   UNL     1      -4.048 -13.968  -8.152  1.00  0.00     0.029 A 
ATOM     55  C   UNL     1      -3.972 -14.924  -9.256  1.00  0.00     0.049 A 
ATOM     56  H   UNL     1      -2.720 -16.581  -9.401  1.00  0.00     0.167 HD
ATOM     57  C   UNL     1       0.167 -19.894  -9.681  1.00  0.00     0.037 A 
ATOM     58  C   UNL     1      -4.716 -14.901 -10.379  1.00  0.00     0.037 A 
ATOM     59  C   UNL     1      -0.642 -19.999 -10.865  1.00  0.00     0.049 A 
ATOM     60  C   UNL     1      -4.492 -15.958 -11.434  1.00  0.00     0.074 A 
ATOM     61  C   UNL     1      -0.598 -20.960 -11.858  1.00  0.00     0.029 A 
ATOM     62  N   UNL     1      -1.638 -19.100 -11.220  1.00  0.00    -0.354 N 
ATOM     63  N   UNL     1      -3.651 -16.965 -11.437  1.00  0.00    -0.248 NA
ATOM     64  C   UNL     1      -5.324 -15.875 -12.643  1.00  0.00     0.031 C 
ATOM     65  C   UNL     1      -1.522 -20.607 -12.846  1.00  0.00     0.029 A 
ATOM     66  C   UNL     1      -2.196 -19.469 -12.432  1.00  0.00     0.049 A 
ATOM     67  H   UNL     1      -1.907 -18.316 -10.688  1.00  0.00     0.167 HD
ATOM     68  C   UNL     1      -3.880 -17.655 -12.621  1.00  0.00     0.074 A 
ATOM     69  C   UNL     1      -4.944 -16.956 -13.310  1.00  0.00     0.031 C 
ATOM     70  C   UNL     1      -3.269 -18.770 -13.094  1.00  0.00     0.037 A 
BRANCH  57  71
ATOM     71  C   UNL     1       1.253 -20.906  -9.459  1.00  0.00     0.064 A 
ATOM     72  C   UNL     1       1.195 -21.841  -8.414  1.00  0.00     0.173 A 
ATOM     73  C   UNL     1       2.364 -20.950 -10.316  1.00  0.00     0.173 A 
ATOM     74  F   UNL     1       0.165 -21.831  -7.554  1.00  0.00    -0.203 F 
ATOM     75  C   UNL     1       2.223 -22.759  -8.216  1.00  0.00     0.198 A 
ATOM     76  C   UNL     1       3.372 -21.893 -10.137  1.00  0.00     0.198 A 
ATOM     77  F   UNL     1       2.471 -20.080 -11.331  1.00  0.00    -0.203 F 
ATOM     78  F   UNL     1       2.174 -23.603  -7.176  1.00  0.00    -0.200 F 
ATOM     79  C   UNL     1       3.306 -22.790  -9.082  1.00  0.00     0.200 A 
ATOM     80  F   UNL     1       4.410 -21.930 -10.983  1.00  0.00    -0.200 F 
ATOM     81  F   UNL     1       4.291 -23.680  -8.895  1.00  0.00    -0.200 F 
ENDBRANCH  57  71
BRANCH  58  82
ATOM     82  C   UNL     1      -5.736 -13.836 -10.579  1.00  0.00     0.064 A 
ATOM     83  C   UNL     1      -7.103 -14.142 -10.617  1.00  0.00     0.173 A 
ATOM     84  C   UNL     1      -5.364 -12.495 -10.762  1.00  0.00     0.173 A 
ATOM     85  F   UNL     1      -7.509 -15.412 -10.474  1.00  0.00    -0.203 F 
ATOM     86  C   UNL     1      -8.057 -13.154 -10.853  1.00  0.00     0.198 A 
ATOM     87  C   UNL     1      -6.321 -11.503 -10.966  1.00  0.00     0.198 A 
ATOM     88  F   UNL     1      -4.069 -12.147 -10.739  1.00  0.00    -0.203 F 
ATOM     89  F   UNL     1      -9.353 -13.484 -10.939  1.00  0.00    -0.200 F 
ATOM     90  C   UNL     1      -7.666 -11.835 -11.021  1.00  0.00     0.200 A 
ATOM     91  F   UNL     1      -5.939 -10.227 -11.114  1.00  0.00    -0.200 F 
ATOM     92  F   UNL     1      -8.584 -10.884 -11.245  1.00  0.00    -0.200 F 
ENDBRANCH  58  82
BRANCH  70  93
ATOM     93  C   UNL     1      -3.774 -19.347 -14.388  1.00  0.00     0.064 A 
ATOM     94  C   UNL     1      -3.563 -18.712 -15.620  1.00  0.00     0.173 A 
ATOM     95  C   UNL     1      -4.430 -20.589 -14.395  1.00  0.00     0.173 A 
ATOM     96  F   UNL     1      -2.951 -17.518 -15.668  1.00  0.00    -0.203 F 
ATOM     97  C   UNL     1      -4.013 -19.284 -16.807  1.00  0.00     0.198 A 
ATOM     98  C   UNL     1      -4.846 -21.175 -15.586  1.00  0.00     0.198 A 
ATOM     99  F   UNL     1      -4.649 -21.246 -13.245  1.00  0.00    -0.203 F 
ATOM    100  F   UNL     1      -3.845 -18.635 -17.967  1.00  0.00    -0.200 F 
ATOM    101  C   UNL     1      -4.645 -20.519 -16.790  1.00  0.00     0.200 A 
ATOM    102  F   UNL     1      -5.438 -22.378 -15.569  1.00  0.00    -0.200 F 
ATOM    103  F   UNL     1      -5.066 -21.074 -17.935  1.00  0.00    -0.200 F 
ENDBRANCH  70  93
ENDBRANCH  44  45
ENDBRANCH  37  39
ENDBRANCH  36  37
ENDBRANCH  35  36
ENDBRANCH  34  35
ENDBRANCH  33  34
ENDBRANCH  32  33
ENDBRANCH  31  32
ENDBRANCH  30  31
ENDBRANCH   1  30
TORSDOF 23
