REMARK SMILES O=C(OCCOCCOCCOCCOC(=O)[C@H]1CCCC[N@H+]1Cc1ccc(F)cc1Cl)c1ccc(-c2c3nc(c(-c4c(F)c(F)c(F)c(F)c4F)c4ccc([nH]4)c(-c4c(F)c(F)c(F)c(F)c4F)c4nc(c(-c5c(F)c(F)c(F)c(F)c5F)c5ccc2[nH]5)C=C4)C=C3)cc1
REMARK SMILES IDX 9 1 8 2 7 3 6 4 5 5 4 6 3 7 2 8 1 9 33 10 34 11 95 12 35 13
REMARK SMILES IDX 94 14 36 15 37 16 38 17 88 18 39 19 93 20 87 21 89 22 40 23
REMARK SMILES IDX 92 24 86 25 85 26 41 28 73 29 53 30 72 31 54 32 57 33 71 34
REMARK SMILES IDX 90 35 55 36 56 37 70 39 91 40 58 41 42 42 43 43 51 44 44 45
REMARK SMILES IDX 45 46 49 47 52 48 46 49 47 50 50 51 48 52 74 53 75 54 83 55
REMARK SMILES IDX 76 56 77 57 81 58 84 59 78 60 79 61 82 62 80 63 59 64 60 65
REMARK SMILES IDX 68 66 61 67 62 68 66 69 69 70 63 71 64 72 67 73 65 74 10 75
REMARK SMILES IDX 11 76 12 77 13 78 14 79 15 80 16 81 17 82 18 83 19 84 23 85
REMARK SMILES IDX 20 86 22 87 21 89 24 90 25 91 26 92 31 93 27 94 30 95 32 96
REMARK SMILES IDX 28 97 29 98
REMARK H PARENT 89 27 57 38 23 88
REMARK Flexibility Score: inf
ROOT
ATOM      1  O   UNL     1       6.641  -5.897   3.955  1.00  0.00    -0.377 OA
ENDROOT
BRANCH   1   2
ATOM      2  C   UNL     1       7.756  -6.436   3.249  1.00  0.00     0.188 C 
BRANCH   2   3
ATOM      3  C   UNL     1       7.732  -6.234   1.734  1.00  0.00     0.188 C 
BRANCH   3   4
ATOM      4  O   UNL     1       7.898  -4.855   1.387  1.00  0.00    -0.376 OA
BRANCH   4   5
ATOM      5  C   UNL     1       7.067  -4.401   0.320  1.00  0.00     0.202 C 
BRANCH   5   6
ATOM      6  C   UNL     1       7.633  -4.687  -1.071  1.00  0.00     0.261 C 
BRANCH   6   7
ATOM      7  O   UNL     1       8.457  -5.859  -1.108  1.00  0.00    -0.460 OA
BRANCH   7   8
ATOM      8  C   UNL     1       9.766  -5.984  -0.782  1.00  0.00     0.338 C 
ATOM      9  O   UNL     1      10.262  -7.110  -0.834  1.00  0.00    -0.246 OA
BRANCH   8  10
ATOM     10  C   UNL     1      10.671  -4.853  -0.388  1.00  0.00     0.060 A 
ATOM     11  C   UNL     1      10.281  -3.605   0.108  1.00  0.00     0.016 A 
ATOM     12  C   UNL     1      12.052  -5.108  -0.485  1.00  0.00     0.016 A 
ATOM     13  C   UNL     1      11.212  -2.626   0.447  1.00  0.00     0.010 A 
ATOM     14  C   UNL     1      12.996  -4.137  -0.145  1.00  0.00     0.010 A 
ATOM     15  C   UNL     1      12.570  -2.880   0.293  1.00  0.00    -0.014 A 
BRANCH  15  16
ATOM     16  C   UNL     1      13.517  -1.759   0.401  1.00  0.00     0.031 A 
ATOM     17  C   UNL     1      13.985  -1.131  -0.876  1.00  0.00     0.074 A 
ATOM     18  C   UNL     1      13.872  -1.277   1.603  1.00  0.00     0.049 A 
ATOM     19  N   UNL     1      14.912  -0.235  -1.072  1.00  0.00    -0.248 NA
ATOM     20  C   UNL     1      13.302  -1.571  -2.107  1.00  0.00     0.031 C 
ATOM     21  C   UNL     1      13.351  -1.747   2.888  1.00  0.00     0.029 A 
ATOM     22  N   UNL     1      14.754  -0.285   1.940  1.00  0.00    -0.354 N 
ATOM     23  C   UNL     1      14.955  -0.041  -2.446  1.00  0.00     0.074 A 
ATOM     24  C   UNL     1      13.949  -0.890  -3.039  1.00  0.00     0.031 C 
ATOM     25  C   UNL     1      13.937  -1.050   3.876  1.00  0.00     0.029 A 
ATOM     26  C   UNL     1      14.922  -0.143   3.296  1.00  0.00     0.049 A 
ATOM     27  H   UNL     1      15.221   0.271   1.275  1.00  0.00     0.167 HD
ATOM     28  C   UNL     1      15.786   0.767  -3.140  1.00  0.00     0.037 A 
ATOM     29  C   UNL     1      15.823   0.594   3.973  1.00  0.00     0.037 A 
ATOM     30  C   UNL     1      16.765   1.606  -2.510  1.00  0.00     0.049 A 
ATOM     31  C   UNL     1      16.804   1.413   3.170  1.00  0.00     0.074 A 
ATOM     32  C   UNL     1      17.682   2.458  -3.093  1.00  0.00     0.029 A 
ATOM     33  N   UNL     1      16.950   1.687  -1.135  1.00  0.00    -0.354 N 
ATOM     34  N   UNL     1      16.879   1.572   1.868  1.00  0.00    -0.248 NA
ATOM     35  C   UNL     1      17.842   2.131   3.920  1.00  0.00     0.031 C 
ATOM     36  C   UNL     1      18.460   3.013  -2.071  1.00  0.00     0.029 A 
ATOM     37  C   UNL     1      17.995   2.545  -0.850  1.00  0.00     0.049 A 
ATOM     38  H   UNL     1      16.416   1.204  -0.464  1.00  0.00     0.167 HD
ATOM     39  C   UNL     1      17.963   2.408   1.643  1.00  0.00     0.074 A 
ATOM     40  C   UNL     1      18.500   2.746   2.946  1.00  0.00     0.031 C 
ATOM     41  C   UNL     1      18.483   2.850   0.471  1.00  0.00     0.037 A 
BRANCH  28  42
ATOM     42  C   UNL     1      15.726   0.705  -4.636  1.00  0.00     0.064 A 
ATOM     43  C   UNL     1      14.666   1.258  -5.369  1.00  0.00     0.173 A 
ATOM     44  C   UNL     1      16.753   0.065  -5.348  1.00  0.00     0.173 A 
ATOM     45  F   UNL     1      13.645   1.853  -4.735  1.00  0.00    -0.203 F 
ATOM     46  C   UNL     1      14.629   1.158  -6.758  1.00  0.00     0.198 A 
ATOM     47  C   UNL     1      16.724  -0.013  -6.737  1.00  0.00     0.198 A 
ATOM     48  F   UNL     1      17.782  -0.492  -4.693  1.00  0.00    -0.203 F 
ATOM     49  F   UNL     1      13.584   1.653  -7.437  1.00  0.00    -0.200 F 
ATOM     50  C   UNL     1      15.660   0.529  -7.441  1.00  0.00     0.200 A 
ATOM     51  F   UNL     1      17.722  -0.621  -7.393  1.00  0.00    -0.200 F 
ATOM     52  F   UNL     1      15.622   0.433  -8.777  1.00  0.00    -0.200 F 
ENDBRANCH  28  42
BRANCH  29  53
ATOM     53  C   UNL     1      15.908   0.516   5.457  1.00  0.00     0.064 A 
ATOM     54  C   UNL     1      15.688   1.640   6.266  1.00  0.00     0.173 A 
ATOM     55  C   UNL     1      16.253  -0.684   6.102  1.00  0.00     0.173 A 
ATOM     56  F   UNL     1      15.383   2.819   5.704  1.00  0.00    -0.203 F 
ATOM     57  C   UNL     1      15.830   1.573   7.652  1.00  0.00     0.198 A 
ATOM     58  C   UNL     1      16.361  -0.758   7.489  1.00  0.00     0.198 A 
ATOM     59  F   UNL     1      16.487  -1.792   5.383  1.00  0.00    -0.203 F 
ATOM     60  F   UNL     1      15.670   2.677   8.394  1.00  0.00    -0.200 F 
ATOM     61  C   UNL     1      16.161   0.373   8.263  1.00  0.00     0.200 A 
ATOM     62  F   UNL     1      16.669  -1.925   8.074  1.00  0.00    -0.200 F 
ATOM     63  F   UNL     1      16.299   0.310   9.595  1.00  0.00    -0.200 F 
ENDBRANCH  29  53
BRANCH  41  64
ATOM     64  C   UNL     1      19.680   3.746   0.555  1.00  0.00     0.064 A 
ATOM     65  C   UNL     1      20.948   3.236   0.863  1.00  0.00     0.173 A 
ATOM     66  C   UNL     1      19.568   5.108   0.241  1.00  0.00     0.173 A 
ATOM     67  F   UNL     1      21.096   1.941   1.184  1.00  0.00    -0.203 F 
ATOM     68  C   UNL     1      22.065   4.063   0.863  1.00  0.00     0.198 A 
ATOM     69  C   UNL     1      20.692   5.925   0.213  1.00  0.00     0.198 A 
ATOM     70  F   UNL     1      18.375   5.635  -0.070  1.00  0.00    -0.203 F 
ATOM     71  F   UNL     1      23.265   3.565   1.191  1.00  0.00    -0.200 F 
ATOM     72  C   UNL     1      21.939   5.403   0.527  1.00  0.00     0.200 A 
ATOM     73  F   UNL     1      20.572   7.215  -0.129  1.00  0.00    -0.200 F 
ATOM     74  F   UNL     1      23.020   6.194   0.507  1.00  0.00    -0.200 F 
ENDBRANCH  41  64
ENDBRANCH  15  16
ENDBRANCH   8  10
ENDBRANCH   7   8
ENDBRANCH   6   7
ENDBRANCH   5   6
ENDBRANCH   4   5
ENDBRANCH   3   4
ENDBRANCH   2   3
ENDBRANCH   1   2
BRANCH   1  75
ATOM     75  C   UNL     1       6.280  -4.554   3.657  1.00  0.00     0.188 C 
BRANCH  75  76
ATOM     76  C   UNL     1       7.354  -3.450   3.816  1.00  0.00     0.188 C 
BRANCH  76  77
ATOM     77  O   UNL     1       8.618  -3.908   4.275  1.00  0.00    -0.376 OA
BRANCH  77  78
ATOM     78  C   UNL     1       8.934  -3.676   5.643  1.00  0.00     0.202 C 
BRANCH  78  79
ATOM     79  C   UNL     1       7.970  -4.252   6.689  1.00  0.00     0.261 C 
BRANCH  79  80
ATOM     80  O   UNL     1       6.612  -3.842   6.455  1.00  0.00    -0.459 OA
BRANCH  80  81
ATOM     81  C   UNL     1       6.195  -2.660   6.992  1.00  0.00     0.364 C 
ATOM     82  O   UNL     1       6.766  -2.078   7.889  1.00  0.00    -0.245 OA
BRANCH  81  83
ATOM     83  C   UNL     1       4.924  -2.191   6.240  1.00  0.00     0.295 C 
ATOM     84  C   UNL     1       3.694  -2.637   7.031  1.00  0.00     0.078 C 
ATOM     85  N   UNL     1       4.895  -0.752   5.957  1.00  0.00    -0.319 N 
ATOM     86  C   UNL     1       3.509  -1.792   8.283  1.00  0.00     0.013 C 
ATOM     87  C   UNL     1       4.680   0.144   7.072  1.00  0.00     0.263 C 
ATOM     88  H   UNL     1       3.972  -0.790   5.524  1.00  0.00     0.349 HD
ATOM     89  C   UNL     1       3.489  -0.306   7.931  1.00  0.00     0.062 C 
BRANCH  85  90
ATOM     90  C   UNL     1       5.403  -0.210   4.699  1.00  0.00     0.301 C 
BRANCH  90  91
ATOM     91  C   UNL     1       6.826   0.328   4.597  1.00  0.00     0.025 A 
ATOM     92  C   UNL     1       7.863  -0.140   5.415  1.00  0.00     0.014 A 
ATOM     93  C   UNL     1       7.196   1.226   3.569  1.00  0.00     0.052 A 
ATOM     94  C   UNL     1       9.200   0.213   5.205  1.00  0.00     0.040 A 
ATOM     95  C   UNL     1       8.530   1.613   3.375  1.00  0.00     0.060 A 
ATOM     96  Cl  UNL     1       6.036   1.884   2.466  1.00  0.00    -0.084 Cl
ATOM     97  C   UNL     1       9.522   1.086   4.184  1.00  0.00     0.124 A 
ATOM     98  F   UNL     1      10.802   1.416   3.977  1.00  0.00    -0.207 F 
ENDBRANCH  90  91
ENDBRANCH  85  90
ENDBRANCH  81  83
ENDBRANCH  80  81
ENDBRANCH  79  80
ENDBRANCH  78  79
ENDBRANCH  77  78
ENDBRANCH  76  77
ENDBRANCH  75  76
ENDBRANCH   1  75
TORSDOF 22
