REMARK SMILES Cc1c(CC(=O)OCCOCCOCCOCCOC(=O)c2ccc(-c3c4nc(c(-c5c(F)c(F)c(F)c(F)c5F)c5ccc([nH]5)c(-c5c(F)c(F)c(F)c(F)c5F)c5nc(c(-c6c(F)c(F)c(F)c(F)c6F)c6ccc3[nH]6)C=C5)C=C4)cc2)c2cc(O)ccc2n1C(=O)c1ccc(Cl)cc1
REMARK SMILES IDX 12 1 11 2 10 3 9 4 8 5 7 6 5 7 6 8 4 9 3 10 1 11 2 12 92 13
REMARK SMILES IDX 85 14 91 15 86 16 90 17 87 18 89 19 93 20 94 21 95 22 96 23
REMARK SMILES IDX 101 24 97 25 100 26 98 27 99 28 88 29 13 31 14 32 15 33
REMARK SMILES IDX 16 34 17 35 18 36 19 37 20 38 21 39 22 40 23 41 84 42 24 43
REMARK SMILES IDX 83 44 25 45 26 46 27 47 77 48 28 49 82 50 76 51 78 52 29 53
REMARK SMILES IDX 81 54 75 55 74 56 30 58 62 59 42 60 61 61 43 62 46 63 60 64
REMARK SMILES IDX 79 65 44 66 45 67 59 69 80 70 47 71 31 72 32 73 40 74 33 75
REMARK SMILES IDX 34 76 38 77 41 78 35 79 36 80 39 81 37 82 63 83 64 84 72 85
REMARK SMILES IDX 65 86 66 87 70 88 73 89 67 90 68 91 71 92 69 93 48 94 49 95
REMARK SMILES IDX 57 96 50 97 51 98 55 99 58 100 52 101 53 102 56 103 54 104
REMARK H PARENT 88 30 78 57 46 68
REMARK Flexibility Score: inf
ROOT
ATOM      1  C   UNL     1      -2.286   1.438  -4.045  1.00  0.00     0.188 C 
ENDROOT
BRANCH   1   2
ATOM      2  C   UNL     1      -3.092   0.381  -4.792  1.00  0.00     0.188 C 
BRANCH   2   3
ATOM      3  O   UNL     1      -4.306   0.029  -4.155  1.00  0.00    -0.376 OA
BRANCH   3   4
ATOM      4  C   UNL     1      -4.327  -1.145  -3.360  1.00  0.00     0.202 C 
BRANCH   4   5
ATOM      5  C   UNL     1      -3.501  -1.192  -2.058  1.00  0.00     0.261 C 
BRANCH   5   6
ATOM      6  O   UNL     1      -2.132  -0.729  -2.100  1.00  0.00    -0.463 OA
BRANCH   6   7
ATOM      7  C   UNL     1      -1.184  -1.563  -2.587  1.00  0.00     0.310 C 
ATOM      8  O   UNL     1      -1.446  -2.688  -3.008  1.00  0.00    -0.252 OA
BRANCH   7   9
ATOM      9  C   UNL     1       0.243  -1.007  -2.632  1.00  0.00     0.160 C 
BRANCH   9  10
ATOM     10  C   UNL     1       0.559   0.398  -2.138  1.00  0.00    -0.008 A 
ATOM     11  C   UNL     1       0.767  -0.033   0.407  1.00  0.00     0.065 C 
ATOM     12  C   UNL     1       0.768   0.810  -0.827  1.00  0.00     0.028 A 
ATOM     13  N   UNL     1       1.035   2.193  -0.799  1.00  0.00    -0.280 N 
ATOM     14  C   UNL     1       0.827   1.546  -2.959  1.00  0.00     0.008 A 
ATOM     15  C   UNL     1       0.997   2.659  -2.123  1.00  0.00     0.057 A 
ATOM     16  C   UNL     1       0.869   1.743  -4.362  1.00  0.00     0.056 A 
ATOM     17  C   UNL     1       1.119   3.953  -2.682  1.00  0.00     0.031 A 
ATOM     18  C   UNL     1       0.909   3.035  -4.886  1.00  0.00     0.116 A 
ATOM     19  C   UNL     1       1.031   4.133  -4.063  1.00  0.00     0.048 A 
BRANCH  13  20
ATOM     20  C   UNL     1       1.333   2.968   0.365  1.00  0.00     0.262 C 
ATOM     21  O   UNL     1       1.432   2.401   1.452  1.00  0.00    -0.268 OA
BRANCH  20  22
ATOM     22  C   UNL     1       1.578   4.421   0.385  1.00  0.00     0.040 A 
ATOM     23  C   UNL     1       0.502   5.317   0.351  1.00  0.00     0.015 A 
ATOM     24  C   UNL     1       2.896   4.890   0.430  1.00  0.00     0.015 A 
ATOM     25  C   UNL     1       0.754   6.691   0.292  1.00  0.00     0.021 A 
ATOM     26  C   UNL     1       3.141   6.265   0.379  1.00  0.00     0.021 A 
ATOM     27  C   UNL     1       2.071   7.158   0.295  1.00  0.00     0.041 A 
ATOM     28  Cl  UNL     1       2.378   8.847   0.178  1.00  0.00    -0.084 Cl
ENDBRANCH  20  22
ENDBRANCH  13  20
BRANCH  18  29
ATOM     29  O   UNL     1       0.750   3.180  -6.234  1.00  0.00    -0.508 OA
ATOM     30  H   UNL     1       0.669   2.424  -6.780  1.00  0.00     0.293 HD
ENDBRANCH  18  29
ENDBRANCH   9  10
ENDBRANCH   7   9
ENDBRANCH   6   7
ENDBRANCH   5   6
ENDBRANCH   4   5
ENDBRANCH   3   4
ENDBRANCH   2   3
ENDBRANCH   1   2
BRANCH   1  31
ATOM     31  O   UNL     1      -2.861   2.539  -3.386  1.00  0.00    -0.377 OA
BRANCH  31  32
ATOM     32  C   UNL     1      -4.253   2.565  -3.245  1.00  0.00     0.188 C 
BRANCH  32  33
ATOM     33  C   UNL     1      -5.010   3.013  -4.499  1.00  0.00     0.188 C 
BRANCH  33  34
ATOM     34  O   UNL     1      -4.393   3.783  -5.526  1.00  0.00    -0.376 OA
BRANCH  34  35
ATOM     35  C   UNL     1      -3.225   4.549  -5.279  1.00  0.00     0.202 C 
BRANCH  35  36
ATOM     36  C   UNL     1      -3.225   5.672  -4.223  1.00  0.00     0.261 C 
BRANCH  36  37
ATOM     37  O   UNL     1      -4.025   5.406  -3.071  1.00  0.00    -0.460 OA
BRANCH  37  38
ATOM     38  C   UNL     1      -5.050   6.257  -2.791  1.00  0.00     0.338 C 
ATOM     39  O   UNL     1      -5.253   7.355  -3.238  1.00  0.00    -0.246 OA
BRANCH  38  40
ATOM     40  C   UNL     1      -6.040   5.416  -2.075  1.00  0.00     0.060 A 
ATOM     41  C   UNL     1      -5.664   4.677  -0.949  1.00  0.00     0.016 A 
ATOM     42  C   UNL     1      -7.205   5.104  -2.789  1.00  0.00     0.016 A 
ATOM     43  C   UNL     1      -6.366   3.512  -0.655  1.00  0.00     0.010 A 
ATOM     44  C   UNL     1      -7.896   3.930  -2.497  1.00  0.00     0.010 A 
ATOM     45  C   UNL     1      -7.440   3.100  -1.470  1.00  0.00    -0.014 A 
BRANCH  45  46
ATOM     46  C   UNL     1      -8.208   1.929  -1.030  1.00  0.00     0.031 A 
ATOM     47  C   UNL     1      -8.847   2.156   0.295  1.00  0.00     0.074 A 
ATOM     48  C   UNL     1      -8.524   0.822  -1.734  1.00  0.00     0.049 A 
ATOM     49  N   UNL     1      -8.741   1.462   1.381  1.00  0.00    -0.248 NA
ATOM     50  C   UNL     1      -9.613   3.407   0.440  1.00  0.00     0.031 C 
ATOM     51  C   UNL     1      -8.282   0.540  -3.148  1.00  0.00     0.029 A 
ATOM     52  N   UNL     1      -9.255  -0.265  -1.324  1.00  0.00    -0.354 N 
ATOM     53  C   UNL     1      -9.540   2.117   2.312  1.00  0.00     0.074 A 
ATOM     54  C   UNL     1      -9.933   3.372   1.729  1.00  0.00     0.031 C 
ATOM     55  C   UNL     1      -9.033  -0.523  -3.523  1.00  0.00     0.029 A 
ATOM     56  C   UNL     1      -9.728  -1.058  -2.361  1.00  0.00     0.049 A 
ATOM     57  H   UNL     1      -9.430  -0.464  -0.376  1.00  0.00     0.167 HD
ATOM     58  C   UNL     1     -10.013   1.509   3.430  1.00  0.00     0.037 A 
ATOM     59  C   UNL     1     -10.684  -2.020  -2.280  1.00  0.00     0.037 A 
ATOM     60  C   UNL     1      -9.253   0.351   3.795  1.00  0.00     0.049 A 
ATOM     61  C   UNL     1     -10.831  -2.408  -0.856  1.00  0.00     0.074 A 
ATOM     62  C   UNL     1      -7.935   0.124   4.140  1.00  0.00     0.029 A 
ATOM     63  N   UNL     1      -9.788  -0.888   3.553  1.00  0.00    -0.354 N 
ATOM     64  N   UNL     1      -9.957  -3.092  -0.174  1.00  0.00    -0.248 NA
ATOM     65  C   UNL     1     -11.847  -1.729  -0.066  1.00  0.00     0.031 C 
ATOM     66  C   UNL     1      -7.630  -1.172   3.633  1.00  0.00     0.029 A 
ATOM     67  C   UNL     1      -8.786  -1.656   3.020  1.00  0.00     0.049 A 
ATOM     68  H   UNL     1     -10.714  -1.171   3.728  1.00  0.00     0.167 HD
ATOM     69  C   UNL     1     -10.058  -2.600   1.118  1.00  0.00     0.074 A 
ATOM     70  C   UNL     1     -11.309  -1.855   1.148  1.00  0.00     0.031 C 
ATOM     71  C   UNL     1      -8.985  -2.612   1.959  1.00  0.00     0.037 A 
BRANCH  58  72
ATOM     72  C   UNL     1     -11.372   1.817   3.988  1.00  0.00     0.064 A 
ATOM     73  C   UNL     1     -11.702   1.426   5.295  1.00  0.00     0.173 A 
ATOM     74  C   UNL     1     -12.448   2.257   3.184  1.00  0.00     0.173 A 
ATOM     75  F   UNL     1     -10.761   0.940   6.118  1.00  0.00    -0.203 F 
ATOM     76  C   UNL     1     -13.021   1.452   5.754  1.00  0.00     0.198 A 
ATOM     77  C   UNL     1     -13.750   2.342   3.664  1.00  0.00     0.198 A 
ATOM     78  F   UNL     1     -12.294   2.517   1.878  1.00  0.00    -0.203 F 
ATOM     79  F   UNL     1     -13.310   0.970   6.970  1.00  0.00    -0.200 F 
ATOM     80  C   UNL     1     -14.042   1.915   4.941  1.00  0.00     0.200 A 
ATOM     81  F   UNL     1     -14.726   2.769   2.851  1.00  0.00    -0.200 F 
ATOM     82  F   UNL     1     -15.311   1.901   5.367  1.00  0.00    -0.200 F 
ENDBRANCH  58  72
BRANCH  59  83
ATOM     83  C   UNL     1     -11.679  -2.450  -3.298  1.00  0.00     0.064 A 
ATOM     84  C   UNL     1     -12.413  -3.642  -3.141  1.00  0.00     0.173 A 
ATOM     85  C   UNL     1     -12.136  -1.571  -4.298  1.00  0.00     0.173 A 
ATOM     86  F   UNL     1     -12.082  -4.519  -2.182  1.00  0.00    -0.203 F 
ATOM     87  C   UNL     1     -13.545  -3.919  -3.917  1.00  0.00     0.198 A 
ATOM     88  C   UNL     1     -13.256  -1.855  -5.081  1.00  0.00     0.198 A 
ATOM     89  F   UNL     1     -11.566  -0.371  -4.472  1.00  0.00    -0.203 F 
ATOM     90  F   UNL     1     -14.258  -5.031  -3.687  1.00  0.00    -0.200 F 
ATOM     91  C   UNL     1     -13.970  -3.021  -4.880  1.00  0.00     0.200 A 
ATOM     92  F   UNL     1     -13.677  -0.960  -5.986  1.00  0.00    -0.200 F 
ATOM     93  F   UNL     1     -15.088  -3.256  -5.582  1.00  0.00    -0.200 F 
ENDBRANCH  59  83
BRANCH  71  94
ATOM     94  C   UNL     1      -7.813  -3.470   1.588  1.00  0.00     0.064 A 
ATOM     95  C   UNL     1      -7.037  -3.278   0.433  1.00  0.00     0.173 A 
ATOM     96  C   UNL     1      -7.378  -4.432   2.511  1.00  0.00     0.173 A 
ATOM     97  F   UNL     1      -7.327  -2.307  -0.444  1.00  0.00    -0.203 F 
ATOM     98  C   UNL     1      -5.903  -4.051   0.194  1.00  0.00     0.198 A 
ATOM     99  C   UNL     1      -6.221  -5.173   2.289  1.00  0.00     0.198 A 
ATOM    100  F   UNL     1      -8.052  -4.618   3.657  1.00  0.00    -0.203 F 
ATOM    101  F   UNL     1      -5.188  -3.861  -0.924  1.00  0.00    -0.200 F 
ATOM    102  C   UNL     1      -5.490  -4.989   1.126  1.00  0.00     0.200 A 
ATOM    103  F   UNL     1      -5.798  -6.043   3.216  1.00  0.00    -0.200 F 
ATOM    104  F   UNL     1      -4.370  -5.696   0.919  1.00  0.00    -0.200 F 
ENDBRANCH  71  94
ENDBRANCH  45  46
ENDBRANCH  38  40
ENDBRANCH  37  38
ENDBRANCH  36  37
ENDBRANCH  35  36
ENDBRANCH  34  35
ENDBRANCH  33  34
ENDBRANCH  32  33
ENDBRANCH  31  32
ENDBRANCH   1  31
TORSDOF 24
