REMARK SMILES COC(=O)c1c(NC(=O)[C@@H]2[C@H]3CC[C@H](CC3)[C@H]2C(=O)OCCOCCOCCOCCOC(=O)c2ccc(-c3c4nc(c(-c5c(F)c(F)c(F)c(F)c5F)c5ccc([nH]5)c(-c5c(F)c(F)c(F)c(F)c5F)c5nc(c(-c6c(F)c(F)c(F)c(F)c6F)c6ccc3[nH]6)C=C5)C=C4)cc2)sc(C)c1-c1ccc(C)cc1
REMARK SMILES IDX 25 1 24 2 23 3 22 4 21 5 20 6 18 7 19 8 17 9 10 10 11 11
REMARK SMILES IDX 12 12 16 13 14 14 13 15 15 16 8 17 7 18 9 20 6 21 5 22
REMARK SMILES IDX 101 23 98 24 99 25 100 26 3 27 4 28 2 29 1 30 102 31 103 32
REMARK SMILES IDX 108 33 104 34 107 35 105 36 106 37 26 38 27 39 28 40 29 41
REMARK SMILES IDX 30 42 31 43 32 44 33 45 34 46 35 47 36 48 97 49 37 50 96 51
REMARK SMILES IDX 38 52 39 53 40 54 90 55 41 56 95 57 89 58 91 59 42 60 94 61
REMARK SMILES IDX 88 62 87 63 43 65 75 66 55 67 74 68 56 69 59 70 73 71 92 72
REMARK SMILES IDX 57 73 58 74 72 76 93 77 60 78 44 79 45 80 53 81 46 82 47 83
REMARK SMILES IDX 51 84 54 85 48 86 49 87 52 88 50 89 76 90 77 91 85 92 78 93
REMARK SMILES IDX 79 94 83 95 86 96 80 97 81 98 84 99 82 100 61 101 62 102
REMARK SMILES IDX 70 103 63 104 64 105 68 106 71 107 65 108 66 109 69 110
REMARK SMILES IDX 67 111
REMARK H PARENT 7 19 91 64 59 75
REMARK Flexibility Score: inf
ROOT
ATOM      1  C   UNL     1       3.382  -1.397   4.675  1.00  0.00     0.188 C 
ENDROOT
BRANCH   1   2
ATOM      2  C   UNL     1       3.508  -0.024   5.350  1.00  0.00     0.188 C 
BRANCH   2   3
ATOM      3  O   UNL     1       4.755   0.657   5.422  1.00  0.00    -0.376 OA
BRANCH   3   4
ATOM      4  C   UNL     1       5.983  -0.051   5.499  1.00  0.00     0.202 C 
BRANCH   4   5
ATOM      5  C   UNL     1       6.231  -1.038   6.649  1.00  0.00     0.261 C 
BRANCH   5   6
ATOM      6  O   UNL     1       5.318  -2.149   6.747  1.00  0.00    -0.463 OA
BRANCH   6   7
ATOM      7  C   UNL     1       4.420  -2.082   7.760  1.00  0.00     0.310 C 
ATOM      8  O   UNL     1       4.337  -1.135   8.538  1.00  0.00    -0.252 OA
BRANCH   7   9
ATOM      9  C   UNL     1       3.569  -3.335   7.947  1.00  0.00     0.115 C 
ATOM     10  C   UNL     1       3.245  -4.267   6.723  1.00  0.00     0.096 C 
ATOM     11  C   UNL     1       3.483  -5.740   7.158  1.00  0.00     0.002 C 
ATOM     12  C   UNL     1       4.988  -5.902   7.418  1.00  0.00     0.005 C 
ATOM     13  C   UNL     1       2.718  -6.062   8.458  1.00  0.00     0.005 C 
ATOM     14  C   UNL     1       4.225  -4.161   9.081  1.00  0.00     0.004 C 
ATOM     15  C   UNL     1       5.428  -4.957   8.540  1.00  0.00     0.005 C 
ATOM     16  C   UNL     1       3.167  -5.143   9.596  1.00  0.00     0.005 C 
BRANCH  10  17
ATOM     17  C   UNL     1       1.798  -4.104   6.206  1.00  0.00     0.229 C 
ATOM     18  N   UNL     1       1.288  -4.696   5.084  1.00  0.00    -0.317 N 
ATOM     19  H   UNL     1       0.313  -4.577   5.007  1.00  0.00     0.170 HD
ATOM     20  O   UNL     1       0.990  -3.414   6.844  1.00  0.00    -0.274 OA
BRANCH  18  21
ATOM     21  C   UNL     1       1.815  -5.423   4.028  1.00  0.00     0.111 A 
ATOM     22  C   UNL     1       1.093  -6.120   3.058  1.00  0.00     0.102 A 
ATOM     23  C   UNL     1       1.985  -6.786   2.119  1.00  0.00     0.012 A 
ATOM     24  S   UNL     1       3.477  -5.494   3.745  1.00  0.00    -0.122 S 
ATOM     25  C   UNL     1       3.316  -6.569   2.436  1.00  0.00     0.012 A 
ATOM     26  C   UNL     1       4.564  -7.112   1.819  1.00  0.00     0.057 C 
BRANCH  22  27
ATOM     27  C   UNL     1      -0.372  -6.171   3.054  1.00  0.00     0.341 C 
ATOM     28  O   UNL     1      -1.065  -5.316   3.599  1.00  0.00    -0.246 OA
BRANCH  27  29
ATOM     29  O   UNL     1      -0.870  -7.267   2.418  1.00  0.00    -0.465 OA
ATOM     30  C   UNL     1      -2.293  -7.376   2.366  1.00  0.00     0.282 C 
ENDBRANCH  27  29
ENDBRANCH  22  27
BRANCH  23  31
ATOM     31  C   UNL     1       1.615  -7.590   0.955  1.00  0.00    -0.016 A 
ATOM     32  C   UNL     1       0.996  -6.990  -0.148  1.00  0.00     0.009 A 
ATOM     33  C   UNL     1       1.884  -8.964   0.926  1.00  0.00     0.009 A 
ATOM     34  C   UNL     1       0.663  -7.755  -1.271  1.00  0.00     0.004 A 
ATOM     35  C   UNL     1       1.560  -9.723  -0.202  1.00  0.00     0.004 A 
ATOM     36  C   UNL     1       0.954  -9.124  -1.312  1.00  0.00    -0.051 A 
ATOM     37  C   UNL     1       0.603  -9.932  -2.527  1.00  0.00     0.044 C 
ENDBRANCH  23  31
ENDBRANCH  18  21
ENDBRANCH  10  17
ENDBRANCH   7   9
ENDBRANCH   6   7
ENDBRANCH   5   6
ENDBRANCH   4   5
ENDBRANCH   3   4
ENDBRANCH   2   3
ENDBRANCH   1   2
BRANCH   1  38
ATOM     38  O   UNL     1       4.568  -1.907   4.098  1.00  0.00    -0.377 OA
BRANCH  38  39
ATOM     39  C   UNL     1       4.720  -1.745   2.696  1.00  0.00     0.188 C 
BRANCH  39  40
ATOM     40  C   UNL     1       4.237  -0.421   2.090  1.00  0.00     0.188 C 
BRANCH  40  41
ATOM     41  O   UNL     1       2.837  -0.212   2.260  1.00  0.00    -0.376 OA
BRANCH  41  42
ATOM     42  C   UNL     1       1.978  -0.595   1.191  1.00  0.00     0.202 C 
BRANCH  42  43
ATOM     43  C   UNL     1       1.794  -2.106   0.970  1.00  0.00     0.261 C 
BRANCH  43  44
ATOM     44  O   UNL     1       2.943  -2.839   0.502  1.00  0.00    -0.460 OA
BRANCH  44  45
ATOM     45  C   UNL     1       3.613  -2.382  -0.575  1.00  0.00     0.338 C 
ATOM     46  O   UNL     1       3.306  -1.459  -1.305  1.00  0.00    -0.246 OA
BRANCH  45  47
ATOM     47  C   UNL     1       4.917  -3.077  -0.624  1.00  0.00     0.060 A 
ATOM     48  C   UNL     1       6.091  -2.312  -0.606  1.00  0.00     0.016 A 
ATOM     49  C   UNL     1       4.982  -4.469  -0.702  1.00  0.00     0.016 A 
ATOM     50  C   UNL     1       7.336  -2.939  -0.694  1.00  0.00     0.010 A 
ATOM     51  C   UNL     1       6.229  -5.093  -0.814  1.00  0.00     0.010 A 
ATOM     52  C   UNL     1       7.410  -4.330  -0.838  1.00  0.00    -0.014 A 
BRANCH  52  53
ATOM     53  C   UNL     1       8.694  -4.970  -1.217  1.00  0.00     0.031 A 
ATOM     54  C   UNL     1       8.942  -5.260  -2.672  1.00  0.00     0.074 A 
ATOM     55  C   UNL     1       9.627  -5.280  -0.300  1.00  0.00     0.049 A 
ATOM     56  N   UNL     1       9.954  -5.862  -3.242  1.00  0.00    -0.248 NA
ATOM     57  C   UNL     1       7.901  -4.810  -3.611  1.00  0.00     0.031 C 
ATOM     58  C   UNL     1       9.528  -5.014   1.133  1.00  0.00     0.029 A 
ATOM     59  N   UNL     1      10.844  -5.901  -0.446  1.00  0.00    -0.354 N 
ATOM     60  C   UNL     1       9.670  -5.866  -4.602  1.00  0.00     0.074 A 
ATOM     61  C   UNL     1       8.379  -5.236  -4.769  1.00  0.00     0.031 C 
ATOM     62  C   UNL     1      10.635  -5.481   1.739  1.00  0.00     0.029 A 
ATOM     63  C   UNL     1      11.503  -6.107   0.742  1.00  0.00     0.049 A 
ATOM     64  H   UNL     1      11.209  -6.172  -1.319  1.00  0.00     0.167 HD
ATOM     65  C   UNL     1      10.423  -6.343  -5.621  1.00  0.00     0.037 A 
ATOM     66  C   UNL     1      12.662  -6.749   0.992  1.00  0.00     0.037 A 
ATOM     67  C   UNL     1      11.705  -6.973  -5.456  1.00  0.00     0.049 A 
ATOM     68  C   UNL     1      13.443  -7.347  -0.153  1.00  0.00     0.074 A 
ATOM     69  C   UNL     1      12.551  -7.474  -6.429  1.00  0.00     0.029 A 
ATOM     70  N   UNL     1      12.322  -7.196  -4.235  1.00  0.00    -0.354 N 
ATOM     71  N   UNL     1      13.181  -7.325  -1.438  1.00  0.00    -0.248 NA
ATOM     72  C   UNL     1      14.682  -8.063   0.190  1.00  0.00     0.031 C 
ATOM     73  C   UNL     1      13.656  -8.050  -5.793  1.00  0.00     0.029 A 
ATOM     74  C   UNL     1      13.525  -7.856  -4.427  1.00  0.00     0.049 A 
ATOM     75  H   UNL     1      11.960  -6.926  -3.360  1.00  0.00     0.167 HD
ATOM     76  C   UNL     1      14.232  -7.993  -2.055  1.00  0.00     0.074 A 
ATOM     77  C   UNL     1      15.143  -8.399  -1.006  1.00  0.00     0.031 C 
ATOM     78  C   UNL     1      14.426  -8.248  -3.373  1.00  0.00     0.037 A 
BRANCH  65  79
ATOM     79  C   UNL     1       9.860  -6.227  -7.007  1.00  0.00     0.064 A 
ATOM     80  C   UNL     1       9.764  -4.991  -7.662  1.00  0.00     0.173 A 
ATOM     81  C   UNL     1       9.437  -7.372  -7.697  1.00  0.00     0.173 A 
ATOM     82  F   UNL     1      10.139  -3.864  -7.038  1.00  0.00    -0.203 F 
ATOM     83  C   UNL     1       9.242  -4.903  -8.950  1.00  0.00     0.198 A 
ATOM     84  C   UNL     1       8.943  -7.284  -8.995  1.00  0.00     0.198 A 
ATOM     85  F   UNL     1       9.508  -8.579  -7.115  1.00  0.00    -0.203 F 
ATOM     86  F   UNL     1       9.114  -3.706  -9.539  1.00  0.00    -0.200 F 
ATOM     87  C   UNL     1       8.839  -6.049  -9.618  1.00  0.00     0.200 A 
ATOM     88  F   UNL     1       8.563  -8.394  -9.643  1.00  0.00    -0.200 F 
ATOM     89  F   UNL     1       8.342  -5.964 -10.860  1.00  0.00    -0.200 F 
ENDBRANCH  65  79
BRANCH  66  90
ATOM     90  C   UNL     1      13.155  -6.884   2.389  1.00  0.00     0.064 A 
ATOM     91  C   UNL     1      14.324  -6.235   2.812  1.00  0.00     0.173 A 
ATOM     92  C   UNL     1      12.487  -7.693   3.320  1.00  0.00     0.173 A 
ATOM     93  F   UNL     1      15.016  -5.475   1.950  1.00  0.00    -0.203 F 
ATOM     94  C   UNL     1      14.815  -6.406   4.105  1.00  0.00     0.198 A 
ATOM     95  C   UNL     1      12.963  -7.840   4.621  1.00  0.00     0.198 A 
ATOM     96  F   UNL     1      11.368  -8.343   2.965  1.00  0.00    -0.203 F 
ATOM     97  F   UNL     1      15.963  -5.816   4.466  1.00  0.00    -0.200 F 
ATOM     98  C   UNL     1      14.132  -7.204   5.010  1.00  0.00     0.200 A 
ATOM     99  F   UNL     1      12.294  -8.605   5.494  1.00  0.00    -0.200 F 
ATOM    100  F   UNL     1      14.605  -7.369   6.253  1.00  0.00    -0.200 F 
ENDBRANCH  66  90
BRANCH  78 101
ATOM    101  C   UNL     1      15.684  -8.969  -3.765  1.00  0.00     0.064 A 
ATOM    102  C   UNL     1      15.869 -10.332  -3.491  1.00  0.00     0.173 A 
ATOM    103  C   UNL     1      16.697  -8.298  -4.468  1.00  0.00     0.173 A 
ATOM    104  F   UNL     1      14.936 -11.016  -2.810  1.00  0.00    -0.203 F 
ATOM    105  C   UNL     1      17.030 -10.991  -3.886  1.00  0.00     0.198 A 
ATOM    106  C   UNL     1      17.843  -8.967  -4.888  1.00  0.00     0.198 A 
ATOM    107  F   UNL     1      16.567  -6.996  -4.764  1.00  0.00    -0.203 F 
ATOM    108  F   UNL     1      17.204 -12.283  -3.574  1.00  0.00    -0.200 F 
ATOM    109  C   UNL     1      18.012 -10.311  -4.591  1.00  0.00     0.200 A 
ATOM    110  F   UNL     1      18.783  -8.312  -5.583  1.00  0.00    -0.200 F 
ATOM    111  F   UNL     1      19.125 -10.949  -4.979  1.00  0.00    -0.200 F 
ENDBRANCH  78 101
ENDBRANCH  52  53
ENDBRANCH  45  47
ENDBRANCH  44  45
ENDBRANCH  43  44
ENDBRANCH  42  43
ENDBRANCH  41  42
ENDBRANCH  40  41
ENDBRANCH  39  40
ENDBRANCH  38  39
ENDBRANCH   1  38
TORSDOF 25
