REMARK SMILES O=C(OCCOCCOCCOCCOC(=O)c1sccc1S(=O)(=O)Nc1ccc(-c2nc3ccccc3n2C(F)F)cc1)c1ccc(-c2c3nc(c(-c4c(F)c(F)c(F)c(F)c4F)c4ccc([nH]4)c(-c4c(F)c(F)c(F)c(F)c4F)c4nc(c(-c5c(F)c(F)c(F)c(F)c5F)c5ccc2[nH]5)C=C4)C=C3)cc1
REMARK SMILES IDX 10 1 9 2 8 3 7 4 6 5 5 6 4 7 3 8 2 9 1 10 45 11 46 12 107 13
REMARK SMILES IDX 47 14 106 15 48 16 49 17 50 18 100 19 51 20 105 21 99 22
REMARK SMILES IDX 101 23 52 24 104 25 98 26 97 27 53 29 85 30 65 31 84 32
REMARK SMILES IDX 66 33 69 34 83 35 102 36 67 37 68 38 82 40 103 41 70 42
REMARK SMILES IDX 54 43 55 44 63 45 56 46 57 47 61 48 64 49 58 50 59 51 62 52
REMARK SMILES IDX 60 53 86 54 87 55 95 56 88 57 89 58 93 59 96 60 90 61 91 62
REMARK SMILES IDX 94 63 92 64 71 65 72 66 80 67 73 68 74 69 78 70 81 71 75 72
REMARK SMILES IDX 76 73 79 74 77 75 11 76 12 77 13 78 14 79 15 80 16 81 17 82
REMARK SMILES IDX 18 83 19 84 22 85 20 86 21 87 23 88 24 89 25 90 26 91 27 93
REMARK SMILES IDX 28 94 44 95 29 96 43 97 30 98 31 99 32 100 39 101 33 102
REMARK SMILES IDX 38 103 34 104 37 105 35 106 36 107 40 108 41 109 42 110
REMARK H PARENT 101 28 69 39 26 92
REMARK Flexibility Score: inf
ROOT
ATOM      1  C   UNL     1       4.170   1.263  -2.501  1.00  0.00     0.188 C 
ENDROOT
BRANCH   1   2
ATOM      2  O   UNL     1       2.769   1.130  -2.344  1.00  0.00    -0.377 OA
BRANCH   2   3
ATOM      3  C   UNL     1       2.268   0.494  -1.177  1.00  0.00     0.188 C 
BRANCH   3   4
ATOM      4  C   UNL     1       2.810   0.928   0.193  1.00  0.00     0.188 C 
BRANCH   4   5
ATOM      5  O   UNL     1       3.578  -0.046   0.898  1.00  0.00    -0.376 OA
BRANCH   5   6
ATOM      6  C   UNL     1       4.833  -0.434   0.377  1.00  0.00     0.202 C 
BRANCH   6   7
ATOM      7  C   UNL     1       4.891  -1.838  -0.255  1.00  0.00     0.261 C 
BRANCH   7   8
ATOM      8  O   UNL     1       3.717  -2.345  -0.925  1.00  0.00    -0.460 OA
BRANCH   8   9
ATOM      9  C   UNL     1       2.579  -2.815  -0.347  1.00  0.00     0.338 C 
ATOM     10  O   UNL     1       1.694  -3.351  -1.004  1.00  0.00    -0.246 OA
BRANCH   9  11
ATOM     11  C   UNL     1       2.317  -2.485   1.062  1.00  0.00     0.060 A 
ATOM     12  C   UNL     1       3.182  -2.899   2.072  1.00  0.00     0.016 A 
ATOM     13  C   UNL     1       1.187  -1.701   1.355  1.00  0.00     0.016 A 
ATOM     14  C   UNL     1       2.955  -2.476   3.372  1.00  0.00     0.010 A 
ATOM     15  C   UNL     1       0.960  -1.272   2.660  1.00  0.00     0.010 A 
ATOM     16  C   UNL     1       1.828  -1.694   3.672  1.00  0.00    -0.014 A 
BRANCH  16  17
ATOM     17  C   UNL     1       1.430  -1.695   5.076  1.00  0.00     0.031 A 
ATOM     18  C   UNL     1       2.151  -0.921   6.117  1.00  0.00     0.074 A 
ATOM     19  C   UNL     1       0.522  -2.616   5.453  1.00  0.00     0.049 A 
ATOM     20  N   UNL     1       2.926  -1.386   7.049  1.00  0.00    -0.248 NA
ATOM     21  C   UNL     1       1.927   0.527   6.191  1.00  0.00     0.031 C 
ATOM     22  C   UNL     1      -0.434  -3.331   4.600  1.00  0.00     0.029 A 
ATOM     23  N   UNL     1       0.262  -3.091   6.705  1.00  0.00    -0.354 N 
ATOM     24  C   UNL     1       3.160  -0.331   7.926  1.00  0.00     0.074 A 
ATOM     25  C   UNL     1       2.562   0.838   7.326  1.00  0.00     0.031 C 
ATOM     26  C   UNL     1      -1.279  -4.034   5.377  1.00  0.00     0.029 A 
ATOM     27  C   UNL     1      -0.837  -3.923   6.755  1.00  0.00     0.049 A 
ATOM     28  H   UNL     1       0.804  -2.864   7.494  1.00  0.00     0.167 HD
ATOM     29  C   UNL     1       3.698  -0.514   9.165  1.00  0.00     0.037 A 
ATOM     30  C   UNL     1      -1.395  -4.480   7.847  1.00  0.00     0.037 A 
ATOM     31  C   UNL     1       4.366  -1.776   9.304  1.00  0.00     0.049 A 
ATOM     32  C   UNL     1      -0.371  -4.583   8.907  1.00  0.00     0.074 A 
ATOM     33  C   UNL     1       5.450  -2.383   8.703  1.00  0.00     0.029 A 
ATOM     34  N   UNL     1       3.776  -2.749  10.068  1.00  0.00    -0.354 N 
ATOM     35  N   UNL     1       0.642  -5.405   8.879  1.00  0.00    -0.248 NA
ATOM     36  C   UNL     1      -0.295  -3.536   9.915  1.00  0.00     0.031 C 
ATOM     37  C   UNL     1       5.210  -3.785   8.798  1.00  0.00     0.029 A 
ATOM     38  C   UNL     1       3.974  -3.944   9.426  1.00  0.00     0.049 A 
ATOM     39  H   UNL     1       3.299  -2.615  10.918  1.00  0.00     0.167 HD
ATOM     40  C   UNL     1       1.640  -4.762   9.593  1.00  0.00     0.074 A 
ATOM     41  C   UNL     1       0.962  -3.706  10.328  1.00  0.00     0.031 C 
ATOM     42  C   UNL     1       2.958  -4.963   9.301  1.00  0.00     0.037 A 
BRANCH  29  43
ATOM     43  C   UNL     1       3.420   0.361  10.358  1.00  0.00     0.064 A 
ATOM     44  C   UNL     1       4.287   0.346  11.470  1.00  0.00     0.173 A 
ATOM     45  C   UNL     1       2.182   1.005  10.552  1.00  0.00     0.173 A 
ATOM     46  F   UNL     1       5.466  -0.290  11.406  1.00  0.00    -0.203 F 
ATOM     47  C   UNL     1       3.930   0.922  12.693  1.00  0.00     0.198 A 
ATOM     48  C   UNL     1       1.845   1.617  11.761  1.00  0.00     0.198 A 
ATOM     49  F   UNL     1       1.229   0.976   9.610  1.00  0.00    -0.203 F 
ATOM     50  F   UNL     1       4.748   0.808  13.748  1.00  0.00    -0.200 F 
ATOM     51  C   UNL     1       2.711   1.560  12.836  1.00  0.00     0.200 A 
ATOM     52  F   UNL     1       0.649   2.206  11.894  1.00  0.00    -0.200 F 
ATOM     53  F   UNL     1       2.352   2.080  14.017  1.00  0.00    -0.200 F 
ENDBRANCH  29  43
BRANCH  30  54
ATOM     54  C   UNL     1      -2.833  -4.741   8.030  1.00  0.00     0.064 A 
ATOM     55  C   UNL     1      -3.302  -5.696   8.936  1.00  0.00     0.173 A 
ATOM     56  C   UNL     1      -3.797  -3.896   7.438  1.00  0.00     0.173 A 
ATOM     57  F   UNL     1      -2.441  -6.494   9.583  1.00  0.00    -0.203 F 
ATOM     58  C   UNL     1      -4.665  -5.808   9.226  1.00  0.00     0.198 A 
ATOM     59  C   UNL     1      -5.154  -4.021   7.712  1.00  0.00     0.198 A 
ATOM     60  F   UNL     1      -3.429  -2.882   6.640  1.00  0.00    -0.203 F 
ATOM     61  F   UNL     1      -5.081  -6.702  10.132  1.00  0.00    -0.200 F 
ATOM     62  C   UNL     1      -5.588  -4.974   8.613  1.00  0.00     0.200 A 
ATOM     63  F   UNL     1      -6.029  -3.184   7.136  1.00  0.00    -0.200 F 
ATOM     64  F   UNL     1      -6.890  -5.061   8.918  1.00  0.00    -0.200 F 
ENDBRANCH  30  54
BRANCH  42  65
ATOM     65  C   UNL     1       3.306  -6.175   8.493  1.00  0.00     0.064 A 
ATOM     66  C   UNL     1       2.964  -6.313   7.139  1.00  0.00     0.173 A 
ATOM     67  C   UNL     1       4.118  -7.162   9.068  1.00  0.00     0.173 A 
ATOM     68  F   UNL     1       2.277  -5.352   6.504  1.00  0.00    -0.203 F 
ATOM     69  C   UNL     1       3.380  -7.421   6.405  1.00  0.00     0.198 A 
ATOM     70  C   UNL     1       4.555  -8.254   8.323  1.00  0.00     0.198 A 
ATOM     71  F   UNL     1       4.528  -7.040  10.340  1.00  0.00    -0.203 F 
ATOM     72  F   UNL     1       3.040  -7.537   5.112  1.00  0.00    -0.200 F 
ATOM     73  C   UNL     1       4.177  -8.389   6.997  1.00  0.00     0.200 A 
ATOM     74  F   UNL     1       5.367  -9.162   8.883  1.00  0.00    -0.200 F 
ATOM     75  F   UNL     1       4.606  -9.437   6.279  1.00  0.00    -0.200 F 
ENDBRANCH  42  65
ENDBRANCH  16  17
ENDBRANCH   9  11
ENDBRANCH   8   9
ENDBRANCH   7   8
ENDBRANCH   6   7
ENDBRANCH   5   6
ENDBRANCH   4   5
ENDBRANCH   3   4
ENDBRANCH   2   3
ENDBRANCH   1   2
BRANCH   1  76
ATOM     76  C   UNL     1       4.746   2.538  -1.854  1.00  0.00     0.188 C 
BRANCH  76  77
ATOM     77  O   UNL     1       4.087   3.786  -2.078  1.00  0.00    -0.376 OA
BRANCH  77  78
ATOM     78  C   UNL     1       2.682   3.822  -2.206  1.00  0.00     0.202 C 
BRANCH  78  79
ATOM     79  C   UNL     1       2.119   3.870  -3.638  1.00  0.00     0.261 C 
BRANCH  79  80
ATOM     80  O   UNL     1       2.626   3.044  -4.702  1.00  0.00    -0.459 OA
BRANCH  80  81
ATOM     81  C   UNL     1       3.892   3.211  -5.111  1.00  0.00     0.349 C 
ATOM     82  O   UNL     1       4.857   3.600  -4.429  1.00  0.00    -0.245 OA
BRANCH  81  83
ATOM     83  C   UNL     1       4.070   2.909  -6.482  1.00  0.00     0.133 A 
ATOM     84  S   UNL     1       4.300   1.277  -6.940  1.00  0.00    -0.136 S 
ATOM     85  C   UNL     1       4.298   3.787  -7.519  1.00  0.00     0.113 A 
ATOM     86  C   UNL     1       4.753   1.727  -8.525  1.00  0.00     0.067 A 
ATOM     87  C   UNL     1       4.685   3.091  -8.712  1.00  0.00     0.035 A 
BRANCH  85  88
ATOM     88  S   UNL     1       4.147   5.521  -7.460  1.00  0.00     0.263 S 
ATOM     89  O   UNL     1       5.469   6.005  -7.786  1.00  0.00    -0.201 OA
ATOM     90  O   UNL     1       3.033   5.735  -8.362  1.00  0.00    -0.201 OA
BRANCH  88  91
ATOM     91  N   UNL     1       3.622   6.146  -6.000  1.00  0.00    -0.280 N 
ATOM     92  H   UNL     1       2.651   6.273  -5.899  1.00  0.00     0.180 HD
BRANCH  91  93
ATOM     93  C   UNL     1       4.437   6.518  -4.877  1.00  0.00     0.049 A 
ATOM     94  C   UNL     1       3.770   7.079  -3.778  1.00  0.00     0.027 A 
ATOM     95  C   UNL     1       5.756   6.130  -4.700  1.00  0.00     0.027 A 
ATOM     96  C   UNL     1       4.350   7.096  -2.494  1.00  0.00     0.014 A 
ATOM     97  C   UNL     1       6.314   6.112  -3.409  1.00  0.00     0.014 A 
ATOM     98  C   UNL     1       5.585   6.495  -2.266  1.00  0.00     0.018 A 
BRANCH  98  99
ATOM     99  C   UNL     1       6.158   6.130  -0.945  1.00  0.00     0.145 A 
ATOM    100  N   UNL     1       7.475   6.035  -0.778  1.00  0.00    -0.228 NA
ATOM    101  N   UNL     1       5.533   5.609   0.182  1.00  0.00    -0.266 N 
ATOM    102  C   UNL     1       7.693   5.275   0.336  1.00  0.00     0.089 A 
ATOM    103  C   UNL     1       6.495   4.965   0.954  1.00  0.00     0.074 A 
ATOM    104  C   UNL     1       8.894   4.782   0.868  1.00  0.00     0.030 A 
ATOM    105  C   UNL     1       6.423   4.160   2.103  1.00  0.00     0.029 A 
ATOM    106  C   UNL     1       8.847   3.971   2.009  1.00  0.00     0.002 A 
ATOM    107  C   UNL     1       7.628   3.664   2.614  1.00  0.00     0.002 A 
BRANCH 101 108
ATOM    108  C   UNL     1       4.153   5.632   0.632  1.00  0.00     0.451 C 
ATOM    109  F   UNL     1       3.305   6.413  -0.071  1.00  0.00    -0.185 F 
ATOM    110  F   UNL     1       3.602   4.387   0.670  1.00  0.00    -0.185 F 
ENDBRANCH 101 108
ENDBRANCH  98  99
ENDBRANCH  91  93
ENDBRANCH  88  91
ENDBRANCH  85  88
ENDBRANCH  81  83
ENDBRANCH  80  81
ENDBRANCH  79  80
ENDBRANCH  78  79
ENDBRANCH  77  78
ENDBRANCH  76  77
ENDBRANCH   1  76
TORSDOF 25
