REMARK SMILES CC(=O)O[C@@H]1CC[C@@]23C(=O)O[C@]4(CC[C@]2(O)C1)[C@H]3CC[C@]1(C)[C@H](C(=O)OCCOCCOCCOCCOC(=O)c2ccc(-c3c5nc(c(-c6c(F)c(F)c(F)c(F)c6F)c6ccc([nH]6)c(-c6c(F)c(F)c(F)c(F)c6F)c6nc(c(-c7c(F)c(F)c(F)c(F)c7F)c7ccc3[nH]7)C=C6)C=C5)cc2)CC[C@@H]14
REMARK SMILES IDX 32 1 31 2 30 3 29 4 28 5 27 6 26 7 24 8 25 9 23 10 5 11 6 12
REMARK SMILES IDX 17 13 7 14 15 15 8 16 14 17 9 18 18 19 13 20 10 21 11 22
REMARK SMILES IDX 12 23 19 24 106 25 20 26 21 27 105 28 22 29 104 30 4 31 2 32
REMARK SMILES IDX 1 33 3 34 16 35 33 37 34 38 35 39 36 40 37 41 38 42 39 43
REMARK SMILES IDX 40 44 41 45 42 46 103 47 43 48 102 49 44 50 45 51 46 52
REMARK SMILES IDX 96 53 47 54 101 55 95 56 97 57 48 58 100 59 94 60 93 61
REMARK SMILES IDX 49 63 81 64 61 65 80 66 62 67 65 68 79 69 98 70 63 71 64 72
REMARK SMILES IDX 78 74 99 75 66 76 50 77 51 78 59 79 52 80 53 81 57 82 60 83
REMARK SMILES IDX 54 84 55 85 58 86 56 87 82 88 83 89 91 90 84 91 85 92 89 93
REMARK SMILES IDX 92 94 86 95 87 96 90 97 88 98 67 99 68 100 76 101 69 102
REMARK SMILES IDX 70 103 74 104 77 105 71 106 72 107 75 108 73 109
REMARK H PARENT 16 36 97 62 65 73
REMARK Flexibility Score: inf
ROOT
ATOM      1  O   UNL     1       0.761  12.570  -0.763  1.00  0.00    -0.377 OA
ENDROOT
BRANCH   1   2
ATOM      2  C   UNL     1       1.763  11.942  -1.531  1.00  0.00     0.188 C 
BRANCH   2   3
ATOM      3  C   UNL     1       1.545  11.946  -3.054  1.00  0.00     0.188 C 
BRANCH   3   4
ATOM      4  O   UNL     1       0.246  12.118  -3.613  1.00  0.00    -0.376 OA
BRANCH   4   5
ATOM      5  C   UNL     1      -0.896  12.158  -2.773  1.00  0.00     0.202 C 
BRANCH   5   6
ATOM      6  C   UNL     1      -1.299  10.862  -2.031  1.00  0.00     0.261 C 
BRANCH   6   7
ATOM      7  O   UNL     1      -0.224  10.045  -1.510  1.00  0.00    -0.463 OA
BRANCH   7   8
ATOM      8  C   UNL     1       0.305   9.167  -2.387  1.00  0.00     0.309 C 
ATOM      9  O   UNL     1      -0.186   8.958  -3.497  1.00  0.00    -0.252 OA
BRANCH   8  10
ATOM     10  C   UNL     1       1.624   8.468  -1.987  1.00  0.00     0.105 C 
ATOM     11  C   UNL     1       0.321   2.654   2.752  1.00  0.00     0.179 C 
ATOM     12  C   UNL     1      -0.347   3.660   1.851  1.00  0.00     0.047 C 
ATOM     13  C   UNL     1       1.181   3.436   3.775  1.00  0.00     0.081 C 
ATOM     14  C   UNL     1       0.760   4.492   1.245  1.00  0.00     0.026 C 
ATOM     15  C   UNL     1       1.927   4.747   3.333  1.00  0.00     0.085 C 
ATOM     16  C   UNL     1       1.268   5.734   2.414  1.00  0.00     0.103 C 
ATOM     17  C   UNL     1       3.248   4.388   2.528  1.00  0.00     0.041 C 
ATOM     18  C   UNL     1       0.312   6.556   1.730  1.00  0.00     0.316 C 
ATOM     19  C   UNL     1       2.434   6.968   2.115  1.00  0.00     0.054 C 
ATOM     20  C   UNL     1       3.480   5.201   1.153  1.00  0.00     0.052 C 
ATOM     21  O   UNL     1      -0.801   6.965   1.988  1.00  0.00    -0.251 OA
ATOM     22  O   UNL     1       1.055   6.669   0.544  1.00  0.00    -0.458 OA
ATOM     23  C   UNL     1       2.535   6.458   0.760  1.00  0.00     0.120 C 
ATOM     24  C   UNL     1       2.235   8.513   2.026  1.00  0.00     0.009 C 
ATOM     25  C   UNL     1       3.080   7.111  -0.473  1.00  0.00     0.040 C 
ATOM     26  C   UNL     1       1.913   9.162   0.631  1.00  0.00     0.008 C 
ATOM     27  C   UNL     1       2.560   8.565  -0.679  1.00  0.00    -0.013 C 
ATOM     28  C   UNL     1       2.579   6.300  -1.697  1.00  0.00     0.009 C 
ATOM     29  C   UNL     1       3.876   9.330  -1.026  1.00  0.00     0.013 C 
ATOM     30  C   UNL     1       1.313   6.982  -2.160  1.00  0.00     0.016 C 
BRANCH  11  31
ATOM     31  O   UNL     1       1.125   1.719   1.981  1.00  0.00    -0.462 OA
BRANCH  31  32
ATOM     32  C   UNL     1       0.433   0.892   1.133  1.00  0.00     0.302 C 
ATOM     33  C   UNL     1       1.331  -0.088   0.441  1.00  0.00     0.139 C 
ATOM     34  O   UNL     1      -0.779   0.896   0.966  1.00  0.00    -0.253 OA
ENDBRANCH  31  32
ENDBRANCH  11  31
BRANCH  15  35
ATOM     35  O   UNL     1       2.250   5.412   4.562  1.00  0.00    -0.389 OA
ATOM     36  H   UNL     1       2.718   6.240   4.369  1.00  0.00     0.211 HD
ENDBRANCH  15  35
ENDBRANCH   8  10
ENDBRANCH   7   8
ENDBRANCH   6   7
ENDBRANCH   5   6
ENDBRANCH   4   5
ENDBRANCH   3   4
ENDBRANCH   2   3
ENDBRANCH   1   2
BRANCH   1  37
ATOM     37  C   UNL     1       1.064  13.863  -0.291  1.00  0.00     0.188 C 
BRANCH  37  38
ATOM     38  C   UNL     1       1.727  14.820  -1.294  1.00  0.00     0.188 C 
BRANCH  38  39
ATOM     39  O   UNL     1       2.855  14.265  -1.955  1.00  0.00    -0.376 OA
BRANCH  39  40
ATOM     40  C   UNL     1       4.171  14.525  -1.505  1.00  0.00     0.202 C 
BRANCH  40  41
ATOM     41  C   UNL     1       4.629  14.044  -0.116  1.00  0.00     0.261 C 
BRANCH  41  42
ATOM     42  O   UNL     1       3.748  14.268   0.990  1.00  0.00    -0.460 OA
BRANCH  42  43
ATOM     43  C   UNL     1       3.506  15.546   1.350  1.00  0.00     0.338 C 
ATOM     44  O   UNL     1       3.968  16.550   0.842  1.00  0.00    -0.246 OA
BRANCH  43  45
ATOM     45  C   UNL     1       2.415  15.530   2.352  1.00  0.00     0.060 A 
ATOM     46  C   UNL     1       1.202  16.160   2.039  1.00  0.00     0.016 A 
ATOM     47  C   UNL     1       2.571  14.868   3.572  1.00  0.00     0.016 A 
ATOM     48  C   UNL     1       0.150  16.150   2.953  1.00  0.00     0.010 A 
ATOM     49  C   UNL     1       1.529  14.893   4.505  1.00  0.00     0.010 A 
ATOM     50  C   UNL     1       0.328  15.562   4.211  1.00  0.00    -0.014 A 
BRANCH  50  51
ATOM     51  C   UNL     1      -0.653  15.848   5.284  1.00  0.00     0.031 A 
ATOM     52  C   UNL     1      -0.349  16.970   6.238  1.00  0.00     0.074 A 
ATOM     53  C   UNL     1      -1.802  15.159   5.391  1.00  0.00     0.049 A 
ATOM     54  N   UNL     1      -1.030  17.399   7.269  1.00  0.00    -0.248 NA
ATOM     55  C   UNL     1       0.901  17.708   5.993  1.00  0.00     0.031 C 
ATOM     56  C   UNL     1      -2.227  14.082   4.502  1.00  0.00     0.029 A 
ATOM     57  N   UNL     1      -2.819  15.265   6.307  1.00  0.00    -0.354 N 
ATOM     58  C   UNL     1      -0.288  18.447   7.799  1.00  0.00     0.074 A 
ATOM     59  C   UNL     1       0.910  18.569   6.998  1.00  0.00     0.031 C 
ATOM     60  C   UNL     1      -3.412  13.611   4.927  1.00  0.00     0.029 A 
ATOM     61  C   UNL     1      -3.812  14.332   6.135  1.00  0.00     0.049 A 
ATOM     62  H   UNL     1      -2.835  15.945   7.019  1.00  0.00     0.167 HD
ATOM     63  C   UNL     1      -0.584  19.239   8.855  1.00  0.00     0.037 A 
ATOM     64  C   UNL     1      -4.902  14.078   6.885  1.00  0.00     0.037 A 
ATOM     65  C   UNL     1      -1.775  19.106   9.652  1.00  0.00     0.049 A 
ATOM     66  C   UNL     1      -5.174  14.928   8.102  1.00  0.00     0.074 A 
ATOM     67  C   UNL     1      -2.182  19.873  10.729  1.00  0.00     0.029 A 
ATOM     68  N   UNL     1      -2.744  18.130   9.467  1.00  0.00    -0.354 N 
ATOM     69  N   UNL     1      -4.489  15.940   8.579  1.00  0.00    -0.248 NA
ATOM     70  C   UNL     1      -6.377  14.603   8.881  1.00  0.00     0.031 C 
ATOM     71  C   UNL     1      -3.357  19.315  11.242  1.00  0.00     0.029 A 
ATOM     72  C   UNL     1      -3.728  18.251  10.436  1.00  0.00     0.049 A 
ATOM     73  H   UNL     1      -2.733  17.451   8.754  1.00  0.00     0.167 HD
ATOM     74  C   UNL     1      -5.191  16.390   9.691  1.00  0.00     0.074 A 
ATOM     75  C   UNL     1      -6.366  15.552   9.806  1.00  0.00     0.031 C 
ATOM     76  C   UNL     1      -4.894  17.408  10.538  1.00  0.00     0.037 A 
BRANCH  63  77
ATOM     77  C   UNL     1       0.420  20.289   9.238  1.00  0.00     0.064 A 
ATOM     78  C   UNL     1       0.680  21.404   8.425  1.00  0.00     0.173 A 
ATOM     79  C   UNL     1       1.121  20.186  10.449  1.00  0.00     0.173 A 
ATOM     80  F   UNL     1       0.051  21.544   7.248  1.00  0.00    -0.203 F 
ATOM     81  C   UNL     1       1.627  22.356   8.795  1.00  0.00     0.198 A 
ATOM     82  C   UNL     1       2.039  21.159  10.834  1.00  0.00     0.198 A 
ATOM     83  F   UNL     1       0.912  19.142  11.265  1.00  0.00    -0.203 F 
ATOM     84  F   UNL     1       1.901  23.380   7.975  1.00  0.00    -0.200 F 
ATOM     85  C   UNL     1       2.299  22.238  10.002  1.00  0.00     0.200 A 
ATOM     86  F   UNL     1       2.677  21.050  12.007  1.00  0.00    -0.200 F 
ATOM     87  F   UNL     1       3.204  23.159  10.361  1.00  0.00    -0.200 F 
ENDBRANCH  63  77
BRANCH  64  88
ATOM     88  C   UNL     1      -5.809  12.957   6.521  1.00  0.00     0.064 A 
ATOM     89  C   UNL     1      -7.127  13.191   6.103  1.00  0.00     0.173 A 
ATOM     90  C   UNL     1      -5.383  11.622   6.608  1.00  0.00     0.173 A 
ATOM     91  F   UNL     1      -7.593  14.447   6.032  1.00  0.00    -0.203 F 
ATOM     92  C   UNL     1      -7.988  12.136   5.807  1.00  0.00     0.198 A 
ATOM     93  C   UNL     1      -6.234  10.569   6.279  1.00  0.00     0.198 A 
ATOM     94  F   UNL     1      -4.135  11.341   7.010  1.00  0.00    -0.203 F 
ATOM     95  F   UNL     1      -9.259  12.388   5.466  1.00  0.00    -0.200 F 
ATOM     96  C   UNL     1      -7.539  10.827   5.888  1.00  0.00     0.200 A 
ATOM     97  F   UNL     1      -5.793   9.306   6.352  1.00  0.00    -0.200 F 
ATOM     98  F   UNL     1      -8.368   9.813   5.603  1.00  0.00    -0.200 F 
ENDBRANCH  64  88
BRANCH  76  99
ATOM     99  C   UNL     1      -5.874  17.703  11.641  1.00  0.00     0.064 A 
ATOM    100  C   UNL     1      -6.074  16.821  12.714  1.00  0.00     0.173 A 
ATOM    101  C   UNL     1      -6.600  18.905  11.640  1.00  0.00     0.173 A 
ATOM    102  F   UNL     1      -5.414  15.654  12.761  1.00  0.00    -0.203 F 
ATOM    103  C   UNL     1      -6.990  17.114  13.722  1.00  0.00     0.198 A 
ATOM    104  C   UNL     1      -7.484  19.213  12.670  1.00  0.00     0.198 A 
ATOM    105  F   UNL     1      -6.440  19.792  10.646  1.00  0.00    -0.203 F 
ATOM    106  F   UNL     1      -7.209  16.228  14.704  1.00  0.00    -0.200 F 
ATOM    107  C   UNL     1      -7.687  18.313  13.704  1.00  0.00     0.200 A 
ATOM    108  F   UNL     1      -8.140  20.382  12.661  1.00  0.00    -0.200 F 
ATOM    109  F   UNL     1      -8.562  18.596  14.679  1.00  0.00    -0.200 F 
ENDBRANCH  76  99
ENDBRANCH  50  51
ENDBRANCH  43  45
ENDBRANCH  42  43
ENDBRANCH  41  42
ENDBRANCH  40  41
ENDBRANCH  39  40
ENDBRANCH  38  39
ENDBRANCH  37  38
ENDBRANCH   1  37
TORSDOF 23
