REMARK SMILES CCc1nsc(NC[C@H](CC(C)C)C(=O)OCCOCCOCCOCCOC(=O)c2ccc(-c3c4nc(c(-c5c(F)c(F)c(F)c(F)c5F)c5ccc([nH]5)c(-c5c(F)c(F)c(F)c(F)c5F)c5nc(c(-c6c(F)c(F)c(F)c(F)c6F)c6ccc3[nH]6)C=C5)C=C4)cc2)n1
REMARK SMILES IDX 21 1 20 2 19 3 18 4 17 5 16 6 14 7 15 8 9 9 8 10 7 11 6 13
REMARK SMILES IDX 3 14 4 15 94 16 5 17 2 18 1 19 10 20 11 21 12 22 13 23 22 24
REMARK SMILES IDX 23 25 24 26 25 27 26 28 27 29 28 30 29 31 30 32 31 33 32 34
REMARK SMILES IDX 93 35 33 36 92 37 34 38 35 39 36 40 86 41 37 42 91 43 85 44
REMARK SMILES IDX 87 45 38 46 90 47 84 48 83 49 39 51 71 52 51 53 70 54 52 55
REMARK SMILES IDX 55 56 69 57 88 58 53 59 54 60 68 62 89 63 56 64 40 65 41 66
REMARK SMILES IDX 49 67 42 68 43 69 47 70 50 71 44 72 45 73 48 74 46 75 72 76
REMARK SMILES IDX 73 77 81 78 74 79 75 80 79 81 82 82 76 83 77 84 80 85 78 86
REMARK SMILES IDX 57 87 58 88 66 89 59 90 60 91 64 92 67 93 61 94 62 95 65 96
REMARK SMILES IDX 63 97
REMARK H PARENT 7 12 87 50 55 61
REMARK Flexibility Score: inf
ROOT
ATOM      1  C   UNL     1       2.558  -8.403   1.459  1.00  0.00     0.188 C 
ENDROOT
BRANCH   1   2
ATOM      2  C   UNL     1       3.739  -9.132   0.808  1.00  0.00     0.188 C 
BRANCH   2   3
ATOM      3  O   UNL     1       4.373 -10.237   1.427  1.00  0.00    -0.376 OA
BRANCH   3   4
ATOM      4  C   UNL     1       4.550 -10.341   2.829  1.00  0.00     0.202 C 
BRANCH   4   5
ATOM      5  C   UNL     1       5.159  -9.229   3.705  1.00  0.00     0.261 C 
BRANCH   5   6
ATOM      6  O   UNL     1       4.657  -7.887   3.569  1.00  0.00    -0.463 OA
BRANCH   6   7
ATOM      7  C   UNL     1       5.316  -7.123   2.672  1.00  0.00     0.310 C 
ATOM      8  O   UNL     1       6.245  -7.543   1.986  1.00  0.00    -0.252 OA
BRANCH   7   9
ATOM      9  C   UNL     1       4.871  -5.666   2.597  1.00  0.00     0.118 C 
BRANCH   9  10
ATOM     10  C   UNL     1       5.882  -4.704   3.236  1.00  0.00     0.130 C 
BRANCH  10  11
ATOM     11  N   UNL     1       7.080  -5.335   3.727  1.00  0.00    -0.359 N 
ATOM     12  H   UNL     1       6.973  -6.020   4.426  1.00  0.00     0.162 HD
BRANCH  11  13
ATOM     13  C   UNL     1       8.333  -5.069   3.311  1.00  0.00     0.202 A 
ATOM     14  C   UNL     1      10.523  -5.269   3.189  1.00  0.00     0.144 A 
ATOM     15  N   UNL     1      10.462  -4.232   2.350  1.00  0.00    -0.174 NA
ATOM     16  N   UNL     1       9.356  -5.760   3.755  1.00  0.00    -0.204 NA
ATOM     17  S   UNL     1       8.848  -3.837   2.215  1.00  0.00     0.004 S 
BRANCH  14  18
ATOM     18  C   UNL     1      11.841  -5.869   3.540  1.00  0.00     0.075 C 
ATOM     19  C   UNL     1      11.738  -7.086   4.447  1.00  0.00     0.012 C 
ENDBRANCH  14  18
ENDBRANCH  11  13
ENDBRANCH  10  11
ENDBRANCH   9  10
BRANCH   9  20
ATOM     20  C   UNL     1       3.409  -5.212   2.848  1.00  0.00     0.020 C 
BRANCH  20  21
ATOM     21  C   UNL     1       2.687  -5.533   4.171  1.00  0.00    -0.017 C 
ATOM     22  C   UNL     1       3.189  -4.682   5.335  1.00  0.00     0.007 C 
ATOM     23  C   UNL     1       1.178  -5.290   3.989  1.00  0.00     0.007 C 
ENDBRANCH  20  21
ENDBRANCH   9  20
ENDBRANCH   7   9
ENDBRANCH   6   7
ENDBRANCH   5   6
ENDBRANCH   4   5
ENDBRANCH   3   4
ENDBRANCH   2   3
ENDBRANCH   1   2
BRANCH   1  24
ATOM     24  O   UNL     1       2.299  -8.745   2.804  1.00  0.00    -0.377 OA
BRANCH  24  25
ATOM     25  C   UNL     1       1.268  -9.693   3.044  1.00  0.00     0.188 C 
BRANCH  25  26
ATOM     26  C   UNL     1       1.115 -10.855   2.043  1.00  0.00     0.188 C 
BRANCH  26  27
ATOM     27  O   UNL     1       1.034 -10.441   0.686  1.00  0.00    -0.376 OA
BRANCH  27  28
ATOM     28  C   UNL     1      -0.251 -10.287   0.098  1.00  0.00     0.202 C 
BRANCH  28  29
ATOM     29  C   UNL     1      -1.155  -9.177   0.661  1.00  0.00     0.261 C 
BRANCH  29  30
ATOM     30  O   UNL     1      -1.535  -9.307   2.042  1.00  0.00    -0.460 OA
BRANCH  30  31
ATOM     31  C   UNL     1      -2.137 -10.450   2.423  1.00  0.00     0.338 C 
ATOM     32  O   UNL     1      -2.500 -11.370   1.707  1.00  0.00    -0.246 OA
BRANCH  31  33
ATOM     33  C   UNL     1      -2.103 -10.517   3.898  1.00  0.00     0.060 A 
ATOM     34  C   UNL     1      -1.484 -11.618   4.504  1.00  0.00     0.016 A 
ATOM     35  C   UNL     1      -2.696  -9.520   4.676  1.00  0.00     0.016 A 
ATOM     36  C   UNL     1      -1.504 -11.754   5.889  1.00  0.00     0.010 A 
ATOM     37  C   UNL     1      -2.737  -9.670   6.065  1.00  0.00     0.010 A 
ATOM     38  C   UNL     1      -2.182 -10.811   6.672  1.00  0.00    -0.014 A 
BRANCH  38  39
ATOM     39  C   UNL     1      -2.508 -11.148   8.078  1.00  0.00     0.031 A 
ATOM     40  C   UNL     1      -3.873 -11.708   8.375  1.00  0.00     0.074 A 
ATOM     41  C   UNL     1      -1.599 -11.019   9.060  1.00  0.00     0.049 A 
ATOM     42  N   UNL     1      -4.398 -12.065   9.519  1.00  0.00    -0.248 NA
ATOM     43  C   UNL     1      -4.768 -11.890   7.220  1.00  0.00     0.031 C 
ATOM     44  C   UNL     1      -0.230 -10.541   8.887  1.00  0.00     0.029 A 
ATOM     45  N   UNL     1      -1.699 -11.282  10.403  1.00  0.00    -0.354 N 
ATOM     46  C   UNL     1      -5.682 -12.504   9.222  1.00  0.00     0.074 A 
ATOM     47  C   UNL     1      -5.871 -12.338   7.798  1.00  0.00     0.031 C 
ATOM     48  C   UNL     1       0.383 -10.536  10.084  1.00  0.00     0.029 A 
ATOM     49  C   UNL     1      -0.562 -10.977  11.109  1.00  0.00     0.049 A 
ATOM     50  H   UNL     1      -2.510 -11.654  10.821  1.00  0.00     0.167 HD
ATOM     51  C   UNL     1      -6.617 -13.011  10.060  1.00  0.00     0.037 A 
ATOM     52  C   UNL     1      -0.325 -11.029  12.434  1.00  0.00     0.037 A 
ATOM     53  C   UNL     1      -6.425 -13.174  11.477  1.00  0.00     0.049 A 
ATOM     54  C   UNL     1      -1.411 -11.524  13.358  1.00  0.00     0.074 A 
ATOM     55  C   UNL     1      -7.304 -13.686  12.414  1.00  0.00     0.029 A 
ATOM     56  N   UNL     1      -5.273 -12.816  12.163  1.00  0.00    -0.354 N 
ATOM     57  N   UNL     1      -2.616 -11.955  13.070  1.00  0.00    -0.248 NA
ATOM     58  C   UNL     1      -1.098 -11.546  14.794  1.00  0.00     0.031 C 
ATOM     59  C   UNL     1      -6.710 -13.578  13.675  1.00  0.00     0.029 A 
ATOM     60  C   UNL     1      -5.431 -13.070  13.516  1.00  0.00     0.049 A 
ATOM     61  H   UNL     1      -4.463 -12.439  11.750  1.00  0.00     0.167 HD
ATOM     62  C   UNL     1      -3.188 -12.333  14.279  1.00  0.00     0.074 A 
ATOM     63  C   UNL     1      -2.192 -12.095  15.302  1.00  0.00     0.031 C 
ATOM     64  C   UNL     1      -4.425 -12.835  14.522  1.00  0.00     0.037 A 
BRANCH  51  65
ATOM     65  C   UNL     1      -7.945 -13.391   9.471  1.00  0.00     0.064 A 
ATOM     66  C   UNL     1      -8.090 -14.488   8.608  1.00  0.00     0.173 A 
ATOM     67  C   UNL     1      -9.098 -12.659   9.798  1.00  0.00     0.173 A 
ATOM     68  F   UNL     1      -7.019 -15.211   8.248  1.00  0.00    -0.203 F 
ATOM     69  C   UNL     1      -9.333 -14.820   8.073  1.00  0.00     0.198 A 
ATOM     70  C   UNL     1     -10.343 -13.015   9.289  1.00  0.00     0.198 A 
ATOM     71  F   UNL     1      -9.017 -11.601  10.618  1.00  0.00    -0.203 F 
ATOM     72  F   UNL     1      -9.437 -15.839   7.208  1.00  0.00    -0.200 F 
ATOM     73  C   UNL     1     -10.459 -14.089   8.421  1.00  0.00     0.200 A 
ATOM     74  F   UNL     1     -11.432 -12.315   9.637  1.00  0.00    -0.200 F 
ATOM     75  F   UNL     1     -11.655 -14.416   7.912  1.00  0.00    -0.200 F 
ENDBRANCH  51  65
BRANCH  52  76
ATOM     76  C   UNL     1       0.988 -10.588  12.977  1.00  0.00     0.064 A 
ATOM     77  C   UNL     1       1.861 -11.492  13.598  1.00  0.00     0.173 A 
ATOM     78  C   UNL     1       1.382  -9.242  12.916  1.00  0.00     0.173 A 
ATOM     79  F   UNL     1       1.520 -12.785  13.706  1.00  0.00    -0.203 F 
ATOM     80  C   UNL     1       3.062 -11.065  14.161  1.00  0.00     0.198 A 
ATOM     81  C   UNL     1       2.599  -8.822  13.448  1.00  0.00     0.198 A 
ATOM     82  F   UNL     1       0.584  -8.334  12.336  1.00  0.00    -0.203 F 
ATOM     83  F   UNL     1       3.849 -11.941  14.800  1.00  0.00    -0.200 F 
ATOM     84  C   UNL     1       3.433  -9.731  14.080  1.00  0.00     0.200 A 
ATOM     85  F   UNL     1       2.959  -7.534  13.355  1.00  0.00    -0.200 F 
ATOM     86  F   UNL     1       4.589  -9.320  14.620  1.00  0.00    -0.200 F 
ENDBRANCH  52  76
BRANCH  64  87
ATOM     87  C   UNL     1      -4.753 -13.213  15.941  1.00  0.00     0.064 A 
ATOM     88  C   UNL     1      -4.909 -12.251  16.950  1.00  0.00     0.173 A 
ATOM     89  C   UNL     1      -4.941 -14.560  16.288  1.00  0.00     0.173 A 
ATOM     90  F   UNL     1      -4.732 -10.949  16.676  1.00  0.00    -0.203 F 
ATOM     91  C   UNL     1      -5.199 -12.626  18.260  1.00  0.00     0.198 A 
ATOM     92  C   UNL     1      -5.269 -14.929  17.590  1.00  0.00     0.198 A 
ATOM     93  F   UNL     1      -4.817 -15.522  15.361  1.00  0.00    -0.203 F 
ATOM     94  F   UNL     1      -5.278 -11.694  19.220  1.00  0.00    -0.200 F 
ATOM     95  C   UNL     1      -5.385 -13.963  18.577  1.00  0.00     0.200 A 
ATOM     96  F   UNL     1      -5.469 -16.220  17.889  1.00  0.00    -0.200 F 
ATOM     97  F   UNL     1      -5.668 -14.322  19.837  1.00  0.00    -0.200 F 
ENDBRANCH  64  87
ENDBRANCH  38  39
ENDBRANCH  31  33
ENDBRANCH  30  31
ENDBRANCH  29  30
ENDBRANCH  28  29
ENDBRANCH  27  28
ENDBRANCH  26  27
ENDBRANCH  25  26
ENDBRANCH  24  25
ENDBRANCH   1  24
TORSDOF 26
