REMARK SMILES CC1=CC2=[NH+]C(=O)C[C@@](C)(C(=O)OCCOCCOCCOCCOC(=O)c3ccc(-c4c5nc(c(-c6c(F)c(F)c(F)c(F)c6F)c6ccc([nH]6)c(-c6c(F)c(F)c(F)c(F)c6F)c6nc(c(-c7c(F)c(F)c(F)c(F)c7F)c7ccc4[nH]7)C=C6)C=C5)cc3)N2C=C1
REMARK SMILES IDX 20 1 19 2 18 3 17 4 16 5 15 6 14 7 13 8 11 9 12 10 9 11 1 12
REMARK SMILES IDX 2 13 3 14 93 15 4 16 92 17 5 18 91 19 6 20 7 22 8 23 10 24
REMARK SMILES IDX 21 25 22 26 23 27 24 28 25 29 26 30 27 31 28 32 29 33 90 34
REMARK SMILES IDX 30 35 89 36 31 37 32 38 33 39 83 40 34 41 88 42 82 43 84 44
REMARK SMILES IDX 35 45 87 46 81 47 80 48 36 50 68 51 48 52 67 53 49 54 52 55
REMARK SMILES IDX 66 56 85 57 50 58 51 59 65 61 86 62 53 63 37 64 38 65 46 66
REMARK SMILES IDX 39 67 40 68 44 69 47 70 41 71 42 72 45 73 43 74 69 75 70 76
REMARK SMILES IDX 78 77 71 78 72 79 76 80 79 81 73 82 74 83 77 84 75 85 54 86
REMARK SMILES IDX 55 87 63 88 56 89 57 90 61 91 64 92 58 93 59 94 62 95 60 96
REMARK H PARENT 5 21 84 49 52 60
REMARK Flexibility Score: inf
ROOT
ATOM      1  C   UNL     1      -5.246   6.760  -3.672  1.00  0.00     0.188 C 
ENDROOT
BRANCH   1   2
ATOM      2  O   UNL     1      -3.857   6.467  -3.707  1.00  0.00    -0.377 OA
BRANCH   2   3
ATOM      3  C   UNL     1      -3.498   5.361  -2.867  1.00  0.00     0.188 C 
BRANCH   3   4
ATOM      4  C   UNL     1      -4.497   5.315  -1.624  1.00  0.00     0.188 C 
BRANCH   4   5
ATOM      5  O   UNL     1      -4.462   5.008  -0.213  1.00  0.00    -0.376 OA
BRANCH   5   6
ATOM      6  C   UNL     1      -5.049   6.008   0.630  1.00  0.00     0.202 C 
BRANCH   6   7
ATOM      7  C   UNL     1      -4.224   6.278   1.943  1.00  0.00     0.261 C 
BRANCH   7   8
ATOM      8  O   UNL     1      -2.771   6.189   1.780  1.00  0.00    -0.460 OA
BRANCH   8   9
ATOM      9  C   UNL     1      -2.002   5.224   2.483  1.00  0.00     0.355 C 
ATOM     10  O   UNL     1      -2.139   4.992   3.672  1.00  0.00    -0.247 OA
BRANCH   9  11
ATOM     11  C   UNL     1      -1.242   4.396   1.420  1.00  0.00     0.216 C 
ATOM     12  C   UNL     1       2.443  -0.102   0.614  1.00  0.00     0.045 C 
ATOM     13  C   UNL     1       1.510   1.014   0.957  1.00  0.00    -0.039 C 
ATOM     14  C   UNL     1       0.279   0.925   0.457  1.00  0.00     0.102 C 
ATOM     15  C   UNL     1       1.907   2.200   1.720  1.00  0.00     0.047 C 
ATOM     16  C   UNL     1      -0.560   2.111   0.580  1.00  0.00     0.282 C 
ATOM     17  C   UNL     1       1.028   3.194   1.998  1.00  0.00     0.202 C 
ATOM     18  N   UNL     1      -1.502   2.055  -0.320  1.00  0.00    -0.210 N 
ATOM     19  N   UNL     1      -0.283   3.191   1.512  1.00  0.00    -0.217 N 
ATOM     20  C   UNL     1      -2.133   3.233  -0.361  1.00  0.00     0.312 C 
ATOM     21  H   UNL     1      -1.715   1.272  -0.878  1.00  0.00     0.315 HD
ATOM     22  O   UNL     1      -2.026   3.978  -1.314  1.00  0.00    -0.247 OA
ATOM     23  C   UNL     1      -2.502   3.642   0.995  1.00  0.00     0.193 C 
ATOM     24  C   UNL     1      -0.491   5.479   0.593  1.00  0.00     0.076 C 
ENDBRANCH   9  11
ENDBRANCH   8   9
ENDBRANCH   7   8
ENDBRANCH   6   7
ENDBRANCH   5   6
ENDBRANCH   4   5
ENDBRANCH   3   4
ENDBRANCH   2   3
ENDBRANCH   1   2
BRANCH   1  25
ATOM     25  C   UNL     1      -6.175   5.642  -4.182  1.00  0.00     0.188 C 
BRANCH  25  26
ATOM     26  O   UNL     1      -5.514   4.448  -4.580  1.00  0.00    -0.376 OA
BRANCH  26  27
ATOM     27  C   UNL     1      -5.198   4.322  -5.968  1.00  0.00     0.202 C 
BRANCH  27  28
ATOM     28  C   UNL     1      -4.098   5.245  -6.524  1.00  0.00     0.261 C 
BRANCH  28  29
ATOM     29  O   UNL     1      -4.381   6.655  -6.487  1.00  0.00    -0.460 OA
BRANCH  29  30
ATOM     30  C   UNL     1      -5.531   7.091  -7.070  1.00  0.00     0.338 C 
ATOM     31  O   UNL     1      -6.294   6.475  -7.739  1.00  0.00    -0.246 OA
BRANCH  30  32
ATOM     32  C   UNL     1      -5.813   8.430  -6.476  1.00  0.00     0.060 A 
ATOM     33  C   UNL     1      -7.065   8.611  -5.867  1.00  0.00     0.016 A 
ATOM     34  C   UNL     1      -4.831   9.423  -6.389  1.00  0.00     0.016 A 
ATOM     35  C   UNL     1      -7.345   9.793  -5.186  1.00  0.00     0.010 A 
ATOM     36  C   UNL     1      -5.133  10.634  -5.762  1.00  0.00     0.010 A 
ATOM     37  C   UNL     1      -6.407  10.835  -5.199  1.00  0.00    -0.014 A 
BRANCH  37  38
ATOM     38  C   UNL     1      -6.910  12.211  -4.991  1.00  0.00     0.031 A 
ATOM     39  C   UNL     1      -7.512  12.883  -6.196  1.00  0.00     0.074 A 
ATOM     40  C   UNL     1      -6.892  12.822  -3.795  1.00  0.00     0.049 A 
ATOM     41  N   UNL     1      -8.050  14.068  -6.312  1.00  0.00    -0.248 NA
ATOM     42  C   UNL     1      -7.516  12.098  -7.445  1.00  0.00     0.031 C 
ATOM     43  C   UNL     1      -6.383  12.249  -2.552  1.00  0.00     0.029 A 
ATOM     44  N   UNL     1      -7.324  14.075  -3.439  1.00  0.00    -0.354 N 
ATOM     45  C   UNL     1      -8.461  14.158  -7.635  1.00  0.00     0.074 A 
ATOM     46  C   UNL     1      -8.093  12.929  -8.293  1.00  0.00     0.031 C 
ATOM     47  C   UNL     1      -6.519  13.158  -1.568  1.00  0.00     0.029 A 
ATOM     48  C   UNL     1      -7.103  14.381  -2.119  1.00  0.00     0.049 A 
ATOM     49  H   UNL     1      -7.753  14.696  -4.071  1.00  0.00     0.167 HD
ATOM     50  C   UNL     1      -9.097  15.179  -8.252  1.00  0.00     0.037 A 
ATOM     51  C   UNL     1      -7.333  15.529  -1.451  1.00  0.00     0.037 A 
ATOM     52  C   UNL     1      -9.433  16.414  -7.606  1.00  0.00     0.049 A 
ATOM     53  C   UNL     1      -7.958  16.692  -2.185  1.00  0.00     0.074 A 
ATOM     54  C   UNL     1     -10.060  17.524  -8.138  1.00  0.00     0.029 A 
ATOM     55  N   UNL     1      -9.150  16.702  -6.279  1.00  0.00    -0.354 N 
ATOM     56  N   UNL     1      -8.366  16.765  -3.430  1.00  0.00    -0.248 NA
ATOM     57  C   UNL     1      -8.157  17.931  -1.419  1.00  0.00     0.031 C 
ATOM     58  C   UNL     1     -10.114  18.505  -7.144  1.00  0.00     0.029 A 
ATOM     59  C   UNL     1      -9.570  17.985  -5.979  1.00  0.00     0.049 A 
ATOM     60  H   UNL     1      -8.715  16.086  -5.646  1.00  0.00     0.167 HD
ATOM     61  C   UNL     1      -8.894  18.040  -3.588  1.00  0.00     0.074 A 
ATOM     62  C   UNL     1      -8.764  18.705  -2.308  1.00  0.00     0.031 C 
ATOM     63  C   UNL     1      -9.440  18.613  -4.690  1.00  0.00     0.037 A 
BRANCH  50  64
ATOM     64  C   UNL     1      -9.422  15.004  -9.704  1.00  0.00     0.064 A 
ATOM     65  C   UNL     1     -10.431  14.127 -10.132  1.00  0.00     0.173 A 
ATOM     66  C   UNL     1      -8.707  15.713 -10.679  1.00  0.00     0.173 A 
ATOM     67  F   UNL     1     -11.119  13.402  -9.237  1.00  0.00    -0.203 F 
ATOM     68  C   UNL     1     -10.699  13.954 -11.486  1.00  0.00     0.198 A 
ATOM     69  C   UNL     1      -8.996  15.557 -12.031  1.00  0.00     0.198 A 
ATOM     70  F   UNL     1      -7.724  16.552 -10.320  1.00  0.00    -0.203 F 
ATOM     71  F   UNL     1     -11.633  13.075 -11.876  1.00  0.00    -0.200 F 
ATOM     72  C   UNL     1      -9.987  14.674 -12.434  1.00  0.00     0.200 A 
ATOM     73  F   UNL     1      -8.310  16.256 -12.946  1.00  0.00    -0.200 F 
ATOM     74  F   UNL     1     -10.248  14.509 -13.738  1.00  0.00    -0.200 F 
ENDBRANCH  50  64
BRANCH  51  75
ATOM     75  C   UNL     1      -6.957  15.652  -0.017  1.00  0.00     0.064 A 
ATOM     76  C   UNL     1      -7.932  15.787   0.982  1.00  0.00     0.173 A 
ATOM     77  C   UNL     1      -5.612  15.671   0.381  1.00  0.00     0.173 A 
ATOM     78  F   UNL     1      -9.232  15.803   0.651  1.00  0.00    -0.203 F 
ATOM     79  C   UNL     1      -7.576  15.954   2.319  1.00  0.00     0.198 A 
ATOM     80  C   UNL     1      -5.258  15.811   1.722  1.00  0.00     0.198 A 
ATOM     81  F   UNL     1      -4.639  15.553  -0.534  1.00  0.00    -0.203 F 
ATOM     82  F   UNL     1      -8.527  16.128   3.247  1.00  0.00    -0.200 F 
ATOM     83  C   UNL     1      -6.239  15.960   2.689  1.00  0.00     0.200 A 
ATOM     84  F   UNL     1      -3.965  15.808   2.075  1.00  0.00    -0.200 F 
ATOM     85  F   UNL     1      -5.898  16.120   3.975  1.00  0.00    -0.200 F 
ENDBRANCH  51  75
BRANCH  63  86
ATOM     86  C   UNL     1      -9.976  20.008  -4.553  1.00  0.00     0.064 A 
ATOM     87  C   UNL     1      -9.125  21.117  -4.447  1.00  0.00     0.173 A 
ATOM     88  C   UNL     1     -11.360  20.239  -4.596  1.00  0.00     0.173 A 
ATOM     89  F   UNL     1      -7.796  20.945  -4.391  1.00  0.00    -0.203 F 
ATOM     90  C   UNL     1      -9.642  22.407  -4.368  1.00  0.00     0.198 A 
ATOM     91  C   UNL     1     -11.871  21.532  -4.548  1.00  0.00     0.198 A 
ATOM     92  F   UNL     1     -12.214  19.211  -4.710  1.00  0.00    -0.203 F 
ATOM     93  F   UNL     1      -8.813  23.450  -4.227  1.00  0.00    -0.200 F 
ATOM     94  C   UNL     1     -11.012  22.614  -4.427  1.00  0.00     0.200 A 
ATOM     95  F   UNL     1     -13.194  21.731  -4.622  1.00  0.00    -0.200 F 
ATOM     96  F   UNL     1     -11.507  23.858  -4.363  1.00  0.00    -0.200 F 
ENDBRANCH  63  86
ENDBRANCH  37  38
ENDBRANCH  30  32
ENDBRANCH  29  30
ENDBRANCH  28  29
ENDBRANCH  27  28
ENDBRANCH  26  27
ENDBRANCH  25  26
ENDBRANCH   1  25
TORSDOF 20
