REMARK SMILES C[NH+](C)[C@H]1CCN(C(=O)C(=O)c2ccccc2)C[C@H]1CCC(=O)OCCOCCOCCOCCOC(=O)c1ccc(-c2c3nc(c(-c4c(F)c(F)c(F)c(F)c4F)c4ccc([nH]4)c(-c4c(F)c(F)c(F)c(F)c4F)c4nc(c(-c5c(F)c(F)c(F)c(F)c5F)c5ccc2[nH]5)C=C4)C=C3)cc1
REMARK SMILES IDX 28 1 27 2 26 3 25 4 24 5 22 6 23 7 21 8 20 9 19 10 4 11 5 12
REMARK SMILES IDX 6 13 18 14 7 15 2 16 1 17 3 18 8 20 9 21 10 22 11 23 12 24
REMARK SMILES IDX 13 25 17 26 14 27 16 28 15 29 29 30 30 31 31 32 32 33 33 34
REMARK SMILES IDX 34 35 35 36 36 37 37 38 38 39 39 40 40 41 101 42 41 43
REMARK SMILES IDX 100 44 42 45 43 46 44 47 94 48 45 49 99 50 93 51 95 52 46 53
REMARK SMILES IDX 98 54 92 55 91 56 47 58 79 59 59 60 78 61 60 62 63 63 77 64
REMARK SMILES IDX 96 65 61 66 62 67 76 69 97 70 64 71 48 72 49 73 57 74 50 75
REMARK SMILES IDX 51 76 55 77 58 78 52 79 53 80 56 81 54 82 80 83 81 84 89 85
REMARK SMILES IDX 82 86 83 87 87 88 90 89 84 90 85 91 88 92 86 93 65 94 66 95
REMARK SMILES IDX 74 96 67 97 68 98 72 99 75 100 69 101 70 102 73 103 71 104
REMARK H PARENT 2 19 95 57 63 68
REMARK Flexibility Score: inf
ROOT
ATOM      1  C   UNL     1       5.328   0.618   2.984  1.00  0.00     0.188 C 
ENDROOT
BRANCH   1   2
ATOM      2  O   UNL     1       5.029   1.999   2.889  1.00  0.00    -0.376 OA
BRANCH   2   3
ATOM      3  C   UNL     1       3.882   2.470   2.201  1.00  0.00     0.202 C 
BRANCH   3   4
ATOM      4  C   UNL     1       3.138   1.701   1.091  1.00  0.00     0.261 C 
BRANCH   4   5
ATOM      5  O   UNL     1       3.222   0.271   1.120  1.00  0.00    -0.463 OA
BRANCH   5   6
ATOM      6  C   UNL     1       3.950  -0.324   0.155  1.00  0.00     0.305 C 
ATOM      7  O   UNL     1       4.532   0.285  -0.737  1.00  0.00    -0.252 OA
BRANCH   6   8
ATOM      8  C   UNL     1       4.074  -1.833   0.301  1.00  0.00     0.123 C 
BRANCH   8   9
ATOM      9  C   UNL     1       3.148  -2.735   1.137  1.00  0.00     0.023 C 
BRANCH   9  10
ATOM     10  C   UNL     1       1.686  -2.361   1.490  1.00  0.00     0.067 C 
ATOM     11  C   UNL     1       0.558  -2.810   0.494  1.00  0.00     0.190 C 
ATOM     12  C   UNL     1       0.484  -4.353   0.467  1.00  0.00     0.087 C 
ATOM     13  C   UNL     1       0.221  -4.914   1.852  1.00  0.00     0.126 C 
ATOM     14  C   UNL     1       1.365  -2.995   2.895  1.00  0.00     0.129 C 
ATOM     15  N   UNL     1       1.199  -4.454   2.825  1.00  0.00    -0.335 N 
BRANCH  11  16
ATOM     16  N   UNL     1       0.532  -2.359  -0.919  1.00  0.00    -0.337 N 
ATOM     17  C   UNL     1       1.174  -1.091  -1.221  1.00  0.00     0.332 C 
ATOM     18  C   UNL     1      -0.854  -2.281  -1.415  1.00  0.00     0.332 C 
ATOM     19  H   UNL     1       1.085  -3.075  -1.390  1.00  0.00     0.347 HD
ENDBRANCH  11  16
BRANCH  15  20
ATOM     20  C   UNL     1       1.728  -5.420   3.695  1.00  0.00     0.294 C 
ATOM     21  O   UNL     1       1.564  -6.626   3.509  1.00  0.00    -0.265 OA
BRANCH  20  22
ATOM     22  C   UNL     1       2.487  -5.016   4.969  1.00  0.00     0.250 C 
ATOM     23  O   UNL     1       2.288  -3.932   5.507  1.00  0.00    -0.283 OA
BRANCH  22  24
ATOM     24  C   UNL     1       3.369  -6.018   5.643  1.00  0.00     0.028 A 
ATOM     25  C   UNL     1       3.466  -5.979   7.042  1.00  0.00     0.012 A 
ATOM     26  C   UNL     1       4.083  -6.996   4.938  1.00  0.00     0.012 A 
ATOM     27  C   UNL     1       4.244  -6.917   7.727  1.00  0.00     0.001 A 
ATOM     28  C   UNL     1       4.865  -7.931   5.627  1.00  0.00     0.001 A 
ATOM     29  C   UNL     1       4.942  -7.893   7.019  1.00  0.00     0.000 A 
ENDBRANCH  22  24
ENDBRANCH  20  22
ENDBRANCH  15  20
ENDBRANCH   9  10
ENDBRANCH   8   9
ENDBRANCH   6   8
ENDBRANCH   5   6
ENDBRANCH   4   5
ENDBRANCH   3   4
ENDBRANCH   2   3
ENDBRANCH   1   2
BRANCH   1  30
ATOM     30  C   UNL     1       4.305  -0.334   3.626  1.00  0.00     0.188 C 
BRANCH  30  31
ATOM     31  O   UNL     1       2.988   0.173   3.720  1.00  0.00    -0.377 OA
BRANCH  31  32
ATOM     32  C   UNL     1       2.637   0.901   4.888  1.00  0.00     0.188 C 
BRANCH  32  33
ATOM     33  C   UNL     1       3.730   1.591   5.731  1.00  0.00     0.188 C 
BRANCH  33  34
ATOM     34  O   UNL     1       4.899   0.815   5.946  1.00  0.00    -0.376 OA
BRANCH  34  35
ATOM     35  C   UNL     1       5.018   0.072   7.152  1.00  0.00     0.202 C 
BRANCH  35  36
ATOM     36  C   UNL     1       4.020  -1.075   7.383  1.00  0.00     0.261 C 
BRANCH  36  37
ATOM     37  O   UNL     1       2.635  -0.703   7.432  1.00  0.00    -0.460 OA
BRANCH  37  38
ATOM     38  C   UNL     1       2.250   0.194   8.357  1.00  0.00     0.338 C 
ATOM     39  O   UNL     1       2.939   0.712   9.223  1.00  0.00    -0.246 OA
BRANCH  38  40
ATOM     40  C   UNL     1       0.870   0.604   8.036  1.00  0.00     0.060 A 
ATOM     41  C   UNL     1       0.615   1.948   7.733  1.00  0.00     0.016 A 
ATOM     42  C   UNL     1      -0.166  -0.332   8.040  1.00  0.00     0.016 A 
ATOM     43  C   UNL     1      -0.689   2.368   7.476  1.00  0.00     0.010 A 
ATOM     44  C   UNL     1      -1.475   0.094   7.805  1.00  0.00     0.010 A 
ATOM     45  C   UNL     1      -1.746   1.453   7.560  1.00  0.00    -0.014 A 
BRANCH  45  46
ATOM     46  C   UNL     1      -3.143   1.949   7.599  1.00  0.00     0.031 A 
ATOM     47  C   UNL     1      -3.803   2.112   8.941  1.00  0.00     0.074 A 
ATOM     48  C   UNL     1      -3.805   2.274   6.476  1.00  0.00     0.049 A 
ATOM     49  N   UNL     1      -5.024   2.479   9.232  1.00  0.00    -0.248 NA
ATOM     50  C   UNL     1      -2.967   1.817  10.116  1.00  0.00     0.031 C 
ATOM     51  C   UNL     1      -3.257   2.208   5.123  1.00  0.00     0.029 A 
ATOM     52  N   UNL     1      -5.092   2.718   6.299  1.00  0.00    -0.354 N 
ATOM     53  C   UNL     1      -5.105   2.450  10.618  1.00  0.00     0.074 A 
ATOM     54  C   UNL     1      -3.822   1.999  11.110  1.00  0.00     0.031 C 
ATOM     55  C   UNL     1      -4.208   2.587   4.251  1.00  0.00     0.029 A 
ATOM     56  C   UNL     1      -5.440   2.885   4.982  1.00  0.00     0.049 A 
ATOM     57  H   UNL     1      -5.707   2.900   7.046  1.00  0.00     0.167 HD
ATOM     58  C   UNL     1      -6.153   2.779  11.410  1.00  0.00     0.037 A 
ATOM     59  C   UNL     1      -6.625   3.216   4.433  1.00  0.00     0.037 A 
ATOM     60  C   UNL     1      -7.430   3.223  10.915  1.00  0.00     0.049 A 
ATOM     61  C   UNL     1      -7.805   3.494   5.333  1.00  0.00     0.074 A 
ATOM     62  C   UNL     1      -8.552   3.594  11.634  1.00  0.00     0.029 A 
ATOM     63  N   UNL     1      -7.757   3.341   9.572  1.00  0.00    -0.354 N 
ATOM     64  N   UNL     1      -7.869   3.489   6.642  1.00  0.00    -0.248 NA
ATOM     65  C   UNL     1      -9.076   3.826   4.675  1.00  0.00     0.031 C 
ATOM     66  C   UNL     1      -9.578   3.873  10.726  1.00  0.00     0.029 A 
ATOM     67  C   UNL     1      -9.075   3.749   9.441  1.00  0.00     0.049 A 
ATOM     68  H   UNL     1      -7.144   3.163   8.823  1.00  0.00     0.167 HD
ATOM     69  C   UNL     1      -9.173   3.849   6.965  1.00  0.00     0.074 A 
ATOM     70  C   UNL     1      -9.862   4.079   5.712  1.00  0.00     0.031 C 
ATOM     71  C   UNL     1      -9.746   3.982   8.187  1.00  0.00     0.037 A 
BRANCH  58  72
ATOM     72  C   UNL     1      -5.973   2.634  12.894  1.00  0.00     0.064 A 
ATOM     73  C   UNL     1      -5.119   3.474  13.625  1.00  0.00     0.173 A 
ATOM     74  C   UNL     1      -6.684   1.650  13.600  1.00  0.00     0.173 A 
ATOM     75  F   UNL     1      -4.404   4.420  12.998  1.00  0.00    -0.203 F 
ATOM     76  C   UNL     1      -4.959   3.315  14.999  1.00  0.00     0.198 A 
ATOM     77  C   UNL     1      -6.549   1.517  14.979  1.00  0.00     0.198 A 
ATOM     78  F   UNL     1      -7.516   0.822  12.952  1.00  0.00    -0.203 F 
ATOM     79  F   UNL     1      -4.095   4.092  15.666  1.00  0.00    -0.200 F 
ATOM     80  C   UNL     1      -5.680   2.342  15.676  1.00  0.00     0.200 A 
ATOM     81  F   UNL     1      -7.257   0.586  15.632  1.00  0.00    -0.200 F 
ATOM     82  F   UNL     1      -5.531   2.195  17.000  1.00  0.00    -0.200 F 
ENDBRANCH  58  72
BRANCH  59  83
ATOM     83  C   UNL     1      -6.766   3.290   2.954  1.00  0.00     0.064 A 
ATOM     84  C   UNL     1      -7.019   4.509   2.309  1.00  0.00     0.173 A 
ATOM     85  C   UNL     1      -6.674   2.139   2.155  1.00  0.00     0.173 A 
ATOM     86  F   UNL     1      -7.143   5.634   3.029  1.00  0.00    -0.203 F 
ATOM     87  C   UNL     1      -7.195   4.571   0.928  1.00  0.00     0.198 A 
ATOM     88  C   UNL     1      -6.816   2.208   0.771  1.00  0.00     0.198 A 
ATOM     89  F   UNL     1      -6.436   0.947   2.720  1.00  0.00    -0.203 F 
ATOM     90  F   UNL     1      -7.487   5.742   0.344  1.00  0.00    -0.200 F 
ATOM     91  C   UNL     1      -7.086   3.422   0.159  1.00  0.00     0.200 A 
ATOM     92  F   UNL     1      -6.696   1.097   0.032  1.00  0.00    -0.200 F 
ATOM     93  F   UNL     1      -7.249   3.483  -1.169  1.00  0.00    -0.200 F 
ENDBRANCH  59  83
BRANCH  71  94
ATOM     94  C   UNL     1     -11.178   4.440   8.237  1.00  0.00     0.064 A 
ATOM     95  C   UNL     1     -12.235   3.620   7.816  1.00  0.00     0.173 A 
ATOM     96  C   UNL     1     -11.498   5.703   8.759  1.00  0.00     0.173 A 
ATOM     97  F   UNL     1     -11.985   2.408   7.298  1.00  0.00    -0.203 F 
ATOM     98  C   UNL     1     -13.555   4.059   7.887  1.00  0.00     0.198 A 
ATOM     99  C   UNL     1     -12.821   6.125   8.863  1.00  0.00     0.198 A 
ATOM    100  F   UNL     1     -10.527   6.525   9.186  1.00  0.00    -0.203 F 
ATOM    101  F   UNL     1     -14.544   3.280   7.428  1.00  0.00    -0.200 F 
ATOM    102  C   UNL     1     -13.848   5.307   8.418  1.00  0.00     0.200 A 
ATOM    103  F   UNL     1     -13.101   7.323   9.395  1.00  0.00    -0.200 F 
ATOM    104  F   UNL     1     -15.119   5.723   8.495  1.00  0.00    -0.200 F 
ENDBRANCH  71  94
ENDBRANCH  45  46
ENDBRANCH  38  40
ENDBRANCH  37  38
ENDBRANCH  36  37
ENDBRANCH  35  36
ENDBRANCH  34  35
ENDBRANCH  33  34
ENDBRANCH  32  33
ENDBRANCH  31  32
ENDBRANCH  30  31
ENDBRANCH   1  30
TORSDOF 26
