REMARK SMILES O=C(OCCOCCOCCOCCOC(=O)c1cncc(Nc2cccnc2)n1)c1ccc(-c2c3nc(c(-c4c(F)c(F)c(F)c(F)c4F)c4ccc([nH]4)c(-c4c(F)c(F)c(F)c(F)c4F)c4nc(c(-c5c(F)c(F)c(F)c(F)c5F)c5ccc2[nH]5)C=C4)C=C3)cc1
REMARK SMILES IDX 9 1 8 2 7 3 6 4 5 5 4 6 3 7 2 8 1 9 31 10 32 11 93 12 33 13
REMARK SMILES IDX 92 14 34 15 35 16 36 17 86 18 37 19 91 20 85 21 87 22 38 23
REMARK SMILES IDX 90 24 84 25 83 26 39 28 71 29 51 30 70 31 52 32 55 33 69 34
REMARK SMILES IDX 88 35 53 36 54 37 68 39 89 40 56 41 40 42 41 43 49 44 42 45
REMARK SMILES IDX 43 46 47 47 50 48 44 49 45 50 48 51 46 52 72 53 73 54 81 55
REMARK SMILES IDX 74 56 75 57 79 58 82 59 76 60 77 61 80 62 78 63 57 64 58 65
REMARK SMILES IDX 66 66 59 67 60 68 64 69 67 70 61 71 62 72 65 73 63 74 10 75
REMARK SMILES IDX 11 76 12 77 13 78 14 79 15 80 16 81 17 82 18 83 19 84 30 85
REMARK SMILES IDX 20 86 22 87 21 88 23 89 24 91 25 92 29 93 26 94 28 95 27 96
REMARK H PARENT 87 27 55 38 23 90
REMARK Flexibility Score: inf
ROOT
ATOM      1  O   UNL     1       2.890   0.966  -4.160  1.00  0.00    -0.377 OA
ENDROOT
BRANCH   1   2
ATOM      2  C   UNL     1       2.103   1.014  -2.968  1.00  0.00     0.188 C 
BRANCH   2   3
ATOM      3  C   UNL     1       2.506   0.042  -1.857  1.00  0.00     0.188 C 
BRANCH   3   4
ATOM      4  O   UNL     1       3.798   0.349  -1.343  1.00  0.00    -0.376 OA
BRANCH   4   5
ATOM      5  C   UNL     1       4.613  -0.722  -0.886  1.00  0.00     0.202 C 
BRANCH   5   6
ATOM      6  C   UNL     1       4.020  -1.638   0.186  1.00  0.00     0.261 C 
BRANCH   6   7
ATOM      7  O   UNL     1       2.637  -1.405   0.516  1.00  0.00    -0.460 OA
BRANCH   7   8
ATOM      8  C   UNL     1       2.066  -0.542   1.388  1.00  0.00     0.338 C 
ATOM      9  O   UNL     1       0.867  -0.656   1.637  1.00  0.00    -0.246 OA
BRANCH   8  10
ATOM     10  C   UNL     1       2.816   0.533   2.087  1.00  0.00     0.060 A 
ATOM     11  C   UNL     1       3.873   1.241   1.530  1.00  0.00     0.016 A 
ATOM     12  C   UNL     1       2.364   0.928   3.354  1.00  0.00     0.016 A 
ATOM     13  C   UNL     1       4.604   2.159   2.261  1.00  0.00     0.010 A 
ATOM     14  C   UNL     1       3.033   1.925   4.071  1.00  0.00     0.010 A 
ATOM     15  C   UNL     1       4.207   2.486   3.550  1.00  0.00    -0.014 A 
BRANCH  15  16
ATOM     16  C   UNL     1       5.162   3.234   4.389  1.00  0.00     0.031 A 
ATOM     17  C   UNL     1       5.834   2.485   5.503  1.00  0.00     0.074 A 
ATOM     18  C   UNL     1       5.546   4.477   4.044  1.00  0.00     0.049 A 
ATOM     19  N   UNL     1       6.655   2.916   6.421  1.00  0.00    -0.248 NA
ATOM     20  C   UNL     1       5.540   1.043   5.593  1.00  0.00     0.031 C 
ATOM     21  C   UNL     1       5.061   5.219   2.878  1.00  0.00     0.029 A 
ATOM     22  N   UNL     1       6.469   5.314   4.610  1.00  0.00    -0.354 N 
ATOM     23  C   UNL     1       6.918   1.817   7.229  1.00  0.00     0.074 A 
ATOM     24  C   UNL     1       6.176   0.699   6.699  1.00  0.00     0.031 C 
ATOM     25  C   UNL     1       5.728   6.381   2.788  1.00  0.00     0.029 A 
ATOM     26  C   UNL     1       6.614   6.504   3.939  1.00  0.00     0.049 A 
ATOM     27  H   UNL     1       6.980   5.086   5.420  1.00  0.00     0.167 HD
ATOM     28  C   UNL     1       7.710   1.760   8.324  1.00  0.00     0.037 A 
ATOM     29  C   UNL     1       7.358   7.580   4.253  1.00  0.00     0.037 A 
ATOM     30  C   UNL     1       8.468   2.884   8.795  1.00  0.00     0.049 A 
ATOM     31  C   UNL     1       8.175   7.517   5.517  1.00  0.00     0.074 A 
ATOM     32  C   UNL     1       9.261   2.989   9.921  1.00  0.00     0.029 A 
ATOM     33  N   UNL     1       8.532   4.108   8.137  1.00  0.00    -0.354 N 
ATOM     34  N   UNL     1       8.340   6.513   6.347  1.00  0.00    -0.248 NA
ATOM     35  C   UNL     1       8.891   8.738   5.901  1.00  0.00     0.031 C 
ATOM     36  C   UNL     1       9.770   4.292   9.967  1.00  0.00     0.029 A 
ATOM     37  C   UNL     1       9.342   4.980   8.840  1.00  0.00     0.049 A 
ATOM     38  H   UNL     1       8.069   4.321   7.295  1.00  0.00     0.167 HD
ATOM     39  C   UNL     1       9.194   6.971   7.339  1.00  0.00     0.074 A 
ATOM     40  C   UNL     1       9.528   8.339   6.993  1.00  0.00     0.031 C 
ATOM     41  C   UNL     1       9.658   6.329   8.440  1.00  0.00     0.037 A 
BRANCH  28  42
ATOM     42  C   UNL     1       7.705   0.478   9.104  1.00  0.00     0.064 A 
ATOM     43  C   UNL     1       8.285  -0.703   8.618  1.00  0.00     0.173 A 
ATOM     44  C   UNL     1       7.048   0.422  10.344  1.00  0.00     0.173 A 
ATOM     45  F   UNL     1       8.894  -0.715   7.422  1.00  0.00    -0.203 F 
ATOM     46  C   UNL     1       8.174  -1.900   9.325  1.00  0.00     0.198 A 
ATOM     47  C   UNL     1       6.966  -0.768  11.062  1.00  0.00     0.198 A 
ATOM     48  F   UNL     1       6.465   1.519  10.850  1.00  0.00    -0.203 F 
ATOM     49  F   UNL     1       8.671  -3.031   8.805  1.00  0.00    -0.200 F 
ATOM     50  C   UNL     1       7.518  -1.931  10.546  1.00  0.00     0.200 A 
ATOM     51  F   UNL     1       6.333  -0.794  12.242  1.00  0.00    -0.200 F 
ATOM     52  F   UNL     1       7.402  -3.084  11.218  1.00  0.00    -0.200 F 
ENDBRANCH  28  42
BRANCH  29  53
ATOM     53  C   UNL     1       7.324   8.802   3.403  1.00  0.00     0.064 A 
ATOM     54  C   UNL     1       8.472   9.264   2.743  1.00  0.00     0.173 A 
ATOM     55  C   UNL     1       6.144   9.546   3.242  1.00  0.00     0.173 A 
ATOM     56  F   UNL     1       9.633   8.606   2.878  1.00  0.00    -0.203 F 
ATOM     57  C   UNL     1       8.445  10.428   1.974  1.00  0.00     0.198 A 
ATOM     58  C   UNL     1       6.109  10.689   2.445  1.00  0.00     0.198 A 
ATOM     59  F   UNL     1       5.014   9.156   3.852  1.00  0.00    -0.203 F 
ATOM     60  F   UNL     1       9.569  10.873   1.397  1.00  0.00    -0.200 F 
ATOM     61  C   UNL     1       7.262  11.135   1.820  1.00  0.00     0.200 A 
ATOM     62  F   UNL     1       4.959  11.359   2.288  1.00  0.00    -0.200 F 
ATOM     63  F   UNL     1       7.236  12.251   1.078  1.00  0.00    -0.200 F 
ENDBRANCH  29  53
BRANCH  41  64
ATOM     64  C   UNL     1      10.616   7.087   9.307  1.00  0.00     0.064 A 
ATOM     65  C   UNL     1      10.192   8.146  10.123  1.00  0.00     0.173 A 
ATOM     66  C   UNL     1      11.968   6.718   9.348  1.00  0.00     0.173 A 
ATOM     67  F   UNL     1       8.911   8.542  10.104  1.00  0.00    -0.203 F 
ATOM     68  C   UNL     1      11.098   8.828  10.928  1.00  0.00     0.198 A 
ATOM     69  C   UNL     1      12.863   7.380  10.180  1.00  0.00     0.198 A 
ATOM     70  F   UNL     1      12.416   5.704   8.591  1.00  0.00    -0.203 F 
ATOM     71  F   UNL     1      10.685   9.871  11.660  1.00  0.00    -0.200 F 
ATOM     72  C   UNL     1      12.430   8.440  10.962  1.00  0.00     0.200 A 
ATOM     73  F   UNL     1      14.146   6.994  10.223  1.00  0.00    -0.200 F 
ATOM     74  F   UNL     1      13.299   9.094  11.744  1.00  0.00    -0.200 F 
ENDBRANCH  41  64
ENDBRANCH  15  16
ENDBRANCH   8  10
ENDBRANCH   7   8
ENDBRANCH   6   7
ENDBRANCH   5   6
ENDBRANCH   4   5
ENDBRANCH   3   4
ENDBRANCH   2   3
ENDBRANCH   1   2
BRANCH   1  75
ATOM     75  C   UNL     1       4.303   0.895  -3.983  1.00  0.00     0.188 C 
BRANCH  75  76
ATOM     76  C   UNL     1       5.023   2.099  -3.331  1.00  0.00     0.188 C 
BRANCH  76  77
ATOM     77  O   UNL     1       4.173   2.889  -2.519  1.00  0.00    -0.376 OA
BRANCH  77  78
ATOM     78  C   UNL     1       3.784   4.172  -2.984  1.00  0.00     0.202 C 
BRANCH  78  79
ATOM     79  C   UNL     1       3.263   4.412  -4.418  1.00  0.00     0.261 C 
BRANCH  79  80
ATOM     80  O   UNL     1       3.639   3.466  -5.424  1.00  0.00    -0.458 OA
BRANCH  80  81
ATOM     81  C   UNL     1       4.770   3.713  -6.140  1.00  0.00     0.358 C 
ATOM     82  O   UNL     1       5.497   4.667  -6.043  1.00  0.00    -0.244 OA
BRANCH  81  83
ATOM     83  C   UNL     1       5.029   2.486  -6.942  1.00  0.00     0.169 A 
ATOM     84  C   UNL     1       4.065   2.023  -7.822  1.00  0.00     0.147 A 
ATOM     85  N   UNL     1       6.163   1.782  -6.639  1.00  0.00    -0.220 NA
ATOM     86  N   UNL     1       4.197   0.844  -8.471  1.00  0.00    -0.258 NA
ATOM     87  C   UNL     1       6.280   0.575  -7.236  1.00  0.00     0.149 A 
ATOM     88  C   UNL     1       5.308   0.135  -8.146  1.00  0.00     0.158 A 
BRANCH  87  89
ATOM     89  N   UNL     1       7.354  -0.239  -6.854  1.00  0.00    -0.338 N 
ATOM     90  H   UNL     1       7.722  -0.102  -5.952  1.00  0.00     0.168 HD
BRANCH  89  91
ATOM     91  C   UNL     1       7.950  -1.229  -7.641  1.00  0.00     0.058 A 
ATOM     92  C   UNL     1       8.547  -0.901  -8.859  1.00  0.00     0.029 A 
ATOM     93  C   UNL     1       8.036  -2.557  -7.232  1.00  0.00     0.137 A 
ATOM     94  C   UNL     1       9.113  -1.896  -9.649  1.00  0.00     0.022 A 
ATOM     95  N   UNL     1       8.577  -3.550  -7.978  1.00  0.00    -0.263 NA
ATOM     96  C   UNL     1       9.090  -3.197  -9.177  1.00  0.00     0.111 A 
ENDBRANCH  89  91
ENDBRANCH  87  89
ENDBRANCH  81  83
ENDBRANCH  80  81
ENDBRANCH  79  80
ENDBRANCH  78  79
ENDBRANCH  77  78
ENDBRANCH  76  77
ENDBRANCH  75  76
ENDBRANCH   1  75
TORSDOF 22
