REMARK SMILES O=C(OCCOCCOCCOCCOC(=O)c1nn(-c2ccc([N+](=O)[O-])cc2)cc1CCO)c1ccc(-c2c3nc(c(-c4c(F)c(F)c(F)c(F)c4F)c4ccc([nH]4)c(-c4c(F)c(F)c(F)c(F)c4F)c4nc(c(-c5c(F)c(F)c(F)c(F)c5F)c5ccc2[nH]5)C=C4)C=C3)cc1
REMARK SMILES IDX 10 1 9 2 8 3 7 4 6 5 5 6 4 7 3 8 2 9 1 10 35 11 36 12 97 13
REMARK SMILES IDX 37 14 96 15 38 16 39 17 40 18 90 19 41 20 95 21 89 22 91 23
REMARK SMILES IDX 42 24 94 25 88 26 87 27 43 29 75 30 55 31 74 32 56 33 59 34
REMARK SMILES IDX 73 35 92 36 57 37 58 38 72 40 93 41 60 42 44 43 45 44 53 45
REMARK SMILES IDX 46 46 47 47 51 48 54 49 48 50 49 51 52 52 50 53 76 54 77 55
REMARK SMILES IDX 85 56 78 57 79 58 83 59 86 60 80 61 81 62 84 63 82 64 61 65
REMARK SMILES IDX 62 66 70 67 63 68 64 69 68 70 71 71 65 72 66 73 69 74 67 75
REMARK SMILES IDX 11 76 12 77 13 78 14 79 15 80 16 81 17 82 18 83 19 84 31 85
REMARK SMILES IDX 20 86 30 87 32 88 33 89 34 90 21 92 22 93 29 94 23 95 28 96
REMARK SMILES IDX 24 97 25 98 26 99 27 100
REMARK H PARENT 91 28 59 39 34 91
REMARK Flexibility Score: inf
ROOT
ATOM      1  C   UNL     1       3.839   0.508   3.256  1.00  0.00     0.188 C 
ENDROOT
BRANCH   1   2
ATOM      2  O   UNL     1       2.517   0.030   3.207  1.00  0.00    -0.377 OA
BRANCH   2   3
ATOM      3  C   UNL     1       2.075  -0.251   1.891  1.00  0.00     0.188 C 
BRANCH   3   4
ATOM      4  C   UNL     1       2.880  -1.254   1.034  1.00  0.00     0.188 C 
BRANCH   4   5
ATOM      5  O   UNL     1       4.179  -1.105   0.470  1.00  0.00    -0.376 OA
BRANCH   5   6
ATOM      6  C   UNL     1       4.954   0.045   0.211  1.00  0.00     0.202 C 
BRANCH   6   7
ATOM      7  C   UNL     1       4.469   1.192  -0.663  1.00  0.00     0.261 C 
BRANCH   7   8
ATOM      8  O   UNL     1       3.098   1.518  -0.506  1.00  0.00    -0.460 OA
BRANCH   8   9
ATOM      9  C   UNL     1       2.042   0.984  -1.147  1.00  0.00     0.338 C 
ATOM     10  O   UNL     1       0.935   1.482  -0.943  1.00  0.00    -0.246 OA
BRANCH   9  11
ATOM     11  C   UNL     1       2.094  -0.226  -2.016  1.00  0.00     0.060 A 
ATOM     12  C   UNL     1       3.208  -0.735  -2.685  1.00  0.00     0.016 A 
ATOM     13  C   UNL     1       0.851  -0.868  -2.195  1.00  0.00     0.016 A 
ATOM     14  C   UNL     1       3.047  -1.706  -3.657  1.00  0.00     0.010 A 
ATOM     15  C   UNL     1       0.689  -1.864  -3.138  1.00  0.00     0.010 A 
ATOM     16  C   UNL     1       1.772  -2.196  -3.935  1.00  0.00    -0.014 A 
BRANCH  16  17
ATOM     17  C   UNL     1       1.629  -3.025  -5.116  1.00  0.00     0.031 A 
ATOM     18  C   UNL     1       2.425  -4.277  -5.104  1.00  0.00     0.074 A 
ATOM     19  C   UNL     1       0.853  -2.644  -6.150  1.00  0.00     0.049 A 
ATOM     20  N   UNL     1       3.414  -4.593  -5.874  1.00  0.00    -0.248 NA
ATOM     21  C   UNL     1       2.174  -5.236  -4.019  1.00  0.00     0.031 C 
ATOM     22  C   UNL     1      -0.136  -1.563  -6.209  1.00  0.00     0.029 A 
ATOM     23  N   UNL     1       0.753  -3.211  -7.380  1.00  0.00    -0.354 N 
ATOM     24  C   UNL     1       3.810  -5.869  -5.483  1.00  0.00     0.074 A 
ATOM     25  C   UNL     1       3.100  -6.164  -4.265  1.00  0.00     0.031 C 
ATOM     26  C   UNL     1      -0.890  -1.706  -7.322  1.00  0.00     0.029 A 
ATOM     27  C   UNL     1      -0.338  -2.783  -8.123  1.00  0.00     0.049 A 
ATOM     28  H   UNL     1       1.400  -3.871  -7.717  1.00  0.00     0.167 HD
ATOM     29  C   UNL     1       4.538  -6.666  -6.311  1.00  0.00     0.037 A 
ATOM     30  C   UNL     1      -0.776  -3.327  -9.284  1.00  0.00     0.037 A 
ATOM     31  C   UNL     1       5.236  -5.895  -7.305  1.00  0.00     0.049 A 
ATOM     32  C   UNL     1       0.357  -4.085  -9.872  1.00  0.00     0.074 A 
ATOM     33  C   UNL     1       6.215  -4.922  -7.253  1.00  0.00     0.029 A 
ATOM     34  N   UNL     1       4.699  -5.810  -8.565  1.00  0.00    -0.354 N 
ATOM     35  N   UNL     1       1.434  -3.521 -10.346  1.00  0.00    -0.248 NA
ATOM     36  C   UNL     1       0.496  -5.486  -9.498  1.00  0.00     0.031 C 
ATOM     37  C   UNL     1       5.865  -3.992  -8.275  1.00  0.00     0.029 A 
ATOM     38  C   UNL     1       4.738  -4.489  -8.931  1.00  0.00     0.049 A 
ATOM     39  H   UNL     1       4.351  -6.556  -9.105  1.00  0.00     0.167 HD
ATOM     40  C   UNL     1       2.472  -4.346  -9.939  1.00  0.00     0.074 A 
ATOM     41  C   UNL     1       1.828  -5.575  -9.482  1.00  0.00     0.031 C 
ATOM     42  C   UNL     1       3.729  -3.855  -9.745  1.00  0.00     0.037 A 
BRANCH  29  43
ATOM     43  C   UNL     1       4.329  -8.154  -6.433  1.00  0.00     0.064 A 
ATOM     44  C   UNL     1       5.212  -8.917  -7.222  1.00  0.00     0.173 A 
ATOM     45  C   UNL     1       3.130  -8.800  -6.061  1.00  0.00     0.173 A 
ATOM     46  F   UNL     1       6.371  -8.394  -7.652  1.00  0.00    -0.203 F 
ATOM     47  C   UNL     1       4.881 -10.200  -7.667  1.00  0.00     0.198 A 
ATOM     48  C   UNL     1       2.826 -10.098  -6.465  1.00  0.00     0.198 A 
ATOM     49  F   UNL     1       2.157  -8.168  -5.395  1.00  0.00    -0.203 F 
ATOM     50  F   UNL     1       5.695 -10.839  -8.518  1.00  0.00    -0.200 F 
ATOM     51  C   UNL     1       3.686 -10.786  -7.294  1.00  0.00     0.200 A 
ATOM     52  F   UNL     1       1.652 -10.639  -6.111  1.00  0.00    -0.200 F 
ATOM     53  F   UNL     1       3.337 -11.988  -7.771  1.00  0.00    -0.200 F 
ENDBRANCH  29  43
BRANCH  30  54
ATOM     54  C   UNL     1      -2.182  -3.544  -9.700  1.00  0.00     0.064 A 
ATOM     55  C   UNL     1      -2.504  -3.844 -11.033  1.00  0.00     0.173 A 
ATOM     56  C   UNL     1      -3.201  -3.747  -8.748  1.00  0.00     0.173 A 
ATOM     57  F   UNL     1      -1.576  -3.725 -11.994  1.00  0.00    -0.203 F 
ATOM     58  C   UNL     1      -3.764  -4.339 -11.389  1.00  0.00     0.198 A 
ATOM     59  C   UNL     1      -4.458  -4.237  -9.104  1.00  0.00     0.198 A 
ATOM     60  F   UNL     1      -2.966  -3.568  -7.440  1.00  0.00    -0.203 F 
ATOM     61  F   UNL     1      -4.016  -4.673 -12.662  1.00  0.00    -0.200 F 
ATOM     62  C   UNL     1      -4.735  -4.545 -10.423  1.00  0.00     0.200 A 
ATOM     63  F   UNL     1      -5.374  -4.469  -8.154  1.00  0.00    -0.200 F 
ATOM     64  F   UNL     1      -5.919  -5.080 -10.753  1.00  0.00    -0.200 F 
ENDBRANCH  30  54
BRANCH  42  65
ATOM     65  C   UNL     1       4.018  -2.454 -10.206  1.00  0.00     0.064 A 
ATOM     66  C   UNL     1       3.408  -1.308  -9.665  1.00  0.00     0.173 A 
ATOM     67  C   UNL     1       5.071  -2.259 -11.110  1.00  0.00     0.173 A 
ATOM     68  F   UNL     1       2.463  -1.409  -8.722  1.00  0.00    -0.203 F 
ATOM     69  C   UNL     1       3.815  -0.028 -10.041  1.00  0.00     0.198 A 
ATOM     70  C   UNL     1       5.499  -0.980 -11.456  1.00  0.00     0.198 A 
ATOM     71  F   UNL     1       5.727  -3.316 -11.614  1.00  0.00    -0.203 F 
ATOM     72  F   UNL     1       3.219   1.051  -9.512  1.00  0.00    -0.200 F 
ATOM     73  C   UNL     1       4.866   0.134 -10.929  1.00  0.00     0.200 A 
ATOM     74  F   UNL     1       6.550  -0.829 -12.274  1.00  0.00    -0.200 F 
ATOM     75  F   UNL     1       5.292   1.363 -11.252  1.00  0.00    -0.200 F 
ENDBRANCH  42  65
ENDBRANCH  16  17
ENDBRANCH   9  11
ENDBRANCH   8   9
ENDBRANCH   7   8
ENDBRANCH   6   7
ENDBRANCH   5   6
ENDBRANCH   4   5
ENDBRANCH   3   4
ENDBRANCH   2   3
ENDBRANCH   1   2
BRANCH   1  76
ATOM     76  C   UNL     1       4.842  -0.628   3.508  1.00  0.00     0.188 C 
BRANCH  76  77
ATOM     77  O   UNL     1       4.370  -1.945   3.671  1.00  0.00    -0.376 OA
BRANCH  77  78
ATOM     78  C   UNL     1       3.406  -2.259   4.657  1.00  0.00     0.202 C 
BRANCH  78  79
ATOM     79  C   UNL     1       3.121  -1.425   5.925  1.00  0.00     0.261 C 
BRANCH  79  80
ATOM     80  O   UNL     1       3.666  -0.111   6.046  1.00  0.00    -0.458 OA
BRANCH  80  81
ATOM     81  C   UNL     1       4.932   0.030   6.556  1.00  0.00     0.359 C 
ATOM     82  O   UNL     1       5.669  -0.872   6.881  1.00  0.00    -0.244 OA
BRANCH  81  83
ATOM     83  C   UNL     1       5.325   1.452   6.539  1.00  0.00     0.174 A 
ATOM     84  N   UNL     1       4.786   2.268   7.454  1.00  0.00    -0.161 NA
ATOM     85  C   UNL     1       6.194   2.178   5.653  1.00  0.00     0.008 A 
ATOM     86  N   UNL     1       5.164   3.508   7.104  1.00  0.00    -0.240 N 
ATOM     87  C   UNL     1       5.972   3.502   5.999  1.00  0.00     0.119 A 
BRANCH  85  88
ATOM     88  C   UNL     1       7.077   1.751   4.515  1.00  0.00     0.068 C 
BRANCH  88  89
ATOM     89  C   UNL     1       8.169   0.733   4.844  1.00  0.00     0.161 C 
BRANCH  89  90
ATOM     90  O   UNL     1       7.677  -0.589   4.973  1.00  0.00    -0.396 OA
ATOM     91  H   UNL     1       7.042  -0.628   5.706  1.00  0.00     0.210 HD
ENDBRANCH  89  90
ENDBRANCH  88  89
ENDBRANCH  85  88
BRANCH  86  92
ATOM     92  C   UNL     1       4.742   4.613   7.876  1.00  0.00     0.065 A 
ATOM     93  C   UNL     1       4.428   4.387   9.226  1.00  0.00     0.035 A 
ATOM     94  C   UNL     1       4.636   5.896   7.326  1.00  0.00     0.035 A 
ATOM     95  C   UNL     1       4.029   5.442  10.040  1.00  0.00     0.088 A 
ATOM     96  C   UNL     1       4.191   6.950   8.131  1.00  0.00     0.088 A 
ATOM     97  C   UNL     1       3.898   6.719   9.486  1.00  0.00     0.269 A 
BRANCH  97  98
ATOM     98  N   UNL     1       3.441   7.824  10.336  1.00  0.00     0.062 N 
ATOM     99  O   UNL     1       3.295   7.597  11.545  1.00  0.00    -0.258 OA
ATOM    100  O   UNL     1       3.231   8.917   9.793  1.00  0.00    -0.258 OA
ENDBRANCH  97  98
ENDBRANCH  86  92
ENDBRANCH  81  83
ENDBRANCH  80  81
ENDBRANCH  79  80
ENDBRANCH  78  79
ENDBRANCH  77  78
ENDBRANCH  76  77
ENDBRANCH   1  76
TORSDOF 25
