REMARK SMILES O=C(OCCOCCOCCOCCOC(=O)c1ccccc1Nc1cccc(S(F)(F)(F)(F)F)c1)c1ccc(-c2c3nc(c(-c4c(F)c(F)c(F)c(F)c4F)c4ccc([nH]4)c(-c4c(F)c(F)c(F)c(F)c4F)c4nc(c(-c5c(F)c(F)c(F)c(F)c5F)c5ccc2[nH]5)C=C4)C=C3)cc1
REMARK SMILES IDX 10 1 9 2 8 3 7 4 6 5 5 6 4 7 3 8 2 9 1 10 37 11 38 12 99 13
REMARK SMILES IDX 39 14 98 15 40 16 41 17 42 18 92 19 43 20 97 21 91 22 93 23
REMARK SMILES IDX 44 24 96 25 90 26 89 27 45 29 77 30 57 31 76 32 58 33 61 34
REMARK SMILES IDX 75 35 94 36 59 37 60 38 74 40 95 41 62 42 46 43 47 44 55 45
REMARK SMILES IDX 48 46 49 47 53 48 56 49 50 50 51 51 54 52 52 53 78 54 79 55
REMARK SMILES IDX 87 56 80 57 81 58 85 59 88 60 82 61 83 62 86 63 84 64 63 65
REMARK SMILES IDX 64 66 72 67 65 68 66 69 70 70 73 71 67 72 68 73 71 74 69 75
REMARK SMILES IDX 11 76 12 77 13 78 14 79 15 80 16 81 17 82 18 83 19 84 23 85
REMARK SMILES IDX 20 86 22 87 21 88 24 89 25 91 26 92 36 93 27 94 29 95 28 96
REMARK SMILES IDX 30 97 31 98 32 99 33 100 34 101 35 102
REMARK H PARENT 93 28 61 39 24 90
REMARK Flexibility Score: inf
ROOT
ATOM      1  C   UNL     1       4.456   2.687   0.960  1.00  0.00     0.188 C 
ENDROOT
BRANCH   1   2
ATOM      2  O   UNL     1       3.036   2.687   0.960  1.00  0.00    -0.377 OA
BRANCH   2   3
ATOM      3  C   UNL     1       2.563   1.726   1.893  1.00  0.00     0.188 C 
BRANCH   3   4
ATOM      4  C   UNL     1       3.069   0.348   1.502  1.00  0.00     0.188 C 
BRANCH   4   5
ATOM      5  O   UNL     1       4.489   0.348   1.502  1.00  0.00    -0.376 OA
BRANCH   5   6
ATOM      6  C   UNL     1       4.963   1.308   0.569  1.00  0.00     0.202 C 
BRANCH   6   7
ATOM      7  C   UNL     1       4.456   0.957  -0.820  1.00  0.00     0.261 C 
BRANCH   7   8
ATOM      8  O   UNL     1       3.036   0.957  -0.820  1.00  0.00    -0.460 OA
BRANCH   8   9
ATOM      9  C   UNL     1       2.326   0.075   0.037  1.00  0.00     0.338 C 
ATOM     10  O   UNL     1       1.055   0.075   0.037  1.00  0.00    -0.246 OA
BRANCH   9  11
ATOM     11  C   UNL     1       3.086  -0.869   0.954  1.00  0.00     0.060 A 
ATOM     12  C   UNL     1       4.235  -0.372   1.547  1.00  0.00     0.016 A 
ATOM     13  C   UNL     1       2.743  -2.146   1.080  1.00  0.00     0.016 A 
ATOM     14  C   UNL     1       5.116  -1.374   2.018  1.00  0.00     0.010 A 
ATOM     15  C   UNL     1       3.596  -3.044   1.673  1.00  0.00     0.010 A 
ATOM     16  C   UNL     1       4.776  -2.632   2.228  1.00  0.00    -0.014 A 
BRANCH  16  17
ATOM     17  C   UNL     1       5.649  -3.573   3.043  1.00  0.00     0.031 A 
ATOM     18  C   UNL     1       6.173  -4.740   2.485  1.00  0.00     0.074 A 
ATOM     19  C   UNL     1       5.944  -3.125   4.320  1.00  0.00     0.049 A 
ATOM     20  N   UNL     1       7.043  -5.587   3.038  1.00  0.00    -0.248 NA
ATOM     21  C   UNL     1       5.834  -5.235   1.143  1.00  0.00     0.031 C 
ATOM     22  C   UNL     1       5.426  -1.944   4.887  1.00  0.00     0.029 A 
ATOM     23  N   UNL     1       6.765  -3.716   5.254  1.00  0.00    -0.354 N 
ATOM     24  C   UNL     1       7.323  -6.578   2.189  1.00  0.00     0.074 A 
ATOM     25  C   UNL     1       6.545  -6.370   0.961  1.00  0.00     0.031 C 
ATOM     26  C   UNL     1       5.919  -1.831   6.149  1.00  0.00     0.029 A 
ATOM     27  C   UNL     1       6.753  -2.939   6.391  1.00  0.00     0.049 A 
ATOM     28  H   UNL     1       7.273  -4.551   5.130  1.00  0.00     0.167 HD
ATOM     29  C   UNL     1       8.198  -7.647   2.392  1.00  0.00     0.037 A 
ATOM     30  C   UNL     1       7.424  -3.167   7.582  1.00  0.00     0.037 A 
ATOM     31  C   UNL     1       8.902  -7.851   3.568  1.00  0.00     0.049 A 
ATOM     32  C   UNL     1       8.254  -4.268   7.806  1.00  0.00     0.074 A 
ATOM     33  C   UNL     1       9.794  -8.919   3.785  1.00  0.00     0.029 A 
ATOM     34  N   UNL     1       8.871  -7.087   4.713  1.00  0.00    -0.354 N 
ATOM     35  N   UNL     1       8.565  -5.237   6.944  1.00  0.00    -0.248 NA
ATOM     36  C   UNL     1       8.944  -4.537   9.074  1.00  0.00     0.031 C 
ATOM     37  C   UNL     1      10.287  -8.806   5.048  1.00  0.00     0.029 A 
ATOM     38  C   UNL     1       9.710  -7.666   5.639  1.00  0.00     0.049 A 
ATOM     39  H   UNL     1       8.341  -6.269   4.847  1.00  0.00     0.167 HD
ATOM     40  C   UNL     1       9.403  -6.106   7.512  1.00  0.00     0.074 A 
ATOM     41  C   UNL     1       9.653  -5.673   8.893  1.00  0.00     0.031 C 
ATOM     42  C   UNL     1       9.972  -7.242   6.933  1.00  0.00     0.037 A 
BRANCH  29  43
ATOM     43  C   UNL     1       8.389  -8.642   1.259  1.00  0.00     0.064 A 
ATOM     44  C   UNL     1       8.968  -8.142   0.104  1.00  0.00     0.173 A 
ATOM     45  C   UNL     1       8.108  -9.933   1.385  1.00  0.00     0.173 A 
ATOM     46  F   UNL     1       9.494  -6.923   0.025  1.00  0.00    -0.203 F 
ATOM     47  C   UNL     1       8.947  -9.045  -0.985  1.00  0.00     0.198 A 
ATOM     48  C   UNL     1       8.241 -10.786   0.316  1.00  0.00     0.198 A 
ATOM     49  F   UNL     1       7.694 -10.406   2.557  1.00  0.00    -0.203 F 
ATOM     50  F   UNL     1       9.140  -8.550  -2.204  1.00  0.00    -0.200 F 
ATOM     51  C   UNL     1       8.751 -10.346  -0.875  1.00  0.00     0.200 A 
ATOM     52  F   UNL     1       7.869 -12.056   0.440  1.00  0.00    -0.200 F 
ATOM     53  F   UNL     1       9.033 -11.184  -1.868  1.00  0.00    -0.200 F 
ENDBRANCH  29  43
BRANCH  30  54
ATOM     54  C   UNL     1       7.245  -2.163   8.709  1.00  0.00     0.064 A 
ATOM     55  C   UNL     1       8.335  -1.550   9.305  1.00  0.00     0.173 A 
ATOM     56  C   UNL     1       6.013  -1.975   9.167  1.00  0.00     0.173 A 
ATOM     57  F   UNL     1       9.538  -1.501   8.741  1.00  0.00    -0.203 F 
ATOM     58  C   UNL     1       8.051  -0.979  10.569  1.00  0.00     0.198 A 
ATOM     59  C   UNL     1       5.800  -1.290  10.339  1.00  0.00     0.198 A 
ATOM     60  F   UNL     1       4.976  -2.454   8.486  1.00  0.00    -0.203 F 
ATOM     61  F   UNL     1       9.079  -0.696  11.364  1.00  0.00    -0.200 F 
ATOM     62  C   UNL     1       6.837  -0.708  11.012  1.00  0.00     0.200 A 
ATOM     63  F   UNL     1       4.565  -1.191  10.825  1.00  0.00    -0.200 F 
ATOM     64  F   UNL     1       6.635   0.088  12.059  1.00  0.00    -0.200 F 
ENDBRANCH  30  54
BRANCH  42  65
ATOM     65  C   UNL     1      10.937  -8.063   7.772  1.00  0.00     0.064 A 
ATOM     66  C   UNL     1      10.477  -8.533   8.991  1.00  0.00     0.173 A 
ATOM     67  C   UNL     1      12.195  -8.253   7.392  1.00  0.00     0.173 A 
ATOM     68  F   UNL     1       9.185  -8.593   9.305  1.00  0.00    -0.203 F 
ATOM     69  C   UNL     1      11.505  -8.944   9.873  1.00  0.00     0.198 A 
ATOM     70  C   UNL     1      13.116  -8.786   8.261  1.00  0.00     0.198 A 
ATOM     71  F   UNL     1      12.567  -7.925   6.157  1.00  0.00    -0.203 F 
ATOM     72  F   UNL     1      11.202  -9.063  11.162  1.00  0.00    -0.200 F 
ATOM     73  C   UNL     1      12.743  -9.216   9.504  1.00  0.00     0.200 A 
ATOM     74  F   UNL     1      14.389  -8.883   7.889  1.00  0.00    -0.200 F 
ATOM     75  F   UNL     1      13.582  -9.875  10.299  1.00  0.00    -0.200 F 
ENDBRANCH  42  65
ENDBRANCH  16  17
ENDBRANCH   9  11
ENDBRANCH   8   9
ENDBRANCH   7   8
ENDBRANCH   6   7
ENDBRANCH   5   6
ENDBRANCH   4   5
ENDBRANCH   3   4
ENDBRANCH   2   3
ENDBRANCH   1   2
BRANCH   1  76
ATOM     76  C   UNL     1       4.963   3.038   2.349  1.00  0.00     0.188 C 
BRANCH  76  77
ATOM     77  O   UNL     1       4.489   2.078   3.282  1.00  0.00    -0.376 OA
BRANCH  77  78
ATOM     78  C   UNL     1       3.069   2.078   3.282  1.00  0.00     0.202 C 
BRANCH  78  79
ATOM     79  C   UNL     1       2.563   3.456   3.673  1.00  0.00     0.261 C 
BRANCH  79  80
ATOM     80  O   UNL     1       3.036   4.416   2.740  1.00  0.00    -0.460 OA
BRANCH  80  81
ATOM     81  C   UNL     1       4.432   4.603   2.559  1.00  0.00     0.340 C 
ATOM     82  O   UNL     1       5.258   3.910   3.232  1.00  0.00    -0.246 OA
BRANCH  81  83
ATOM     83  C   UNL     1       4.939   5.630   1.560  1.00  0.00     0.083 A 
ATOM     84  C   UNL     1       5.863   5.345   0.569  1.00  0.00     0.018 A 
ATOM     85  C   UNL     1       4.321   6.804   1.608  1.00  0.00     0.053 A 
ATOM     86  C   UNL     1       6.285   6.478  -0.166  1.00  0.00     0.001 A 
ATOM     87  C   UNL     1       4.693   7.825   0.767  1.00  0.00     0.027 A 
ATOM     88  C   UNL     1       5.642   7.631  -0.198  1.00  0.00     0.002 A 
BRANCH  85  89
ATOM     89  N   UNL     1       3.228   7.014   2.569  1.00  0.00    -0.355 N 
ATOM     90  H   UNL     1       2.958   6.286   3.174  1.00  0.00     0.167 HD
BRANCH  89  91
ATOM     91  C   UNL     1       2.540   8.312   2.627  1.00  0.00     0.040 A 
ATOM     92  C   UNL     1       2.552   9.048   3.800  1.00  0.00     0.026 A 
ATOM     93  C   UNL     1       1.916   8.755   1.542  1.00  0.00     0.050 A 
ATOM     94  C   UNL     1       1.627  10.118   3.816  1.00  0.00     0.004 A 
ATOM     95  C   UNL     1       1.137   9.885   1.596  1.00  0.00     0.109 A 
ATOM     96  C   UNL     1       1.056  10.630   2.740  1.00  0.00     0.024 A 
BRANCH  95  97
ATOM     97  S   UNL     1       0.203  10.396   0.132  1.00  0.00     0.310 S 
ATOM     98  F   UNL     1      -1.169  10.591   0.903  1.00  0.00    -0.094 F 
ATOM     99  F   UNL     1      -0.227   8.900  -0.112  1.00  0.00    -0.094 F 
ATOM    100  F   UNL     1      -0.531  10.847  -1.162  1.00  0.00    -0.094 F 
ATOM    101  F   UNL     1       0.523  11.906   0.468  1.00  0.00    -0.094 F 
ATOM    102  F   UNL     1       0.855   9.967   1.507  1.00  0.00    -0.094 F 
ENDBRANCH  95  97
ENDBRANCH  89  91
ENDBRANCH  85  89
ENDBRANCH  81  83
ENDBRANCH  80  81
ENDBRANCH  79  80
ENDBRANCH  78  79
ENDBRANCH  77  78
ENDBRANCH  76  77
ENDBRANCH   1  76
TORSDOF 23
