REMARK SMILES CCCn1ncc(C(=O)N2CCC(C(=O)OCCOCCOCCOCCOC(=O)c3ccc(-c4c5nc(c(-c6c(F)c(F)c(F)c(F)c6F)c6ccc([nH]6)c(-c6c(F)c(F)c(F)c(F)c6F)c6nc(c(-c7c(F)c(F)c(F)c(F)c7F)c7ccc4[nH]7)C=C6)C=C5)cc3)CC2)c1C
REMARK SMILES IDX 21 1 20 2 19 3 18 4 17 5 16 6 14 7 15 8 13 9 8 10 9 11 10 12
REMARK SMILES IDX 11 13 95 14 12 15 94 16 7 17 4 18 5 19 96 20 6 21 97 22 3 23
REMARK SMILES IDX 2 24 1 25 22 26 23 27 24 28 25 29 26 30 27 31 28 32 29 33
REMARK SMILES IDX 30 34 31 35 32 36 93 37 33 38 92 39 34 40 35 41 36 42 86 43
REMARK SMILES IDX 37 44 91 45 85 46 87 47 38 48 90 49 84 50 83 51 39 53 71 54
REMARK SMILES IDX 51 55 70 56 52 57 55 58 69 59 88 60 53 61 54 62 68 64 89 65
REMARK SMILES IDX 56 66 40 67 41 68 49 69 42 70 43 71 47 72 50 73 44 74 45 75
REMARK SMILES IDX 48 76 46 77 72 78 73 79 81 80 74 81 75 82 79 83 82 84 76 85
REMARK SMILES IDX 77 86 80 87 78 88 57 89 58 90 66 91 59 92 60 93 64 94 67 95
REMARK SMILES IDX 61 96 62 97 65 98 63 99
REMARK H PARENT 87 52 55 63
REMARK Flexibility Score: inf
ROOT
ATOM      1  C   UNL     1      -3.013 -10.809  -2.622  1.00  0.00     0.188 C 
ENDROOT
BRANCH   1   2
ATOM      2  C   UNL     1      -1.775 -11.534  -2.066  1.00  0.00     0.188 C 
BRANCH   2   3
ATOM      3  O   UNL     1      -1.897 -12.484  -1.012  1.00  0.00    -0.376 OA
BRANCH   3   4
ATOM      4  C   UNL     1      -2.840 -12.286   0.029  1.00  0.00     0.202 C 
BRANCH   4   5
ATOM      5  C   UNL     1      -2.840 -10.978   0.837  1.00  0.00     0.261 C 
BRANCH   5   6
ATOM      6  O   UNL     1      -2.560  -9.771   0.106  1.00  0.00    -0.463 OA
BRANCH   6   7
ATOM      7  C   UNL     1      -1.287  -9.318   0.195  1.00  0.00     0.309 C 
ATOM      8  O   UNL     1      -0.397  -9.859   0.842  1.00  0.00    -0.252 OA
BRANCH   7   9
ATOM      9  C   UNL     1      -1.041  -8.023  -0.562  1.00  0.00     0.103 C 
ATOM     10  C   UNL     1      -1.929  -4.001  -1.667  1.00  0.00     0.257 C 
ATOM     11  O   UNL     1      -3.099  -3.668  -1.837  1.00  0.00    -0.269 OA
ATOM     12  N   UNL     1      -1.594  -5.293  -1.299  1.00  0.00    -0.338 N 
ATOM     13  C   UNL     1      -1.853  -6.301  -2.291  1.00  0.00     0.120 C 
ATOM     14  C   UNL     1      -0.628  -5.596  -0.252  1.00  0.00     0.120 C 
ATOM     15  C   UNL     1      -1.987  -7.696  -1.720  1.00  0.00     0.037 C 
ATOM     16  C   UNL     1      -1.008  -6.885   0.452  1.00  0.00     0.037 C 
BRANCH  10  17
ATOM     17  C   UNL     1      -0.809  -3.133  -1.989  1.00  0.00     0.080 A 
ATOM     18  N   UNL     1       0.456  -1.379  -2.387  1.00  0.00    -0.269 N 
ATOM     19  N   UNL     1       1.280  -2.425  -2.593  1.00  0.00    -0.180 NA
ATOM     20  C   UNL     1      -0.836  -1.752  -2.111  1.00  0.00     0.048 A 
ATOM     21  C   UNL     1       0.507  -3.482  -2.365  1.00  0.00     0.149 A 
ATOM     22  C   UNL     1      -1.975  -0.814  -1.948  1.00  0.00     0.067 C 
BRANCH  18  23
ATOM     23  C   UNL     1       1.024  -0.047  -2.455  1.00  0.00     0.144 C 
BRANCH  23  24
ATOM     24  C   UNL     1       0.843   0.790  -1.188  1.00  0.00     0.020 C 
ATOM     25  C   UNL     1       1.313   0.096   0.082  1.00  0.00     0.006 C 
ENDBRANCH  23  24
ENDBRANCH  18  23
ENDBRANCH  10  17
ENDBRANCH   7   9
ENDBRANCH   6   7
ENDBRANCH   5   6
ENDBRANCH   4   5
ENDBRANCH   3   4
ENDBRANCH   2   3
ENDBRANCH   1   2
BRANCH   1  26
ATOM     26  O   UNL     1      -4.192 -10.962  -1.868  1.00  0.00    -0.377 OA
BRANCH  26  27
ATOM     27  C   UNL     1      -5.146 -11.840  -2.440  1.00  0.00     0.188 C 
BRANCH  27  28
ATOM     28  C   UNL     1      -4.640 -13.187  -3.022  1.00  0.00     0.188 C 
BRANCH  28  29
ATOM     29  O   UNL     1      -3.400 -13.128  -3.729  1.00  0.00    -0.376 OA
BRANCH  29  30
ATOM     30  C   UNL     1      -3.333 -13.218  -5.149  1.00  0.00     0.202 C 
BRANCH  30  31
ATOM     31  C   UNL     1      -3.770 -11.989  -5.959  1.00  0.00     0.261 C 
BRANCH  31  32
ATOM     32  O   UNL     1      -4.978 -11.426  -5.488  1.00  0.00    -0.460 OA
BRANCH  32  33
ATOM     33  C   UNL     1      -6.031 -12.253  -5.563  1.00  0.00     0.338 C 
ATOM     34  O   UNL     1      -6.051 -13.389  -6.025  1.00  0.00    -0.246 OA
BRANCH  33  35
ATOM     35  C   UNL     1      -7.209 -11.564  -5.038  1.00  0.00     0.060 A 
ATOM     36  C   UNL     1      -8.373 -12.325  -5.043  1.00  0.00     0.016 A 
ATOM     37  C   UNL     1      -7.202 -10.159  -5.039  1.00  0.00     0.016 A 
ATOM     38  C   UNL     1      -9.482 -11.709  -5.541  1.00  0.00     0.010 A 
ATOM     39  C   UNL     1      -8.313  -9.541  -5.521  1.00  0.00     0.010 A 
ATOM     40  C   UNL     1      -9.354 -10.369  -5.917  1.00  0.00    -0.014 A 
BRANCH  40  41
ATOM     41  C   UNL     1     -10.295  -9.868  -6.876  1.00  0.00     0.031 A 
ATOM     42  C   UNL     1     -11.566  -9.489  -6.261  1.00  0.00     0.074 A 
ATOM     43  C   UNL     1      -9.965  -9.754  -8.173  1.00  0.00     0.049 A 
ATOM     44  N   UNL     1     -12.688 -10.116  -6.356  1.00  0.00    -0.248 NA
ATOM     45  C   UNL     1     -11.530  -8.429  -5.246  1.00  0.00     0.031 C 
ATOM     46  C   UNL     1      -8.661  -9.901  -8.826  1.00  0.00     0.029 A 
ATOM     47  N   UNL     1     -10.779  -9.387  -9.191  1.00  0.00    -0.354 N 
ATOM     48  C   UNL     1     -13.559  -9.409  -5.545  1.00  0.00     0.074 A 
ATOM     49  C   UNL     1     -12.755  -8.532  -4.734  1.00  0.00     0.031 C 
ATOM     50  C   UNL     1      -8.738  -9.404 -10.084  1.00  0.00     0.029 A 
ATOM     51  C   UNL     1     -10.114  -9.028 -10.352  1.00  0.00     0.049 A 
ATOM     52  H   UNL     1     -11.761  -9.376  -9.113  1.00  0.00     0.167 HD
ATOM     53  C   UNL     1     -14.894  -9.411  -5.790  1.00  0.00     0.037 A 
ATOM     54  C   UNL     1     -10.689  -8.354 -11.377  1.00  0.00     0.037 A 
ATOM     55  C   UNL     1     -15.271 -10.496  -6.659  1.00  0.00     0.049 A 
ATOM     56  C   UNL     1     -12.163  -8.565 -11.260  1.00  0.00     0.074 A 
ATOM     57  C   UNL     1     -15.220 -11.873  -6.551  1.00  0.00     0.029 A 
ATOM     58  N   UNL     1     -15.412 -10.230  -8.001  1.00  0.00    -0.354 N 
ATOM     59  N   UNL     1     -12.733  -9.728 -11.443  1.00  0.00    -0.248 NA
ATOM     60  C   UNL     1     -12.925  -7.628 -10.441  1.00  0.00     0.031 C 
ATOM     61  C   UNL     1     -14.866 -12.338  -7.852  1.00  0.00     0.029 A 
ATOM     62  C   UNL     1     -14.768 -11.228  -8.692  1.00  0.00     0.049 A 
ATOM     63  H   UNL     1     -15.888  -9.464  -8.395  1.00  0.00     0.167 HD
ATOM     64  C   UNL     1     -13.705  -9.817 -10.453  1.00  0.00     0.074 A 
ATOM     65  C   UNL     1     -13.822  -8.466  -9.910  1.00  0.00     0.031 C 
ATOM     66  C   UNL     1     -14.104 -11.027  -9.959  1.00  0.00     0.037 A 
BRANCH  53  67
ATOM     67  C   UNL     1     -15.770  -8.223  -5.529  1.00  0.00     0.064 A 
ATOM     68  C   UNL     1     -17.164  -8.379  -5.580  1.00  0.00     0.173 A 
ATOM     69  C   UNL     1     -15.298  -6.890  -5.501  1.00  0.00     0.173 A 
ATOM     70  F   UNL     1     -17.711  -9.602  -5.635  1.00  0.00    -0.203 F 
ATOM     71  C   UNL     1     -18.019  -7.279  -5.661  1.00  0.00     0.198 A 
ATOM     72  C   UNL     1     -16.156  -5.797  -5.517  1.00  0.00     0.198 A 
ATOM     73  F   UNL     1     -13.995  -6.589  -5.574  1.00  0.00    -0.203 F 
ATOM     74  F   UNL     1     -19.333  -7.472  -5.831  1.00  0.00    -0.200 F 
ATOM     75  C   UNL     1     -17.514  -5.990  -5.631  1.00  0.00     0.200 A 
ATOM     76  F   UNL     1     -15.643  -4.559  -5.505  1.00  0.00    -0.200 F 
ATOM     77  F   UNL     1     -18.329  -4.936  -5.765  1.00  0.00    -0.200 F 
ENDBRANCH  53  67
BRANCH  54  78
ATOM     78  C   UNL     1     -10.068  -7.276 -12.182  1.00  0.00     0.064 A 
ATOM     79  C   UNL     1     -10.633  -6.849 -13.393  1.00  0.00     0.173 A 
ATOM     80  C   UNL     1      -9.031  -6.474 -11.661  1.00  0.00     0.173 A 
ATOM     81  F   UNL     1     -11.660  -7.522 -13.931  1.00  0.00    -0.203 F 
ATOM     82  C   UNL     1     -10.189  -5.689 -14.040  1.00  0.00     0.198 A 
ATOM     83  C   UNL     1      -8.583  -5.324 -12.310  1.00  0.00     0.198 A 
ATOM     84  F   UNL     1      -8.488  -6.737 -10.463  1.00  0.00    -0.203 F 
ATOM     85  F   UNL     1     -10.784  -5.285 -15.171  1.00  0.00    -0.200 F 
ATOM     86  C   UNL     1      -9.168  -4.926 -13.496  1.00  0.00     0.200 A 
ATOM     87  F   UNL     1      -7.620  -4.578 -11.751  1.00  0.00    -0.200 F 
ATOM     88  F   UNL     1      -8.775  -3.791 -14.090  1.00  0.00    -0.200 F 
ENDBRANCH  54  78
BRANCH  66  89
ATOM     89  C   UNL     1     -13.590 -12.259 -10.655  1.00  0.00     0.064 A 
ATOM     90  C   UNL     1     -12.232 -12.624 -10.669  1.00  0.00     0.173 A 
ATOM     91  C   UNL     1     -14.505 -13.173 -11.188  1.00  0.00     0.173 A 
ATOM     92  F   UNL     1     -11.310 -11.859 -10.074  1.00  0.00    -0.203 F 
ATOM     93  C   UNL     1     -11.806 -13.822 -11.240  1.00  0.00     0.198 A 
ATOM     94  C   UNL     1     -14.082 -14.388 -11.724  1.00  0.00     0.198 A 
ATOM     95  F   UNL     1     -15.820 -12.912 -11.138  1.00  0.00    -0.203 F 
ATOM     96  F   UNL     1     -10.502 -14.137 -11.248  1.00  0.00    -0.200 F 
ATOM     97  C   UNL     1     -12.733 -14.706 -11.762  1.00  0.00     0.200 A 
ATOM     98  F   UNL     1     -14.987 -15.266 -12.178  1.00  0.00    -0.200 F 
ATOM     99  F   UNL     1     -12.331 -15.879 -12.273  1.00  0.00    -0.200 F 
ENDBRANCH  66  89
ENDBRANCH  40  41
ENDBRANCH  33  35
ENDBRANCH  32  33
ENDBRANCH  31  32
ENDBRANCH  30  31
ENDBRANCH  29  30
ENDBRANCH  28  29
ENDBRANCH  27  28
ENDBRANCH  26  27
ENDBRANCH   1  26
TORSDOF 23
