REMARK SMILES CC(C)[C@H](C)CNC(=O)N1CC(n2cc(C(=O)OCCOCCOCCOCCOC(=O)c3ccc(-c4c5nc(c(-c6c(F)c(F)c(F)c(F)c6F)c6ccc([nH]6)c(-c6c(F)c(F)c(F)c(F)c6F)c6nc(c(-c7c(F)c(F)c(F)c(F)c7F)c7ccc4[nH]7)C=C6)C=C5)cc3)nn2)C1
REMARK SMILES IDX 23 1 22 2 21 3 20 4 19 5 18 6 16 7 17 8 15 9 13 10 14 11
REMARK SMILES IDX 97 12 96 13 12 14 7 15 8 16 9 18 10 19 11 20 98 21 6 22 4 23
REMARK SMILES IDX 5 24 2 25 1 26 3 27 24 28 25 29 26 30 27 31 28 32 29 33
REMARK SMILES IDX 30 34 31 35 32 36 33 37 34 38 95 39 35 40 94 41 36 42 37 43
REMARK SMILES IDX 38 44 88 45 39 46 93 47 87 48 89 49 40 50 92 51 86 52 85 53
REMARK SMILES IDX 41 55 73 56 53 57 72 58 54 59 57 60 71 61 90 62 55 63 56 64
REMARK SMILES IDX 70 66 91 67 58 68 42 69 43 70 51 71 44 72 45 73 49 74 52 75
REMARK SMILES IDX 46 76 47 77 50 78 48 79 74 80 75 81 83 82 76 83 77 84 81 85
REMARK SMILES IDX 84 86 78 87 79 88 82 89 80 90 59 91 60 92 68 93 61 94 62 95
REMARK SMILES IDX 66 96 69 97 63 98 64 99 67 100 65 101
REMARK H PARENT 7 17 89 54 57 65
REMARK Flexibility Score: inf
ROOT
ATOM      1  C   UNL     1     -10.752   4.438  -4.235  1.00  0.00     0.188 C 
ENDROOT
BRANCH   1   2
ATOM      2  C   UNL     1     -11.620   3.630  -3.249  1.00  0.00     0.188 C 
BRANCH   2   3
ATOM      3  O   UNL     1     -12.524   4.421  -2.505  1.00  0.00    -0.376 OA
BRANCH   3   4
ATOM      4  C   UNL     1     -12.243   4.895  -1.208  1.00  0.00     0.202 C 
BRANCH   4   5
ATOM      5  C   UNL     1     -10.844   5.296  -0.712  1.00  0.00     0.261 C 
BRANCH   5   6
ATOM      6  O   UNL     1      -9.716   4.736  -1.380  1.00  0.00    -0.458 OA
BRANCH   6   7
ATOM      7  C   UNL     1      -9.368   3.471  -1.033  1.00  0.00     0.360 C 
ATOM      8  O   UNL     1      -9.915   2.824  -0.138  1.00  0.00    -0.244 OA
BRANCH   7   9
ATOM      9  C   UNL     1      -8.363   2.931  -1.929  1.00  0.00     0.190 A 
ATOM     10  N   UNL     1      -6.736   2.628  -3.326  1.00  0.00    -0.245 N 
ATOM     11  C   UNL     1      -7.437   3.617  -2.696  1.00  0.00     0.147 A 
ATOM     12  N   UNL     1      -7.252   1.420  -3.057  1.00  0.00    -0.066 NA
ATOM     13  N   UNL     1      -8.244   1.589  -2.195  1.00  0.00    -0.123 NA
BRANCH  10  14
ATOM     14  C   UNL     1      -5.500   2.847  -4.009  1.00  0.00     0.148 C 
ATOM     15  N   UNL     1      -1.368   2.463  -3.185  1.00  0.00    -0.338 N 
ATOM     16  C   UNL     1      -2.292   2.006  -4.066  1.00  0.00     0.317 C 
ATOM     17  H   UNL     1      -0.494   2.682  -3.581  1.00  0.00     0.165 HD
ATOM     18  O   UNL     1      -1.901   1.531  -5.132  1.00  0.00    -0.249 OA
ATOM     19  N   UNL     1      -3.606   2.091  -3.759  1.00  0.00    -0.320 N 
ATOM     20  C   UNL     1      -4.758   1.602  -4.510  1.00  0.00     0.150 C 
ATOM     21  C   UNL     1      -4.375   3.029  -2.974  1.00  0.00     0.150 C 
BRANCH  15  22
ATOM     22  C   UNL     1      -1.460   2.683  -1.747  1.00  0.00     0.121 C 
BRANCH  22  23
ATOM     23  C   UNL     1      -1.085   1.414  -0.953  1.00  0.00     0.008 C 
ATOM     24  C   UNL     1       0.429   1.166  -1.046  1.00  0.00     0.010 C 
BRANCH  23  25
ATOM     25  C   UNL     1      -1.551   1.432   0.532  1.00  0.00    -0.013 C 
ATOM     26  C   UNL     1      -0.952   2.574   1.358  1.00  0.00     0.008 C 
ATOM     27  C   UNL     1      -3.079   1.451   0.658  1.00  0.00     0.008 C 
ENDBRANCH  23  25
ENDBRANCH  22  23
ENDBRANCH  15  22
ENDBRANCH  10  14
ENDBRANCH   7   9
ENDBRANCH   6   7
ENDBRANCH   5   6
ENDBRANCH   4   5
ENDBRANCH   3   4
ENDBRANCH   2   3
ENDBRANCH   1   2
BRANCH   1  28
ATOM     28  O   UNL     1     -10.616   5.824  -3.960  1.00  0.00    -0.377 OA
BRANCH  28  29
ATOM     29  C   UNL     1     -11.742   6.690  -4.132  1.00  0.00     0.188 C 
BRANCH  29  30
ATOM     30  C   UNL     1     -13.170   6.209  -4.523  1.00  0.00     0.188 C 
BRANCH  30  31
ATOM     31  O   UNL     1     -13.264   4.873  -4.981  1.00  0.00    -0.376 OA
BRANCH  31  32
ATOM     32  C   UNL     1     -13.572   4.529  -6.314  1.00  0.00     0.202 C 
BRANCH  32  33
ATOM     33  C   UNL     1     -12.604   4.963  -7.405  1.00  0.00     0.261 C 
BRANCH  33  34
ATOM     34  O   UNL     1     -11.998   6.216  -7.161  1.00  0.00    -0.460 OA
BRANCH  34  35
ATOM     35  C   UNL     1     -12.801   7.271  -7.368  1.00  0.00     0.338 C 
ATOM     36  O   UNL     1     -14.014   7.260  -7.533  1.00  0.00    -0.246 OA
BRANCH  35  37
ATOM     37  C   UNL     1     -11.954   8.451  -7.527  1.00  0.00     0.060 A 
ATOM     38  C   UNL     1     -12.626   9.643  -7.779  1.00  0.00     0.016 A 
ATOM     39  C   UNL     1     -10.592   8.268  -7.829  1.00  0.00     0.016 A 
ATOM     40  C   UNL     1     -12.019  10.538  -8.620  1.00  0.00     0.010 A 
ATOM     41  C   UNL     1      -9.993   9.156  -8.681  1.00  0.00     0.010 A 
ATOM     42  C   UNL     1     -10.762  10.213  -9.148  1.00  0.00    -0.014 A 
BRANCH  42  43
ATOM     43  C   UNL     1     -10.259  11.060 -10.198  1.00  0.00     0.031 A 
ATOM     44  C   UNL     1      -9.856  12.387  -9.703  1.00  0.00     0.074 A 
ATOM     45  C   UNL     1     -10.159  10.645 -11.472  1.00  0.00     0.049 A 
ATOM     46  N   UNL     1     -10.420  13.519  -9.951  1.00  0.00    -0.248 NA
ATOM     47  C   UNL     1      -8.820  12.432  -8.660  1.00  0.00     0.031 C 
ATOM     48  C   UNL     1     -10.284   9.292 -12.017  1.00  0.00     0.029 A 
ATOM     49  N   UNL     1      -9.833  11.384 -12.561  1.00  0.00    -0.354 N 
ATOM     50  C   UNL     1      -9.691  14.456  -9.232  1.00  0.00     0.074 A 
ATOM     51  C   UNL     1      -8.844  13.722  -8.330  1.00  0.00     0.031 C 
ATOM     52  C   UNL     1      -9.808   9.280 -13.284  1.00  0.00     0.029 A 
ATOM     53  C   UNL     1      -9.475  10.640 -13.674  1.00  0.00     0.049 A 
ATOM     54  H   UNL     1      -9.848  12.369 -12.562  1.00  0.00     0.167 HD
ATOM     55  C   UNL     1      -9.662  15.756  -9.624  1.00  0.00     0.037 A 
ATOM     56  C   UNL     1      -8.859  11.132 -14.777  1.00  0.00     0.037 A 
ATOM     57  C   UNL     1     -10.791  16.078 -10.459  1.00  0.00     0.049 A 
ATOM     58  C   UNL     1      -9.087  12.604 -14.795  1.00  0.00     0.074 A 
ATOM     59  C   UNL     1     -12.161  16.052 -10.273  1.00  0.00     0.029 A 
ATOM     60  N   UNL     1     -10.604  16.134 -11.819  1.00  0.00    -0.354 N 
ATOM     61  N   UNL     1     -10.253  13.154 -15.000  1.00  0.00    -0.248 NA
ATOM     62  C   UNL     1      -8.114  13.446 -14.111  1.00  0.00     0.031 C 
ATOM     63  C   UNL     1     -12.697  15.604 -11.515  1.00  0.00     0.029 A 
ATOM     64  C   UNL     1     -11.633  15.437 -12.402  1.00  0.00     0.049 A 
ATOM     65  H   UNL     1      -9.869  16.589 -12.288  1.00  0.00     0.167 HD
ATOM     66  C   UNL     1     -10.303  14.221 -14.114  1.00  0.00     0.074 A 
ATOM     67  C   UNL     1      -8.930  14.397 -13.647  1.00  0.00     0.031 C 
ATOM     68  C   UNL     1     -11.492  14.675 -13.620  1.00  0.00     0.037 A 
BRANCH  55  69
ATOM     69  C   UNL     1      -8.415  16.596  -9.564  1.00  0.00     0.064 A 
ATOM     70  C   UNL     1      -8.502  17.966  -9.870  1.00  0.00     0.173 A 
ATOM     71  C   UNL     1      -7.106  16.062  -9.514  1.00  0.00     0.173 A 
ATOM     72  F   UNL     1      -9.696  18.570  -9.964  1.00  0.00    -0.203 F 
ATOM     73  C   UNL     1      -7.370  18.721 -10.183  1.00  0.00     0.198 A 
ATOM     74  C   UNL     1      -5.977  16.832  -9.770  1.00  0.00     0.198 A 
ATOM     75  F   UNL     1      -6.868  14.758  -9.333  1.00  0.00    -0.203 F 
ATOM     76  F   UNL     1      -7.511  19.987 -10.596  1.00  0.00    -0.200 F 
ATOM     77  C   UNL     1      -6.109  18.153 -10.138  1.00  0.00     0.200 A 
ATOM     78  F   UNL     1      -4.767  16.255  -9.739  1.00  0.00    -0.200 F 
ATOM     79  F   UNL     1      -5.030  18.857 -10.499  1.00  0.00    -0.200 F 
ENDBRANCH  55  69
BRANCH  56  80
ATOM     80  C   UNL     1      -7.794  10.480 -15.577  1.00  0.00     0.064 A 
ATOM     81  C   UNL     1      -7.435  10.974 -16.841  1.00  0.00     0.173 A 
ATOM     82  C   UNL     1      -6.922   9.532 -15.005  1.00  0.00     0.173 A 
ATOM     83  F   UNL     1      -8.182  11.916 -17.433  1.00  0.00    -0.203 F 
ATOM     84  C   UNL     1      -6.263  10.559 -17.484  1.00  0.00     0.198 A 
ATOM     85  C   UNL     1      -5.758   9.113 -15.650  1.00  0.00     0.198 A 
ATOM     86  F   UNL     1      -7.127   9.064 -13.765  1.00  0.00    -0.203 F 
ATOM     87  F   UNL     1      -5.920  11.099 -18.662  1.00  0.00    -0.200 F 
ATOM     88  C   UNL     1      -5.421   9.636 -16.884  1.00  0.00     0.200 A 
ATOM     89  F   UNL     1      -4.934   8.249 -15.040  1.00  0.00    -0.200 F 
ATOM     90  F   UNL     1      -4.269   9.284 -17.471  1.00  0.00    -0.200 F 
ENDBRANCH  56  80
BRANCH  68  91
ATOM     91  C   UNL     1     -12.757  14.149 -14.242  1.00  0.00     0.064 A 
ATOM     92  C   UNL     1     -13.139  12.796 -14.219  1.00  0.00     0.173 A 
ATOM     93  C   UNL     1     -13.682  15.070 -14.750  1.00  0.00     0.173 A 
ATOM     94  F   UNL     1     -12.357  11.868 -13.654  1.00  0.00    -0.203 F 
ATOM     95  C   UNL     1     -14.371  12.383 -14.725  1.00  0.00     0.198 A 
ATOM     96  C   UNL     1     -14.927  14.661 -15.219  1.00  0.00     0.198 A 
ATOM     97  F   UNL     1     -13.397  16.382 -14.743  1.00  0.00    -0.203 F 
ATOM     98  F   UNL     1     -14.707  11.085 -14.703  1.00  0.00    -0.200 F 
ATOM     99  C   UNL     1     -15.267  13.317 -15.218  1.00  0.00     0.200 A 
ATOM    100  F   UNL     1     -15.811  15.573 -15.646  1.00  0.00    -0.200 F 
ATOM    101  F   UNL     1     -16.469  12.927 -15.665  1.00  0.00    -0.200 F 
ENDBRANCH  68  91
ENDBRANCH  42  43
ENDBRANCH  35  37
ENDBRANCH  34  35
ENDBRANCH  33  34
ENDBRANCH  32  33
ENDBRANCH  31  32
ENDBRANCH  30  31
ENDBRANCH  29  30
ENDBRANCH  28  29
ENDBRANCH   1  28
TORSDOF 24
