REMARK SMILES [NH3+][C@H](C(=O)OCCOCCOCCOCCOC(=O)c1ccc(-c2c3nc(c(-c4c(F)c(F)c(F)c(F)c4F)c4ccc([nH]4)c(-c4c(F)c(F)c(F)c(F)c4F)c4nc(c(-c5c(F)c(F)c(F)c(F)c5F)c5ccc2[nH]5)C=C4)C=C3)cc1)c1ccc(Cl)c(OC(F)(F)F)c1
REMARK SMILES IDX 10 1 9 2 8 3 7 4 6 5 5 6 3 7 4 8 2 9 1 10 83 14 84 15 94 16
REMARK SMILES IDX 85 17 88 18 86 19 87 20 89 21 90 22 91 23 92 24 93 25 11 26
REMARK SMILES IDX 12 27 13 28 14 29 15 30 16 31 17 32 18 33 19 34 20 35 21 36
REMARK SMILES IDX 82 37 22 38 81 39 23 40 24 41 25 42 75 43 26 44 80 45 74 46
REMARK SMILES IDX 76 47 27 48 79 49 73 50 72 51 28 53 60 54 40 55 59 56 41 57
REMARK SMILES IDX 44 58 58 59 77 60 42 61 43 62 57 64 78 65 45 66 29 67 30 68
REMARK SMILES IDX 38 69 31 70 32 71 36 72 39 73 33 74 34 75 37 76 35 77 61 78
REMARK SMILES IDX 62 79 70 80 63 81 64 82 68 83 71 84 65 85 66 86 69 87 67 88
REMARK SMILES IDX 46 89 47 90 55 91 48 92 49 93 53 94 56 95 50 96 51 97 54 98
REMARK SMILES IDX 52 99
REMARK H PARENT 1 11 1 12 1 13 76 52 44 63
REMARK Flexibility Score: inf
ROOT
ATOM      1  C   UNL     1       1.536   0.257  -2.139  1.00  0.00     0.188 C 
ENDROOT
BRANCH   1   2
ATOM      2  C   UNL     1       2.868   0.230  -1.352  1.00  0.00     0.188 C 
BRANCH   2   3
ATOM      3  O   UNL     1       3.361  -1.091  -1.152  1.00  0.00    -0.376 OA
BRANCH   3   4
ATOM      4  C   UNL     1       3.174  -1.679   0.126  1.00  0.00     0.202 C 
BRANCH   4   5
ATOM      5  C   UNL     1       1.719  -1.913   0.540  1.00  0.00     0.261 C 
BRANCH   5   6
ATOM      6  O   UNL     1       0.896  -0.731   0.538  1.00  0.00    -0.459 OA
BRANCH   6   7
ATOM      7  C   UNL     1       1.107   0.230   1.470  1.00  0.00     0.369 C 
ATOM      8  O   UNL     1       2.008   0.170   2.300  1.00  0.00    -0.245 OA
BRANCH   7   9
ATOM      9  C   UNL     1       0.216   1.486   1.264  1.00  0.00     0.323 C 
BRANCH   9  10
ATOM     10  N   UNL     1       0.901   2.485   0.409  1.00  0.00    -0.342 N 
ATOM     11  H   UNL     1       0.298   3.299   0.289  1.00  0.00     0.345 HD
ATOM     12  H   UNL     1       1.102   2.072  -0.501  1.00  0.00     0.345 HD
ATOM     13  H   UNL     1       1.774   2.771   0.853  1.00  0.00     0.345 HD
ENDBRANCH   9  10
BRANCH   9  14
ATOM     14  C   UNL     1      -1.239   1.319   0.814  1.00  0.00     0.025 A 
ATOM     15  C   UNL     1      -2.014   2.486   0.662  1.00  0.00     0.012 A 
ATOM     16  C   UNL     1      -1.885   0.083   0.634  1.00  0.00     0.059 A 
ATOM     17  C   UNL     1      -3.380   2.420   0.387  1.00  0.00     0.025 A 
ATOM     18  C   UNL     1      -3.261  -0.004   0.367  1.00  0.00     0.148 A 
ATOM     19  C   UNL     1      -4.002   1.181   0.259  1.00  0.00     0.083 A 
ATOM     20  Cl  UNL     1      -5.711   1.155  -0.000  1.00  0.00    -0.080 Cl
BRANCH  18  21
ATOM     21  O   UNL     1      -3.961  -1.174   0.234  1.00  0.00    -0.404 OA
BRANCH  21  22
ATOM     22  C   UNL     1      -3.264  -2.402   0.326  1.00  0.00     0.573 C 
ATOM     23  F   UNL     1      -2.391  -2.537  -0.695  1.00  0.00    -0.132 F 
ATOM     24  F   UNL     1      -2.598  -2.505   1.497  1.00  0.00    -0.132 F 
ATOM     25  F   UNL     1      -4.151  -3.418   0.263  1.00  0.00    -0.132 F 
ENDBRANCH  21  22
ENDBRANCH  18  21
ENDBRANCH   9  14
ENDBRANCH   7   9
ENDBRANCH   6   7
ENDBRANCH   5   6
ENDBRANCH   4   5
ENDBRANCH   3   4
ENDBRANCH   2   3
ENDBRANCH   1   2
BRANCH   1  26
ATOM     26  O   UNL     1       1.517  -0.306  -3.442  1.00  0.00    -0.377 OA
BRANCH  26  27
ATOM     27  C   UNL     1       2.267  -1.493  -3.606  1.00  0.00     0.188 C 
BRANCH  27  28
ATOM     28  C   UNL     1       3.724  -1.245  -4.047  1.00  0.00     0.188 C 
BRANCH  28  29
ATOM     29  O   UNL     1       4.261   0.062  -4.188  1.00  0.00    -0.376 OA
BRANCH  29  30
ATOM     30  C   UNL     1       3.516   1.151  -4.706  1.00  0.00     0.202 C 
BRANCH  30  31
ATOM     31  C   UNL     1       2.610   1.057  -5.945  1.00  0.00     0.261 C 
BRANCH  31  32
ATOM     32  O   UNL     1       2.009  -0.206  -6.221  1.00  0.00    -0.460 OA
BRANCH  32  33
ATOM     33  C   UNL     1       2.706  -1.007  -7.060  1.00  0.00     0.338 C 
ATOM     34  O   UNL     1       3.763  -0.778  -7.604  1.00  0.00    -0.246 OA
BRANCH  33  35
ATOM     35  C   UNL     1       2.036  -2.323  -7.067  1.00  0.00     0.060 A 
ATOM     36  C   UNL     1       2.766  -3.445  -6.653  1.00  0.00     0.016 A 
ATOM     37  C   UNL     1       0.701  -2.443  -7.456  1.00  0.00     0.016 A 
ATOM     38  C   UNL     1       2.166  -4.697  -6.631  1.00  0.00     0.010 A 
ATOM     39  C   UNL     1       0.113  -3.707  -7.484  1.00  0.00     0.010 A 
ATOM     40  C   UNL     1       0.856  -4.838  -7.101  1.00  0.00    -0.014 A 
BRANCH  40  41
ATOM     41  C   UNL     1       0.363  -6.191  -7.427  1.00  0.00     0.031 A 
ATOM     42  C   UNL     1       0.536  -6.672  -8.839  1.00  0.00     0.074 A 
ATOM     43  C   UNL     1      -0.183  -6.981  -6.490  1.00  0.00     0.049 A 
ATOM     44  N   UNL     1       0.148  -7.791  -9.391  1.00  0.00    -0.248 NA
ATOM     45  C   UNL     1       1.245  -5.761  -9.754  1.00  0.00     0.031 C 
ATOM     46  C   UNL     1      -0.345  -6.634  -5.080  1.00  0.00     0.029 A 
ATOM     47  N   UNL     1      -0.713  -8.241  -6.595  1.00  0.00    -0.354 N 
ATOM     48  C   UNL     1       0.561  -7.716 -10.714  1.00  0.00     0.074 A 
ATOM     49  C   UNL     1       1.199  -6.431 -10.894  1.00  0.00     0.031 C 
ATOM     50  C   UNL     1      -0.958  -7.652  -4.452  1.00  0.00     0.029 A 
ATOM     51  C   UNL     1      -1.260  -8.703  -5.424  1.00  0.00     0.049 A 
ATOM     52  H   UNL     1      -0.702  -8.763  -7.429  1.00  0.00     0.167 HD
ATOM     53  C   UNL     1       0.426  -8.643 -11.689  1.00  0.00     0.037 A 
ATOM     54  C   UNL     1      -1.951  -9.833  -5.184  1.00  0.00     0.037 A 
ATOM     55  C   UNL     1      -0.223  -9.912 -11.502  1.00  0.00     0.049 A 
ATOM     56  C   UNL     1      -2.169 -10.812  -6.311  1.00  0.00     0.074 A 
ATOM     57  C   UNL     1      -0.417 -10.926 -12.422  1.00  0.00     0.029 A 
ATOM     58  N   UNL     1      -0.796 -10.335 -10.311  1.00  0.00    -0.354 N 
ATOM     59  N   UNL     1      -1.764 -10.749  -7.557  1.00  0.00    -0.248 NA
ATOM     60  C   UNL     1      -2.939 -12.023  -5.996  1.00  0.00     0.031 C 
ATOM     61  C   UNL     1      -1.161 -11.936 -11.805  1.00  0.00     0.029 A 
ATOM     62  C   UNL     1      -1.369 -11.584 -10.480  1.00  0.00     0.049 A 
ATOM     63  H   UNL     1      -0.796  -9.822  -9.470  1.00  0.00     0.167 HD
ATOM     64  C   UNL     1      -2.199 -11.921  -8.164  1.00  0.00     0.074 A 
ATOM     65  C   UNL     1      -2.887 -12.684  -7.144  1.00  0.00     0.031 C 
ATOM     66  C   UNL     1      -2.042 -12.332  -9.447  1.00  0.00     0.037 A 
BRANCH  53  67
ATOM     67  C   UNL     1       0.959  -8.298 -13.049  1.00  0.00     0.064 A 
ATOM     68  C   UNL     1       2.336  -8.193 -13.300  1.00  0.00     0.173 A 
ATOM     69  C   UNL     1       0.079  -8.087 -14.121  1.00  0.00     0.173 A 
ATOM     70  F   UNL     1       3.219  -8.366 -12.305  1.00  0.00    -0.203 F 
ATOM     71  C   UNL     1       2.809  -7.863 -14.567  1.00  0.00     0.198 A 
ATOM     72  C   UNL     1       0.557  -7.791 -15.394  1.00  0.00     0.198 A 
ATOM     73  F   UNL     1      -1.247  -8.173 -13.935  1.00  0.00    -0.203 F 
ATOM     74  F   UNL     1       4.126  -7.716 -14.771  1.00  0.00    -0.200 F 
ATOM     75  C   UNL     1       1.921  -7.671 -15.614  1.00  0.00     0.200 A 
ATOM     76  F   UNL     1      -0.302  -7.618 -16.407  1.00  0.00    -0.200 F 
ATOM     77  F   UNL     1       2.379  -7.362 -16.835  1.00  0.00    -0.200 F 
ENDBRANCH  53  67
BRANCH  54  78
ATOM     78  C   UNL     1      -2.507 -10.093  -3.830  1.00  0.00     0.064 A 
ATOM     79  C   UNL     1      -2.039 -11.154  -3.043  1.00  0.00     0.173 A 
ATOM     80  C   UNL     1      -3.539  -9.300  -3.305  1.00  0.00     0.173 A 
ATOM     81  F   UNL     1      -1.071 -11.956  -3.509  1.00  0.00    -0.203 F 
ATOM     82  C   UNL     1      -2.598 -11.428  -1.796  1.00  0.00     0.198 A 
ATOM     83  C   UNL     1      -4.074  -9.554  -2.044  1.00  0.00     0.198 A 
ATOM     84  F   UNL     1      -4.025  -8.272  -4.017  1.00  0.00    -0.203 F 
ATOM     85  F   UNL     1      -2.169 -12.482  -1.089  1.00  0.00    -0.200 F 
ATOM     86  C   UNL     1      -3.611 -10.624  -1.295  1.00  0.00     0.200 A 
ATOM     87  F   UNL     1      -5.043  -8.765  -1.559  1.00  0.00    -0.200 F 
ATOM     88  F   UNL     1      -4.146 -10.886  -0.095  1.00  0.00    -0.200 F 
ENDBRANCH  54  78
BRANCH  66  89
ATOM     89  C   UNL     1      -2.582 -13.686  -9.812  1.00  0.00     0.064 A 
ATOM     90  C   UNL     1      -3.959 -13.940  -9.889  1.00  0.00     0.173 A 
ATOM     91  C   UNL     1      -1.704 -14.732 -10.138  1.00  0.00     0.173 A 
ATOM     92  F   UNL     1      -4.841 -12.978  -9.577  1.00  0.00    -0.203 F 
ATOM     93  C   UNL     1      -4.436 -15.198 -10.247  1.00  0.00     0.198 A 
ATOM     94  C   UNL     1      -2.185 -15.977 -10.532  1.00  0.00     0.198 A 
ATOM     95  F   UNL     1      -0.377 -14.541 -10.092  1.00  0.00    -0.203 F 
ATOM     96  F   UNL     1      -5.756 -15.432 -10.261  1.00  0.00    -0.200 F 
ATOM     97  C   UNL     1      -3.550 -16.212 -10.577  1.00  0.00     0.200 A 
ATOM     98  F   UNL     1      -1.326 -16.949 -10.869  1.00  0.00    -0.200 F 
ATOM     99  F   UNL     1      -4.012 -17.419 -10.932  1.00  0.00    -0.200 F 
ENDBRANCH  66  89
ENDBRANCH  40  41
ENDBRANCH  33  35
ENDBRANCH  32  33
ENDBRANCH  31  32
ENDBRANCH  30  31
ENDBRANCH  29  30
ENDBRANCH  28  29
ENDBRANCH  27  28
ENDBRANCH  26  27
ENDBRANCH   1  26
TORSDOF 24
