REMARK SMILES Cc1ccc(Oc2cc(C(=O)OCCOCCOCCOCCOC(=O)c3ccc(-c4c5nc(c(-c6c(F)c(F)c(F)c(F)c6F)c6ccc([nH]6)c(-c6c(F)c(F)c(F)c(F)c6F)c6nc(c(-c7c(F)c(F)c(F)c(F)c7F)c7ccc4[nH]7)C=C6)C=C5)cc3)nc3ccccc23)cc1
REMARK SMILES IDX 18 1 17 2 16 3 15 4 14 5 13 6 12 7 10 8 11 9 9 10 7 11 8 12
REMARK SMILES IDX 96 13 91 14 95 15 90 16 92 17 94 18 93 19 6 20 5 21 1 22
REMARK SMILES IDX 2 23 3 24 98 25 4 26 97 27 19 28 20 29 21 30 22 31 23 32
REMARK SMILES IDX 24 33 25 34 26 35 27 36 28 37 89 38 29 39 88 40 30 41 31 42
REMARK SMILES IDX 32 43 82 44 33 45 87 46 81 47 83 48 34 49 86 50 80 51 79 52
REMARK SMILES IDX 35 54 67 55 47 56 66 57 48 58 51 59 65 60 84 61 49 62 50 63
REMARK SMILES IDX 64 65 85 66 52 67 36 68 37 69 45 70 38 71 39 72 43 73 46 74
REMARK SMILES IDX 40 75 41 76 44 77 42 78 68 79 69 80 77 81 70 82 71 83 75 84
REMARK SMILES IDX 78 85 72 86 73 87 76 88 74 89 53 90 54 91 62 92 55 93 56 94
REMARK SMILES IDX 60 95 63 96 57 97 58 98 61 99 59 100
REMARK H PARENT 83 53 51 64
REMARK Flexibility Score: inf
ROOT
ATOM      1  O   UNL     1      -8.210   2.569   0.045  1.00  0.00    -0.377 OA
ENDROOT
BRANCH   1   2
ATOM      2  C   UNL     1      -8.114   1.401   0.864  1.00  0.00     0.188 C 
BRANCH   2   3
ATOM      3  C   UNL     1      -8.574   1.043   2.466  1.00  0.00     0.188 C 
BRANCH   3   4
ATOM      4  O   UNL     1      -8.915   1.875   4.044  1.00  0.00    -0.376 OA
BRANCH   4   5
ATOM      5  C   UNL     1      -8.549   3.460   4.756  1.00  0.00     0.202 C 
BRANCH   5   6
ATOM      6  C   UNL     1      -7.048   4.551   4.414  1.00  0.00     0.261 C 
BRANCH   6   7
ATOM      7  O   UNL     1      -5.559   4.005   3.520  1.00  0.00    -0.459 OA
BRANCH   7   8
ATOM      8  C   UNL     1      -4.750   2.828   3.023  1.00  0.00     0.357 C 
ATOM      9  O   UNL     1      -4.330   1.903   3.734  1.00  0.00    -0.244 OA
BRANCH   8  10
ATOM     10  C   UNL     1      -4.397   2.436   1.529  1.00  0.00     0.152 A 
ATOM     11  C   UNL     1      -3.514   0.845  -0.019  1.00  0.00     0.139 A 
ATOM     12  C   UNL     1      -3.992   1.142   1.263  1.00  0.00     0.084 A 
ATOM     13  C   UNL     1      -3.559   1.762  -1.091  1.00  0.00     0.043 A 
ATOM     14  C   UNL     1      -4.059   3.012  -0.765  1.00  0.00     0.075 A 
ATOM     15  C   UNL     1      -3.045   1.543  -2.397  1.00  0.00     0.014 A 
ATOM     16  N   UNL     1      -4.381   3.322   0.504  1.00  0.00    -0.240 NA
ATOM     17  C   UNL     1      -4.147   3.980  -1.766  1.00  0.00     0.029 A 
ATOM     18  C   UNL     1      -3.062   2.553  -3.360  1.00  0.00     0.001 A 
ATOM     19  C   UNL     1      -3.645   3.771  -3.051  1.00  0.00     0.002 A 
BRANCH  11  20
ATOM     20  O   UNL     1      -2.819  -0.337  -0.150  1.00  0.00    -0.457 OA
BRANCH  20  21
ATOM     21  C   UNL     1      -1.446  -0.223  -0.012  1.00  0.00     0.127 A 
ATOM     22  C   UNL     1       2.848  -0.160   0.066  1.00  0.00     0.044 C 
ATOM     23  C   UNL     1       1.352  -0.183   0.071  1.00  0.00    -0.051 A 
ATOM     24  C   UNL     1       0.659  -1.395  -0.057  1.00  0.00     0.007 A 
ATOM     25  C   UNL     1       0.636   1.005   0.205  1.00  0.00     0.007 A 
ATOM     26  C   UNL     1      -0.736  -1.414  -0.106  1.00  0.00     0.047 A 
ATOM     27  C   UNL     1      -0.753   0.984   0.176  1.00  0.00     0.047 A 
ENDBRANCH  20  21
ENDBRANCH  11  20
ENDBRANCH   8  10
ENDBRANCH   7   8
ENDBRANCH   6   7
ENDBRANCH   5   6
ENDBRANCH   4   5
ENDBRANCH   3   4
ENDBRANCH   2   3
ENDBRANCH   1   2
BRANCH   1  28
ATOM     28  C   UNL     1      -9.343   2.996  -0.694  1.00  0.00     0.188 C 
BRANCH  28  29
ATOM     29  C   UNL     1     -10.391   1.991  -1.082  1.00  0.00     0.188 C 
BRANCH  29  30
ATOM     30  O   UNL     1     -10.599   1.147   0.031  1.00  0.00    -0.376 OA
BRANCH  30  31
ATOM     31  C   UNL     1     -11.270  -0.059  -0.257  1.00  0.00     0.202 C 
BRANCH  31  32
ATOM     32  C   UNL     1     -12.746   0.206  -0.560  1.00  0.00     0.261 C 
BRANCH  32  33
ATOM     33  O   UNL     1     -13.373   0.881   0.561  1.00  0.00    -0.460 OA
BRANCH  33  34
ATOM     34  C   UNL     1     -13.461   2.260   0.496  1.00  0.00     0.338 C 
ATOM     35  O   UNL     1     -13.974   2.875  -0.404  1.00  0.00    -0.246 OA
BRANCH  34  36
ATOM     36  C   UNL     1     -12.591   2.869   1.565  1.00  0.00     0.060 A 
ATOM     37  C   UNL     1     -11.952   4.117   1.477  1.00  0.00     0.016 A 
ATOM     38  C   UNL     1     -12.094   2.022   2.488  1.00  0.00     0.016 A 
ATOM     39  C   UNL     1     -10.594   4.337   1.976  1.00  0.00     0.010 A 
ATOM     40  C   UNL     1     -10.766   2.232   2.841  1.00  0.00     0.010 A 
ATOM     41  C   UNL     1      -9.793   3.295   2.456  1.00  0.00    -0.014 A 
BRANCH  41  42
ATOM     42  C   UNL     1      -7.915   3.298   2.586  1.00  0.00     0.031 A 
ATOM     43  C   UNL     1      -6.923   2.166   3.918  1.00  0.00     0.074 A 
ATOM     44  C   UNL     1      -7.387   4.367   1.767  1.00  0.00     0.049 A 
ATOM     45  N   UNL     1      -6.293   2.672   5.027  1.00  0.00    -0.248 NA
ATOM     46  C   UNL     1      -7.076   0.671   4.580  1.00  0.00     0.031 C 
ATOM     47  C   UNL     1      -6.021   4.822   1.437  1.00  0.00     0.029 A 
ATOM     48  N   UNL     1      -8.049   5.436   1.068  1.00  0.00    -0.354 N 
ATOM     49  C   UNL     1      -5.768   1.857   5.973  1.00  0.00     0.074 A 
ATOM     50  C   UNL     1      -6.491   0.657   5.787  1.00  0.00     0.031 C 
ATOM     51  C   UNL     1      -5.867   5.904   0.693  1.00  0.00     0.029 A 
ATOM     52  C   UNL     1      -7.120   6.499   0.806  1.00  0.00     0.049 A 
ATOM     53  H   UNL     1      -8.998   5.439   0.808  1.00  0.00     0.167 HD
ATOM     54  C   UNL     1      -4.687   2.233   6.727  1.00  0.00     0.037 A 
ATOM     55  C   UNL     1      -7.136   7.740   1.353  1.00  0.00     0.037 A 
ATOM     56  C   UNL     1      -4.008   3.445   6.211  1.00  0.00     0.049 A 
ATOM     57  C   UNL     1      -6.121   7.960   2.503  1.00  0.00     0.074 A 
ATOM     58  C   UNL     1      -2.930   3.565   5.339  1.00  0.00     0.029 A 
ATOM     59  N   UNL     1      -4.546   4.730   6.293  1.00  0.00    -0.354 N 
ATOM     60  N   UNL     1      -5.727   7.069   3.396  1.00  0.00    -0.248 NA
ATOM     61  C   UNL     1      -5.351   9.199   2.601  1.00  0.00     0.031 C 
ATOM     62  C   UNL     1      -2.947   4.856   4.752  1.00  0.00     0.029 A 
ATOM     63  C   UNL     1      -3.953   5.593   5.358  1.00  0.00     0.049 A 
ATOM     64  H   UNL     1      -5.252   4.997   6.925  1.00  0.00     0.167 HD
ATOM     65  C   UNL     1      -4.756   7.623   4.226  1.00  0.00     0.074 A 
ATOM     66  C   UNL     1      -4.536   8.938   3.638  1.00  0.00     0.031 C 
ATOM     67  C   UNL     1      -4.165   7.042   5.335  1.00  0.00     0.037 A 
BRANCH  54  68
ATOM     68  C   UNL     1      -4.017   1.187   7.596  1.00  0.00     0.064 A 
ATOM     69  C   UNL     1      -2.618   1.048   7.651  1.00  0.00     0.173 A 
ATOM     70  C   UNL     1      -4.741   0.234   8.342  1.00  0.00     0.173 A 
ATOM     71  F   UNL     1      -1.797   1.967   7.130  1.00  0.00    -0.203 F 
ATOM     72  C   UNL     1      -2.001  -0.050   8.256  1.00  0.00     0.198 A 
ATOM     73  C   UNL     1      -4.129  -0.890   8.907  1.00  0.00     0.198 A 
ATOM     74  F   UNL     1      -6.060   0.376   8.544  1.00  0.00    -0.203 F 
ATOM     75  F   UNL     1      -0.664  -0.145   8.252  1.00  0.00    -0.200 F 
ATOM     76  C   UNL     1      -2.758  -1.042   8.843  1.00  0.00     0.200 A 
ATOM     77  F   UNL     1      -4.877  -1.832   9.501  1.00  0.00    -0.200 F 
ATOM     78  F   UNL     1      -2.167  -2.123   9.372  1.00  0.00    -0.200 F 
ENDBRANCH  54  68
BRANCH  55  79
ATOM     79  C   UNL     1      -8.432   8.346   0.993  1.00  0.00     0.064 A 
ATOM     80  C   UNL     1      -8.720   8.310  -0.404  1.00  0.00     0.173 A 
ATOM     81  C   UNL     1      -9.492   8.224   1.885  1.00  0.00     0.173 A 
ATOM     82  F   UNL     1      -7.718   8.412  -1.297  1.00  0.00    -0.203 F 
ATOM     83  C   UNL     1      -9.952   7.856  -0.859  1.00  0.00     0.198 A 
ATOM     84  C   UNL     1     -10.748   7.847   1.411  1.00  0.00     0.198 A 
ATOM     85  F   UNL     1      -9.260   8.239   3.204  1.00  0.00    -0.203 F 
ATOM     86  F   UNL     1     -10.110   7.522  -2.149  1.00  0.00    -0.200 F 
ATOM     87  C   UNL     1     -10.953   7.591   0.056  1.00  0.00     0.200 A 
ATOM     88  F   UNL     1     -11.717   7.548   2.287  1.00  0.00    -0.200 F 
ATOM     89  F   UNL     1     -12.084   6.997  -0.352  1.00  0.00    -0.200 F 
ENDBRANCH  55  79
BRANCH  67  90
ATOM     90  C   UNL     1      -3.493   7.808   6.487  1.00  0.00     0.064 A 
ATOM     91  C   UNL     1      -3.710   9.168   6.758  1.00  0.00     0.173 A 
ATOM     92  C   UNL     1      -2.727   7.130   7.482  1.00  0.00     0.173 A 
ATOM     93  F   UNL     1      -4.514   9.918   5.996  1.00  0.00    -0.203 F 
ATOM     94  C   UNL     1      -3.157   9.806   7.875  1.00  0.00     0.198 A 
ATOM     95  C   UNL     1      -2.246   7.751   8.632  1.00  0.00     0.198 A 
ATOM     96  F   UNL     1      -2.438   5.825   7.410  1.00  0.00    -0.203 F 
ATOM     97  F   UNL     1      -3.356  11.120   8.046  1.00  0.00    -0.200 F 
ATOM     98  C   UNL     1      -2.442   9.097   8.819  1.00  0.00     0.200 A 
ATOM     99  F   UNL     1      -1.615   7.023   9.565  1.00  0.00    -0.200 F 
ATOM    100  F   UNL     1      -1.967   9.702   9.915  1.00  0.00    -0.200 F 
ENDBRANCH  67  90
ENDBRANCH  41  42
ENDBRANCH  34  36
ENDBRANCH  33  34
ENDBRANCH  32  33
ENDBRANCH  31  32
ENDBRANCH  30  31
ENDBRANCH  29  30
ENDBRANCH  28  29
ENDBRANCH   1  28
TORSDOF 22
