REMARK SMILES COc1ccc(C[N@@H+]2C[C@@H](C(=O)OCCOCCOCCOCCOC(=O)c3ccc(-c4c5nc(c(-c6c(F)c(F)c(F)c(F)c6F)c6ccc([nH]6)c(-c6c(F)c(F)c(F)c(F)c6F)c6nc(c(-c7c(F)c(F)c(F)c(F)c7F)c7ccc4[nH]7)C=C6)C=C5)cc3)[C@H](c3ccccc3OC)C2)c(OC)c1
REMARK SMILES IDX 18 1 17 2 16 3 15 4 14 5 13 6 11 7 12 8 10 9 8 10 9 11
REMARK SMILES IDX 100 12 91 14 7 15 6 16 3 17 4 18 104 19 5 20 101 21 2 22
REMARK SMILES IDX 1 23 102 24 103 25 92 26 93 27 97 28 94 29 96 30 95 31 98 32
REMARK SMILES IDX 99 33 19 34 20 35 21 36 22 37 23 38 24 39 25 40 26 41 27 42
REMARK SMILES IDX 28 43 29 44 90 45 30 46 89 47 31 48 32 49 33 50 83 51 34 52
REMARK SMILES IDX 88 53 82 54 84 55 35 56 87 57 81 58 80 59 36 61 68 62 48 63
REMARK SMILES IDX 67 64 49 65 52 66 66 67 85 68 50 69 51 70 65 72 86 73 53 74
REMARK SMILES IDX 37 75 38 76 46 77 39 78 40 79 44 80 47 81 41 82 42 83 45 84
REMARK SMILES IDX 43 85 69 86 70 87 78 88 71 89 72 90 76 91 79 92 73 93 74 94
REMARK SMILES IDX 77 95 75 96 54 97 55 98 63 99 56 100 57 101 61 102 64 103
REMARK SMILES IDX 58 104 59 105 62 106 60 107
REMARK H PARENT 8 13 84 60 52 71
REMARK Flexibility Score: inf
ROOT
ATOM      1  C   UNL     1      -2.178   8.162  -0.096  1.00  0.00     0.188 C 
ENDROOT
BRANCH   1   2
ATOM      2  C   UNL     1      -2.061   8.915  -1.428  1.00  0.00     0.188 C 
BRANCH   2   3
ATOM      3  O   UNL     1      -2.985   8.444  -2.400  1.00  0.00    -0.376 OA
BRANCH   3   4
ATOM      4  C   UNL     1      -2.531   7.421  -3.272  1.00  0.00     0.202 C 
BRANCH   4   5
ATOM      5  C   UNL     1      -2.159   6.066  -2.655  1.00  0.00     0.261 C 
BRANCH   5   6
ATOM      6  O   UNL     1      -0.986   5.945  -1.816  1.00  0.00    -0.463 OA
BRANCH   6   7
ATOM      7  C   UNL     1       0.162   6.633  -2.049  1.00  0.00     0.315 C 
ATOM      8  O   UNL     1       0.301   7.520  -2.876  1.00  0.00    -0.252 OA
BRANCH   7   9
ATOM      9  C   UNL     1       1.232   6.193  -1.089  1.00  0.00     0.167 C 
ATOM     10  N   UNL     1       2.495   6.993   0.765  1.00  0.00    -0.330 N 
ATOM     11  C   UNL     1       1.202   7.126   0.115  1.00  0.00     0.278 C 
ATOM     12  C   UNL     1       3.449   6.766  -0.333  1.00  0.00     0.272 C 
ATOM     13  H   UNL     1       2.762   7.834   1.276  1.00  0.00     0.348 HD
ATOM     14  C   UNL     1       2.680   6.302  -1.609  1.00  0.00     0.098 C 
BRANCH  10  15
ATOM     15  C   UNL     1       2.518   6.032   1.893  1.00  0.00     0.303 C 
BRANCH  15  16
ATOM     16  C   UNL     1       2.005   4.623   1.640  1.00  0.00     0.048 A 
ATOM     17  C   UNL     1       0.985   2.183   0.686  1.00  0.00     0.122 A 
ATOM     18  C   UNL     1       0.117   3.171   1.138  1.00  0.00     0.047 A 
ATOM     19  C   UNL     1       2.364   2.366   0.815  1.00  0.00     0.093 A 
ATOM     20  C   UNL     1       0.620   4.368   1.643  1.00  0.00     0.017 A 
ATOM     21  C   UNL     1       2.877   3.571   1.320  1.00  0.00     0.131 A 
BRANCH  17  22
ATOM     22  O   UNL     1       0.376   1.126   0.068  1.00  0.00    -0.497 OA
ATOM     23  C   UNL     1       1.037  -0.127   0.168  1.00  0.00     0.278 C 
ENDBRANCH  17  22
BRANCH  21  24
ATOM     24  O   UNL     1       4.212   3.837   1.480  1.00  0.00    -0.496 OA
ATOM     25  C   UNL     1       5.095   2.726   1.536  1.00  0.00     0.278 C 
ENDBRANCH  21  24
ENDBRANCH  15  16
ENDBRANCH  10  15
BRANCH  14  26
ATOM     26  C   UNL     1       3.145   5.025  -2.315  1.00  0.00     0.004 A 
ATOM     27  C   UNL     1       4.089   4.158  -1.755  1.00  0.00     0.008 A 
ATOM     28  C   UNL     1       2.623   4.655  -3.571  1.00  0.00     0.122 A 
ATOM     29  C   UNL     1       4.371   2.911  -2.315  1.00  0.00     0.001 A 
ATOM     30  C   UNL     1       2.833   3.374  -4.099  1.00  0.00     0.047 A 
ATOM     31  C   UNL     1       3.692   2.488  -3.448  1.00  0.00     0.004 A 
BRANCH  28  32
ATOM     32  O   UNL     1       2.215   5.675  -4.393  1.00  0.00    -0.496 OA
ATOM     33  C   UNL     1       0.893   5.592  -4.895  1.00  0.00     0.278 C 
ENDBRANCH  28  32
ENDBRANCH  14  26
ENDBRANCH   7   9
ENDBRANCH   6   7
ENDBRANCH   5   6
ENDBRANCH   4   5
ENDBRANCH   3   4
ENDBRANCH   2   3
ENDBRANCH   1   2
BRANCH   1  34
ATOM     34  O   UNL     1      -3.210   7.196  -0.030  1.00  0.00    -0.377 OA
BRANCH  34  35
ATOM     35  C   UNL     1      -4.561   7.633  -0.034  1.00  0.00     0.188 C 
BRANCH  35  36
ATOM     36  C   UNL     1      -4.944   9.112  -0.270  1.00  0.00     0.188 C 
BRANCH  36  37
ATOM     37  O   UNL     1      -3.977  10.055   0.154  1.00  0.00    -0.376 OA
BRANCH  37  38
ATOM     38  C   UNL     1      -4.108  10.760   1.368  1.00  0.00     0.202 C 
BRANCH  38  39
ATOM     39  C   UNL     1      -4.086   9.963   2.677  1.00  0.00     0.261 C 
BRANCH  39  40
ATOM     40  O   UNL     1      -4.963   8.836   2.741  1.00  0.00    -0.460 OA
BRANCH  40  41
ATOM     41  C   UNL     1      -6.288   9.079   2.670  1.00  0.00     0.338 C 
ATOM     42  O   UNL     1      -6.841  10.161   2.584  1.00  0.00    -0.246 OA
BRANCH  41  43
ATOM     43  C   UNL     1      -6.953   7.772   2.501  1.00  0.00     0.060 A 
ATOM     44  C   UNL     1      -7.739   7.558   1.360  1.00  0.00     0.016 A 
ATOM     45  C   UNL     1      -6.740   6.745   3.425  1.00  0.00     0.016 A 
ATOM     46  C   UNL     1      -8.339   6.319   1.155  1.00  0.00     0.010 A 
ATOM     47  C   UNL     1      -7.375   5.518   3.241  1.00  0.00     0.010 A 
ATOM     48  C   UNL     1      -8.207   5.318   2.125  1.00  0.00    -0.014 A 
BRANCH  48  49
ATOM     49  C   UNL     1      -9.166   4.194   2.116  1.00  0.00     0.031 A 
ATOM     50  C   UNL     1     -10.439   4.372   2.895  1.00  0.00     0.074 A 
ATOM     51  C   UNL     1      -8.939   3.074   1.412  1.00  0.00     0.049 A 
ATOM     52  N   UNL     1     -11.432   3.542   3.073  1.00  0.00    -0.248 NA
ATOM     53  C   UNL     1     -10.612   5.673   3.566  1.00  0.00     0.031 C 
ATOM     54  C   UNL     1      -7.767   2.819   0.579  1.00  0.00     0.029 A 
ATOM     55  N   UNL     1      -9.696   1.937   1.293  1.00  0.00    -0.354 N 
ATOM     56  C   UNL     1     -12.343   4.219   3.873  1.00  0.00     0.074 A 
ATOM     57  C   UNL     1     -11.774   5.513   4.175  1.00  0.00     0.031 C 
ATOM     58  C   UNL     1      -7.877   1.591   0.042  1.00  0.00     0.029 A 
ATOM     59  C   UNL     1      -9.110   0.967   0.520  1.00  0.00     0.049 A 
ATOM     60  H   UNL     1     -10.576   1.827   1.721  1.00  0.00     0.167 HD
ATOM     61  C   UNL     1     -13.552   3.800   4.311  1.00  0.00     0.037 A 
ATOM     62  C   UNL     1      -9.522  -0.288   0.256  1.00  0.00     0.037 A 
ATOM     63  C   UNL     1     -14.103   2.505   4.019  1.00  0.00     0.049 A 
ATOM     64  C   UNL     1     -10.832  -0.767   0.832  1.00  0.00     0.074 A 
ATOM     65  C   UNL     1     -15.318   1.976   4.410  1.00  0.00     0.029 A 
ATOM     66  N   UNL     1     -13.460   1.529   3.271  1.00  0.00    -0.354 N 
ATOM     67  N   UNL     1     -11.701  -0.120   1.571  1.00  0.00    -0.248 NA
ATOM     68  C   UNL     1     -11.219  -2.153   0.532  1.00  0.00     0.031 C 
ATOM     69  C   UNL     1     -15.385   0.657   3.949  1.00  0.00     0.029 A 
ATOM     70  C   UNL     1     -14.242   0.387   3.213  1.00  0.00     0.049 A 
ATOM     71  H   UNL     1     -12.579   1.633   2.844  1.00  0.00     0.167 HD
ATOM     72  C   UNL     1     -12.749  -1.004   1.798  1.00  0.00     0.074 A 
ATOM     73  C   UNL     1     -12.412  -2.231   1.104  1.00  0.00     0.031 C 
ATOM     74  C   UNL     1     -13.888  -0.821   2.511  1.00  0.00     0.037 A 
BRANCH  61  75
ATOM     75  C   UNL     1     -14.331   4.739   5.184  1.00  0.00     0.064 A 
ATOM     76  C   UNL     1     -14.892   5.924   4.684  1.00  0.00     0.173 A 
ATOM     77  C   UNL     1     -14.518   4.448   6.544  1.00  0.00     0.173 A 
ATOM     78  F   UNL     1     -14.721   6.262   3.397  1.00  0.00    -0.203 F 
ATOM     79  C   UNL     1     -15.587   6.796   5.519  1.00  0.00     0.198 A 
ATOM     80  C   UNL     1     -15.242   5.305   7.368  1.00  0.00     0.198 A 
ATOM     81  F   UNL     1     -13.998   3.331   7.074  1.00  0.00    -0.203 F 
ATOM     82  F   UNL     1     -16.065   7.949   5.032  1.00  0.00    -0.200 F 
ATOM     83  C   UNL     1     -15.768   6.481   6.857  1.00  0.00     0.200 A 
ATOM     84  F   UNL     1     -15.424   4.995   8.659  1.00  0.00    -0.200 F 
ATOM     85  F   UNL     1     -16.441   7.319   7.658  1.00  0.00    -0.200 F 
ENDBRANCH  61  75
BRANCH  62  86
ATOM     86  C   UNL     1      -8.684  -1.187  -0.582  1.00  0.00     0.064 A 
ATOM     87  C   UNL     1      -9.117  -1.613  -1.845  1.00  0.00     0.173 A 
ATOM     88  C   UNL     1      -7.443  -1.657  -0.127  1.00  0.00     0.173 A 
ATOM     89  F   UNL     1     -10.308  -1.214  -2.315  1.00  0.00    -0.203 F 
ATOM     90  C   UNL     1      -8.351  -2.490  -2.612  1.00  0.00     0.198 A 
ATOM     91  C   UNL     1      -6.664  -2.510  -0.906  1.00  0.00     0.198 A 
ATOM     92  F   UNL     1      -6.984  -1.286   1.078  1.00  0.00    -0.203 F 
ATOM     93  F   UNL     1      -8.812  -2.921  -3.794  1.00  0.00    -0.200 F 
ATOM     94  C   UNL     1      -7.123  -2.932  -2.145  1.00  0.00     0.200 A 
ATOM     95  F   UNL     1      -5.474  -2.927  -0.455  1.00  0.00    -0.200 F 
ATOM     96  F   UNL     1      -6.386  -3.773  -2.883  1.00  0.00    -0.200 F 
ENDBRANCH  62  86
BRANCH  74  97
ATOM     97  C   UNL     1     -14.873  -1.955   2.545  1.00  0.00     0.064 A 
ATOM     98  C   UNL     1     -14.613  -3.142   3.245  1.00  0.00     0.173 A 
ATOM     99  C   UNL     1     -16.114  -1.833   1.900  1.00  0.00     0.173 A 
ATOM    100  F   UNL     1     -13.438  -3.314   3.869  1.00  0.00    -0.203 F 
ATOM    101  C   UNL     1     -15.545  -4.176   3.272  1.00  0.00     0.198 A 
ATOM    102  C   UNL     1     -17.058  -2.854   1.959  1.00  0.00     0.198 A 
ATOM    103  F   UNL     1     -16.419  -0.714   1.225  1.00  0.00    -0.203 F 
ATOM    104  F   UNL     1     -15.252  -5.323   3.901  1.00  0.00    -0.200 F 
ATOM    105  C   UNL     1     -16.768  -4.029   2.636  1.00  0.00     0.200 A 
ATOM    106  F   UNL     1     -18.247  -2.701   1.360  1.00  0.00    -0.200 F 
ATOM    107  F   UNL     1     -17.667  -5.022   2.669  1.00  0.00    -0.200 F 
ENDBRANCH  74  97
ENDBRANCH  48  49
ENDBRANCH  41  43
ENDBRANCH  40  41
ENDBRANCH  39  40
ENDBRANCH  38  39
ENDBRANCH  37  38
ENDBRANCH  36  37
ENDBRANCH  35  36
ENDBRANCH  34  35
ENDBRANCH   1  34
TORSDOF 26
