REMARK SMILES O=C(OCCOCCOCCOCCOC(=O)c1cc(-c2cc(Cl)ccc2Cl)cc([N+](=O)[O-])c1)c1ccc(-c2c3nc(c(-c4c(F)c(F)c(F)c(F)c4F)c4ccc([nH]4)c(-c4c(F)c(F)c(F)c(F)c4F)c4nc(c(-c5c(F)c(F)c(F)c(F)c5F)c5ccc2[nH]5)C=C4)C=C3)cc1
REMARK SMILES IDX 8 1 7 2 6 3 5 4 4 5 3 6 2 7 1 8 35 9 36 10 97 11 37 12 96 13
REMARK SMILES IDX 38 14 39 15 40 16 90 17 41 18 95 19 89 20 91 21 42 22 94 23
REMARK SMILES IDX 88 24 87 25 43 27 75 28 55 29 74 30 56 31 59 32 73 33 92 34
REMARK SMILES IDX 57 35 58 36 72 38 93 39 60 40 44 41 45 42 53 43 46 44 47 45
REMARK SMILES IDX 51 46 54 47 48 48 49 49 52 50 50 51 76 52 77 53 85 54 78 55
REMARK SMILES IDX 79 56 83 57 86 58 80 59 81 60 84 61 82 62 61 63 62 64 70 65
REMARK SMILES IDX 63 66 64 67 68 68 71 69 65 70 66 71 69 72 67 73 9 74 10 75
REMARK SMILES IDX 11 76 12 77 13 78 14 79 15 80 16 81 17 82 18 83 19 84 34 85
REMARK SMILES IDX 20 86 30 87 29 88 21 89 22 90 27 91 23 92 26 93 28 94 24 95
REMARK SMILES IDX 25 96 31 97 32 98 33 99
REMARK H PARENT 91 26 59 37
REMARK Flexibility Score: inf
ROOT
ATOM      1  C   UNL     1       1.951   2.412  -1.407  1.00  0.00     0.188 C 
ENDROOT
BRANCH   1   2
ATOM      2  C   UNL     1       2.400   0.961  -1.238  1.00  0.00     0.188 C 
BRANCH   2   3
ATOM      3  O   UNL     1       3.745   0.876  -0.764  1.00  0.00    -0.376 OA
BRANCH   3   4
ATOM      4  C   UNL     1       4.563  -0.115  -1.390  1.00  0.00     0.202 C 
BRANCH   4   5
ATOM      5  C   UNL     1       4.316  -1.547  -0.913  1.00  0.00     0.261 C 
BRANCH   5   6
ATOM      6  O   UNL     1       2.955  -1.781  -0.525  1.00  0.00    -0.460 OA
BRANCH   6   7
ATOM      7  C   UNL     1       2.392  -1.613   0.696  1.00  0.00     0.338 C 
ATOM      8  O   UNL     1       1.207  -1.913   0.835  1.00  0.00    -0.246 OA
BRANCH   7   9
ATOM      9  C   UNL     1       3.113  -1.080   1.897  1.00  0.00     0.060 A 
ATOM     10  C   UNL     1       4.254  -0.277   1.875  1.00  0.00     0.016 A 
ATOM     11  C   UNL     1       2.543  -1.364   3.151  1.00  0.00     0.016 A 
ATOM     12  C   UNL     1       4.850   0.186   3.035  1.00  0.00     0.010 A 
ATOM     13  C   UNL     1       3.128  -0.896   4.332  1.00  0.00     0.010 A 
ATOM     14  C   UNL     1       4.305  -0.145   4.268  1.00  0.00    -0.014 A 
BRANCH  14  15
ATOM     15  C   UNL     1       5.131   0.127   5.453  1.00  0.00     0.031 A 
ATOM     16  C   UNL     1       5.902  -1.021   6.026  1.00  0.00     0.074 A 
ATOM     17  C   UNL     1       5.318   1.391   5.867  1.00  0.00     0.049 A 
ATOM     18  N   UNL     1       6.664  -1.067   7.083  1.00  0.00    -0.248 NA
ATOM     19  C   UNL     1       5.816  -2.296   5.290  1.00  0.00     0.031 C 
ATOM     20  C   UNL     1       4.731   2.578   5.240  1.00  0.00     0.029 A 
ATOM     21  N   UNL     1       6.078   1.891   6.888  1.00  0.00    -0.354 N 
ATOM     22  C   UNL     1       7.111  -2.379   7.161  1.00  0.00     0.074 A 
ATOM     23  C   UNL     1       6.545  -3.100   6.046  1.00  0.00     0.031 C 
ATOM     24  C   UNL     1       5.161   3.672   5.890  1.00  0.00     0.029 A 
ATOM     25  C   UNL     1       5.987   3.255   7.017  1.00  0.00     0.049 A 
ATOM     26  H   UNL     1       6.635   1.329   7.472  1.00  0.00     0.167 HD
ATOM     27  C   UNL     1       7.916  -2.923   8.100  1.00  0.00     0.037 A 
ATOM     28  C   UNL     1       6.482   4.055   7.979  1.00  0.00     0.037 A 
ATOM     29  C   UNL     1       8.462  -2.163   9.189  1.00  0.00     0.049 A 
ATOM     30  C   UNL     1       7.286   3.407   9.076  1.00  0.00     0.074 A 
ATOM     31  C   UNL     1       9.235  -2.594  10.249  1.00  0.00     0.029 A 
ATOM     32  N   UNL     1       8.282  -0.792   9.347  1.00  0.00    -0.354 N 
ATOM     33  N   UNL     1       7.638   2.148   9.209  1.00  0.00    -0.248 NA
ATOM     34  C   UNL     1       7.748   4.277  10.161  1.00  0.00     0.031 C 
ATOM     35  C   UNL     1       9.475  -1.493  11.078  1.00  0.00     0.029 A 
ATOM     36  C   UNL     1       8.910  -0.363  10.501  1.00  0.00     0.049 A 
ATOM     37  H   UNL     1       7.781  -0.213   8.728  1.00  0.00     0.167 HD
ATOM     38  C   UNL     1       8.376   2.076  10.380  1.00  0.00     0.074 A 
ATOM     39  C   UNL     1       8.438   3.426  10.908  1.00  0.00     0.031 C 
ATOM     40  C   UNL     1       8.948   0.999  10.975  1.00  0.00     0.037 A 
BRANCH  27  41
ATOM     41  C   UNL     1       8.151  -4.403   8.027  1.00  0.00     0.064 A 
ATOM     42  C   UNL     1       8.930  -4.992   7.019  1.00  0.00     0.173 A 
ATOM     43  C   UNL     1       7.540  -5.253   8.962  1.00  0.00     0.173 A 
ATOM     44  F   UNL     1       9.506  -4.229   6.078  1.00  0.00    -0.203 F 
ATOM     45  C   UNL     1       9.061  -6.377   6.932  1.00  0.00     0.198 A 
ATOM     46  C   UNL     1       7.697  -6.634   8.890  1.00  0.00     0.198 A 
ATOM     47  F   UNL     1       6.773  -4.744   9.937  1.00  0.00    -0.203 F 
ATOM     48  F   UNL     1       9.754  -6.921   5.921  1.00  0.00    -0.200 F 
ATOM     49  C   UNL     1       8.449  -7.196   7.870  1.00  0.00     0.200 A 
ATOM     50  F   UNL     1       7.105  -7.422   9.797  1.00  0.00    -0.200 F 
ATOM     51  F   UNL     1       8.569  -8.527   7.780  1.00  0.00    -0.200 F 
ENDBRANCH  27  41
BRANCH  28  52
ATOM     52  C   UNL     1       6.174   5.511   7.982  1.00  0.00     0.064 A 
ATOM     53  C   UNL     1       7.182   6.475   7.848  1.00  0.00     0.173 A 
ATOM     54  C   UNL     1       4.855   5.972   8.130  1.00  0.00     0.173 A 
ATOM     55  F   UNL     1       8.462   6.093   7.724  1.00  0.00    -0.203 F 
ATOM     56  C   UNL     1       6.887   7.838   7.881  1.00  0.00     0.198 A 
ATOM     57  C   UNL     1       4.557   7.333   8.129  1.00  0.00     0.198 A 
ATOM     58  F   UNL     1       3.848   5.096   8.267  1.00  0.00    -0.203 F 
ATOM     59  F   UNL     1       7.876   8.738   7.800  1.00  0.00    -0.200 F 
ATOM     60  C   UNL     1       5.574   8.266   8.014  1.00  0.00     0.200 A 
ATOM     61  F   UNL     1       3.284   7.738   8.242  1.00  0.00    -0.200 F 
ATOM     62  F   UNL     1       5.291   9.575   8.041  1.00  0.00    -0.200 F 
ENDBRANCH  28  52
BRANCH  40  63
ATOM     63  C   UNL     1       9.719   1.253  12.235  1.00  0.00     0.064 A 
ATOM     64  C   UNL     1       9.076   1.562  13.441  1.00  0.00     0.173 A 
ATOM     65  C   UNL     1      11.116   1.126  12.241  1.00  0.00     0.173 A 
ATOM     66  F   UNL     1       7.743   1.707  13.479  1.00  0.00    -0.203 F 
ATOM     67  C   UNL     1       9.809   1.759  14.607  1.00  0.00     0.198 A 
ATOM     68  C   UNL     1      11.841   1.289  13.415  1.00  0.00     0.198 A 
ATOM     69  F   UNL     1      11.773   0.822  11.111  1.00  0.00    -0.203 F 
ATOM     70  F   UNL     1       9.181   2.101  15.740  1.00  0.00    -0.200 F 
ATOM     71  C   UNL     1      11.189   1.612  14.595  1.00  0.00     0.200 A 
ATOM     72  F   UNL     1      13.172   1.127  13.406  1.00  0.00    -0.200 F 
ATOM     73  F   UNL     1      11.891   1.788  15.722  1.00  0.00    -0.200 F 
ENDBRANCH  40  63
ENDBRANCH  14  15
ENDBRANCH   7   9
ENDBRANCH   6   7
ENDBRANCH   5   6
ENDBRANCH   4   5
ENDBRANCH   3   4
ENDBRANCH   2   3
ENDBRANCH   1   2
BRANCH   1  74
ATOM     74  O   UNL     1       2.649   3.160  -2.398  1.00  0.00    -0.377 OA
BRANCH  74  75
ATOM     75  C   UNL     1       4.069   3.098  -2.369  1.00  0.00     0.188 C 
BRANCH  75  76
ATOM     76  C   UNL     1       4.818   3.510  -1.080  1.00  0.00     0.188 C 
BRANCH  76  77
ATOM     77  O   UNL     1       3.986   3.859   0.015  1.00  0.00    -0.376 OA
BRANCH  77  78
ATOM     78  C   UNL     1       3.876   5.254   0.280  1.00  0.00     0.202 C 
BRANCH  78  79
ATOM     79  C   UNL     1       3.108   6.072  -0.769  1.00  0.00     0.261 C 
BRANCH  79  80
ATOM     80  O   UNL     1       3.647   6.053  -2.106  1.00  0.00    -0.460 OA
BRANCH  80  81
ATOM     81  C   UNL     1       4.896   6.523  -2.318  1.00  0.00     0.338 C 
ATOM     82  O   UNL     1       5.644   7.027  -1.499  1.00  0.00    -0.246 OA
BRANCH  81  83
ATOM     83  C   UNL     1       5.302   6.078  -3.675  1.00  0.00     0.067 A 
ATOM     84  C   UNL     1       6.458   5.285  -3.809  1.00  0.00     0.025 A 
ATOM     85  C   UNL     1       4.483   6.323  -4.778  1.00  0.00     0.101 A 
ATOM     86  C   UNL     1       6.780   4.680  -5.036  1.00  0.00    -0.009 A 
ATOM     87  C   UNL     1       4.834   5.771  -6.015  1.00  0.00     0.270 A 
ATOM     88  C   UNL     1       5.954   4.932  -6.143  1.00  0.00     0.094 A 
BRANCH  86  89
ATOM     89  C   UNL     1       7.985   3.847  -5.177  1.00  0.00     0.002 A 
ATOM     90  C   UNL     1       7.936   2.466  -4.902  1.00  0.00     0.030 A 
ATOM     91  C   UNL     1       9.215   4.396  -5.592  1.00  0.00     0.048 A 
ATOM     92  C   UNL     1       9.083   1.673  -5.028  1.00  0.00     0.041 A 
ATOM     93  C   UNL     1      10.356   3.597  -5.718  1.00  0.00     0.023 A 
ATOM     94  Cl  UNL     1       9.373   6.078  -5.966  1.00  0.00    -0.084 Cl
ATOM     95  Cl  UNL     1       9.004  -0.010  -4.676  1.00  0.00    -0.084 Cl
ATOM     96  C   UNL     1      10.292   2.234  -5.432  1.00  0.00     0.022 A 
ENDBRANCH  86  89
BRANCH  87  97
ATOM     97  N   UNL     1       4.036   6.093  -7.204  1.00  0.00     0.062 N 
ATOM     98  O   UNL     1       4.457   5.702  -8.302  1.00  0.00    -0.258 OA
ATOM     99  O   UNL     1       3.001   6.753  -7.040  1.00  0.00    -0.258 OA
ENDBRANCH  87  97
ENDBRANCH  81  83
ENDBRANCH  80  81
ENDBRANCH  79  80
ENDBRANCH  78  79
ENDBRANCH  77  78
ENDBRANCH  76  77
ENDBRANCH  75  76
ENDBRANCH  74  75
ENDBRANCH   1  74
TORSDOF 22
