REMARK SMILES COc1c(N)cc(-c2ccccc2)cc1C(=O)OCCOCCOCCOCCOC(=O)c1ccc(-c2c3nc(c(-c4c(F)c(F)c(F)c(F)c4F)c4ccc([nH]4)c(-c4c(F)c(F)c(F)c(F)c4F)c4nc(c(-c5c(F)c(F)c(F)c(F)c5F)c5ccc2[nH]5)C=C4)C=C3)cc1
REMARK SMILES IDX 25 1 24 2 23 3 22 4 21 5 20 6 19 7 18 8 16 9 17 10 15 11
REMARK SMILES IDX 3 12 4 13 6 14 14 15 7 16 2 17 1 18 5 19 8 22 9 23 13 24
REMARK SMILES IDX 10 25 12 26 11 27 26 28 27 29 28 30 29 31 30 32 31 33 32 34
REMARK SMILES IDX 33 35 34 36 95 37 35 38 94 39 36 40 37 41 38 42 88 43 39 44
REMARK SMILES IDX 93 45 87 46 89 47 40 48 92 49 86 50 85 51 41 53 73 54 53 55
REMARK SMILES IDX 72 56 54 57 57 58 71 59 90 60 55 61 56 62 70 64 91 65 58 66
REMARK SMILES IDX 42 67 43 68 51 69 44 70 45 71 49 72 52 73 46 74 47 75 50 76
REMARK SMILES IDX 48 77 74 78 75 79 83 80 76 81 77 82 81 83 84 84 78 85 79 86
REMARK SMILES IDX 82 87 80 88 59 89 60 90 68 91 61 92 62 93 66 94 69 95 63 96
REMARK SMILES IDX 64 97 67 98 65 99
REMARK H PARENT 5 20 5 21 89 52 57 63
REMARK Flexibility Score: inf
ROOT
ATOM      1  C   UNL     1      -3.578   1.110  -0.529  1.00  0.00     0.188 C 
ENDROOT
BRANCH   1   2
ATOM      2  O   UNL     1      -2.260   1.209  -1.060  1.00  0.00    -0.377 OA
BRANCH   2   3
ATOM      3  C   UNL     1      -2.067   1.287  -2.469  1.00  0.00     0.188 C 
BRANCH   3   4
ATOM      4  C   UNL     1      -2.937   0.451  -3.436  1.00  0.00     0.188 C 
BRANCH   4   5
ATOM      5  O   UNL     1      -4.026  -0.208  -2.817  1.00  0.00    -0.376 OA
BRANCH   5   6
ATOM      6  C   UNL     1      -3.996  -1.617  -2.700  1.00  0.00     0.202 C 
BRANCH   6   7
ATOM      7  C   UNL     1      -2.832  -2.277  -1.943  1.00  0.00     0.261 C 
BRANCH   7   8
ATOM      8  O   UNL     1      -1.550  -1.662  -2.118  1.00  0.00    -0.460 OA
BRANCH   8   9
ATOM      9  C   UNL     1      -0.839  -2.042  -3.203  1.00  0.00     0.342 C 
ATOM     10  O   UNL     1      -1.205  -2.836  -4.055  1.00  0.00    -0.246 OA
BRANCH   9  11
ATOM     11  C   UNL     1       0.355  -1.177  -3.355  1.00  0.00     0.104 A 
ATOM     12  C   UNL     1       1.252  -0.896  -2.315  1.00  0.00     0.156 A 
ATOM     13  C   UNL     1       2.434  -0.183  -2.591  1.00  0.00     0.076 A 
ATOM     14  C   UNL     1       2.575   0.436  -3.837  1.00  0.00     0.038 A 
ATOM     15  C   UNL     1       0.550  -0.599  -4.623  1.00  0.00     0.028 A 
ATOM     16  C   UNL     1       1.638   0.246  -4.864  1.00  0.00    -0.015 A 
BRANCH  12  17
ATOM     17  O   UNL     1       1.012  -1.374  -1.048  1.00  0.00    -0.494 OA
ATOM     18  C   UNL     1       0.785  -0.296  -0.125  1.00  0.00     0.278 C 
ENDBRANCH  12  17
BRANCH  13  19
ATOM     19  N   UNL     1       3.414   0.021  -1.618  1.00  0.00    -0.396 N 
ATOM     20  H   UNL     1       3.329  -0.408  -0.736  1.00  0.00     0.156 HD
ATOM     21  H   UNL     1       4.191   0.594  -1.814  1.00  0.00     0.156 HD
ENDBRANCH  13  19
BRANCH  16  22
ATOM     22  C   UNL     1       1.840   0.879  -6.169  1.00  0.00    -0.018 A 
ATOM     23  C   UNL     1       2.757   0.331  -7.078  1.00  0.00     0.009 A 
ATOM     24  C   UNL     1       1.161   2.054  -6.528  1.00  0.00     0.009 A 
ATOM     25  C   UNL     1       2.997   0.941  -8.309  1.00  0.00     0.001 A 
ATOM     26  C   UNL     1       1.403   2.667  -7.762  1.00  0.00     0.001 A 
ATOM     27  C   UNL     1       2.322   2.111  -8.650  1.00  0.00     0.000 A 
ENDBRANCH  16  22
ENDBRANCH   9  11
ENDBRANCH   8   9
ENDBRANCH   7   8
ENDBRANCH   6   7
ENDBRANCH   5   6
ENDBRANCH   4   5
ENDBRANCH   3   4
ENDBRANCH   2   3
ENDBRANCH   1   2
BRANCH   1  28
ATOM     28  C   UNL     1      -4.748   1.872  -1.192  1.00  0.00     0.188 C 
BRANCH  28  29
ATOM     29  O   UNL     1      -4.375   2.648  -2.318  1.00  0.00    -0.376 OA
BRANCH  29  30
ATOM     30  C   UNL     1      -4.300   4.053  -2.153  1.00  0.00     0.202 C 
BRANCH  30  31
ATOM     31  C   UNL     1      -3.318   4.603  -1.106  1.00  0.00     0.261 C 
BRANCH  31  32
ATOM     32  O   UNL     1      -3.409   4.046   0.215  1.00  0.00    -0.460 OA
BRANCH  32  33
ATOM     33  C   UNL     1      -4.524   4.310   0.924  1.00  0.00     0.338 C 
ATOM     34  O   UNL     1      -5.483   4.984   0.576  1.00  0.00    -0.246 OA
BRANCH  33  35
ATOM     35  C   UNL     1      -4.484   3.481   2.146  1.00  0.00     0.060 A 
ATOM     36  C   UNL     1      -5.487   2.525   2.356  1.00  0.00     0.016 A 
ATOM     37  C   UNL     1      -3.456   3.643   3.078  1.00  0.00     0.016 A 
ATOM     38  C   UNL     1      -5.486   1.756   3.519  1.00  0.00     0.010 A 
ATOM     39  C   UNL     1      -3.467   2.887   4.253  1.00  0.00     0.010 A 
ATOM     40  C   UNL     1      -4.504   1.968   4.496  1.00  0.00    -0.014 A 
BRANCH  40  41
ATOM     41  C   UNL     1      -4.686   1.385   5.848  1.00  0.00     0.031 A 
ATOM     42  C   UNL     1      -5.274   2.255   6.926  1.00  0.00     0.074 A 
ATOM     43  C   UNL     1      -4.385   0.100   6.106  1.00  0.00     0.049 A 
ATOM     44  N   UNL     1      -5.530   1.976   8.179  1.00  0.00    -0.248 NA
ATOM     45  C   UNL     1      -5.619   3.630   6.533  1.00  0.00     0.031 C 
ATOM     46  C   UNL     1      -3.856  -0.855   5.138  1.00  0.00     0.029 A 
ATOM     47  N   UNL     1      -4.489  -0.619   7.271  1.00  0.00    -0.354 N 
ATOM     48  C   UNL     1      -6.066   3.138   8.720  1.00  0.00     0.074 A 
ATOM     49  C   UNL     1      -6.053   4.138   7.675  1.00  0.00     0.031 C 
ATOM     50  C   UNL     1      -3.682  -2.041   5.748  1.00  0.00     0.029 A 
ATOM     51  C   UNL     1      -4.058  -1.917   7.156  1.00  0.00     0.049 A 
ATOM     52  H   UNL     1      -4.840  -0.240   8.109  1.00  0.00     0.167 HD
ATOM     53  C   UNL     1      -6.539   3.350   9.971  1.00  0.00     0.037 A 
ATOM     54  C   UNL     1      -3.968  -2.886   8.088  1.00  0.00     0.037 A 
ATOM     55  C   UNL     1      -6.537   2.358  11.014  1.00  0.00     0.049 A 
ATOM     56  C   UNL     1      -4.413  -2.596   9.500  1.00  0.00     0.074 A 
ATOM     57  C   UNL     1      -6.991   2.471  12.316  1.00  0.00     0.029 A 
ATOM     58  N   UNL     1      -6.041   1.069  10.876  1.00  0.00    -0.354 N 
ATOM     59  N   UNL     1      -4.940  -1.505  10.001  1.00  0.00    -0.248 NA
ATOM     60  C   UNL     1      -4.256  -3.684  10.476  1.00  0.00     0.031 C 
ATOM     61  C   UNL     1      -6.714   1.272  12.982  1.00  0.00     0.029 A 
ATOM     62  C   UNL     1      -6.154   0.386  12.076  1.00  0.00     0.049 A 
ATOM     63  H   UNL     1      -5.665   0.695  10.046  1.00  0.00     0.167 HD
ATOM     64  C   UNL     1      -5.213  -1.786  11.335  1.00  0.00     0.074 A 
ATOM     65  C   UNL     1      -4.808  -3.158  11.560  1.00  0.00     0.031 C 
ATOM     66  C   UNL     1      -5.752  -0.984  12.287  1.00  0.00     0.037 A 
BRANCH  53  67
ATOM     67  C   UNL     1      -7.066   4.723  10.283  1.00  0.00     0.064 A 
ATOM     68  C   UNL     1      -8.242   5.217   9.696  1.00  0.00     0.173 A 
ATOM     69  C   UNL     1      -6.387   5.556  11.185  1.00  0.00     0.173 A 
ATOM     70  F   UNL     1      -8.922   4.469   8.814  1.00  0.00    -0.203 F 
ATOM     71  C   UNL     1      -8.694   6.506   9.968  1.00  0.00     0.198 A 
ATOM     72  C   UNL     1      -6.863   6.830  11.484  1.00  0.00     0.198 A 
ATOM     73  F   UNL     1      -5.260   5.136  11.779  1.00  0.00    -0.203 F 
ATOM     74  F   UNL     1      -9.782   6.979   9.344  1.00  0.00    -0.200 F 
ATOM     75  C   UNL     1      -8.008   7.309  10.867  1.00  0.00     0.200 A 
ATOM     76  F   UNL     1      -6.206   7.599  12.364  1.00  0.00    -0.200 F 
ATOM     77  F   UNL     1      -8.445   8.548  11.130  1.00  0.00    -0.200 F 
ENDBRANCH  53  67
BRANCH  54  78
ATOM     78  C   UNL     1      -3.442  -4.229   7.723  1.00  0.00     0.064 A 
ATOM     79  C   UNL     1      -4.266  -5.363   7.761  1.00  0.00     0.173 A 
ATOM     80  C   UNL     1      -2.098  -4.414   7.365  1.00  0.00     0.173 A 
ATOM     81  F   UNL     1      -5.552  -5.244   8.124  1.00  0.00    -0.203 F 
ATOM     82  C   UNL     1      -3.762  -6.631   7.477  1.00  0.00     0.198 A 
ATOM     83  C   UNL     1      -1.603  -5.678   7.050  1.00  0.00     0.198 A 
ATOM     84  F   UNL     1      -1.264  -3.365   7.319  1.00  0.00    -0.203 F 
ATOM     85  F   UNL     1      -4.559  -7.704   7.577  1.00  0.00    -0.200 F 
ATOM     86  C   UNL     1      -2.433  -6.787   7.116  1.00  0.00     0.200 A 
ATOM     87  F   UNL     1      -0.320  -5.822   6.691  1.00  0.00    -0.200 F 
ATOM     88  F   UNL     1      -1.948  -8.006   6.844  1.00  0.00    -0.200 F 
ENDBRANCH  54  78
BRANCH  66  89
ATOM     89  C   UNL     1      -5.987  -1.587  13.646  1.00  0.00     0.064 A 
ATOM     90  C   UNL     1      -4.929  -1.956  14.490  1.00  0.00     0.173 A 
ATOM     91  C   UNL     1      -7.295  -1.786  14.115  1.00  0.00     0.173 A 
ATOM     92  F   UNL     1      -3.658  -1.798  14.089  1.00  0.00    -0.203 F 
ATOM     93  C   UNL     1      -5.171  -2.545  15.729  1.00  0.00     0.198 A 
ATOM     94  C   UNL     1      -7.534  -2.337  15.371  1.00  0.00     0.198 A 
ATOM     95  F   UNL     1      -8.347  -1.441  13.357  1.00  0.00    -0.203 F 
ATOM     96  F   UNL     1      -4.144  -2.955  16.486  1.00  0.00    -0.200 F 
ATOM     97  C   UNL     1      -6.472  -2.729  16.171  1.00  0.00     0.200 A 
ATOM     98  F   UNL     1      -8.792  -2.496  15.804  1.00  0.00    -0.200 F 
ATOM     99  F   UNL     1      -6.703  -3.295  17.364  1.00  0.00    -0.200 F 
ENDBRANCH  66  89
ENDBRANCH  40  41
ENDBRANCH  33  35
ENDBRANCH  32  33
ENDBRANCH  31  32
ENDBRANCH  30  31
ENDBRANCH  29  30
ENDBRANCH  28  29
ENDBRANCH   1  28
TORSDOF 23
