REMARK SMILES CCCN1C(=O)/C(=C\c2ccc(C(=O)OCCOCCOCCOCCOC(=O)c3ccc(-c4c5nc(c(-c6c(F)c(F)c(F)c(F)c6F)c6ccc([nH]6)c(-c6c(F)c(F)c(F)c(F)c6F)c6nc(c(-c7c(F)c(F)c(F)c(F)c7F)c7ccc4[nH]7)C=C6)C=C5)cc3)cc2)S/C1=[NH+]\c1nnc(C)s1
REMARK SMILES IDX 20 1 19 2 18 3 17 4 16 5 15 6 13 7 14 8 12 9 9 10 10 11
REMARK SMILES IDX 94 12 11 13 93 14 8 15 4 16 5 17 96 18 6 19 7 20 95 21 97 22
REMARK SMILES IDX 3 24 2 25 1 26 98 27 99 28 103 29 100 30 101 31 102 32 21 33
REMARK SMILES IDX 22 34 23 35 24 36 25 37 26 38 27 39 28 40 29 41 30 42 31 43
REMARK SMILES IDX 92 44 32 45 91 46 33 47 34 48 35 49 85 50 36 51 90 52 84 53
REMARK SMILES IDX 86 54 37 55 89 56 83 57 82 58 38 60 70 61 50 62 69 63 51 64
REMARK SMILES IDX 54 65 68 66 87 67 52 68 53 69 67 71 88 72 55 73 39 74 40 75
REMARK SMILES IDX 48 76 41 77 42 78 46 79 49 80 43 81 44 82 47 83 45 84 71 85
REMARK SMILES IDX 72 86 80 87 73 88 74 89 78 90 81 91 75 92 76 93 79 94 77 95
REMARK SMILES IDX 56 96 57 97 65 98 58 99 59 100 63 101 66 102 60 103 61 104
REMARK SMILES IDX 64 105 62 106
REMARK H PARENT 97 23 86 59 54 70
REMARK Flexibility Score: inf
ROOT
ATOM      1  C   UNL     1      -3.032   3.854   5.186  1.00  0.00     0.188 C 
ENDROOT
BRANCH   1   2
ATOM      2  C   UNL     1      -1.919   4.897   5.396  1.00  0.00     0.188 C 
BRANCH   2   3
ATOM      3  O   UNL     1      -2.215   6.163   4.821  1.00  0.00    -0.376 OA
BRANCH   3   4
ATOM      4  C   UNL     1      -1.446   6.579   3.704  1.00  0.00     0.202 C 
BRANCH   4   5
ATOM      5  C   UNL     1      -1.631   5.797   2.396  1.00  0.00     0.261 C 
BRANCH   5   6
ATOM      6  O   UNL     1      -1.542   4.376   2.523  1.00  0.00    -0.460 OA
BRANCH   6   7
ATOM      7  C   UNL     1      -0.326   3.849   2.780  1.00  0.00     0.338 C 
ATOM      8  O   UNL     1       0.729   4.455   2.844  1.00  0.00    -0.246 OA
BRANCH   7   9
ATOM      9  C   UNL     1      -0.511   2.427   3.169  1.00  0.00     0.060 A 
ATOM     10  C   UNL     1      -0.756  -0.269   3.864  1.00  0.00    -0.024 A 
ATOM     11  C   UNL     1       0.276   0.503   4.411  1.00  0.00     0.009 A 
ATOM     12  C   UNL     1      -1.750   0.350   3.100  1.00  0.00     0.009 A 
ATOM     13  C   UNL     1       0.395   1.852   4.067  1.00  0.00     0.016 A 
ATOM     14  C   UNL     1      -1.604   1.681   2.712  1.00  0.00     0.016 A 
BRANCH  10  15
ATOM     15  C   UNL     1      -0.665  -1.731   3.936  1.00  0.00     0.031 C 
ATOM     16  N   UNL     1       0.482  -2.905   0.701  1.00  0.00    -0.219 N 
ATOM     17  C   UNL     1      -0.237  -2.005   1.444  1.00  0.00     0.321 C 
ATOM     18  C   UNL     1       0.446  -4.185   1.203  1.00  0.00     0.271 C 
ATOM     19  O   UNL     1      -0.826  -1.037   0.990  1.00  0.00    -0.250 OA
ATOM     20  C   UNL     1      -0.381  -2.477   2.855  1.00  0.00     0.100 C 
ATOM     21  S   UNL     1      -0.033  -4.159   2.901  1.00  0.00    -0.012 SA
ATOM     22  N   UNL     1       0.671  -5.212   0.451  1.00  0.00    -0.226 N 
ATOM     23  H   UNL     1       1.033  -5.113  -0.459  1.00  0.00     0.268 HD
BRANCH  16  24
ATOM     24  C   UNL     1       0.959  -2.632  -0.659  1.00  0.00     0.206 C 
BRANCH  24  25
ATOM     25  C   UNL     1       0.787  -1.223  -1.246  1.00  0.00     0.035 C 
ATOM     26  C   UNL     1       1.582  -0.125  -0.547  1.00  0.00     0.007 C 
ENDBRANCH  24  25
ENDBRANCH  16  24
BRANCH  22  27
ATOM     27  C   UNL     1       0.387  -6.433   0.970  1.00  0.00     0.345 A 
ATOM     28  N   UNL     1       1.227  -7.332   1.440  1.00  0.00     0.023 NA
ATOM     29  S   UNL     1      -1.263  -6.984   0.990  1.00  0.00    -0.044 S 
ATOM     30  N   UNL     1       0.589  -8.448   1.952  1.00  0.00    -0.067 NA
ATOM     31  C   UNL     1      -0.718  -8.368   1.836  1.00  0.00     0.135 A 
ATOM     32  C   UNL     1      -1.685  -9.357   2.375  1.00  0.00     0.083 C 
ENDBRANCH  22  27
ENDBRANCH  10  15
ENDBRANCH   7   9
ENDBRANCH   6   7
ENDBRANCH   5   6
ENDBRANCH   4   5
ENDBRANCH   3   4
ENDBRANCH   2   3
ENDBRANCH   1   2
BRANCH   1  33
ATOM     33  O   UNL     1      -4.045   4.165   4.243  1.00  0.00    -0.377 OA
BRANCH  33  34
ATOM     34  C   UNL     1      -4.822   5.349   4.421  1.00  0.00     0.188 C 
BRANCH  34  35
ATOM     35  C   UNL     1      -4.836   6.143   5.751  1.00  0.00     0.188 C 
BRANCH  35  36
ATOM     36  O   UNL     1      -4.367   5.435   6.888  1.00  0.00    -0.376 OA
BRANCH  36  37
ATOM     37  C   UNL     1      -5.332   5.021   7.840  1.00  0.00     0.202 C 
BRANCH  37  38
ATOM     38  C   UNL     1      -6.276   3.908   7.371  1.00  0.00     0.261 C 
BRANCH  38  39
ATOM     39  O   UNL     1      -7.078   4.228   6.222  1.00  0.00    -0.460 OA
BRANCH  39  40
ATOM     40  C   UNL     1      -7.949   5.252   6.347  1.00  0.00     0.338 C 
ATOM     41  O   UNL     1      -8.166   5.926   7.338  1.00  0.00    -0.246 OA
BRANCH  40  42
ATOM     42  C   UNL     1      -8.480   5.550   5.004  1.00  0.00     0.060 A 
ATOM     43  C   UNL     1      -8.286   6.827   4.464  1.00  0.00     0.016 A 
ATOM     44  C   UNL     1      -9.158   4.566   4.281  1.00  0.00     0.016 A 
ATOM     45  C   UNL     1      -8.802   7.135   3.206  1.00  0.00     0.010 A 
ATOM     46  C   UNL     1      -9.691   4.881   3.030  1.00  0.00     0.010 A 
ATOM     47  C   UNL     1      -9.544   6.176   2.503  1.00  0.00    -0.014 A 
BRANCH  47  48
ATOM     48  C   UNL     1     -10.321   6.580   1.308  1.00  0.00     0.031 A 
ATOM     49  C   UNL     1     -11.781   6.892   1.477  1.00  0.00     0.074 A 
ATOM     50  C   UNL     1      -9.745   6.672   0.099  1.00  0.00     0.049 A 
ATOM     51  N   UNL     1     -12.670   7.233   0.580  1.00  0.00    -0.248 NA
ATOM     52  C   UNL     1     -12.309   6.796   2.846  1.00  0.00     0.031 C 
ATOM     53  C   UNL     1      -8.338   6.411  -0.187  1.00  0.00     0.029 A 
ATOM     54  N   UNL     1     -10.287   6.997  -1.120  1.00  0.00    -0.354 N 
ATOM     55  C   UNL     1     -13.863   7.383   1.274  1.00  0.00     0.074 A 
ATOM     56  C   UNL     1     -13.592   7.062   2.659  1.00  0.00     0.031 C 
ATOM     57  C   UNL     1      -8.129   6.564  -1.506  1.00  0.00     0.029 A 
ATOM     58  C   UNL     1      -9.393   6.906  -2.157  1.00  0.00     0.049 A 
ATOM     59  H   UNL     1     -11.226   7.269  -1.238  1.00  0.00     0.167 HD
ATOM     60  C   UNL     1     -15.074   7.761   0.800  1.00  0.00     0.037 A 
ATOM     61  C   UNL     1      -9.584   7.056  -3.482  1.00  0.00     0.037 A 
ATOM     62  C   UNL     1     -15.340   8.071  -0.580  1.00  0.00     0.049 A 
ATOM     63  C   UNL     1     -10.949   7.428  -3.998  1.00  0.00     0.074 A 
ATOM     64  C   UNL     1     -16.520   8.509  -1.155  1.00  0.00     0.029 A 
ATOM     65  N   UNL     1     -14.414   7.955  -1.607  1.00  0.00    -0.354 N 
ATOM     66  N   UNL     1     -12.062   7.625  -3.332  1.00  0.00    -0.248 NA
ATOM     67  C   UNL     1     -11.083   7.609  -5.451  1.00  0.00     0.031 C 
ATOM     68  C   UNL     1     -16.326   8.592  -2.538  1.00  0.00     0.029 A 
ATOM     69  C   UNL     1     -15.007   8.273  -2.819  1.00  0.00     0.049 A 
ATOM     70  H   UNL     1     -13.473   7.686  -1.492  1.00  0.00     0.167 HD
ATOM     71  C   UNL     1     -13.021   7.968  -4.277  1.00  0.00     0.074 A 
ATOM     72  C   UNL     1     -12.354   7.971  -5.563  1.00  0.00     0.031 C 
ATOM     73  C   UNL     1     -14.335   8.257  -4.096  1.00  0.00     0.037 A 
BRANCH  60  74
ATOM     74  C   UNL     1     -16.209   7.811   1.783  1.00  0.00     0.064 A 
ATOM     75  C   UNL     1     -16.260   8.761   2.815  1.00  0.00     0.173 A 
ATOM     76  C   UNL     1     -17.258   6.883   1.697  1.00  0.00     0.173 A 
ATOM     77  F   UNL     1     -15.276   9.662   2.953  1.00  0.00    -0.203 F 
ATOM     78  C   UNL     1     -17.294   8.752   3.749  1.00  0.00     0.198 A 
ATOM     79  C   UNL     1     -18.308   6.899   2.611  1.00  0.00     0.198 A 
ATOM     80  F   UNL     1     -17.263   5.955   0.728  1.00  0.00    -0.203 F 
ATOM     81  F   UNL     1     -17.284   9.624   4.766  1.00  0.00    -0.200 F 
ATOM     82  C   UNL     1     -18.319   7.824   3.643  1.00  0.00     0.200 A 
ATOM     83  F   UNL     1     -19.305   6.009   2.499  1.00  0.00    -0.200 F 
ATOM     84  F   UNL     1     -19.310   7.812   4.545  1.00  0.00    -0.200 F 
ENDBRANCH  60  74
BRANCH  61  85
ATOM     85  C   UNL     1      -8.445   6.834  -4.411  1.00  0.00     0.064 A 
ATOM     86  C   UNL     1      -7.852   7.896  -5.106  1.00  0.00     0.173 A 
ATOM     87  C   UNL     1      -7.914   5.549  -4.605  1.00  0.00     0.173 A 
ATOM     88  F   UNL     1      -8.342   9.138  -4.974  1.00  0.00    -0.203 F 
ATOM     89  C   UNL     1      -6.773   7.682  -5.962  1.00  0.00     0.198 A 
ATOM     90  C   UNL     1      -6.818   5.341  -5.439  1.00  0.00     0.198 A 
ATOM     91  F   UNL     1      -8.449   4.498  -3.966  1.00  0.00    -0.203 F 
ATOM     92  F   UNL     1      -6.245   8.710  -6.639  1.00  0.00    -0.200 F 
ATOM     93  C   UNL     1      -6.251   6.407  -6.120  1.00  0.00     0.200 A 
ATOM     94  F   UNL     1      -6.309   4.109  -5.578  1.00  0.00    -0.200 F 
ATOM     95  F   UNL     1      -5.204   6.205  -6.931  1.00  0.00    -0.200 F 
ENDBRANCH  61  85
BRANCH  73  96
ATOM     96  C   UNL     1     -15.139   8.617  -5.314  1.00  0.00     0.064 A 
ATOM     97  C   UNL     1     -15.469   7.664  -6.290  1.00  0.00     0.173 A 
ATOM     98  C   UNL     1     -15.619   9.925  -5.489  1.00  0.00     0.173 A 
ATOM     99  F   UNL     1     -15.026   6.403  -6.179  1.00  0.00    -0.203 F 
ATOM    100  C   UNL     1     -16.225   8.014  -7.407  1.00  0.00     0.198 A 
ATOM    101  C   UNL     1     -16.402  10.262  -6.589  1.00  0.00     0.198 A 
ATOM    102  F   UNL     1     -15.341  10.874  -4.583  1.00  0.00    -0.203 F 
ATOM    103  F   UNL     1     -16.484   7.098  -8.351  1.00  0.00    -0.200 F 
ATOM    104  C   UNL     1     -16.697   9.309  -7.552  1.00  0.00     0.200 A 
ATOM    105  F   UNL     1     -16.872  11.511  -6.718  1.00  0.00    -0.200 F 
ATOM    106  F   UNL     1     -17.430   9.642  -8.623  1.00  0.00    -0.200 F 
ENDBRANCH  73  96
ENDBRANCH  47  48
ENDBRANCH  40  42
ENDBRANCH  39  40
ENDBRANCH  38  39
ENDBRANCH  37  38
ENDBRANCH  36  37
ENDBRANCH  35  36
ENDBRANCH  34  35
ENDBRANCH  33  34
ENDBRANCH   1  33
TORSDOF 24
