REMARK SMILES O=C(OCCOCCOCCOCCOC(=O)[C@@H]1CCCC[C@@H]1C(=O)Nc1nc(-c2ccc(Cl)c(Cl)c2)cs1)c1ccc(-c2c3nc(c(-c4c(F)c(F)c(F)c(F)c4F)c4ccc([nH]4)c(-c4c(F)c(F)c(F)c(F)c4F)c4nc(c(-c5c(F)c(F)c(F)c(F)c5F)c5ccc2[nH]5)C=C4)C=C3)cc1
REMARK SMILES IDX 10 1 9 2 8 3 7 4 6 5 5 6 4 7 3 8 2 9 1 10 40 11 41 12 102 13
REMARK SMILES IDX 42 14 101 15 43 16 44 17 45 18 95 19 46 20 100 21 94 22
REMARK SMILES IDX 96 23 47 24 99 25 93 26 92 27 48 29 80 30 60 31 79 32 61 33
REMARK SMILES IDX 64 34 78 35 97 36 62 37 63 38 77 40 98 41 65 42 49 43 50 44
REMARK SMILES IDX 58 45 51 46 52 47 56 48 59 49 53 50 54 51 57 52 55 53 81 54
REMARK SMILES IDX 82 55 90 56 83 57 84 58 88 59 91 60 85 61 86 62 89 63 87 64
REMARK SMILES IDX 66 65 67 66 75 67 68 68 69 69 73 70 76 71 70 72 71 73 74 74
REMARK SMILES IDX 72 75 11 76 12 77 13 78 14 79 15 80 16 81 17 82 18 83 19 84
REMARK SMILES IDX 23 85 20 86 22 87 21 88 24 89 25 90 26 91 27 93 28 94 39 95
REMARK SMILES IDX 29 96 38 97 30 98 31 99 37 100 32 101 35 102 33 103 36 104
REMARK SMILES IDX 34 105
REMARK H PARENT 96 28 64 39 26 92
REMARK Flexibility Score: inf
ROOT
ATOM      1  C   UNL     1       3.821   3.502  -0.695  1.00  0.00     0.188 C 
ENDROOT
BRANCH   1   2
ATOM      2  O   UNL     1       2.416   3.671  -0.793  1.00  0.00    -0.377 OA
BRANCH   2   3
ATOM      3  C   UNL     1       1.625   2.608  -0.270  1.00  0.00     0.188 C 
BRANCH   3   4
ATOM      4  C   UNL     1       2.027   1.201  -0.719  1.00  0.00     0.188 C 
BRANCH   4   5
ATOM      5  O   UNL     1       3.365   0.874  -0.334  1.00  0.00    -0.376 OA
BRANCH   5   6
ATOM      6  C   UNL     1       4.189   0.316  -1.361  1.00  0.00     0.202 C 
BRANCH   6   7
ATOM      7  C   UNL     1       4.028  -1.191  -1.527  1.00  0.00     0.261 C 
BRANCH   7   8
ATOM      8  O   UNL     1       2.698  -1.634  -1.228  1.00  0.00    -0.460 OA
BRANCH   8   9
ATOM      9  C   UNL     1       2.164  -1.903  -0.011  1.00  0.00     0.338 C 
ATOM     10  O   UNL     1       0.973  -2.207   0.041  1.00  0.00    -0.246 OA
BRANCH   9  11
ATOM     11  C   UNL     1       2.928  -1.885   1.280  1.00  0.00     0.060 A 
ATOM     12  C   UNL     1       4.100  -1.172   1.536  1.00  0.00     0.016 A 
ATOM     13  C   UNL     1       2.372  -2.618   2.345  1.00  0.00     0.016 A 
ATOM     14  C   UNL     1       4.733  -1.214   2.765  1.00  0.00     0.010 A 
ATOM     15  C   UNL     1       2.998  -2.671   3.594  1.00  0.00     0.010 A 
ATOM     16  C   UNL     1       4.203  -1.990   3.787  1.00  0.00    -0.014 A 
BRANCH  16  17
ATOM     17  C   UNL     1       5.085  -2.246   4.935  1.00  0.00     0.031 A 
ATOM     18  C   UNL     1       5.834  -3.544   4.942  1.00  0.00     0.074 A 
ATOM     19  C   UNL     1       5.363  -1.256   5.799  1.00  0.00     0.049 A 
ATOM     20  N   UNL     1       6.667  -4.021   5.825  1.00  0.00    -0.248 NA
ATOM     21  C   UNL     1       5.636  -4.419   3.770  1.00  0.00     0.031 C 
ATOM     22  C   UNL     1       4.802   0.097   5.739  1.00  0.00     0.029 A 
ATOM     23  N   UNL     1       6.217  -1.217   6.866  1.00  0.00    -0.354 N 
ATOM     24  C   UNL     1       7.073  -5.251   5.327  1.00  0.00     0.074 A 
ATOM     25  C   UNL     1       6.390  -5.462   4.073  1.00  0.00     0.031 C 
ATOM     26  C   UNL     1       5.336   0.836   6.725  1.00  0.00     0.029 A 
ATOM     27  C   UNL     1       6.215  -0.011   7.523  1.00  0.00     0.049 A 
ATOM     28  H   UNL     1       6.778  -1.979   7.137  1.00  0.00     0.167 HD
ATOM     29  C   UNL     1       7.946  -6.122   5.879  1.00  0.00     0.037 A 
ATOM     30  C   UNL     1       6.827   0.335   8.670  1.00  0.00     0.037 A 
ATOM     31  C   UNL     1       8.599  -5.875   7.134  1.00  0.00     0.049 A 
ATOM     32  C   UNL     1       7.683  -0.710   9.340  1.00  0.00     0.074 A 
ATOM     33  C   UNL     1       9.415  -6.710   7.870  1.00  0.00     0.029 A 
ATOM     34  N   UNL     1       8.500  -4.679   7.837  1.00  0.00    -0.354 N 
ATOM     35  N   UNL     1       7.987  -1.920   8.929  1.00  0.00    -0.248 NA
ATOM     36  C   UNL     1       8.272  -0.351  10.635  1.00  0.00     0.031 C 
ATOM     37  C   UNL     1       9.775  -6.033   9.041  1.00  0.00     0.029 A 
ATOM     38  C   UNL     1       9.232  -4.756   9.006  1.00  0.00     0.049 A 
ATOM     39  H   UNL     1       7.983  -3.894   7.544  1.00  0.00     0.167 HD
ATOM     40  C   UNL     1       8.815  -2.460   9.901  1.00  0.00     0.074 A 
ATOM     41  C   UNL     1       8.988  -1.431  10.909  1.00  0.00     0.031 C 
ATOM     42  C   UNL     1       9.379  -3.693   9.969  1.00  0.00     0.037 A 
BRANCH  29  43
ATOM     43  C   UNL     1       8.161  -7.422   5.162  1.00  0.00     0.064 A 
ATOM     44  C   UNL     1       8.855  -7.494   3.944  1.00  0.00     0.173 A 
ATOM     45  C   UNL     1       7.618  -8.609   5.676  1.00  0.00     0.173 A 
ATOM     46  F   UNL     1       9.362  -6.383   3.389  1.00  0.00    -0.203 F 
ATOM     47  C   UNL     1       8.972  -8.700   3.255  1.00  0.00     0.198 A 
ATOM     48  C   UNL     1       7.761  -9.817   5.000  1.00  0.00     0.198 A 
ATOM     49  F   UNL     1       6.932  -8.594   6.829  1.00  0.00    -0.203 F 
ATOM     50  F   UNL     1       9.582  -8.732   2.062  1.00  0.00    -0.200 F 
ATOM     51  C   UNL     1       8.429  -9.861   3.786  1.00  0.00     0.200 A 
ATOM     52  F   UNL     1       7.235 -10.938   5.514  1.00  0.00    -0.200 F 
ATOM     53  F   UNL     1       8.535 -11.018   3.118  1.00  0.00    -0.200 F 
ENDBRANCH  29  43
BRANCH  30  54
ATOM     54  C   UNL     1       6.591   1.669   9.287  1.00  0.00     0.064 A 
ATOM     55  C   UNL     1       7.637   2.577   9.506  1.00  0.00     0.173 A 
ATOM     56  C   UNL     1       5.309   2.049   9.719  1.00  0.00     0.173 A 
ATOM     57  F   UNL     1       8.887   2.261   9.134  1.00  0.00    -0.203 F 
ATOM     58  C   UNL     1       7.417   3.790  10.159  1.00  0.00     0.198 A 
ATOM     59  C   UNL     1       5.083   3.277  10.337  1.00  0.00     0.198 A 
ATOM     60  F   UNL     1       4.267   1.222   9.543  1.00  0.00    -0.203 F 
ATOM     61  F   UNL     1       8.448   4.607  10.415  1.00  0.00    -0.200 F 
ATOM     62  C   UNL     1       6.140   4.141  10.570  1.00  0.00     0.200 A 
ATOM     63  F   UNL     1       3.844   3.614  10.719  1.00  0.00    -0.200 F 
ATOM     64  F   UNL     1       5.931   5.302  11.205  1.00  0.00    -0.200 F 
ENDBRANCH  30  54
BRANCH  42  65
ATOM     65  C   UNL     1      10.262  -3.963  11.149  1.00  0.00     0.064 A 
ATOM     66  C   UNL     1       9.738  -4.125  12.439  1.00  0.00     0.173 A 
ATOM     67  C   UNL     1      11.647  -4.101  10.974  1.00  0.00     0.173 A 
ATOM     68  F   UNL     1       8.421  -3.987  12.656  1.00  0.00    -0.203 F 
ATOM     69  C   UNL     1      10.575  -4.383  13.519  1.00  0.00     0.198 A 
ATOM     70  C   UNL     1      12.476  -4.397  12.050  1.00  0.00     0.198 A 
ATOM     71  F   UNL     1      12.192  -3.965   9.755  1.00  0.00    -0.203 F 
ATOM     72  F   UNL     1      10.062  -4.477  14.754  1.00  0.00    -0.200 F 
ATOM     73  C   UNL     1      11.941  -4.527  13.322  1.00  0.00     0.200 A 
ATOM     74  F   UNL     1      13.792  -4.554  11.855  1.00  0.00    -0.200 F 
ATOM     75  F   UNL     1      12.744  -4.785  14.363  1.00  0.00    -0.200 F 
ENDBRANCH  42  65
ENDBRANCH  16  17
ENDBRANCH   9  11
ENDBRANCH   8   9
ENDBRANCH   7   8
ENDBRANCH   6   7
ENDBRANCH   5   6
ENDBRANCH   4   5
ENDBRANCH   3   4
ENDBRANCH   2   3
ENDBRANCH   1   2
BRANCH   1  76
ATOM     76  C   UNL     1       4.469   3.295   0.692  1.00  0.00     0.188 C 
BRANCH  76  77
ATOM     77  O   UNL     1       3.562   3.193   1.780  1.00  0.00    -0.376 OA
BRANCH  77  78
ATOM     78  C   UNL     1       3.526   4.328   2.644  1.00  0.00     0.202 C 
BRANCH  78  79
ATOM     79  C   UNL     1       2.791   5.552   2.076  1.00  0.00     0.261 C 
BRANCH  79  80
ATOM     80  O   UNL     1       3.337   6.122   0.874  1.00  0.00    -0.463 OA
BRANCH  80  81
ATOM     81  C   UNL     1       4.647   6.483   0.842  1.00  0.00     0.309 C 
ATOM     82  O   UNL     1       5.413   6.450   1.798  1.00  0.00    -0.252 OA
BRANCH  81  83
ATOM     83  C   UNL     1       5.059   6.694  -0.608  1.00  0.00     0.111 C 
ATOM     84  C   UNL     1       6.380   5.965  -0.940  1.00  0.00     0.016 C 
ATOM     85  C   UNL     1       5.041   8.131  -1.135  1.00  0.00     0.093 C 
ATOM     86  C   UNL     1       6.596   5.870  -2.447  1.00  0.00     0.001 C 
ATOM     87  C   UNL     1       5.244   7.985  -2.667  1.00  0.00     0.014 C 
ATOM     88  C   UNL     1       6.519   7.246  -3.086  1.00  0.00     0.001 C 
BRANCH  85  89
ATOM     89  C   UNL     1       5.934   8.996  -0.210  1.00  0.00     0.230 C 
ATOM     90  O   UNL     1       5.646   9.121   0.984  1.00  0.00    -0.274 OA
ATOM     91  N   UNL     1       7.123   9.493  -0.637  1.00  0.00    -0.302 N 
ATOM     92  H   UNL     1       7.951   9.289  -0.144  1.00  0.00     0.172 HD
BRANCH  91  93
ATOM     93  C   UNL     1       7.165  10.274  -1.747  1.00  0.00     0.189 A 
ATOM     94  N   UNL     1       6.129  10.739  -2.383  1.00  0.00    -0.220 NA
ATOM     95  S   UNL     1       8.690  10.636  -2.399  1.00  0.00    -0.105 S 
ATOM     96  C   UNL     1       6.525  11.194  -3.617  1.00  0.00     0.084 A 
ATOM     97  C   UNL     1       7.891  11.210  -3.822  1.00  0.00     0.097 A 
BRANCH  96  98
ATOM     98  C   UNL     1       5.499  11.518  -4.587  1.00  0.00     0.003 A 
ATOM     99  C   UNL     1       4.384  12.256  -4.169  1.00  0.00     0.012 A 
ATOM    100  C   UNL     1       5.527  10.983  -5.879  1.00  0.00     0.032 A 
ATOM    101  C   UNL     1       3.328  12.502  -5.046  1.00  0.00     0.023 A 
ATOM    102  C   UNL     1       4.462  11.219  -6.756  1.00  0.00     0.060 A 
ATOM    103  C   UNL     1       3.368  11.991  -6.345  1.00  0.00     0.059 A 
ATOM    104  Cl  UNL     1       4.550  10.505  -8.328  1.00  0.00    -0.083 Cl
ATOM    105  Cl  UNL     1       2.033  12.337  -7.384  1.00  0.00    -0.083 Cl
ENDBRANCH  96  98
ENDBRANCH  91  93
ENDBRANCH  85  89
ENDBRANCH  81  83
ENDBRANCH  80  81
ENDBRANCH  79  80
ENDBRANCH  78  79
ENDBRANCH  77  78
ENDBRANCH  76  77
ENDBRANCH   1  76
TORSDOF 23
