REMARK SMILES CC(C)c1cc(N2CCC(C(=O)OCCOCCOCCOCCOC(=O)c3ccc(-c4c5nc(c(-c6c(F)c(F)c(F)c(F)c6F)c6ccc([nH]6)c(-c6c(F)c(F)c(F)c(F)c6F)c6nc(c(-c7c(F)c(F)c(F)c(F)c7F)c7ccc4[nH]7)C=C6)C=C5)cc3)CC2)nc(-c2ccc(F)cc2)n1
REMARK SMILES IDX 19 1 18 2 17 3 16 4 15 5 14 6 13 7 11 8 12 9 10 10 7 11 8 12
REMARK SMILES IDX 92 13 9 14 91 15 6 16 4 17 5 18 102 19 94 20 93 21 2 22 1 23
REMARK SMILES IDX 3 24 95 25 96 26 101 27 97 28 100 29 98 30 99 31 20 32 21 33
REMARK SMILES IDX 22 34 23 35 24 36 25 37 26 38 27 39 28 40 29 41 90 42 30 43
REMARK SMILES IDX 89 44 31 45 32 46 33 47 83 48 34 49 88 50 82 51 84 52 35 53
REMARK SMILES IDX 87 54 81 55 80 56 36 58 68 59 48 60 67 61 49 62 52 63 66 64
REMARK SMILES IDX 85 65 50 66 51 67 65 69 86 70 53 71 37 72 38 73 46 74 39 75
REMARK SMILES IDX 40 76 44 77 47 78 41 79 42 80 45 81 43 82 69 83 70 84 78 85
REMARK SMILES IDX 71 86 72 87 76 88 79 89 73 90 74 91 77 92 75 93 54 94 55 95
REMARK SMILES IDX 63 96 56 97 57 98 61 99 64 100 58 101 59 102 62 103 60 104
REMARK H PARENT 84 57 52 68
REMARK Flexibility Score: inf
ROOT
ATOM      1  O   UNL     1      -9.149  -2.799   0.113  1.00  0.00    -0.377 OA
ENDROOT
BRANCH   1   2
ATOM      2  C   UNL     1      -8.450  -3.831  -0.547  1.00  0.00     0.188 C 
BRANCH   2   3
ATOM      3  C   UNL     1      -8.772  -5.262  -0.095  1.00  0.00     0.188 C 
BRANCH   3   4
ATOM      4  O   UNL     1      -9.857  -5.516   0.784  1.00  0.00    -0.376 OA
BRANCH   4   5
ATOM      5  C   UNL     1     -10.131  -4.624   1.854  1.00  0.00     0.202 C 
BRANCH   5   6
ATOM      6  C   UNL     1      -9.026  -4.221   2.848  1.00  0.00     0.261 C 
BRANCH   6   7
ATOM      7  O   UNL     1      -7.758  -3.814   2.295  1.00  0.00    -0.463 OA
BRANCH   7   8
ATOM      8  C   UNL     1      -6.728  -4.683   2.446  1.00  0.00     0.309 C 
ATOM      9  O   UNL     1      -6.828  -5.787   2.972  1.00  0.00    -0.252 OA
BRANCH   8  10
ATOM     10  C   UNL     1      -5.380  -4.156   1.966  1.00  0.00     0.103 C 
ATOM     11  N   UNL     1      -3.471  -2.061   1.863  1.00  0.00    -0.356 N 
ATOM     12  C   UNL     1      -4.066  -2.426   0.599  1.00  0.00     0.119 C 
ATOM     13  C   UNL     1      -3.240  -3.120   2.819  1.00  0.00     0.119 C 
ATOM     14  C   UNL     1      -5.401  -3.097   0.855  1.00  0.00     0.037 C 
ATOM     15  C   UNL     1      -4.604  -3.686   3.201  1.00  0.00     0.037 C 
BRANCH  11  16
ATOM     16  C   UNL     1      -2.750  -0.895   1.840  1.00  0.00     0.132 A 
ATOM     17  C   UNL     1      -0.747   0.319   1.625  1.00  0.00     0.049 A 
ATOM     18  C   UNL     1      -1.374  -0.898   1.813  1.00  0.00     0.071 A 
ATOM     19  N   UNL     1      -1.439   1.468   1.490  1.00  0.00    -0.233 NA
ATOM     20  C   UNL     1      -2.775   1.380   1.594  1.00  0.00     0.161 A 
ATOM     21  N   UNL     1      -3.458   0.239   1.744  1.00  0.00    -0.211 NA
BRANCH  17  22
ATOM     22  C   UNL     1       0.761   0.368   1.498  1.00  0.00     0.032 C 
ATOM     23  C   UNL     1       1.174   0.149   0.043  1.00  0.00     0.014 C 
ATOM     24  C   UNL     1       1.334   1.679   2.039  1.00  0.00     0.014 C 
ENDBRANCH  17  22
BRANCH  20  25
ATOM     25  C   UNL     1      -3.544   2.628   1.605  1.00  0.00     0.019 A 
ATOM     26  C   UNL     1      -3.332   3.627   0.639  1.00  0.00     0.015 A 
ATOM     27  C   UNL     1      -4.505   2.867   2.609  1.00  0.00     0.015 A 
ATOM     28  C   UNL     1      -4.046   4.828   0.681  1.00  0.00     0.040 A 
ATOM     29  C   UNL     1      -5.205   4.074   2.663  1.00  0.00     0.040 A 
ATOM     30  C   UNL     1      -4.967   5.043   1.699  1.00  0.00     0.123 A 
ATOM     31  F   UNL     1      -5.632   6.205   1.753  1.00  0.00    -0.207 F 
ENDBRANCH  20  25
ENDBRANCH  11  16
ENDBRANCH   8  10
ENDBRANCH   7   8
ENDBRANCH   6   7
ENDBRANCH   5   6
ENDBRANCH   4   5
ENDBRANCH   3   4
ENDBRANCH   2   3
ENDBRANCH   1   2
BRANCH   1  32
ATOM     32  C   UNL     1     -10.209  -2.196  -0.612  1.00  0.00     0.188 C 
BRANCH  32  33
ATOM     33  C   UNL     1     -11.088  -3.133  -1.458  1.00  0.00     0.188 C 
BRANCH  33  34
ATOM     34  O   UNL     1     -10.364  -3.923  -2.395  1.00  0.00    -0.376 OA
BRANCH  34  35
ATOM     35  C   UNL     1     -10.211  -3.443  -3.725  1.00  0.00     0.202 C 
BRANCH  35  36
ATOM     36  C   UNL     1      -9.367  -2.172  -3.941  1.00  0.00     0.261 C 
BRANCH  36  37
ATOM     37  O   UNL     1      -9.853  -0.968  -3.322  1.00  0.00    -0.460 OA
BRANCH  37  38
ATOM     38  C   UNL     1     -11.114  -0.580  -3.607  1.00  0.00     0.338 C 
ATOM     39  O   UNL     1     -11.868  -1.073  -4.420  1.00  0.00    -0.246 OA
BRANCH  38  40
ATOM     40  C   UNL     1     -11.522   0.426  -2.601  1.00  0.00     0.060 A 
ATOM     41  C   UNL     1     -12.657   0.159  -1.826  1.00  0.00     0.016 A 
ATOM     42  C   UNL     1     -10.815   1.619  -2.431  1.00  0.00     0.016 A 
ATOM     43  C   UNL     1     -13.115   1.103  -0.910  1.00  0.00     0.010 A 
ATOM     44  C   UNL     1     -11.291   2.578  -1.529  1.00  0.00     0.010 A 
ATOM     45  C   UNL     1     -12.465   2.339  -0.793  1.00  0.00    -0.014 A 
BRANCH  45  46
ATOM     46  C   UNL     1     -13.140   3.428  -0.044  1.00  0.00     0.031 A 
ATOM     47  C   UNL     1     -13.950   4.436  -0.815  1.00  0.00     0.074 A 
ATOM     48  C   UNL     1     -13.108   3.470   1.300  1.00  0.00     0.049 A 
ATOM     49  N   UNL     1     -14.656   5.448  -0.378  1.00  0.00    -0.248 NA
ATOM     50  C   UNL     1     -13.972   4.276  -2.278  1.00  0.00     0.031 C 
ATOM     51  C   UNL     1     -12.399   2.524   2.159  1.00  0.00     0.029 A 
ATOM     52  N   UNL     1     -13.697   4.347   2.178  1.00  0.00    -0.354 N 
ATOM     53  C   UNL     1     -15.211   6.037  -1.507  1.00  0.00     0.074 A 
ATOM     54  C   UNL     1     -14.730   5.296  -2.652  1.00  0.00     0.031 C 
ATOM     55  C   UNL     1     -12.592   2.873   3.443  1.00  0.00     0.029 A 
ATOM     56  C   UNL     1     -13.412   4.083   3.495  1.00  0.00     0.049 A 
ATOM     57  H   UNL     1     -14.269   5.095   1.890  1.00  0.00     0.167 HD
ATOM     58  C   UNL     1     -16.058   7.090  -1.581  1.00  0.00     0.037 A 
ATOM     59  C   UNL     1     -13.760   4.755   4.609  1.00  0.00     0.037 A 
ATOM     60  C   UNL     1     -16.530   7.832  -0.441  1.00  0.00     0.049 A 
ATOM     61  C   UNL     1     -14.634   5.980   4.487  1.00  0.00     0.074 A 
ATOM     62  C   UNL     1     -17.388   8.918  -0.413  1.00  0.00     0.029 A 
ATOM     63  N   UNL     1     -16.178   7.567   0.874  1.00  0.00    -0.354 N 
ATOM     64  N   UNL     1     -15.175   6.514   3.419  1.00  0.00    -0.248 NA
ATOM     65  C   UNL     1     -14.953   6.690   5.734  1.00  0.00     0.031 C 
ATOM     66  C   UNL     1     -17.511   9.344   0.914  1.00  0.00     0.029 A 
ATOM     67  C   UNL     1     -16.782   8.484   1.719  1.00  0.00     0.049 A 
ATOM     68  H   UNL     1     -15.587   6.835   1.164  1.00  0.00     0.167 HD
ATOM     69  C   UNL     1     -15.919   7.599   3.867  1.00  0.00     0.074 A 
ATOM     70  C   UNL     1     -15.784   7.629   5.308  1.00  0.00     0.031 C 
ATOM     71  C   UNL     1     -16.643   8.497   3.153  1.00  0.00     0.037 A 
BRANCH  58  72
ATOM     72  C   UNL     1     -16.518   7.521  -2.943  1.00  0.00     0.064 A 
ATOM     73  C   UNL     1     -17.421   6.752  -3.693  1.00  0.00     0.173 A 
ATOM     74  C   UNL     1     -16.096   8.747  -3.481  1.00  0.00     0.173 A 
ATOM     75  F   UNL     1     -17.842   5.565  -3.232  1.00  0.00    -0.203 F 
ATOM     76  C   UNL     1     -17.873   7.187  -4.937  1.00  0.00     0.198 A 
ATOM     77  C   UNL     1     -16.573   9.193  -4.711  1.00  0.00     0.198 A 
ATOM     78  F   UNL     1     -15.235   9.521  -2.805  1.00  0.00    -0.203 F 
ATOM     79  F   UNL     1     -18.706   6.419  -5.652  1.00  0.00    -0.200 F 
ATOM     80  C   UNL     1     -17.457   8.411  -5.439  1.00  0.00     0.200 A 
ATOM     81  F   UNL     1     -16.181  10.382  -5.189  1.00  0.00    -0.200 F 
ATOM     82  F   UNL     1     -17.906   8.836  -6.628  1.00  0.00    -0.200 F 
ENDBRANCH  58  72
BRANCH  59  83
ATOM     83  C   UNL     1     -13.271   4.311   5.944  1.00  0.00     0.064 A 
ATOM     84  C   UNL     1     -14.160   3.876   6.938  1.00  0.00     0.173 A 
ATOM     85  C   UNL     1     -11.909   4.378   6.275  1.00  0.00     0.173 A 
ATOM     86  F   UNL     1     -15.475   3.820   6.683  1.00  0.00    -0.203 F 
ATOM     87  C   UNL     1     -13.710   3.563   8.220  1.00  0.00     0.198 A 
ATOM     88  C   UNL     1     -11.457   4.029   7.546  1.00  0.00     0.198 A 
ATOM     89  F   UNL     1     -11.015   4.791   5.365  1.00  0.00    -0.203 F 
ATOM     90  F   UNL     1     -14.591   3.222   9.171  1.00  0.00    -0.200 F 
ATOM     91  C   UNL     1     -12.359   3.636   8.522  1.00  0.00     0.200 A 
ATOM     92  F   UNL     1     -10.149   4.089   7.828  1.00  0.00    -0.200 F 
ATOM     93  F   UNL     1     -11.929   3.343   9.756  1.00  0.00    -0.200 F 
ENDBRANCH  59  83
BRANCH  71  94
ATOM     94  C   UNL     1     -17.376   9.559   3.926  1.00  0.00     0.064 A 
ATOM     95  C   UNL     1     -16.696  10.578   4.611  1.00  0.00     0.173 A 
ATOM     96  C   UNL     1     -18.779   9.561   3.977  1.00  0.00     0.173 A 
ATOM     97  F   UNL     1     -15.355  10.617   4.605  1.00  0.00    -0.203 F 
ATOM     98  C   UNL     1     -17.390  11.527   5.357  1.00  0.00     0.198 A 
ATOM     99  C   UNL     1     -19.471  10.535   4.691  1.00  0.00     0.198 A 
ATOM    100  F   UNL     1     -19.482   8.619   3.330  1.00  0.00    -0.203 F 
ATOM    101  F   UNL     1     -16.715  12.445   6.063  1.00  0.00    -0.200 F 
ATOM    102  C   UNL     1     -18.776  11.508   5.393  1.00  0.00     0.200 A 
ATOM    103  F   UNL     1     -20.811  10.527   4.708  1.00  0.00    -0.200 F 
ATOM    104  F   UNL     1     -19.442  12.421   6.113  1.00  0.00    -0.200 F 
ENDBRANCH  71  94
ENDBRANCH  45  46
ENDBRANCH  38  40
ENDBRANCH  37  38
ENDBRANCH  36  37
ENDBRANCH  35  36
ENDBRANCH  34  35
ENDBRANCH  33  34
ENDBRANCH  32  33
ENDBRANCH   1  32
TORSDOF 23
