REMARK SMILES CCOc1cnc(C(=O)c2[nH]c3cc(Cl)ccc3c2CC(=O)OCCOCCOCCOCCOC(=O)c2ccc(-c3c4nc(c(-c5c(F)c(F)c(F)c(F)c5F)c5ccc([nH]5)c(-c5c(F)c(F)c(F)c(F)c5F)c5nc(c(-c6c(F)c(F)c(F)c(F)c6F)c6ccc3[nH]6)C=C5)C=C4)cc2)cc1CC
REMARK SMILES IDX 27 1 26 2 25 3 24 4 23 5 21 6 22 7 20 8 19 9 10 10 11 11
REMARK SMILES IDX 12 12 18 14 13 15 17 16 14 17 16 18 15 19 8 20 9 21 7 22
REMARK SMILES IDX 4 23 5 24 102 25 6 26 101 27 3 28 2 29 1 30 103 31 104 32
REMARK SMILES IDX 28 33 29 34 30 35 31 36 32 37 33 38 34 39 35 40 36 41 37 42
REMARK SMILES IDX 38 43 39 44 100 45 40 46 99 47 41 48 42 49 43 50 93 51 44 52
REMARK SMILES IDX 98 53 92 54 94 55 45 56 97 57 91 58 90 59 46 61 78 62 58 63
REMARK SMILES IDX 77 64 59 65 62 66 76 67 95 68 60 69 61 70 75 72 96 73 63 74
REMARK SMILES IDX 47 75 48 76 56 77 49 78 50 79 54 80 57 81 51 82 52 83 55 84
REMARK SMILES IDX 53 85 79 86 80 87 88 88 81 89 82 90 86 91 89 92 83 93 84 94
REMARK SMILES IDX 87 95 85 96 64 97 65 98 73 99 66 100 67 101 71 102 74 103
REMARK SMILES IDX 68 104 69 105 72 106 70 107
REMARK H PARENT 11 13 94 60 62 71
REMARK Flexibility Score: inf
ROOT
ATOM      1  C   UNL     1       8.434  -6.258  -0.276  1.00  0.00     0.188 C 
ENDROOT
BRANCH   1   2
ATOM      2  O   UNL     1       9.421  -7.148   0.202  1.00  0.00    -0.376 OA
BRANCH   2   3
ATOM      3  C   UNL     1      10.636  -6.576   0.682  1.00  0.00     0.202 C 
BRANCH   3   4
ATOM      4  C   UNL     1      11.244  -5.342  -0.020  1.00  0.00     0.261 C 
BRANCH   4   5
ATOM      5  O   UNL     1      10.466  -4.114   0.072  1.00  0.00    -0.463 OA
BRANCH   5   6
ATOM      6  C   UNL     1      10.337  -3.401  -1.075  1.00  0.00     0.310 C 
ATOM      7  O   UNL     1      10.885  -3.735  -2.127  1.00  0.00    -0.252 OA
BRANCH   6   8
ATOM      8  C   UNL     1       9.478  -2.145  -1.050  1.00  0.00     0.161 C 
BRANCH   8   9
ATOM      9  C   UNL     1       8.813  -1.632   0.209  1.00  0.00     0.000 A 
ATOM     10  C   UNL     1       7.470  -1.782   0.602  1.00  0.00     0.093 A 
ATOM     11  N   UNL     1       7.389  -1.239   1.869  1.00  0.00    -0.351 N 
ATOM     12  C   UNL     1       8.402  -0.330   2.048  1.00  0.00     0.048 A 
ATOM     13  H   UNL     1       6.708  -1.468   2.542  1.00  0.00     0.167 HD
ATOM     14  C   UNL     1       9.334  -0.578   1.043  1.00  0.00     0.004 A 
ATOM     15  C   UNL     1       8.544   0.691   2.997  1.00  0.00     0.047 A 
ATOM     16  C   UNL     1      10.473   0.253   0.976  1.00  0.00     0.012 A 
ATOM     17  C   UNL     1       9.655   1.528   2.870  1.00  0.00     0.043 A 
ATOM     18  C   UNL     1      10.608   1.319   1.877  1.00  0.00     0.021 A 
ATOM     19  Cl  UNL     1       9.828   2.864   3.945  1.00  0.00    -0.084 Cl
BRANCH  10  20
ATOM     20  C   UNL     1       6.356  -2.388  -0.135  1.00  0.00     0.227 C 
ATOM     21  O   UNL     1       6.519  -2.991  -1.196  1.00  0.00    -0.285 OA
BRANCH  20  22
ATOM     22  C   UNL     1       4.940  -2.237   0.335  1.00  0.00     0.113 A 
ATOM     23  C   UNL     1       2.248  -1.921   0.718  1.00  0.00     0.140 A 
ATOM     24  C   UNL     1       2.812  -3.134   0.340  1.00  0.00     0.158 A 
ATOM     25  C   UNL     1       3.091  -0.854   1.039  1.00  0.00    -0.002 A 
ATOM     26  N   UNL     1       4.138  -3.318   0.156  1.00  0.00    -0.249 NA
ATOM     27  C   UNL     1       4.462  -1.009   0.786  1.00  0.00     0.040 A 
BRANCH  23  28
ATOM     28  O   UNL     1       0.890  -1.783   0.783  1.00  0.00    -0.492 OA
BRANCH  28  29
ATOM     29  C   UNL     1       0.327  -1.527  -0.517  1.00  0.00     0.226 C 
ATOM     30  C   UNL     1       0.131  -0.034  -0.737  1.00  0.00     0.049 C 
ENDBRANCH  28  29
ENDBRANCH  23  28
BRANCH  25  31
ATOM     31  C   UNL     1       2.562   0.467   1.543  1.00  0.00     0.036 C 
ATOM     32  C   UNL     1       3.202   0.921   2.848  1.00  0.00     0.009 C 
ENDBRANCH  25  31
ENDBRANCH  20  22
ENDBRANCH  10  20
ENDBRANCH   8   9
ENDBRANCH   6   8
ENDBRANCH   5   6
ENDBRANCH   4   5
ENDBRANCH   3   4
ENDBRANCH   2   3
ENDBRANCH   1   2
BRANCH   1  33
ATOM     33  C   UNL     1       7.863  -5.242   0.711  1.00  0.00     0.188 C 
BRANCH  33  34
ATOM     34  O   UNL     1       8.644  -4.856   1.829  1.00  0.00    -0.377 OA
BRANCH  34  35
ATOM     35  C   UNL     1       8.434  -5.471   3.090  1.00  0.00     0.188 C 
BRANCH  35  36
ATOM     36  C   UNL     1       7.406  -6.596   3.183  1.00  0.00     0.188 C 
BRANCH  36  37
ATOM     37  O   UNL     1       6.032  -6.278   2.953  1.00  0.00    -0.376 OA
BRANCH  37  38
ATOM     38  C   UNL     1       5.571  -4.946   3.162  1.00  0.00     0.202 C 
BRANCH  38  39
ATOM     39  C   UNL     1       5.117  -4.651   4.587  1.00  0.00     0.261 C 
BRANCH  39  40
ATOM     40  O   UNL     1       6.251  -4.508   5.454  1.00  0.00    -0.460 OA
BRANCH  40  41
ATOM     41  C   UNL     1       6.544  -5.601   6.192  1.00  0.00     0.338 C 
ATOM     42  O   UNL     1       5.903  -6.637   6.282  1.00  0.00    -0.246 OA
BRANCH  41  43
ATOM     43  C   UNL     1       7.885  -5.437   6.774  1.00  0.00     0.060 A 
ATOM     44  C   UNL     1       8.765  -6.524   6.707  1.00  0.00     0.016 A 
ATOM     45  C   UNL     1       8.254  -4.255   7.421  1.00  0.00     0.016 A 
ATOM     46  C   UNL     1      10.002  -6.455   7.335  1.00  0.00     0.010 A 
ATOM     47  C   UNL     1       9.489  -4.190   8.065  1.00  0.00     0.010 A 
ATOM     48  C   UNL     1      10.341  -5.308   8.060  1.00  0.00    -0.014 A 
BRANCH  48  49
ATOM     49  C   UNL     1      11.479  -5.367   9.000  1.00  0.00     0.031 A 
ATOM     50  C   UNL     1      11.185  -5.659  10.444  1.00  0.00     0.074 A 
ATOM     51  C   UNL     1      12.737  -5.198   8.567  1.00  0.00     0.049 A 
ATOM     52  N   UNL     1      11.998  -5.711  11.465  1.00  0.00    -0.248 NA
ATOM     53  C   UNL     1       9.776  -5.925  10.781  1.00  0.00     0.031 C 
ATOM     54  C   UNL     1      13.127  -4.964   7.179  1.00  0.00     0.029 A 
ATOM     55  N   UNL     1      13.919  -5.190   9.260  1.00  0.00    -0.354 N 
ATOM     56  C   UNL     1      11.200  -6.004  12.563  1.00  0.00     0.074 A 
ATOM     57  C   UNL     1       9.836  -6.086  12.093  1.00  0.00     0.031 C 
ATOM     58  C   UNL     1      14.462  -4.819   7.123  1.00  0.00     0.029 A 
ATOM     59  C   UNL     1      15.009  -4.913   8.475  1.00  0.00     0.049 A 
ATOM     60  H   UNL     1      13.980  -5.366  10.226  1.00  0.00     0.167 HD
ATOM     61  C   UNL     1      11.579  -6.194  13.849  1.00  0.00     0.037 A 
ATOM     62  C   UNL     1      16.296  -4.729   8.824  1.00  0.00     0.037 A 
ATOM     63  C   UNL     1      12.942  -6.103  14.299  1.00  0.00     0.049 A 
ATOM     64  C   UNL     1      16.682  -4.867  10.275  1.00  0.00     0.074 A 
ATOM     65  C   UNL     1      13.446  -6.288  15.572  1.00  0.00     0.029 A 
ATOM     66  N   UNL     1      14.020  -5.788  13.482  1.00  0.00    -0.354 N 
ATOM     67  N   UNL     1      15.930  -5.163  11.309  1.00  0.00    -0.248 NA
ATOM     68  C   UNL     1      18.096  -4.648  10.606  1.00  0.00     0.031 C 
ATOM     69  C   UNL     1      14.818  -6.020  15.540  1.00  0.00     0.029 A 
ATOM     70  C   UNL     1      15.183  -5.740  14.232  1.00  0.00     0.049 A 
ATOM     71  H   UNL     1      13.965  -5.622  12.513  1.00  0.00     0.167 HD
ATOM     72  C   UNL     1      16.782  -5.198  12.406  1.00  0.00     0.074 A 
ATOM     73  C   UNL     1      18.110  -4.906  11.907  1.00  0.00     0.031 C 
ATOM     74  C   UNL     1      16.495  -5.451  13.708  1.00  0.00     0.037 A 
BRANCH  61  75
ATOM     75  C   UNL     1      10.501  -6.473  14.856  1.00  0.00     0.064 A 
ATOM     76  C   UNL     1       9.773  -7.674  14.855  1.00  0.00     0.173 A 
ATOM     77  C   UNL     1      10.197  -5.526  15.846  1.00  0.00     0.173 A 
ATOM     78  F   UNL     1      10.009  -8.606  13.920  1.00  0.00    -0.203 F 
ATOM     79  C   UNL     1       8.762  -7.901  15.787  1.00  0.00     0.198 A 
ATOM     80  C   UNL     1       9.210  -5.772  16.797  1.00  0.00     0.198 A 
ATOM     81  F   UNL     1      10.859  -4.361  15.893  1.00  0.00    -0.203 F 
ATOM     82  F   UNL     1       8.042  -9.030  15.729  1.00  0.00    -0.200 F 
ATOM     83  C   UNL     1       8.487  -6.954  16.761  1.00  0.00     0.200 A 
ATOM     84  F   UNL     1       8.954  -4.859  17.745  1.00  0.00    -0.200 F 
ATOM     85  F   UNL     1       7.518  -7.176  17.659  1.00  0.00    -0.200 F 
ENDBRANCH  61  75
BRANCH  62  86
ATOM     86  C   UNL     1      17.304  -4.383   7.788  1.00  0.00     0.064 A 
ATOM     87  C   UNL     1      18.333  -5.273   7.452  1.00  0.00     0.173 A 
ATOM     88  C   UNL     1      17.263  -3.151   7.118  1.00  0.00     0.173 A 
ATOM     89  F   UNL     1      18.428  -6.454   8.079  1.00  0.00    -0.203 F 
ATOM     90  C   UNL     1      19.293  -4.936   6.499  1.00  0.00     0.198 A 
ATOM     91  C   UNL     1      18.205  -2.829   6.143  1.00  0.00     0.198 A 
ATOM     92  F   UNL     1      16.299  -2.262   7.402  1.00  0.00    -0.203 F 
ATOM     93  F   UNL     1      20.294  -5.786   6.231  1.00  0.00    -0.200 F 
ATOM     94  C   UNL     1      19.224  -3.718   5.840  1.00  0.00     0.200 A 
ATOM     95  F   UNL     1      18.125  -1.656   5.498  1.00  0.00    -0.200 F 
ATOM     96  F   UNL     1      20.144  -3.398   4.920  1.00  0.00    -0.200 F 
ENDBRANCH  62  86
BRANCH  74  97
ATOM     97  C   UNL     1      17.644  -5.467  14.676  1.00  0.00     0.064 A 
ATOM     98  C   UNL     1      18.322  -4.294  15.040  1.00  0.00     0.173 A 
ATOM     99  C   UNL     1      18.041  -6.669  15.282  1.00  0.00     0.173 A 
ATOM    100  F   UNL     1      17.989  -3.120  14.481  1.00  0.00    -0.203 F 
ATOM    101  C   UNL     1      19.374  -4.330  15.951  1.00  0.00     0.198 A 
ATOM    102  C   UNL     1      19.068  -6.695  16.220  1.00  0.00     0.198 A 
ATOM    103  F   UNL     1      17.419  -7.818  14.977  1.00  0.00    -0.203 F 
ATOM    104  F   UNL     1      20.043  -3.206  16.243  1.00  0.00    -0.200 F 
ATOM    105  C   UNL     1      19.740  -5.528  16.547  1.00  0.00     0.200 A 
ATOM    106  F   UNL     1      19.407  -7.851  16.809  1.00  0.00    -0.200 F 
ATOM    107  F   UNL     1      20.746  -5.558  17.431  1.00  0.00    -0.200 F 
ENDBRANCH  74  97
ENDBRANCH  48  49
ENDBRANCH  41  43
ENDBRANCH  40  41
ENDBRANCH  39  40
ENDBRANCH  38  39
ENDBRANCH  37  38
ENDBRANCH  36  37
ENDBRANCH  35  36
ENDBRANCH  34  35
ENDBRANCH  33  34
ENDBRANCH   1  33
TORSDOF 26
