REMARK SMILES C[C@@H](CCO)Sc1cc(C(=O)OCCOCCOCCOCCOC(=O)c2ccc(-c3c4nc(c(-c5c(F)c(F)c(F)c(F)c5F)c5ccc([nH]5)c(-c5c(F)c(F)c(F)c(F)c5F)c5nc(c(-c6c(F)c(F)c(F)c(F)c6F)c6ccc3[nH]6)C=C5)C=C4)cc2)c2ccccc2n1
REMARK SMILES IDX 16 1 15 2 14 3 13 4 12 5 10 6 11 7 9 8 7 9 8 10 96 11 95 12
REMARK SMILES IDX 90 13 94 14 91 15 93 16 92 17 6 18 2 19 1 20 3 21 4 22 5 23
REMARK SMILES IDX 17 25 18 26 19 27 20 28 21 29 22 30 23 31 24 32 25 33 26 34
REMARK SMILES IDX 27 35 28 36 89 37 29 38 88 39 30 40 31 41 32 42 82 43 33 44
REMARK SMILES IDX 87 45 81 46 83 47 34 48 86 49 80 50 79 51 35 53 67 54 47 55
REMARK SMILES IDX 66 56 48 57 51 58 65 59 84 60 49 61 50 62 64 64 85 65 52 66
REMARK SMILES IDX 36 67 37 68 45 69 38 70 39 71 43 72 46 73 40 74 41 75 44 76
REMARK SMILES IDX 42 77 68 78 69 79 77 80 70 81 71 82 75 83 78 84 72 85 73 86
REMARK SMILES IDX 76 87 74 88 53 89 54 90 62 91 55 92 56 93 60 94 63 95 57 96
REMARK SMILES IDX 58 97 61 98 59 99
REMARK H PARENT 5 24 83 52 51 63
REMARK Flexibility Score: inf
ROOT
ATOM      1  C   UNL     1      -1.333   5.612   2.844  1.00  0.00     0.188 C 
ENDROOT
BRANCH   1   2
ATOM      2  O   UNL     1      -0.848   6.944   2.671  1.00  0.00    -0.376 OA
BRANCH   2   3
ATOM      3  C   UNL     1       0.268   7.121   1.813  1.00  0.00     0.202 C 
BRANCH   3   4
ATOM      4  C   UNL     1      -0.095   7.207   0.325  1.00  0.00     0.261 C 
BRANCH   4   5
ATOM      5  O   UNL     1      -0.950   6.144  -0.124  1.00  0.00    -0.460 OA
BRANCH   5   6
ATOM      6  C   UNL     1      -0.332   5.002  -0.483  1.00  0.00     0.338 C 
ATOM      7  O   UNL     1       0.872   4.811  -0.525  1.00  0.00    -0.246 OA
BRANCH   6   8
ATOM      8  C   UNL     1      -1.313   3.904  -0.610  1.00  0.00     0.072 A 
ATOM      9  C   UNL     1      -1.785   1.683   0.131  1.00  0.00     0.098 A 
ATOM     10  C   UNL     1      -1.075   2.846   0.255  1.00  0.00     0.052 A 
ATOM     11  N   UNL     1      -2.753   1.548  -0.795  1.00  0.00    -0.241 NA
ATOM     12  C   UNL     1      -3.056   2.602  -1.585  1.00  0.00     0.072 A 
ATOM     13  C   UNL     1      -2.378   3.841  -1.516  1.00  0.00     0.015 A 
ATOM     14  C   UNL     1      -4.086   2.472  -2.509  1.00  0.00     0.029 A 
ATOM     15  C   UNL     1      -2.803   4.920  -2.325  1.00  0.00     0.011 A 
ATOM     16  C   UNL     1      -4.499   3.538  -3.314  1.00  0.00     0.002 A 
ATOM     17  C   UNL     1      -3.871   4.771  -3.206  1.00  0.00     0.001 A 
BRANCH   9  18
ATOM     18  S   UNL     1      -1.500   0.342   1.270  1.00  0.00    -0.103 SA
BRANCH  18  19
ATOM     19  C   UNL     1       0.275  -0.124   1.013  1.00  0.00     0.052 C 
ATOM     20  C   UNL     1       0.776   0.019  -0.422  1.00  0.00     0.020 C 
BRANCH  19  21
ATOM     21  C   UNL     1       1.271   0.393   2.079  1.00  0.00     0.043 C 
BRANCH  21  22
ATOM     22  C   UNL     1       1.643   1.872   2.078  1.00  0.00     0.157 C 
BRANCH  22  23
ATOM     23  O   UNL     1       0.774   2.645   2.902  1.00  0.00    -0.396 OA
ATOM     24  H   UNL     1      -0.133   2.579   2.566  1.00  0.00     0.210 HD
ENDBRANCH  22  23
ENDBRANCH  21  22
ENDBRANCH  19  21
ENDBRANCH  18  19
ENDBRANCH   9  18
ENDBRANCH   6   8
ENDBRANCH   5   6
ENDBRANCH   4   5
ENDBRANCH   3   4
ENDBRANCH   2   3
ENDBRANCH   1   2
BRANCH   1  25
ATOM     25  C   UNL     1      -2.730   5.401   2.228  1.00  0.00     0.188 C 
BRANCH  25  26
ATOM     26  O   UNL     1      -3.772   6.256   2.682  1.00  0.00    -0.377 OA
BRANCH  26  27
ATOM     27  C   UNL     1      -3.471   7.644   2.611  1.00  0.00     0.188 C 
BRANCH  27  28
ATOM     28  C   UNL     1      -3.046   8.213   3.975  1.00  0.00     0.188 C 
BRANCH  28  29
ATOM     29  O   UNL     1      -2.981   7.320   5.069  1.00  0.00    -0.376 OA
BRANCH  29  30
ATOM     30  C   UNL     1      -4.098   6.554   5.487  1.00  0.00     0.202 C 
BRANCH  30  31
ATOM     31  C   UNL     1      -5.555   6.690   4.988  1.00  0.00     0.261 C 
BRANCH  31  32
ATOM     32  O   UNL     1      -5.897   7.754   4.102  1.00  0.00    -0.460 OA
BRANCH  32  33
ATOM     33  C   UNL     1      -6.103   8.980   4.620  1.00  0.00     0.338 C 
ATOM     34  O   UNL     1      -6.041   9.318   5.788  1.00  0.00    -0.246 OA
BRANCH  33  35
ATOM     35  C   UNL     1      -6.224   9.897   3.462  1.00  0.00     0.060 A 
ATOM     36  C   UNL     1      -5.294  10.935   3.316  1.00  0.00     0.016 A 
ATOM     37  C   UNL     1      -7.193   9.674   2.479  1.00  0.00     0.016 A 
ATOM     38  C   UNL     1      -5.326  11.750   2.184  1.00  0.00     0.010 A 
ATOM     39  C   UNL     1      -7.249  10.514   1.365  1.00  0.00     0.010 A 
ATOM     40  C   UNL     1      -6.326  11.564   1.221  1.00  0.00    -0.014 A 
BRANCH  40  41
ATOM     41  C   UNL     1      -6.536  12.579   0.164  1.00  0.00     0.031 A 
ATOM     42  C   UNL     1      -7.502  13.694   0.442  1.00  0.00     0.074 A 
ATOM     43  C   UNL     1      -5.899  12.509  -1.016  1.00  0.00     0.049 A 
ATOM     44  N   UNL     1      -7.924  14.647  -0.347  1.00  0.00    -0.248 NA
ATOM     45  C   UNL     1      -8.069  13.736   1.800  1.00  0.00     0.031 C 
ATOM     46  C   UNL     1      -4.898  11.510  -1.380  1.00  0.00     0.029 A 
ATOM     47  N   UNL     1      -6.015  13.296  -2.135  1.00  0.00    -0.354 N 
ATOM     48  C   UNL     1      -8.803  15.401   0.417  1.00  0.00     0.074 A 
ATOM     49  C   UNL     1      -8.877  14.781   1.722  1.00  0.00     0.031 C 
ATOM     50  C   UNL     1      -4.501  11.735  -2.646  1.00  0.00     0.029 A 
ATOM     51  C   UNL     1      -5.252  12.866  -3.192  1.00  0.00     0.049 A 
ATOM     52  H   UNL     1      -6.591  14.094  -2.176  1.00  0.00     0.167 HD
ATOM     53  C   UNL     1      -9.485  16.515   0.063  1.00  0.00     0.037 A 
ATOM     54  C   UNL     1      -5.196  13.317  -4.460  1.00  0.00     0.037 A 
ATOM     55  C   UNL     1      -9.428  17.113  -1.243  1.00  0.00     0.049 A 
ATOM     56  C   UNL     1      -6.067  14.478  -4.871  1.00  0.00     0.074 A 
ATOM     57  C   UNL     1     -10.068  18.251  -1.701  1.00  0.00     0.029 A 
ATOM     58  N   UNL     1      -8.700  16.606  -2.309  1.00  0.00    -0.354 N 
ATOM     59  N   UNL     1      -6.877  15.207  -4.141  1.00  0.00    -0.248 NA
ATOM     60  C   UNL     1      -6.027  14.870  -6.288  1.00  0.00     0.031 C 
ATOM     61  C   UNL     1      -9.775  18.397  -3.061  1.00  0.00     0.029 A 
ATOM     62  C   UNL     1      -8.910  17.381  -3.437  1.00  0.00     0.049 A 
ATOM     63  H   UNL     1      -8.120  15.811  -2.270  1.00  0.00     0.167 HD
ATOM     64  C   UNL     1      -7.426  16.150  -5.000  1.00  0.00     0.074 A 
ATOM     65  C   UNL     1      -6.847  15.912  -6.305  1.00  0.00     0.031 C 
ATOM     66  C   UNL     1      -8.329  17.126  -4.731  1.00  0.00     0.037 A 
BRANCH  53  67
ATOM     67  C   UNL     1     -10.381  17.126   1.098  1.00  0.00     0.064 A 
ATOM     68  C   UNL     1      -9.864  17.783   2.226  1.00  0.00     0.173 A 
ATOM     69  C   UNL     1     -11.775  17.052   0.962  1.00  0.00     0.173 A 
ATOM     70  F   UNL     1      -8.538  17.864   2.411  1.00  0.00    -0.203 F 
ATOM     71  C   UNL     1     -10.711  18.313   3.195  1.00  0.00     0.198 A 
ATOM     72  C   UNL     1     -12.618  17.610   1.919  1.00  0.00     0.198 A 
ATOM     73  F   UNL     1     -12.319  16.435  -0.098  1.00  0.00    -0.203 F 
ATOM     74  F   UNL     1     -10.196  18.885   4.292  1.00  0.00    -0.200 F 
ATOM     75  C   UNL     1     -12.087  18.230   3.039  1.00  0.00     0.200 A 
ATOM     76  F   UNL     1     -13.947  17.537   1.761  1.00  0.00    -0.200 F 
ATOM     77  F   UNL     1     -12.900  18.740   3.973  1.00  0.00    -0.200 F 
ENDBRANCH  53  67
BRANCH  54  78
ATOM     78  C   UNL     1      -4.304  12.654  -5.447  1.00  0.00     0.064 A 
ATOM     79  C   UNL     1      -3.186  13.319  -5.970  1.00  0.00     0.173 A 
ATOM     80  C   UNL     1      -4.557  11.350  -5.900  1.00  0.00     0.173 A 
ATOM     81  F   UNL     1      -2.918  14.577  -5.591  1.00  0.00    -0.203 F 
ATOM     82  C   UNL     1      -2.360  12.708  -6.912  1.00  0.00     0.198 A 
ATOM     83  C   UNL     1      -3.715  10.731  -6.822  1.00  0.00     0.198 A 
ATOM     84  F   UNL     1      -5.618  10.672  -5.439  1.00  0.00    -0.203 F 
ATOM     85  F   UNL     1      -1.319  13.380  -7.423  1.00  0.00    -0.200 F 
ATOM     86  C   UNL     1      -2.621  11.412  -7.331  1.00  0.00     0.200 A 
ATOM     87  F   UNL     1      -3.966   9.475  -7.216  1.00  0.00    -0.200 F 
ATOM     88  F   UNL     1      -1.822  10.823  -8.231  1.00  0.00    -0.200 F 
ENDBRANCH  54  78
BRANCH  66  89
ATOM     89  C   UNL     1      -8.744  18.019  -5.865  1.00  0.00     0.064 A 
ATOM     90  C   UNL     1      -9.595  17.563  -6.882  1.00  0.00     0.173 A 
ATOM     91  C   UNL     1      -8.344  19.364  -5.896  1.00  0.00     0.173 A 
ATOM     92  F   UNL     1      -9.992  16.282  -6.906  1.00  0.00    -0.203 F 
ATOM     93  C   UNL     1     -10.019  18.417  -7.897  1.00  0.00     0.198 A 
ATOM     94  C   UNL     1      -8.793  20.222  -6.896  1.00  0.00     0.198 A 
ATOM     95  F   UNL     1      -7.536  19.851  -4.943  1.00  0.00    -0.203 F 
ATOM     96  F   UNL     1     -10.804  17.951  -8.878  1.00  0.00    -0.200 F 
ATOM     97  C   UNL     1      -9.627  19.748  -7.897  1.00  0.00     0.200 A 
ATOM     98  F   UNL     1      -8.425  21.511  -6.886  1.00  0.00    -0.200 F 
ATOM     99  F   UNL     1     -10.050  20.572  -8.865  1.00  0.00    -0.200 F 
ENDBRANCH  66  89
ENDBRANCH  40  41
ENDBRANCH  33  35
ENDBRANCH  32  33
ENDBRANCH  31  32
ENDBRANCH  30  31
ENDBRANCH  29  30
ENDBRANCH  28  29
ENDBRANCH  27  28
ENDBRANCH  26  27
ENDBRANCH  25  26
ENDBRANCH   1  25
TORSDOF 25
