REMARK SMILES C[C@]1(c2ccccc2C(=O)OCCOCCOCCOCCOC(=O)c2ccc(-c3c4nc(c(-c5c(F)c(F)c(F)c(F)c5F)c5ccc([nH]5)c(-c5c(F)c(F)c(F)c(F)c5F)c5nc(c(-c6c(F)c(F)c(F)c(F)c6F)c6ccc3[nH]6)C=C5)C=C4)cc2)NN=C(c2ccccc2)S1
REMARK SMILES IDX 17 1 16 2 15 3 14 4 13 5 12 6 11 7 9 8 10 9 8 10 3 11 4 12
REMARK SMILES IDX 5 13 7 14 6 15 2 16 1 17 89 18 98 19 90 20 91 22 92 23 93 24
REMARK SMILES IDX 97 25 94 26 96 27 95 28 18 29 19 30 20 31 21 32 22 33 23 34
REMARK SMILES IDX 24 35 25 36 26 37 27 38 88 39 28 40 87 41 29 42 30 43 31 44
REMARK SMILES IDX 81 45 32 46 86 47 80 48 82 49 33 50 85 51 79 52 78 53 34 55
REMARK SMILES IDX 66 56 46 57 65 58 47 59 50 60 64 61 83 62 48 63 49 64 63 66
REMARK SMILES IDX 84 67 51 68 35 69 36 70 44 71 37 72 38 73 42 74 45 75 39 76
REMARK SMILES IDX 40 77 43 78 41 79 67 80 68 81 76 82 69 83 70 84 74 85 77 86
REMARK SMILES IDX 71 87 72 88 75 89 73 90 52 91 53 92 61 93 54 94 55 95 59 96
REMARK SMILES IDX 62 97 56 98 57 99 60 100 58 101
REMARK H PARENT 89 21 82 54 50 65
REMARK Flexibility Score: inf
ROOT
ATOM      1  O   UNL     1       2.835   0.149  -3.185  1.00  0.00    -0.377 OA
ENDROOT
BRANCH   1   2
ATOM      2  C   UNL     1       2.303  -1.166  -3.087  1.00  0.00     0.188 C 
BRANCH   2   3
ATOM      3  C   UNL     1       1.139  -1.434  -4.066  1.00  0.00     0.188 C 
BRANCH   3   4
ATOM      4  O   UNL     1       1.150  -0.601  -5.214  1.00  0.00    -0.376 OA
BRANCH   4   5
ATOM      5  C   UNL     1       0.455   0.631  -5.160  1.00  0.00     0.202 C 
BRANCH   5   6
ATOM      6  C   UNL     1       0.419   1.494  -3.899  1.00  0.00     0.261 C 
BRANCH   6   7
ATOM      7  O   UNL     1       0.296   0.843  -2.632  1.00  0.00    -0.460 OA
BRANCH   7   8
ATOM      8  C   UNL     1      -0.917   0.542  -2.140  1.00  0.00     0.338 C 
ATOM      9  O   UNL     1      -1.996   0.668  -2.691  1.00  0.00    -0.246 OA
BRANCH   8  10
ATOM     10  C   UNL     1      -0.656  -0.183  -0.873  1.00  0.00     0.066 A 
ATOM     11  C   UNL     1      -0.073   0.397   0.283  1.00  0.00     0.004 A 
ATOM     12  C   UNL     1       0.407  -0.524   1.250  1.00  0.00     0.008 A 
ATOM     13  C   UNL     1       0.220  -1.908   1.131  1.00  0.00     0.000 A 
ATOM     14  C   UNL     1      -0.889  -1.571  -0.962  1.00  0.00     0.016 A 
ATOM     15  C   UNL     1      -0.458  -2.430   0.041  1.00  0.00     0.001 A 
BRANCH  11  16
ATOM     16  C   UNL     1       0.059   1.913   0.553  1.00  0.00     0.129 C 
ATOM     17  C   UNL     1      -0.005   2.253   2.061  1.00  0.00     0.054 C 
ATOM     18  N   UNL     1       1.303   2.464   0.014  1.00  0.00    -0.288 NA
ATOM     19  S   UNL     1      -1.256   2.938  -0.217  1.00  0.00    -0.070 SA
ATOM     20  N   UNL     1       1.200   3.428  -0.941  1.00  0.00    -0.171 NA
ATOM     21  H   UNL     1       2.181   2.149   0.329  1.00  0.00     0.185 HD
ATOM     22  C   UNL     1      -0.042   3.656  -1.258  1.00  0.00     0.126 C 
BRANCH  22  23
ATOM     23  C   UNL     1      -0.408   4.372  -2.512  1.00  0.00     0.009 A 
ATOM     24  C   UNL     1       0.626   5.004  -3.223  1.00  0.00     0.011 A 
ATOM     25  C   UNL     1      -1.641   4.160  -3.151  1.00  0.00     0.011 A 
ATOM     26  C   UNL     1       0.465   5.335  -4.570  1.00  0.00     0.001 A 
ATOM     27  C   UNL     1      -1.791   4.481  -4.507  1.00  0.00     0.001 A 
ATOM     28  C   UNL     1      -0.733   5.046  -5.219  1.00  0.00     0.000 A 
ENDBRANCH  22  23
ENDBRANCH  11  16
ENDBRANCH   8  10
ENDBRANCH   7   8
ENDBRANCH   6   7
ENDBRANCH   5   6
ENDBRANCH   4   5
ENDBRANCH   3   4
ENDBRANCH   2   3
ENDBRANCH   1   2
BRANCH   1  29
ATOM     29  C   UNL     1       3.888   0.391  -4.112  1.00  0.00     0.188 C 
BRANCH  29  30
ATOM     30  C   UNL     1       3.940  -0.371  -5.452  1.00  0.00     0.188 C 
BRANCH  30  31
ATOM     31  O   UNL     1       3.674  -1.760  -5.323  1.00  0.00    -0.376 OA
BRANCH  31  32
ATOM     32  C   UNL     1       4.741  -2.685  -5.378  1.00  0.00     0.202 C 
BRANCH  32  33
ATOM     33  C   UNL     1       5.801  -2.610  -4.273  1.00  0.00     0.261 C 
BRANCH  33  34
ATOM     34  O   UNL     1       6.410  -1.331  -4.055  1.00  0.00    -0.460 OA
BRANCH  34  35
ATOM     35  C   UNL     1       7.144  -0.796  -5.054  1.00  0.00     0.338 C 
ATOM     36  O   UNL     1       7.379  -1.280  -6.144  1.00  0.00    -0.246 OA
BRANCH  35  37
ATOM     37  C   UNL     1       7.483   0.583  -4.641  1.00  0.00     0.060 A 
ATOM     38  C   UNL     1       7.046   1.667  -5.414  1.00  0.00     0.016 A 
ATOM     39  C   UNL     1       8.214   0.796  -3.471  1.00  0.00     0.016 A 
ATOM     40  C   UNL     1       7.361   2.972  -5.026  1.00  0.00     0.010 A 
ATOM     41  C   UNL     1       8.547   2.098  -3.096  1.00  0.00     0.010 A 
ATOM     42  C   UNL     1       8.145   3.190  -3.885  1.00  0.00    -0.014 A 
BRANCH  42  43
ATOM     43  C   UNL     1       8.717   4.527  -3.598  1.00  0.00     0.031 A 
ATOM     44  C   UNL     1      10.124   4.803  -4.048  1.00  0.00     0.074 A 
ATOM     45  C   UNL     1       8.023   5.461  -2.925  1.00  0.00     0.049 A 
ATOM     46  N   UNL     1      10.902   5.820  -3.782  1.00  0.00    -0.248 NA
ATOM     47  C   UNL     1      10.740   3.783  -4.913  1.00  0.00     0.031 C 
ATOM     48  C   UNL     1       6.636   5.334  -2.486  1.00  0.00     0.029 A 
ATOM     49  N   UNL     1       8.410   6.698  -2.471  1.00  0.00    -0.354 N 
ATOM     50  C   UNL     1      12.096   5.561  -4.441  1.00  0.00     0.074 A 
ATOM     51  C   UNL     1      11.954   4.280  -5.096  1.00  0.00     0.031 C 
ATOM     52  C   UNL     1       6.293   6.441  -1.805  1.00  0.00     0.029 A 
ATOM     53  C   UNL     1       7.450   7.331  -1.719  1.00  0.00     0.049 A 
ATOM     54  H   UNL     1       9.290   7.094  -2.666  1.00  0.00     0.167 HD
ATOM     55  C   UNL     1      13.210   6.329  -4.498  1.00  0.00     0.037 A 
ATOM     56  C   UNL     1       7.521   8.476  -1.010  1.00  0.00     0.037 A 
ATOM     57  C   UNL     1      13.350   7.596  -3.834  1.00  0.00     0.049 A 
ATOM     58  C   UNL     1       8.816   9.252  -0.990  1.00  0.00     0.074 A 
ATOM     59  C   UNL     1      14.437   8.451  -3.828  1.00  0.00     0.029 A 
ATOM     60  N   UNL     1      12.370   8.185  -3.049  1.00  0.00    -0.354 N 
ATOM     61  N   UNL     1       9.939   9.013  -1.623  1.00  0.00    -0.248 NA
ATOM     62  C   UNL     1       8.857  10.455  -0.143  1.00  0.00     0.031 C 
ATOM     63  C   UNL     1      14.135   9.533  -2.995  1.00  0.00     0.029 A 
ATOM     64  C   UNL     1      12.839   9.380  -2.528  1.00  0.00     0.049 A 
ATOM     65  H   UNL     1      11.474   7.810  -2.886  1.00  0.00     0.167 HD
ATOM     66  C   UNL     1      10.803  10.046  -1.278  1.00  0.00     0.074 A 
ATOM     67  C   UNL     1      10.072  10.923  -0.390  1.00  0.00     0.031 C 
ATOM     68  C   UNL     1      12.088  10.250  -1.659  1.00  0.00     0.037 A 
BRANCH  55  69
ATOM     69  C   UNL     1      14.373   5.807  -5.288  1.00  0.00     0.064 A 
ATOM     70  C   UNL     1      14.342   5.748  -6.689  1.00  0.00     0.173 A 
ATOM     71  C   UNL     1      15.548   5.399  -4.639  1.00  0.00     0.173 A 
ATOM     72  F   UNL     1      13.236   6.111  -7.356  1.00  0.00    -0.203 F 
ATOM     73  C   UNL     1      15.438   5.282  -7.410  1.00  0.00     0.198 A 
ATOM     74  C   UNL     1      16.652   4.961  -5.364  1.00  0.00     0.198 A 
ATOM     75  F   UNL     1      15.629   5.437  -3.300  1.00  0.00    -0.203 F 
ATOM     76  F   UNL     1      15.372   5.194  -8.746  1.00  0.00    -0.200 F 
ATOM     77  C   UNL     1      16.595   4.897  -6.748  1.00  0.00     0.200 A 
ATOM     78  F   UNL     1      17.773   4.602  -4.724  1.00  0.00    -0.200 F 
ATOM     79  F   UNL     1      17.653   4.460  -7.444  1.00  0.00    -0.200 F 
ENDBRANCH  55  69
BRANCH  56  80
ATOM     80  C   UNL     1       6.349   8.951  -0.225  1.00  0.00     0.064 A 
ATOM     81  C   UNL     1       5.701  10.151  -0.552  1.00  0.00     0.173 A 
ATOM     82  C   UNL     1       5.887   8.249   0.898  1.00  0.00     0.173 A 
ATOM     83  F   UNL     1       6.125  10.877  -1.597  1.00  0.00    -0.203 F 
ATOM     84  C   UNL     1       4.657  10.643   0.228  1.00  0.00     0.198 A 
ATOM     85  C   UNL     1       4.820   8.725   1.659  1.00  0.00     0.198 A 
ATOM     86  F   UNL     1       6.477   7.101   1.264  1.00  0.00    -0.203 F 
ATOM     87  F   UNL     1       4.099  11.825  -0.070  1.00  0.00    -0.200 F 
ATOM     88  C   UNL     1       4.214   9.928   1.330  1.00  0.00     0.200 A 
ATOM     89  F   UNL     1       4.392   8.027   2.719  1.00  0.00    -0.200 F 
ATOM     90  F   UNL     1       3.215  10.405   2.085  1.00  0.00    -0.200 F 
ENDBRANCH  56  80
BRANCH  68  91
ATOM     91  C   UNL     1      12.779  11.484  -1.154  1.00  0.00     0.064 A 
ATOM     92  C   UNL     1      13.187  11.604   0.182  1.00  0.00     0.173 A 
ATOM     93  C   UNL     1      13.100  12.528  -2.036  1.00  0.00     0.173 A 
ATOM     94  F   UNL     1      12.893  10.640   1.067  1.00  0.00    -0.203 F 
ATOM     95  C   UNL     1      13.876  12.732   0.620  1.00  0.00     0.198 A 
ATOM     96  C   UNL     1      13.816  13.639  -1.601  1.00  0.00     0.198 A 
ATOM     97  F   UNL     1      12.740  12.459  -3.327  1.00  0.00    -0.203 F 
ATOM     98  F   UNL     1      14.223  12.843   1.910  1.00  0.00    -0.200 F 
ATOM     99  C   UNL     1      14.200  13.743  -0.273  1.00  0.00     0.200 A 
ATOM    100  F   UNL     1      14.143  14.607  -2.470  1.00  0.00    -0.200 F 
ATOM    101  F   UNL     1      14.878  14.819   0.148  1.00  0.00    -0.200 F 
ENDBRANCH  68  91
ENDBRANCH  42  43
ENDBRANCH  35  37
ENDBRANCH  34  35
ENDBRANCH  33  34
ENDBRANCH  32  33
ENDBRANCH  31  32
ENDBRANCH  30  31
ENDBRANCH  29  30
ENDBRANCH   1  29
TORSDOF 22
