REMARK SMILES Cc1cccc(C[N@@H+](C)C[C@]2(C(=O)OCCOCCOCCOCCOC(=O)c3ccc(-c4c5nc(c(-c6c(F)c(F)c(F)c(F)c6F)c6ccc([nH]6)c(-c6c(F)c(F)c(F)c(F)c6F)c6nc(c(-c7c(F)c(F)c(F)c(F)c7F)c7ccc4[nH]7)C=C6)C=C5)cc3)CCOC2)n1
REMARK SMILES IDX 19 1 18 2 17 3 16 4 15 5 14 6 12 7 13 8 11 9 92 10 95 11
REMARK SMILES IDX 93 12 94 13 10 14 8 15 9 16 7 18 6 19 1 20 2 21 3 22 96 23
REMARK SMILES IDX 4 24 5 25 20 26 21 27 22 28 23 29 24 30 25 31 26 32 27 33
REMARK SMILES IDX 28 34 29 35 30 36 91 37 31 38 90 39 32 40 33 41 34 42 84 43
REMARK SMILES IDX 35 44 89 45 83 46 85 47 36 48 88 49 82 50 81 51 37 53 69 54
REMARK SMILES IDX 49 55 68 56 50 57 53 58 67 59 86 60 51 61 52 62 66 64 87 65
REMARK SMILES IDX 54 66 38 67 39 68 47 69 40 70 41 71 45 72 48 73 42 74 43 75
REMARK SMILES IDX 46 76 44 77 70 78 71 79 79 80 72 81 73 82 77 83 80 84 74 85
REMARK SMILES IDX 75 86 78 87 76 88 55 89 56 90 64 91 57 92 58 93 62 94 65 95
REMARK SMILES IDX 59 96 60 97 63 98 61 99
REMARK H PARENT 8 17 85 52 53 63
REMARK Flexibility Score: inf
ROOT
ATOM      1  C   UNL     1      -4.777   4.590   0.341  1.00  0.00     0.188 C 
ENDROOT
BRANCH   1   2
ATOM      2  C   UNL     1      -3.772   3.703  -0.416  1.00  0.00     0.188 C 
BRANCH   2   3
ATOM      3  O   UNL     1      -4.300   2.929  -1.483  1.00  0.00    -0.376 OA
BRANCH   3   4
ATOM      4  C   UNL     1      -4.493   1.541  -1.246  1.00  0.00     0.202 C 
BRANCH   4   5
ATOM      5  C   UNL     1      -5.416   1.209  -0.073  1.00  0.00     0.261 C 
BRANCH   5   6
ATOM      6  O   UNL     1      -4.852   1.647   1.178  1.00  0.00    -0.463 OA
BRANCH   6   7
ATOM      7  C   UNL     1      -3.873   0.887   1.728  1.00  0.00     0.320 C 
ATOM      8  O   UNL     1      -3.599  -0.241   1.340  1.00  0.00    -0.251 OA
BRANCH   7   9
ATOM      9  C   UNL     1      -3.169   1.591   2.880  1.00  0.00     0.142 C 
ATOM     10  C   UNL     1      -3.848   2.856   3.398  1.00  0.00     0.055 C 
ATOM     11  C   UNL     1      -3.399   0.674   4.091  1.00  0.00     0.185 C 
ATOM     12  C   UNL     1      -3.583   2.851   4.886  1.00  0.00     0.161 C 
ATOM     13  O   UNL     1      -3.391   1.490   5.271  1.00  0.00    -0.380 OA
BRANCH   9  14
ATOM     14  C   UNL     1      -1.631   1.729   2.631  1.00  0.00     0.283 C 
BRANCH  14  15
ATOM     15  N   UNL     1      -1.058   2.617   1.622  1.00  0.00    -0.331 N 
ATOM     16  C   UNL     1      -0.996   4.041   1.868  1.00  0.00     0.333 C 
ATOM     17  H   UNL     1      -0.293   2.096   2.052  1.00  0.00     0.348 HD
BRANCH  15  18
ATOM     18  C   UNL     1      -0.711   2.176   0.269  1.00  0.00     0.319 C 
BRANCH  18  19
ATOM     19  C   UNL     1      -0.119   0.788   0.116  1.00  0.00     0.095 A 
ATOM     20  C   UNL     1       3.240  -0.680   0.222  1.00  0.00     0.067 C 
ATOM     21  C   UNL     1       1.751  -0.584   0.124  1.00  0.00     0.038 A 
ATOM     22  C   UNL     1       0.985  -1.707  -0.176  1.00  0.00     0.023 A 
ATOM     23  N   UNL     1       1.218   0.651   0.278  1.00  0.00    -0.252 NA
ATOM     24  C   UNL     1      -0.381  -1.554  -0.344  1.00  0.00     0.004 A 
ATOM     25  C   UNL     1      -0.934  -0.289  -0.218  1.00  0.00     0.030 A 
ENDBRANCH  18  19
ENDBRANCH  15  18
ENDBRANCH  14  15
ENDBRANCH   9  14
ENDBRANCH   7   9
ENDBRANCH   6   7
ENDBRANCH   5   6
ENDBRANCH   4   5
ENDBRANCH   3   4
ENDBRANCH   2   3
ENDBRANCH   1   2
BRANCH   1  26
ATOM     26  O   UNL     1      -6.001   4.983  -0.261  1.00  0.00    -0.377 OA
BRANCH  26  27
ATOM     27  C   UNL     1      -6.079   4.964  -1.673  1.00  0.00     0.188 C 
BRANCH  27  28
ATOM     28  C   UNL     1      -5.055   5.801  -2.461  1.00  0.00     0.188 C 
BRANCH  28  29
ATOM     29  O   UNL     1      -3.919   6.218  -1.706  1.00  0.00    -0.376 OA
BRANCH  29  30
ATOM     30  C   UNL     1      -3.720   7.623  -1.610  1.00  0.00     0.202 C 
BRANCH  30  31
ATOM     31  C   UNL     1      -4.485   8.274  -0.450  1.00  0.00     0.261 C 
BRANCH  31  32
ATOM     32  O   UNL     1      -5.899   8.031  -0.454  1.00  0.00    -0.460 OA
BRANCH  32  33
ATOM     33  C   UNL     1      -6.598   8.546  -1.491  1.00  0.00     0.338 C 
ATOM     34  O   UNL     1      -6.181   9.247  -2.384  1.00  0.00    -0.246 OA
BRANCH  33  35
ATOM     35  C   UNL     1      -7.940   7.922  -1.472  1.00  0.00     0.060 A 
ATOM     36  C   UNL     1      -8.411   7.328  -2.650  1.00  0.00     0.016 A 
ATOM     37  C   UNL     1      -8.698   7.874  -0.298  1.00  0.00     0.016 A 
ATOM     38  C   UNL     1      -9.636   6.664  -2.652  1.00  0.00     0.010 A 
ATOM     39  C   UNL     1      -9.951   7.258  -0.315  1.00  0.00     0.010 A 
ATOM     40  C   UNL     1     -10.430   6.670  -1.497  1.00  0.00    -0.014 A 
BRANCH  40  41
ATOM     41  C   UNL     1     -11.864   6.327  -1.616  1.00  0.00     0.031 A 
ATOM     42  C   UNL     1     -12.790   7.423  -2.066  1.00  0.00     0.074 A 
ATOM     43  C   UNL     1     -12.331   5.096  -1.351  1.00  0.00     0.049 A 
ATOM     44  N   UNL     1     -14.084   7.402  -2.244  1.00  0.00    -0.248 NA
ATOM     45  C   UNL     1     -12.162   8.723  -2.360  1.00  0.00     0.031 C 
ATOM     46  C   UNL     1     -11.524   3.951  -0.938  1.00  0.00     0.029 A 
ATOM     47  N   UNL     1     -13.616   4.612  -1.383  1.00  0.00    -0.354 N 
ATOM     48  C   UNL     1     -14.417   8.673  -2.691  1.00  0.00     0.074 A 
ATOM     49  C   UNL     1     -13.202   9.454  -2.723  1.00  0.00     0.031 C 
ATOM     50  C   UNL     1     -12.338   2.898  -0.731  1.00  0.00     0.029 A 
ATOM     51  C   UNL     1     -13.722   3.304  -0.977  1.00  0.00     0.049 A 
ATOM     52  H   UNL     1     -14.388   5.151  -1.670  1.00  0.00     0.167 HD
ATOM     53  C   UNL     1     -15.630   9.147  -3.053  1.00  0.00     0.037 A 
ATOM     54  C   UNL     1     -14.819   2.541  -0.805  1.00  0.00     0.037 A 
ATOM     55  C   UNL     1     -16.844   8.386  -2.972  1.00  0.00     0.049 A 
ATOM     56  C   UNL     1     -16.176   3.124  -1.122  1.00  0.00     0.074 A 
ATOM     57  C   UNL     1     -18.133   8.779  -3.280  1.00  0.00     0.029 A 
ATOM     58  N   UNL     1     -16.916   7.073  -2.531  1.00  0.00    -0.354 N 
ATOM     59  N   UNL     1     -16.483   4.317  -1.575  1.00  0.00    -0.248 NA
ATOM     60  C   UNL     1     -17.341   2.252  -0.907  1.00  0.00     0.031 C 
ATOM     61  C   UNL     1     -18.992   7.716  -2.984  1.00  0.00     0.029 A 
ATOM     62  C   UNL     1     -18.232   6.644  -2.542  1.00  0.00     0.049 A 
ATOM     63  H   UNL     1     -16.146   6.527  -2.252  1.00  0.00     0.167 HD
ATOM     64  C   UNL     1     -17.864   4.327  -1.728  1.00  0.00     0.074 A 
ATOM     65  C   UNL     1     -18.336   3.018  -1.331  1.00  0.00     0.031 C 
ATOM     66  C   UNL     1     -18.672   5.329  -2.156  1.00  0.00     0.037 A 
BRANCH  53  67
ATOM     67  C   UNL     1     -15.691  10.563  -3.538  1.00  0.00     0.064 A 
ATOM     68  C   UNL     1     -15.168  10.929  -4.789  1.00  0.00     0.173 A 
ATOM     69  C   UNL     1     -16.273  11.564  -2.749  1.00  0.00     0.173 A 
ATOM     70  F   UNL     1     -14.576  10.011  -5.568  1.00  0.00    -0.203 F 
ATOM     71  C   UNL     1     -15.208  12.251  -5.221  1.00  0.00     0.198 A 
ATOM     72  C   UNL     1     -16.335  12.881  -3.196  1.00  0.00     0.198 A 
ATOM     73  F   UNL     1     -16.778  11.267  -1.543  1.00  0.00    -0.203 F 
ATOM     74  F   UNL     1     -14.658  12.587  -6.396  1.00  0.00    -0.200 F 
ATOM     75  C   UNL     1     -15.797  13.225  -4.428  1.00  0.00     0.200 A 
ATOM     76  F   UNL     1     -16.908  13.820  -2.431  1.00  0.00    -0.200 F 
ATOM     77  F   UNL     1     -15.837  14.497  -4.846  1.00  0.00    -0.200 F 
ENDBRANCH  53  67
BRANCH  54  78
ATOM     78  C   UNL     1     -14.697   1.151  -0.289  1.00  0.00     0.064 A 
ATOM     79  C   UNL     1     -15.020   0.046  -1.088  1.00  0.00     0.173 A 
ATOM     80  C   UNL     1     -14.301   0.902   1.034  1.00  0.00     0.173 A 
ATOM     81  F   UNL     1     -15.432   0.231  -2.351  1.00  0.00    -0.203 F 
ATOM     82  C   UNL     1     -14.976  -1.251  -0.578  1.00  0.00     0.198 A 
ATOM     83  C   UNL     1     -14.229  -0.397   1.534  1.00  0.00     0.198 A 
ATOM     84  F   UNL     1     -13.987   1.923   1.845  1.00  0.00    -0.203 F 
ATOM     85  F   UNL     1     -15.345  -2.284  -1.348  1.00  0.00    -0.200 F 
ATOM     86  C   UNL     1     -14.577  -1.472   0.731  1.00  0.00     0.200 A 
ATOM     87  F   UNL     1     -13.836  -0.605   2.798  1.00  0.00    -0.200 F 
ATOM     88  F   UNL     1     -14.540  -2.718   1.222  1.00  0.00    -0.200 F 
ENDBRANCH  54  78
BRANCH  66  89
ATOM     89  C   UNL     1     -20.141   5.037  -2.261  1.00  0.00     0.064 A 
ATOM     90  C   UNL     1     -20.950   4.909  -1.123  1.00  0.00     0.173 A 
ATOM     91  C   UNL     1     -20.755   4.945  -3.520  1.00  0.00     0.173 A 
ATOM     92  F   UNL     1     -20.408   4.979   0.102  1.00  0.00    -0.203 F 
ATOM     93  C   UNL     1     -22.317   4.675  -1.242  1.00  0.00     0.198 A 
ATOM     94  C   UNL     1     -22.127   4.742  -3.634  1.00  0.00     0.198 A 
ATOM     95  F   UNL     1     -20.026   5.072  -4.639  1.00  0.00    -0.203 F 
ATOM     96  F   UNL     1     -23.065   4.513  -0.141  1.00  0.00    -0.200 F 
ATOM     97  C   UNL     1     -22.905   4.600  -2.496  1.00  0.00     0.200 A 
ATOM     98  F   UNL     1     -22.695   4.686  -4.846  1.00  0.00    -0.200 F 
ATOM     99  F   UNL     1     -24.224   4.386  -2.607  1.00  0.00    -0.200 F 
ENDBRANCH  66  89
ENDBRANCH  40  41
ENDBRANCH  33  35
ENDBRANCH  32  33
ENDBRANCH  31  32
ENDBRANCH  30  31
ENDBRANCH  29  30
ENDBRANCH  28  29
ENDBRANCH  27  28
ENDBRANCH  26  27
ENDBRANCH   1  26
TORSDOF 24
