REMARK SMILES CCN(C(=O)Nc1cc(OC)ccc1F)[C@H](C)CC(=O)OCCOCCOCCOCCOC(=O)c1ccc(-c2c3nc(c(-c4c(F)c(F)c(F)c(F)c4F)c4ccc([nH]4)c(-c4c(F)c(F)c(F)c(F)c4F)c4nc(c(-c5c(F)c(F)c(F)c(F)c5F)c5ccc2[nH]5)C=C4)C=C3)cc1
REMARK SMILES IDX 25 1 24 2 23 3 22 4 21 5 19 6 20 7 18 8 16 9 17 10 3 11 2 12
REMARK SMILES IDX 1 13 4 14 5 15 6 16 7 18 8 19 14 20 9 21 13 22 15 23 12 24
REMARK SMILES IDX 10 25 11 26 26 27 27 28 28 29 29 30 30 31 31 32 32 33 33 34
REMARK SMILES IDX 34 35 35 36 36 37 37 38 98 39 38 40 97 41 39 42 40 43 41 44
REMARK SMILES IDX 91 45 42 46 96 47 90 48 92 49 43 50 95 51 89 52 88 53 44 55
REMARK SMILES IDX 76 56 56 57 75 58 57 59 60 60 74 61 93 62 58 63 59 64 73 66
REMARK SMILES IDX 94 67 61 68 45 69 46 70 54 71 47 72 48 73 52 74 55 75 49 76
REMARK SMILES IDX 50 77 53 78 51 79 77 80 78 81 86 82 79 83 80 84 84 85 87 86
REMARK SMILES IDX 81 87 82 88 85 89 83 90 62 91 63 92 71 93 64 94 65 95 69 96
REMARK SMILES IDX 72 97 66 98 67 99 70 100 68 101
REMARK H PARENT 6 17 92 54 60 65
REMARK Flexibility Score: inf
ROOT
ATOM      1  C   UNL     1       3.199   4.763  -0.800  1.00  0.00     0.188 C 
ENDROOT
BRANCH   1   2
ATOM      2  O   UNL     1       2.334   5.299  -1.774  1.00  0.00    -0.376 OA
BRANCH   2   3
ATOM      3  C   UNL     1       1.324   4.503  -2.371  1.00  0.00     0.202 C 
BRANCH   3   4
ATOM      4  C   UNL     1       1.176   2.976  -2.223  1.00  0.00     0.261 C 
BRANCH   4   5
ATOM      5  O   UNL     1       1.526   2.377  -0.965  1.00  0.00    -0.463 OA
BRANCH   5   6
ATOM      6  C   UNL     1       2.528   1.471  -1.013  1.00  0.00     0.307 C 
ATOM      7  O   UNL     1       3.169   1.220  -2.032  1.00  0.00    -0.252 OA
BRANCH   6   8
ATOM      8  C   UNL     1       2.849   0.753   0.276  1.00  0.00     0.147 C 
BRANCH   8   9
ATOM      9  C   UNL     1       2.297   1.190   1.642  1.00  0.00     0.094 C 
ATOM     10  C   UNL     1       0.771   1.082   1.774  1.00  0.00     0.032 C 
BRANCH   9  11
ATOM     11  N   UNL     1       3.036   0.480   2.738  1.00  0.00    -0.322 N 
BRANCH  11  12
ATOM     12  C   UNL     1       4.158   1.215   3.358  1.00  0.00     0.118 C 
ATOM     13  C   UNL     1       5.201   1.828   2.434  1.00  0.00     0.027 C 
ENDBRANCH  11  12
BRANCH  11  14
ATOM     14  C   UNL     1       2.703  -0.837   2.980  1.00  0.00     0.322 C 
ATOM     15  O   UNL     1       1.983  -1.478   2.204  1.00  0.00    -0.248 OA
ATOM     16  N   UNL     1       3.224  -1.572   3.988  1.00  0.00    -0.305 N 
ATOM     17  H   UNL     1       3.092  -2.539   3.857  1.00  0.00     0.171 HD
BRANCH  16  18
ATOM     18  C   UNL     1       3.908  -1.281   5.173  1.00  0.00     0.082 A 
ATOM     19  C   UNL     1       4.970  -2.135   5.481  1.00  0.00     0.075 A 
ATOM     20  C   UNL     1       3.665  -0.178   5.992  1.00  0.00     0.147 A 
ATOM     21  C   UNL     1       5.885  -1.799   6.480  1.00  0.00     0.121 A 
ATOM     22  C   UNL     1       4.559   0.155   7.007  1.00  0.00     0.045 A 
ATOM     23  F   UNL     1       2.605   0.616   5.783  1.00  0.00    -0.205 F 
ATOM     24  C   UNL     1       5.691  -0.638   7.230  1.00  0.00     0.049 A 
BRANCH  21  25
ATOM     25  O   UNL     1       6.933  -2.669   6.582  1.00  0.00    -0.497 OA
ATOM     26  C   UNL     1       7.960  -2.345   7.507  1.00  0.00     0.278 C 
ENDBRANCH  21  25
ENDBRANCH  16  18
ENDBRANCH  11  14
ENDBRANCH   9  11
ENDBRANCH   8   9
ENDBRANCH   6   8
ENDBRANCH   5   6
ENDBRANCH   4   5
ENDBRANCH   3   4
ENDBRANCH   2   3
ENDBRANCH   1   2
BRANCH   1  27
ATOM     27  C   UNL     1       2.672   4.642   0.631  1.00  0.00     0.188 C 
BRANCH  27  28
ATOM     28  O   UNL     1       1.306   4.332   0.815  1.00  0.00    -0.377 OA
BRANCH  28  29
ATOM     29  C   UNL     1       0.317   5.340   0.631  1.00  0.00     0.188 C 
BRANCH  29  30
ATOM     30  C   UNL     1       0.710   6.800   0.332  1.00  0.00     0.188 C 
BRANCH  30  31
ATOM     31  O   UNL     1       1.937   7.223   0.900  1.00  0.00    -0.376 OA
BRANCH  31  32
ATOM     32  C   UNL     1       1.919   7.866   2.165  1.00  0.00     0.202 C 
BRANCH  32  33
ATOM     33  C   UNL     1       1.331   7.091   3.355  1.00  0.00     0.261 C 
BRANCH  33  34
ATOM     34  O   UNL     1      -0.059   6.740   3.259  1.00  0.00    -0.460 OA
BRANCH  34  35
ATOM     35  C   UNL     1      -0.951   7.729   3.056  1.00  0.00     0.338 C 
ATOM     36  O   UNL     1      -0.734   8.930   3.004  1.00  0.00    -0.246 OA
BRANCH  35  37
ATOM     37  C   UNL     1      -2.244   7.106   2.719  1.00  0.00     0.060 A 
ATOM     38  C   UNL     1      -2.815   7.358   1.465  1.00  0.00     0.016 A 
ATOM     39  C   UNL     1      -2.898   6.294   3.648  1.00  0.00     0.016 A 
ATOM     40  C   UNL     1      -4.068   6.833   1.153  1.00  0.00     0.010 A 
ATOM     41  C   UNL     1      -4.161   5.785   3.341  1.00  0.00     0.010 A 
ATOM     42  C   UNL     1      -4.768   6.085   2.108  1.00  0.00    -0.014 A 
BRANCH  42  43
ATOM     43  C   UNL     1      -6.204   5.787   1.900  1.00  0.00     0.031 A 
ATOM     44  C   UNL     1      -7.222   6.672   2.562  1.00  0.00     0.074 A 
ATOM     45  C   UNL     1      -6.602   4.771   1.117  1.00  0.00     0.049 A 
ATOM     46  N   UNL     1      -8.527   6.585   2.566  1.00  0.00    -0.248 NA
ATOM     47  C   UNL     1      -6.691   7.812   3.327  1.00  0.00     0.031 C 
ATOM     48  C   UNL     1      -5.713   3.880   0.377  1.00  0.00     0.029 A 
ATOM     49  N   UNL     1      -7.864   4.319   0.819  1.00  0.00    -0.354 N 
ATOM     50  C   UNL     1      -8.972   7.655   3.330  1.00  0.00     0.074 A 
ATOM     51  C   UNL     1      -7.799   8.351   3.811  1.00  0.00     0.031 C 
ATOM     52  C   UNL     1      -6.458   2.984  -0.292  1.00  0.00     0.029 A 
ATOM     53  C   UNL     1      -7.873   3.216   0.003  1.00  0.00     0.049 A 
ATOM     54  H   UNL     1      -8.684   4.747   1.157  1.00  0.00     0.167 HD
ATOM     55  C   UNL     1     -10.245   8.032   3.593  1.00  0.00     0.037 A 
ATOM     56  C   UNL     1      -8.904   2.470  -0.438  1.00  0.00     0.037 A 
ATOM     57  C   UNL     1     -11.408   7.327   3.123  1.00  0.00     0.049 A 
ATOM     58  C   UNL     1     -10.311   2.840  -0.048  1.00  0.00     0.074 A 
ATOM     59  C   UNL     1     -12.742   7.625   3.339  1.00  0.00     0.029 A 
ATOM     60  N   UNL     1     -11.375   6.174   2.351  1.00  0.00    -0.354 N 
ATOM     61  N   UNL     1     -10.729   3.853   0.673  1.00  0.00    -0.248 NA
ATOM     62  C   UNL     1     -11.389   1.965  -0.530  1.00  0.00     0.031 C 
ATOM     63  C   UNL     1     -13.514   6.618   2.752  1.00  0.00     0.029 A 
ATOM     64  C   UNL     1     -12.666   5.730   2.108  1.00  0.00     0.049 A 
ATOM     65  H   UNL     1     -10.556   5.736   2.024  1.00  0.00     0.167 HD
ATOM     66  C   UNL     1     -12.114   3.753   0.711  1.00  0.00     0.074 A 
ATOM     67  C   UNL     1     -12.468   2.583  -0.067  1.00  0.00     0.031 C 
ATOM     68  C   UNL     1     -13.009   4.563   1.332  1.00  0.00     0.037 A 
BRANCH  55  69
ATOM     69  C   UNL     1     -10.442   9.250   4.452  1.00  0.00     0.064 A 
ATOM     70  C   UNL     1     -10.995   9.134   5.736  1.00  0.00     0.173 A 
ATOM     71  C   UNL     1     -10.104  10.535   3.999  1.00  0.00     0.173 A 
ATOM     72  F   UNL     1     -11.340   7.931   6.219  1.00  0.00    -0.203 F 
ATOM     73  C   UNL     1     -11.205  10.257   6.532  1.00  0.00     0.198 A 
ATOM     74  C   UNL     1     -10.281  11.652   4.811  1.00  0.00     0.198 A 
ATOM     75  F   UNL     1      -9.558  10.701   2.784  1.00  0.00    -0.203 F 
ATOM     76  F   UNL     1     -11.758  10.123   7.745  1.00  0.00    -0.200 F 
ATOM     77  C   UNL     1     -10.838  11.513   6.073  1.00  0.00     0.200 A 
ATOM     78  F   UNL     1      -9.896  12.860   4.379  1.00  0.00    -0.200 F 
ATOM     79  F   UNL     1     -11.015  12.590   6.851  1.00  0.00    -0.200 F 
ENDBRANCH  55  69
BRANCH  56  80
ATOM     80  C   UNL     1      -8.627   1.308  -1.321  1.00  0.00     0.064 A 
ATOM     81  C   UNL     1      -7.973   0.164  -0.839  1.00  0.00     0.173 A 
ATOM     82  C   UNL     1      -8.954   1.348  -2.683  1.00  0.00     0.173 A 
ATOM     83  F   UNL     1      -7.643   0.076   0.458  1.00  0.00    -0.203 F 
ATOM     84  C   UNL     1      -7.620  -0.878  -1.694  1.00  0.00     0.198 A 
ATOM     85  C   UNL     1      -8.623   0.294  -3.533  1.00  0.00     0.198 A 
ATOM     86  F   UNL     1      -9.603   2.408  -3.185  1.00  0.00    -0.203 F 
ATOM     87  F   UNL     1      -6.953  -1.937  -1.218  1.00  0.00    -0.200 F 
ATOM     88  C   UNL     1      -7.944  -0.811  -3.041  1.00  0.00     0.200 A 
ATOM     89  F   UNL     1      -8.957   0.352  -4.829  1.00  0.00    -0.200 F 
ATOM     90  F   UNL     1      -7.601  -1.810  -3.865  1.00  0.00    -0.200 F 
ENDBRANCH  56  80
BRANCH  68  91
ATOM     91  C   UNL     1     -14.470   4.241   1.188  1.00  0.00     0.064 A 
ATOM     92  C   UNL     1     -15.318   5.100   0.470  1.00  0.00     0.173 A 
ATOM     93  C   UNL     1     -15.051   3.143   1.839  1.00  0.00     0.173 A 
ATOM     94  F   UNL     1     -14.816   6.171  -0.164  1.00  0.00    -0.203 F 
ATOM     95  C   UNL     1     -16.693   4.886   0.430  1.00  0.00     0.198 A 
ATOM     96  C   UNL     1     -16.423   2.913   1.770  1.00  0.00     0.198 A 
ATOM     97  F   UNL     1     -14.286   2.285   2.530  1.00  0.00    -0.203 F 
ATOM     98  F   UNL     1     -17.486   5.747  -0.222  1.00  0.00    -0.200 F 
ATOM     99  C   UNL     1     -17.244   3.791   1.077  1.00  0.00     0.200 A 
ATOM    100  F   UNL     1     -16.953   1.842   2.376  1.00  0.00    -0.200 F 
ATOM    101  F   UNL     1     -18.567   3.582   1.034  1.00  0.00    -0.200 F 
ENDBRANCH  68  91
ENDBRANCH  42  43
ENDBRANCH  35  37
ENDBRANCH  34  35
ENDBRANCH  33  34
ENDBRANCH  32  33
ENDBRANCH  31  32
ENDBRANCH  30  31
ENDBRANCH  29  30
ENDBRANCH  28  29
ENDBRANCH  27  28
ENDBRANCH   1  27
TORSDOF 26
