REMARK SMILES O=C(OCCOCCOCCOCCOC(=O)[C@@H](F)[C@H](O)c1cccc(Cl)c1)c1ccc(-c2c3nc(c(-c4c(F)c(F)c(F)c(F)c4F)c4ccc([nH]4)c(-c4c(F)c(F)c(F)c(F)c4F)c4nc(c(-c5c(F)c(F)c(F)c(F)c5F)c5ccc2[nH]5)C=C4)C=C3)cc1
REMARK SMILES IDX 9 1 8 2 7 3 6 4 5 5 4 6 3 7 2 8 1 9 29 10 30 11 91 12 31 13
REMARK SMILES IDX 90 14 32 15 33 16 34 17 84 18 35 19 89 20 83 21 85 22 36 23
REMARK SMILES IDX 88 24 82 25 81 26 37 28 69 29 49 30 68 31 50 32 53 33 67 34
REMARK SMILES IDX 86 35 51 36 52 37 66 39 87 40 54 41 38 42 39 43 47 44 40 45
REMARK SMILES IDX 41 46 45 47 48 48 42 49 43 50 46 51 44 52 70 53 71 54 79 55
REMARK SMILES IDX 72 56 73 57 77 58 80 59 74 60 75 61 78 62 76 63 55 64 56 65
REMARK SMILES IDX 64 66 57 67 58 68 62 69 65 70 59 71 60 72 63 73 61 74 10 75
REMARK SMILES IDX 11 76 12 77 13 78 14 79 15 80 16 81 17 82 18 83 19 84 20 85
REMARK SMILES IDX 22 86 23 87 28 88 24 89 26 90 25 91 27 92 21 93
REMARK H PARENT 85 27 53 38 21 94
REMARK Flexibility Score: inf
ROOT
ATOM      1  O   UNL     1       5.869   5.312   4.888  1.00  0.00    -0.377 OA
ENDROOT
BRANCH   1   2
ATOM      2  C   UNL     1       5.832   4.217   5.800  1.00  0.00     0.188 C 
BRANCH   2   3
ATOM      3  C   UNL     1       6.804   4.338   6.968  1.00  0.00     0.188 C 
BRANCH   3   4
ATOM      4  O   UNL     1       6.482   5.484   7.740  1.00  0.00    -0.376 OA
BRANCH   4   5
ATOM      5  C   UNL     1       7.489   6.135   8.489  1.00  0.00     0.202 C 
BRANCH   5   6
ATOM      6  C   UNL     1       8.454   5.266   9.293  1.00  0.00     0.261 C 
BRANCH   6   7
ATOM      7  O   UNL     1       8.172   3.848   9.350  1.00  0.00    -0.460 OA
BRANCH   7   8
ATOM      8  C   UNL     1       7.324   3.144  10.137  1.00  0.00     0.338 C 
ATOM      9  O   UNL     1       7.405   1.922  10.201  1.00  0.00    -0.246 OA
BRANCH   8  10
ATOM     10  C   UNL     1       6.300   3.824  10.953  1.00  0.00     0.060 A 
ATOM     11  C   UNL     1       5.490   4.815  10.427  1.00  0.00     0.016 A 
ATOM     12  C   UNL     1       6.043   3.385  12.252  1.00  0.00     0.016 A 
ATOM     13  C   UNL     1       4.689   5.589  11.235  1.00  0.00     0.010 A 
ATOM     14  C   UNL     1       5.076   4.036  13.029  1.00  0.00     0.010 A 
ATOM     15  C   UNL     1       4.452   5.197  12.545  1.00  0.00    -0.014 A 
BRANCH  15  16
ATOM     16  C   UNL     1       3.630   6.087  13.392  1.00  0.00     0.031 A 
ATOM     17  C   UNL     1       4.268   6.703  14.603  1.00  0.00     0.074 A 
ATOM     18  C   UNL     1       2.400   6.462  12.983  1.00  0.00     0.049 A 
ATOM     19  N   UNL     1       3.731   7.435  15.541  1.00  0.00    -0.248 NA
ATOM     20  C   UNL     1       5.711   6.464  14.783  1.00  0.00     0.031 C 
ATOM     21  C   UNL     1       1.745   6.017  11.746  1.00  0.00     0.029 A 
ATOM     22  N   UNL     1       1.501   7.341  13.526  1.00  0.00    -0.354 N 
ATOM     23  C   UNL     1       4.755   7.698  16.441  1.00  0.00     0.074 A 
ATOM     24  C   UNL     1       5.943   7.041  15.950  1.00  0.00     0.031 C 
ATOM     25  C   UNL     1       0.589   6.677  11.593  1.00  0.00     0.029 A 
ATOM     26  C   UNL     1       0.356   7.487  12.779  1.00  0.00     0.049 A 
ATOM     27  H   UNL     1       1.659   7.822  14.371  1.00  0.00     0.167 HD
ATOM     28  C   UNL     1       4.696   8.428  17.578  1.00  0.00     0.037 A 
ATOM     29  C   UNL     1      -0.778   8.156  13.056  1.00  0.00     0.037 A 
ATOM     30  C   UNL     1       3.501   9.091  18.019  1.00  0.00     0.049 A 
ATOM     31  C   UNL     1      -0.846   8.882  14.372  1.00  0.00     0.074 A 
ATOM     32  C   UNL     1       3.273   9.785  19.191  1.00  0.00     0.029 A 
ATOM     33  N   UNL     1       2.326   9.151  17.278  1.00  0.00    -0.354 N 
ATOM     34  N   UNL     1       0.086   9.026  15.285  1.00  0.00    -0.248 NA
ATOM     35  C   UNL     1      -2.125   9.514  14.710  1.00  0.00     0.031 C 
ATOM     36  C   UNL     1       1.947  10.234  19.176  1.00  0.00     0.029 A 
ATOM     37  C   UNL     1       1.366   9.866  17.971  1.00  0.00     0.049 A 
ATOM     38  H   UNL     1       2.197   8.745  16.391  1.00  0.00     0.167 HD
ATOM     39  C   UNL     1      -0.489   9.770  16.303  1.00  0.00     0.074 A 
ATOM     40  C   UNL     1      -1.840  10.079  15.874  1.00  0.00     0.031 C 
ATOM     41  C   UNL     1       0.036  10.151  17.494  1.00  0.00     0.037 A 
BRANCH  28  42
ATOM     42  C   UNL     1       5.932   8.477  18.427  1.00  0.00     0.064 A 
ATOM     43  C   UNL     1       7.076   9.190  18.038  1.00  0.00     0.173 A 
ATOM     44  C   UNL     1       5.983   7.766  19.635  1.00  0.00     0.173 A 
ATOM     45  F   UNL     1       7.093   9.857  16.874  1.00  0.00    -0.203 F 
ATOM     46  C   UNL     1       8.233   9.167  18.814  1.00  0.00     0.198 A 
ATOM     47  C   UNL     1       7.132   7.768  20.423  1.00  0.00     0.198 A 
ATOM     48  F   UNL     1       4.922   7.057  20.048  1.00  0.00    -0.203 F 
ATOM     49  F   UNL     1       9.335   9.805  18.392  1.00  0.00    -0.200 F 
ATOM     50  C   UNL     1       8.258   8.461  20.008  1.00  0.00     0.200 A 
ATOM     51  F   UNL     1       7.153   7.085  21.576  1.00  0.00    -0.200 F 
ATOM     52  F   UNL     1       9.374   8.435  20.750  1.00  0.00    -0.200 F 
ENDBRANCH  28  42
BRANCH  29  53
ATOM     53  C   UNL     1      -1.949   8.088  12.137  1.00  0.00     0.064 A 
ATOM     54  C   UNL     1      -2.485   9.238  11.541  1.00  0.00     0.173 A 
ATOM     55  C   UNL     1      -2.587   6.865  11.864  1.00  0.00     0.173 A 
ATOM     56  F   UNL     1      -1.931  10.436  11.779  1.00  0.00    -0.203 F 
ATOM     57  C   UNL     1      -3.623   9.173  10.737  1.00  0.00     0.198 A 
ATOM     58  C   UNL     1      -3.699   6.795  11.027  1.00  0.00     0.198 A 
ATOM     59  F   UNL     1      -2.124   5.728  12.405  1.00  0.00    -0.203 F 
ATOM     60  F   UNL     1      -4.151  10.297  10.234  1.00  0.00    -0.200 F 
ATOM     61  C   UNL     1      -4.226   7.951  10.476  1.00  0.00     0.200 A 
ATOM     62  F   UNL     1      -4.262   5.608  10.763  1.00  0.00    -0.200 F 
ATOM     63  F   UNL     1      -5.320   7.890   9.705  1.00  0.00    -0.200 F 
ENDBRANCH  29  53
BRANCH  41  64
ATOM     64  C   UNL     1      -0.852  10.967  18.383  1.00  0.00     0.064 A 
ATOM     65  C   UNL     1      -1.956  10.401  19.035  1.00  0.00     0.173 A 
ATOM     66  C   UNL     1      -0.579  12.326  18.595  1.00  0.00     0.173 A 
ATOM     67  F   UNL     1      -2.265   9.109  18.846  1.00  0.00    -0.203 F 
ATOM     68  C   UNL     1      -2.779  11.178  19.843  1.00  0.00     0.198 A 
ATOM     69  C   UNL     1      -1.383  13.090  19.433  1.00  0.00     0.198 A 
ATOM     70  F   UNL     1       0.471  12.908  17.997  1.00  0.00    -0.203 F 
ATOM     71  F   UNL     1      -3.866  10.634  20.408  1.00  0.00    -0.200 F 
ATOM     72  C   UNL     1      -2.488  12.519  20.047  1.00  0.00     0.200 A 
ATOM     73  F   UNL     1      -1.092  14.382  19.641  1.00  0.00    -0.200 F 
ATOM     74  F   UNL     1      -3.280  13.265  20.829  1.00  0.00    -0.200 F 
ENDBRANCH  41  64
ENDBRANCH  15  16
ENDBRANCH   8  10
ENDBRANCH   7   8
ENDBRANCH   6   7
ENDBRANCH   5   6
ENDBRANCH   4   5
ENDBRANCH   3   4
ENDBRANCH   2   3
ENDBRANCH   1   2
BRANCH   1  75
ATOM     75  C   UNL     1       5.712   6.629   5.412  1.00  0.00     0.188 C 
BRANCH  75  76
ATOM     76  C   UNL     1       4.386   6.990   6.124  1.00  0.00     0.188 C 
BRANCH  76  77
ATOM     77  O   UNL     1       3.845   5.930   6.899  1.00  0.00    -0.376 OA
BRANCH  77  78
ATOM     78  C   UNL     1       2.530   5.494   6.575  1.00  0.00     0.202 C 
BRANCH  78  79
ATOM     79  C   UNL     1       2.226   4.955   5.158  1.00  0.00     0.261 C 
BRANCH  79  80
ATOM     80  O   UNL     1       3.183   5.301   4.150  1.00  0.00    -0.461 OA
BRANCH  80  81
ATOM     81  C   UNL     1       2.872   6.297   3.286  1.00  0.00     0.343 C 
ATOM     82  O   UNL     1       1.789   6.886   3.276  1.00  0.00    -0.249 OA
BRANCH  81  83
ATOM     83  C   UNL     1       4.063   6.742   2.464  1.00  0.00     0.308 C 
ATOM     84  F   UNL     1       5.134   5.896   2.504  1.00  0.00    -0.232 F 
BRANCH  83  85
ATOM     85  C   UNL     1       3.659   6.962   1.008  1.00  0.00     0.190 C 
BRANCH  85  86
ATOM     86  C   UNL     1       4.456   8.102   0.391  1.00  0.00    -0.015 A 
ATOM     87  C   UNL     1       5.470   7.895  -0.555  1.00  0.00     0.006 A 
ATOM     88  C   UNL     1       4.173   9.422   0.791  1.00  0.00     0.027 A 
ATOM     89  C   UNL     1       6.143   8.981  -1.125  1.00  0.00     0.002 A 
ATOM     90  C   UNL     1       4.860  10.499   0.233  1.00  0.00     0.041 A 
ATOM     91  C   UNL     1       5.833  10.284  -0.737  1.00  0.00     0.020 A 
ATOM     92  Cl  UNL     1       4.497  12.100   0.748  1.00  0.00    -0.084 Cl
ENDBRANCH  85  86
BRANCH  85  93
ATOM     93  O   UNL     1       3.806   5.745   0.270  1.00  0.00    -0.385 OA
ATOM     94  H   UNL     1       4.735   5.465   0.288  1.00  0.00     0.211 HD
ENDBRANCH  85  93
ENDBRANCH  83  85
ENDBRANCH  81  83
ENDBRANCH  80  81
ENDBRANCH  79  80
ENDBRANCH  78  79
ENDBRANCH  77  78
ENDBRANCH  76  77
ENDBRANCH  75  76
ENDBRANCH   1  75
TORSDOF 23
