REMARK SMILES C[C@H]1CC[C@H]([NH2+]Cc2c(C(=O)OCCOCCOCCOCCOC(=O)c3ccc(-c4c5nc(c(-c6c(F)c(F)c(F)c(F)c6F)c6ccc([nH]6)c(-c6c(F)c(F)c(F)c(F)c6F)c6nc(c(-c7c(F)c(F)c(F)c(F)c7F)c7ccc4[nH]7)C=C6)C=C5)cc3)n(Cc3ccccc3F)c3ccccc23)CC1
REMARK SMILES IDX 17 1 16 2 15 3 14 4 13 5 12 6 10 7 11 8 9 9 8 10 104 11
REMARK SMILES IDX 90 12 99 13 103 14 100 15 102 16 101 17 7 18 6 19 5 22 1 23
REMARK SMILES IDX 2 24 3 25 106 26 4 27 105 28 91 29 92 30 93 31 97 32 94 33
REMARK SMILES IDX 96 34 98 35 95 36 18 37 19 38 20 39 21 40 22 41 23 42 24 43
REMARK SMILES IDX 25 44 26 45 27 46 28 47 89 48 29 49 88 50 30 51 31 52 32 53
REMARK SMILES IDX 82 54 33 55 87 56 81 57 83 58 34 59 86 60 80 61 79 62 35 64
REMARK SMILES IDX 67 65 47 66 66 67 48 68 51 69 65 70 84 71 49 72 50 73 64 75
REMARK SMILES IDX 85 76 52 77 36 78 37 79 45 80 38 81 39 82 43 83 46 84 40 85
REMARK SMILES IDX 41 86 44 87 42 88 68 89 69 90 77 91 70 92 71 93 75 94 78 95
REMARK SMILES IDX 72 96 73 97 76 98 74 99 53 100 54 101 62 102 55 103 56 104
REMARK SMILES IDX 60 105 63 106 57 107 58 108 61 109 59 110
REMARK H PARENT 6 20 6 21 83 63 51 74
REMARK Flexibility Score: inf
ROOT
ATOM      1  C   UNL     1      -2.437  -1.872   4.336  1.00  0.00     0.188 C 
ENDROOT
BRANCH   1   2
ATOM      2  C   UNL     1      -0.933  -1.841   4.645  1.00  0.00     0.188 C 
BRANCH   2   3
ATOM      3  O   UNL     1      -0.379  -0.540   4.751  1.00  0.00    -0.376 OA
BRANCH   3   4
ATOM      4  C   UNL     1       0.414  -0.100   3.667  1.00  0.00     0.202 C 
BRANCH   4   5
ATOM      5  C   UNL     1      -0.279   0.137   2.327  1.00  0.00     0.261 C 
BRANCH   5   6
ATOM      6  O   UNL     1      -1.170  -0.879   1.812  1.00  0.00    -0.459 OA
BRANCH   6   7
ATOM      7  C   UNL     1      -0.726  -2.114   1.467  1.00  0.00     0.355 C 
ATOM      8  O   UNL     1       0.442  -2.458   1.575  1.00  0.00    -0.244 OA
BRANCH   7   9
ATOM      9  C   UNL     1      -1.822  -2.971   0.997  1.00  0.00     0.137 A 
ATOM     10  C   UNL     1      -2.988  -2.673   0.256  1.00  0.00     0.047 A 
ATOM     11  C   UNL     1      -3.623  -3.923  -0.066  1.00  0.00     0.009 A 
ATOM     12  N   UNL     1      -1.835  -4.362   1.184  1.00  0.00    -0.330 N 
ATOM     13  C   UNL     1      -2.787  -4.944   0.362  1.00  0.00     0.050 A 
ATOM     14  C   UNL     1      -4.799  -4.260  -0.777  1.00  0.00     0.011 A 
ATOM     15  C   UNL     1      -3.011  -6.280  -0.015  1.00  0.00     0.027 A 
ATOM     16  C   UNL     1      -5.072  -5.595  -1.084  1.00  0.00     0.001 A 
ATOM     17  C   UNL     1      -4.172  -6.589  -0.729  1.00  0.00     0.002 A 
BRANCH  10  18
ATOM     18  C   UNL     1      -3.568  -1.396  -0.311  1.00  0.00     0.300 C 
BRANCH  18  19
ATOM     19  N   UNL     1      -2.678  -0.263  -0.318  1.00  0.00    -0.340 N 
ATOM     20  H   UNL     1      -3.256   0.569  -0.201  1.00  0.00     0.346 HD
ATOM     21  H   UNL     1      -2.015  -0.476   0.428  1.00  0.00     0.346 HD
BRANCH  19  22
ATOM     22  C   UNL     1      -1.818  -0.024  -1.481  1.00  0.00     0.182 C 
ATOM     23  C   UNL     1       2.506  -0.284  -0.658  1.00  0.00     0.007 C 
ATOM     24  C   UNL     1       1.005  -0.224  -0.909  1.00  0.00    -0.014 C 
ATOM     25  C   UNL     1       0.530  -1.105  -2.045  1.00  0.00     0.009 C 
ATOM     26  C   UNL     1       0.476   1.179  -1.148  1.00  0.00     0.009 C 
ATOM     27  C   UNL     1      -0.994  -1.228  -2.012  1.00  0.00     0.065 C 
ATOM     28  C   UNL     1      -1.040   1.267  -1.138  1.00  0.00     0.065 C 
ENDBRANCH  19  22
ENDBRANCH  18  19
ENDBRANCH  10  18
BRANCH  12  29
ATOM     29  C   UNL     1      -0.934  -5.148   2.046  1.00  0.00     0.161 C 
BRANCH  29  30
ATOM     30  C   UNL     1      -1.573  -5.674   3.321  1.00  0.00     0.008 A 
ATOM     31  C   UNL     1      -2.623  -6.605   3.325  1.00  0.00     0.008 A 
ATOM     32  C   UNL     1      -1.061  -5.305   4.569  1.00  0.00     0.128 A 
ATOM     33  C   UNL     1      -3.162  -7.099   4.519  1.00  0.00     0.001 A 
ATOM     34  C   UNL     1      -1.613  -5.761   5.768  1.00  0.00     0.039 A 
ATOM     35  F   UNL     1       0.018  -4.516   4.641  1.00  0.00    -0.207 F 
ATOM     36  C   UNL     1      -2.670  -6.663   5.744  1.00  0.00     0.003 A 
ENDBRANCH  29  30
ENDBRANCH  12  29
ENDBRANCH   7   9
ENDBRANCH   6   7
ENDBRANCH   5   6
ENDBRANCH   4   5
ENDBRANCH   3   4
ENDBRANCH   2   3
ENDBRANCH   1   2
BRANCH   1  37
ATOM     37  O   UNL     1      -2.952  -0.726   3.689  1.00  0.00    -0.377 OA
BRANCH  37  38
ATOM     38  C   UNL     1      -3.014   0.500   4.408  1.00  0.00     0.188 C 
BRANCH  38  39
ATOM     39  C   UNL     1      -2.646   0.578   5.901  1.00  0.00     0.188 C 
BRANCH  39  40
ATOM     40  O   UNL     1      -3.211  -0.479   6.655  1.00  0.00    -0.376 OA
BRANCH  40  41
ATOM     41  C   UNL     1      -4.349  -0.146   7.435  1.00  0.00     0.202 C 
BRANCH  41  42
ATOM     42  C   UNL     1      -5.587   0.350   6.667  1.00  0.00     0.261 C 
BRANCH  42  43
ATOM     43  O   UNL     1      -5.389   1.550   5.888  1.00  0.00    -0.460 OA
BRANCH  43  44
ATOM     44  C   UNL     1      -5.130   2.723   6.515  1.00  0.00     0.338 C 
ATOM     45  O   UNL     1      -5.298   2.965   7.693  1.00  0.00    -0.246 OA
BRANCH  44  46
ATOM     46  C   UNL     1      -4.274   3.525   5.582  1.00  0.00     0.060 A 
ATOM     47  C   UNL     1      -4.446   3.469   4.195  1.00  0.00     0.016 A 
ATOM     48  C   UNL     1      -3.112   4.115   6.109  1.00  0.00     0.016 A 
ATOM     49  C   UNL     1      -3.424   3.918   3.354  1.00  0.00     0.010 A 
ATOM     50  C   UNL     1      -2.088   4.563   5.262  1.00  0.00     0.010 A 
ATOM     51  C   UNL     1      -2.225   4.447   3.878  1.00  0.00    -0.014 A 
BRANCH  51  52
ATOM     52  C   UNL     1      -1.285   5.066   2.920  1.00  0.00     0.031 A 
ATOM     53  C   UNL     1      -1.907   6.158   2.119  1.00  0.00     0.074 A 
ATOM     54  C   UNL     1       0.052   4.906   2.782  1.00  0.00     0.049 A 
ATOM     55  N   UNL     1      -1.991   6.254   0.833  1.00  0.00    -0.248 NA
ATOM     56  C   UNL     1      -2.570   7.245   2.856  1.00  0.00     0.031 C 
ATOM     57  C   UNL     1       0.961   4.170   3.658  1.00  0.00     0.029 A 
ATOM     58  N   UNL     1       0.904   5.478   1.857  1.00  0.00    -0.354 N 
ATOM     59  C   UNL     1      -2.607   7.475   0.587  1.00  0.00     0.074 A 
ATOM     60  C   UNL     1      -3.032   7.999   1.860  1.00  0.00     0.031 C 
ATOM     61  C   UNL     1       2.237   4.505   3.355  1.00  0.00     0.029 A 
ATOM     62  C   UNL     1       2.248   5.395   2.199  1.00  0.00     0.049 A 
ATOM     63  H   UNL     1       0.588   5.907   1.029  1.00  0.00     0.167 HD
ATOM     64  C   UNL     1      -2.547   8.075  -0.628  1.00  0.00     0.037 A 
ATOM     65  C   UNL     1       3.298   6.045   1.634  1.00  0.00     0.037 A 
ATOM     66  C   UNL     1      -2.064   7.199  -1.655  1.00  0.00     0.049 A 
ATOM     67  C   UNL     1       2.934   6.562   0.297  1.00  0.00     0.074 A 
ATOM     68  C   UNL     1      -2.538   6.121  -2.362  1.00  0.00     0.029 A 
ATOM     69  N   UNL     1      -0.723   7.279  -1.894  1.00  0.00    -0.354 N 
ATOM     70  N   UNL     1       2.924   5.858  -0.793  1.00  0.00    -0.248 NA
ATOM     71  C   UNL     1       2.440   7.925   0.152  1.00  0.00     0.031 C 
ATOM     72  C   UNL     1      -1.387   5.433  -2.850  1.00  0.00     0.029 A 
ATOM     73  C   UNL     1      -0.242   6.125  -2.454  1.00  0.00     0.049 A 
ATOM     74  H   UNL     1      -0.170   8.067  -1.689  1.00  0.00     0.167 HD
ATOM     75  C   UNL     1       2.042   6.500  -1.626  1.00  0.00     0.074 A 
ATOM     76  C   UNL     1       1.963   7.851  -1.092  1.00  0.00     0.031 C 
ATOM     77  C   UNL     1       1.170   5.769  -2.383  1.00  0.00     0.037 A 
BRANCH  64  78
ATOM     78  C   UNL     1      -2.524   9.568  -0.822  1.00  0.00     0.064 A 
ATOM     79  C   UNL     1      -2.795  10.110  -2.092  1.00  0.00     0.173 A 
ATOM     80  C   UNL     1      -1.927  10.442   0.112  1.00  0.00     0.173 A 
ATOM     81  F   UNL     1      -3.318   9.343  -3.060  1.00  0.00    -0.203 F 
ATOM     82  C   UNL     1      -2.451  11.425  -2.415  1.00  0.00     0.198 A 
ATOM     83  C   UNL     1      -1.632  11.768  -0.199  1.00  0.00     0.198 A 
ATOM     84  F   UNL     1      -1.502  10.007   1.306  1.00  0.00    -0.203 F 
ATOM     85  F   UNL     1      -2.625  11.871  -3.667  1.00  0.00    -0.200 F 
ATOM     86  C   UNL     1      -1.870  12.252  -1.469  1.00  0.00     0.200 A 
ATOM     87  F   UNL     1      -1.040  12.545   0.719  1.00  0.00    -0.200 F 
ATOM     88  F   UNL     1      -1.492  13.495  -1.794  1.00  0.00    -0.200 F 
ENDBRANCH  64  78
BRANCH  65  89
ATOM     89  C   UNL     1       4.626   6.404   2.192  1.00  0.00     0.064 A 
ATOM     90  C   UNL     1       5.724   6.667   1.349  1.00  0.00     0.173 A 
ATOM     91  C   UNL     1       4.756   6.804   3.532  1.00  0.00     0.173 A 
ATOM     92  F   UNL     1       5.682   6.337   0.051  1.00  0.00    -0.203 F 
ATOM     93  C   UNL     1       6.855   7.346   1.807  1.00  0.00     0.198 A 
ATOM     94  C   UNL     1       5.893   7.471   3.991  1.00  0.00     0.198 A 
ATOM     95  F   UNL     1       3.740   6.649   4.393  1.00  0.00    -0.203 F 
ATOM     96  F   UNL     1       7.841   7.657   0.953  1.00  0.00    -0.200 F 
ATOM     97  C   UNL     1       6.931   7.763   3.124  1.00  0.00     0.200 A 
ATOM     98  F   UNL     1       5.945   7.894   5.262  1.00  0.00    -0.200 F 
ATOM     99  F   UNL     1       7.979   8.483   3.546  1.00  0.00    -0.200 F 
ENDBRANCH  65  89
BRANCH  77 100
ATOM    100  C   UNL     1       1.658   4.470  -3.001  1.00  0.00     0.064 A 
ATOM    101  C   UNL     1       2.504   3.517  -2.400  1.00  0.00     0.173 A 
ATOM    102  C   UNL     1       1.249   4.172  -4.318  1.00  0.00     0.173 A 
ATOM    103  F   UNL     1       2.803   3.540  -1.093  1.00  0.00    -0.203 F 
ATOM    104  C   UNL     1       2.975   2.404  -3.101  1.00  0.00     0.198 A 
ATOM    105  C   UNL     1       1.617   2.992  -4.965  1.00  0.00     0.198 A 
ATOM    106  F   UNL     1       0.471   5.027  -5.001  1.00  0.00    -0.203 F 
ATOM    107  F   UNL     1       3.830   1.561  -2.507  1.00  0.00    -0.200 F 
ATOM    108  C   UNL     1       2.497   2.117  -4.363  1.00  0.00     0.200 A 
ATOM    109  F   UNL     1       1.112   2.709  -6.174  1.00  0.00    -0.200 F 
ATOM    110  F   UNL     1       2.848   0.978  -4.975  1.00  0.00    -0.200 F 
ENDBRANCH  77 100
ENDBRANCH  51  52
ENDBRANCH  44  46
ENDBRANCH  43  44
ENDBRANCH  42  43
ENDBRANCH  41  42
ENDBRANCH  40  41
ENDBRANCH  39  40
ENDBRANCH  38  39
ENDBRANCH  37  38
ENDBRANCH   1  37
TORSDOF 25
