REMARK SMILES Cc1ccccc1/C=C1\SC(=O)N(CC(=O)Nc2ccccc2C(=O)OCCOCCOCCOCCOC(=O)c2ccc(-c3c4nc(c(-c5c(F)c(F)c(F)c(F)c5F)c5ccc([nH]5)c(-c5c(F)c(F)c(F)c(F)c5F)c5nc(c(-c6c(F)c(F)c(F)c(F)c6F)c6ccc3[nH]6)C=C5)C=C4)cc2)C1=O
REMARK SMILES IDX 31 1 30 2 29 3 28 4 27 5 26 6 24 7 25 8 23 9 18 10 19 11
REMARK SMILES IDX 20 12 22 13 21 14 17 15 15 16 16 17 14 19 13 20 8 21 9 22
REMARK SMILES IDX 10 23 104 24 11 25 105 26 12 27 7 28 1 29 2 30 3 31 4 32
REMARK SMILES IDX 6 33 5 34 32 35 33 36 34 37 35 38 36 39 37 40 38 41 39 42
REMARK SMILES IDX 40 43 41 44 42 45 103 46 43 47 102 48 44 49 45 50 46 51
REMARK SMILES IDX 96 52 47 53 101 54 95 55 97 56 48 57 100 58 94 59 93 60
REMARK SMILES IDX 49 62 81 63 61 64 80 65 62 66 65 67 79 68 98 69 63 70 64 71
REMARK SMILES IDX 78 73 99 74 66 75 50 76 51 77 59 78 52 79 53 80 57 81 60 82
REMARK SMILES IDX 54 83 55 84 58 85 56 86 82 87 83 88 91 89 84 90 85 91 89 92
REMARK SMILES IDX 92 93 86 94 87 95 90 96 88 97 67 98 68 99 76 100 69 101
REMARK SMILES IDX 70 102 74 103 77 104 71 105 72 106 75 107 73 108
REMARK H PARENT 17 18 97 61 65 72
REMARK Flexibility Score: inf
ROOT
ATOM      1  C   UNL     1       6.067   4.190  -2.199  1.00  0.00     0.188 C 
ENDROOT
BRANCH   1   2
ATOM      2  C   UNL     1       5.904   4.263  -0.515  1.00  0.00     0.188 C 
BRANCH   2   3
ATOM      3  O   UNL     1       4.828   3.647   0.802  1.00  0.00    -0.376 OA
BRANCH   3   4
ATOM      4  C   UNL     1       3.418   2.496   0.823  1.00  0.00     0.202 C 
BRANCH   4   5
ATOM      5  C   UNL     1       2.152   2.032  -0.599  1.00  0.00     0.261 C 
BRANCH   5   6
ATOM      6  O   UNL     1       0.976   2.459  -2.000  1.00  0.00    -0.460 OA
BRANCH   6   7
ATOM      7  C   UNL     1       0.251   3.144  -3.352  1.00  0.00     0.340 C 
ATOM      8  O   UNL     1      -0.930   2.893  -3.655  1.00  0.00    -0.246 OA
BRANCH   7   9
ATOM      9  C   UNL     1       0.727   4.142  -4.658  1.00  0.00     0.083 A 
ATOM     10  C   UNL     1       0.981   5.581  -4.912  1.00  0.00     0.055 A 
ATOM     11  C   UNL     1       1.541   5.993  -6.154  1.00  0.00     0.027 A 
ATOM     12  C   UNL     1       1.754   5.106  -7.193  1.00  0.00     0.002 A 
ATOM     13  C   UNL     1       0.795   3.353  -5.828  1.00  0.00     0.018 A 
ATOM     14  C   UNL     1       1.328   3.801  -7.048  1.00  0.00     0.001 A 
BRANCH  10  15
ATOM     15  N   UNL     1       0.653   6.751  -4.090  1.00  0.00    -0.324 N 
ATOM     16  C   UNL     1       1.496   7.905  -3.971  1.00  0.00     0.244 C 
ATOM     17  O   UNL     1       1.270   8.937  -4.605  1.00  0.00    -0.273 OA
ATOM     18  H   UNL     1      -0.195   6.743  -3.591  1.00  0.00     0.170 HD
BRANCH  16  19
ATOM     19  C   UNL     1       2.680   7.862  -2.973  1.00  0.00     0.230 C 
BRANCH  19  20
ATOM     20  N   UNL     1       2.493   6.617  -2.323  1.00  0.00    -0.259 N 
ATOM     21  C   UNL     1       0.162   3.637  -0.224  1.00  0.00     0.029 C 
ATOM     22  C   UNL     1       0.880   4.675  -1.280  1.00  0.00     0.083 C 
ATOM     23  S   UNL     1       2.276   4.308  -2.462  1.00  0.00    -0.022 SA
ATOM     24  C   UNL     1       1.358   6.380  -1.508  1.00  0.00     0.268 C 
ATOM     25  C   UNL     1       3.067   5.636  -2.998  1.00  0.00     0.294 C 
ATOM     26  O   UNL     1       0.846   7.425  -1.111  1.00  0.00    -0.268 OA
ATOM     27  O   UNL     1       3.829   5.655  -3.941  1.00  0.00    -0.261 OA
BRANCH  21  28
ATOM     28  C   UNL     1      -0.383   2.044   0.620  1.00  0.00    -0.021 A 
ATOM     29  C   UNL     1       1.497   0.422   1.706  1.00  0.00     0.045 C 
ATOM     30  C   UNL     1       0.226   0.717   0.886  1.00  0.00    -0.044 A 
ATOM     31  C   UNL     1      -0.496  -0.528   0.891  1.00  0.00     0.004 A 
ATOM     32  C   UNL     1      -1.843  -0.545   1.051  1.00  0.00     0.000 A 
ATOM     33  C   UNL     1      -1.668   1.919   1.187  1.00  0.00     0.008 A 
ATOM     34  C   UNL     1      -2.383   0.676   1.366  1.00  0.00     0.001 A 
ENDBRANCH  21  28
ENDBRANCH  19  20
ENDBRANCH  16  19
ENDBRANCH  10  15
ENDBRANCH   7   9
ENDBRANCH   6   7
ENDBRANCH   5   6
ENDBRANCH   4   5
ENDBRANCH   3   4
ENDBRANCH   2   3
ENDBRANCH   1   2
BRANCH   1  35
ATOM     35  O   UNL     1       5.868   3.210  -3.223  1.00  0.00    -0.377 OA
BRANCH  35  36
ATOM     36  C   UNL     1       6.490   1.936  -3.366  1.00  0.00     0.188 C 
BRANCH  36  37
ATOM     37  C   UNL     1       7.936   1.849  -3.012  1.00  0.00     0.188 C 
BRANCH  37  38
ATOM     38  O   UNL     1       8.099   2.669  -1.875  1.00  0.00    -0.376 OA
BRANCH  38  39
ATOM     39  C   UNL     1       9.260   3.468  -1.901  1.00  0.00     0.202 C 
BRANCH  39  40
ATOM     40  C   UNL     1      10.436   2.563  -1.582  1.00  0.00     0.261 C 
BRANCH  40  41
ATOM     41  O   UNL     1      10.167   1.893  -0.317  1.00  0.00    -0.460 OA
BRANCH  41  42
ATOM     42  C   UNL     1       9.582   0.649  -0.402  1.00  0.00     0.338 C 
ATOM     43  O   UNL     1       9.975  -0.254  -1.122  1.00  0.00    -0.246 OA
BRANCH  42  44
ATOM     44  C   UNL     1       8.219   0.655   0.229  1.00  0.00     0.060 A 
ATOM     45  C   UNL     1       7.166  -0.136  -0.263  1.00  0.00     0.016 A 
ATOM     46  C   UNL     1       7.859   1.731   0.969  1.00  0.00     0.016 A 
ATOM     47  C   UNL     1       5.854   0.411  -0.492  1.00  0.00     0.010 A 
ATOM     48  C   UNL     1       6.562   2.196   0.768  1.00  0.00     0.010 A 
ATOM     49  C   UNL     1       5.574   1.760  -0.259  1.00  0.00    -0.014 A 
BRANCH  49  50
ATOM     50  C   UNL     1       4.238   2.775  -1.126  1.00  0.00     0.031 A 
ATOM     51  C   UNL     1       3.372   4.413  -0.245  1.00  0.00     0.074 A 
ATOM     52  C   UNL     1       3.837   1.880  -2.253  1.00  0.00     0.049 A 
ATOM     53  N   UNL     1       2.162   4.502   0.490  1.00  0.00    -0.248 NA
ATOM     54  C   UNL     1       3.889   5.793   0.454  1.00  0.00     0.031 C 
ATOM     55  C   UNL     1       3.339   2.105  -3.659  1.00  0.00     0.029 A 
ATOM     56  N   UNL     1       3.310   0.483  -2.156  1.00  0.00    -0.354 N 
ATOM     57  C   UNL     1       1.638   5.784   1.042  1.00  0.00     0.074 A 
ATOM     58  C   UNL     1       2.925   6.404   1.187  1.00  0.00     0.031 C 
ATOM     59  C   UNL     1       2.333   1.266  -3.995  1.00  0.00     0.029 A 
ATOM     60  C   UNL     1       2.032   0.410  -2.881  1.00  0.00     0.049 A 
ATOM     61  H   UNL     1       3.747  -0.264  -1.686  1.00  0.00     0.167 HD
ATOM     62  C   UNL     1       0.265   6.399   1.111  1.00  0.00     0.037 A 
ATOM     63  C   UNL     1       0.857  -0.309  -2.667  1.00  0.00     0.037 A 
ATOM     64  C   UNL     1      -1.012   5.922   0.147  1.00  0.00     0.049 A 
ATOM     65  C   UNL     1      -0.725   0.305  -2.391  1.00  0.00     0.074 A 
ATOM     66  C   UNL     1      -1.525   6.374  -1.096  1.00  0.00     0.029 A 
ATOM     67  N   UNL     1      -1.950   4.873   0.356  1.00  0.00    -0.354 N 
ATOM     68  N   UNL     1      -1.071   1.460  -1.828  1.00  0.00    -0.248 NA
ATOM     69  C   UNL     1      -1.987  -0.405  -2.667  1.00  0.00     0.031 C 
ATOM     70  C   UNL     1      -2.222   5.316  -1.774  1.00  0.00     0.029 A 
ATOM     71  C   UNL     1      -2.348   4.237  -0.912  1.00  0.00     0.049 A 
ATOM     72  H   UNL     1      -2.291   4.605   1.240  1.00  0.00     0.167 HD
ATOM     73  C   UNL     1      -2.454   1.732  -1.712  1.00  0.00     0.074 A 
ATOM     74  C   UNL     1      -2.958   0.465  -2.265  1.00  0.00     0.031 C 
ATOM     75  C   UNL     1      -3.070   2.876  -1.091  1.00  0.00     0.037 A 
BRANCH  62  76
ATOM     76  C   UNL     1       0.068   7.917   1.560  1.00  0.00     0.064 A 
ATOM     77  C   UNL     1      -1.047   8.678   1.101  1.00  0.00     0.173 A 
ATOM     78  C   UNL     1       0.955   8.673   2.340  1.00  0.00     0.173 A 
ATOM     79  F   UNL     1      -2.162   8.100   0.637  1.00  0.00    -0.203 F 
ATOM     80  C   UNL     1      -1.122  10.072   1.171  1.00  0.00     0.198 A 
ATOM     81  C   UNL     1       0.875  10.078   2.436  1.00  0.00     0.198 A 
ATOM     82  F   UNL     1       1.872   8.080   3.114  1.00  0.00    -0.203 F 
ATOM     83  F   UNL     1      -2.172  10.712   0.635  1.00  0.00    -0.200 F 
ATOM     84  C   UNL     1      -0.137  10.780   1.811  1.00  0.00     0.200 A 
ATOM     85  F   UNL     1       1.784  10.749   3.158  1.00  0.00    -0.200 F 
ATOM     86  F   UNL     1      -0.206  12.117   1.893  1.00  0.00    -0.200 F 
ENDBRANCH  62  76
BRANCH  63  87
ATOM     87  C   UNL     1       1.307  -1.772  -2.737  1.00  0.00     0.064 A 
ATOM     88  C   UNL     1       1.934  -2.103  -3.973  1.00  0.00     0.173 A 
ATOM     89  C   UNL     1       1.949  -2.279  -1.594  1.00  0.00     0.173 A 
ATOM     90  F   UNL     1       1.373  -1.704  -5.127  1.00  0.00    -0.203 F 
ATOM     91  C   UNL     1       3.275  -2.520  -4.013  1.00  0.00     0.198 A 
ATOM     92  C   UNL     1       3.282  -2.704  -1.633  1.00  0.00     0.198 A 
ATOM     93  F   UNL     1       1.373  -2.179  -0.399  1.00  0.00    -0.203 F 
ATOM     94  F   UNL     1       3.945  -2.509  -5.175  1.00  0.00    -0.200 F 
ATOM     95  C   UNL     1       3.965  -2.752  -2.835  1.00  0.00     0.200 A 
ATOM     96  F   UNL     1       3.949  -2.896  -0.485  1.00  0.00    -0.200 F 
ATOM     97  F   UNL     1       5.298  -2.898  -2.846  1.00  0.00    -0.200 F 
ENDBRANCH  63  87
BRANCH  75  98
ATOM     98  C   UNL     1      -4.452   2.853  -0.320  1.00  0.00     0.064 A 
ATOM     99  C   UNL     1      -5.165   1.694   0.022  1.00  0.00     0.173 A 
ATOM    100  C   UNL     1      -4.861   4.003   0.429  1.00  0.00     0.173 A 
ATOM    101  F   UNL     1      -4.957   0.525  -0.586  1.00  0.00    -0.203 F 
ATOM    102  C   UNL     1      -6.057   1.648   1.111  1.00  0.00     0.198 A 
ATOM    103  C   UNL     1      -5.680   3.937   1.561  1.00  0.00     0.198 A 
ATOM    104  F   UNL     1      -4.438   5.240   0.134  1.00  0.00    -0.203 F 
ATOM    105  F   UNL     1      -6.638   0.484   1.434  1.00  0.00    -0.200 F 
ATOM    106  C   UNL     1      -6.265   2.749   1.915  1.00  0.00     0.200 A 
ATOM    107  F   UNL     1      -5.840   5.022   2.335  1.00  0.00    -0.200 F 
ATOM    108  F   UNL     1      -7.011   2.661   3.025  1.00  0.00    -0.200 F 
ENDBRANCH  75  98
ENDBRANCH  49  50
ENDBRANCH  42  44
ENDBRANCH  41  42
ENDBRANCH  40  41
ENDBRANCH  39  40
ENDBRANCH  38  39
ENDBRANCH  37  38
ENDBRANCH  36  37
ENDBRANCH  35  36
ENDBRANCH   1  35
TORSDOF 24
