REMARK SMILES COc1ccc2c(c1)[C@H]([NH2+][C@@H](C(=O)OCCOCCOCCOCCOC(=O)c1ccc(-c3c4nc(c(-c5c(F)c(F)c(F)c(F)c5F)c5ccc([nH]5)c(-c5c(F)c(F)c(F)c(F)c5F)c5nc(c(-c6c(F)c(F)c(F)c(F)c6F)c6ccc3[nH]6)C=C5)C=C4)cc1)C1CC1)CC2
REMARK SMILES IDX 19 1 18 2 17 3 16 4 15 5 14 6 12 7 13 8 11 9 10 10 9 13 3 14
REMARK SMILES IDX 4 15 8 16 5 17 7 18 6 19 96 20 95 21 2 22 1 23 92 24 93 25
REMARK SMILES IDX 94 26 20 27 21 28 22 29 23 30 24 31 25 32 26 33 27 34 28 35
REMARK SMILES IDX 29 36 30 37 91 38 31 39 90 40 32 41 33 42 34 43 84 44 35 45
REMARK SMILES IDX 89 46 83 47 85 48 36 49 88 50 82 51 81 52 37 54 69 55 49 56
REMARK SMILES IDX 68 57 50 58 53 59 67 60 86 61 51 62 52 63 66 65 87 66 54 67
REMARK SMILES IDX 38 68 39 69 47 70 40 71 41 72 45 73 48 74 42 75 43 76 46 77
REMARK SMILES IDX 44 78 70 79 71 80 79 81 72 82 73 83 77 84 80 85 74 86 75 87
REMARK SMILES IDX 78 88 76 89 55 90 56 91 64 92 57 93 58 94 62 95 65 96 59 97
REMARK SMILES IDX 60 98 63 99 61 100
REMARK H PARENT 10 11 10 12 85 53 53 64
REMARK Flexibility Score: inf
ROOT
ATOM      1  C   UNL     1      -3.141  -6.334  -5.353  1.00  0.00     0.188 C 
ENDROOT
BRANCH   1   2
ATOM      2  C   UNL     1      -3.048  -7.458  -4.316  1.00  0.00     0.188 C 
BRANCH   2   3
ATOM      3  O   UNL     1      -4.241  -7.772  -3.638  1.00  0.00    -0.376 OA
BRANCH   3   4
ATOM      4  C   UNL     1      -4.691  -6.983  -2.550  1.00  0.00     0.202 C 
BRANCH   4   5
ATOM      5  C   UNL     1      -4.094  -5.643  -2.061  1.00  0.00     0.261 C 
BRANCH   5   6
ATOM      6  O   UNL     1      -3.057  -5.023  -2.824  1.00  0.00    -0.459 OA
BRANCH   6   7
ATOM      7  C   UNL     1      -1.782  -5.192  -2.376  1.00  0.00     0.365 C 
ATOM      8  O   UNL     1      -1.498  -5.878  -1.398  1.00  0.00    -0.245 OA
BRANCH   7   9
ATOM      9  C   UNL     1      -0.728  -4.438  -3.229  1.00  0.00     0.297 C 
BRANCH   9  10
ATOM     10  N   UNL     1      -1.321  -3.563  -4.267  1.00  0.00    -0.328 N 
ATOM     11  H   UNL     1      -1.652  -4.182  -5.007  1.00  0.00     0.347 HD
ATOM     12  H   UNL     1      -2.001  -3.025  -3.729  1.00  0.00     0.347 HD
BRANCH  10  13
ATOM     13  C   UNL     1      -0.556  -2.514  -4.925  1.00  0.00     0.215 C 
ATOM     14  C   UNL     1       1.119  -1.037  -1.875  1.00  0.00     0.119 A 
ATOM     15  C   UNL     1       2.435  -1.003  -2.357  1.00  0.00     0.047 A 
ATOM     16  C   UNL     1       0.073  -1.379  -2.715  1.00  0.00     0.056 A 
ATOM     17  C   UNL     1       2.711  -1.314  -3.698  1.00  0.00     0.008 A 
ATOM     18  C   UNL     1       0.376  -1.801  -3.999  1.00  0.00     0.016 A 
ATOM     19  C   UNL     1       1.669  -1.734  -4.508  1.00  0.00    -0.038 A 
ATOM     20  C   UNL     1       1.707  -2.188  -5.931  1.00  0.00     0.042 C 
ATOM     21  C   UNL     1       0.377  -2.951  -6.079  1.00  0.00     0.075 C 
BRANCH  14  22
ATOM     22  O   UNL     1       0.794  -0.940  -0.551  1.00  0.00    -0.497 OA
ATOM     23  C   UNL     1       1.215   0.279   0.038  1.00  0.00     0.278 C 
ENDBRANCH  14  22
ENDBRANCH  10  13
ENDBRANCH   9  10
BRANCH   9  24
ATOM     24  C   UNL     1       0.480  -5.256  -3.643  1.00  0.00     0.059 C 
ATOM     25  C   UNL     1       0.564  -6.768  -3.515  1.00  0.00     0.011 C 
ATOM     26  C   UNL     1       0.596  -6.141  -4.870  1.00  0.00     0.011 C 
ENDBRANCH   9  24
ENDBRANCH   7   9
ENDBRANCH   6   7
ENDBRANCH   5   6
ENDBRANCH   4   5
ENDBRANCH   3   4
ENDBRANCH   2   3
ENDBRANCH   1   2
BRANCH   1  27
ATOM     27  O   UNL     1      -4.246  -5.463  -5.213  1.00  0.00    -0.377 OA
BRANCH  27  28
ATOM     28  C   UNL     1      -5.511  -5.915  -5.688  1.00  0.00     0.188 C 
BRANCH  28  29
ATOM     29  C   UNL     1      -5.721  -7.382  -6.131  1.00  0.00     0.188 C 
BRANCH  29  30
ATOM     30  O   UNL     1      -4.612  -7.996  -6.768  1.00  0.00    -0.376 OA
BRANCH  30  31
ATOM     31  C   UNL     1      -4.522  -7.989  -8.184  1.00  0.00     0.202 C 
BRANCH  31  32
ATOM     32  C   UNL     1      -4.483  -6.632  -8.907  1.00  0.00     0.261 C 
BRANCH  32  33
ATOM     33  O   UNL     1      -5.607  -5.766  -8.690  1.00  0.00    -0.460 OA
BRANCH  33  34
ATOM     34  C   UNL     1      -6.830  -6.243  -9.009  1.00  0.00     0.338 C 
ATOM     35  O   UNL     1      -7.093  -7.299  -9.544  1.00  0.00    -0.246 OA
BRANCH  34  36
ATOM     36  C   UNL     1      -7.833  -5.346  -8.392  1.00  0.00     0.060 A 
ATOM     37  C   UNL     1      -8.734  -5.891  -7.469  1.00  0.00     0.016 A 
ATOM     38  C   UNL     1      -7.878  -3.987  -8.711  1.00  0.00     0.016 A 
ATOM     39  C   UNL     1      -9.709  -5.084  -6.888  1.00  0.00     0.010 A 
ATOM     40  C   UNL     1      -8.877  -3.185  -8.150  1.00  0.00     0.010 A 
ATOM     41  C   UNL     1      -9.817  -3.740  -7.264  1.00  0.00    -0.014 A 
BRANCH  41  42
ATOM     42  C   UNL     1     -11.035  -2.990  -6.879  1.00  0.00     0.031 A 
ATOM     43  C   UNL     1     -12.163  -2.901  -7.870  1.00  0.00     0.074 A 
ATOM     44  C   UNL     1     -11.168  -2.461  -5.650  1.00  0.00     0.049 A 
ATOM     45  N   UNL     1     -13.331  -2.322  -7.755  1.00  0.00    -0.248 NA
ATOM     46  C   UNL     1     -11.943  -3.558  -9.169  1.00  0.00     0.031 C 
ATOM     47  C   UNL     1     -10.163  -2.523  -4.591  1.00  0.00     0.029 A 
ATOM     48  N   UNL     1     -12.210  -1.767  -5.089  1.00  0.00    -0.354 N 
ATOM     49  C   UNL     1     -13.981  -2.544  -8.962  1.00  0.00     0.074 A 
ATOM     50  C   UNL     1     -13.068  -3.280  -9.809  1.00  0.00     0.031 C 
ATOM     51  C   UNL     1     -10.637  -1.885  -3.506  1.00  0.00     0.029 A 
ATOM     52  C   UNL     1     -11.962  -1.346  -3.806  1.00  0.00     0.049 A 
ATOM     53  H   UNL     1     -13.056  -1.588  -5.561  1.00  0.00     0.167 HD
ATOM     54  C   UNL     1     -15.232  -2.176  -9.326  1.00  0.00     0.037 A 
ATOM     55  C   UNL     1     -12.716  -0.594  -2.980  1.00  0.00     0.037 A 
ATOM     56  C   UNL     1     -16.136  -1.441  -8.481  1.00  0.00     0.049 A 
ATOM     57  C   UNL     1     -14.076  -0.133  -3.440  1.00  0.00     0.074 A 
ATOM     58  C   UNL     1     -17.431  -1.035  -8.751  1.00  0.00     0.029 A 
ATOM     59  N   UNL     1     -15.833  -0.991  -7.204  1.00  0.00    -0.354 N 
ATOM     60  N   UNL     1     -14.698  -0.373  -4.570  1.00  0.00    -0.248 NA
ATOM     61  C   UNL     1     -14.844   0.699  -2.502  1.00  0.00     0.031 C 
ATOM     62  C   UNL     1     -17.888  -0.282  -7.664  1.00  0.00     0.029 A 
ATOM     63  C   UNL     1     -16.905  -0.280  -6.687  1.00  0.00     0.049 A 
ATOM     64  H   UNL     1     -14.983  -1.152  -6.735  1.00  0.00     0.167 HD
ATOM     65  C   UNL     1     -15.935   0.253  -4.468  1.00  0.00     0.074 A 
ATOM     66  C   UNL     1     -15.986   0.859  -3.154  1.00  0.00     0.031 C 
ATOM     67  C   UNL     1     -16.939   0.323  -5.378  1.00  0.00     0.037 A 
BRANCH  54  68
ATOM     68  C   UNL     1     -15.684  -2.530 -10.714  1.00  0.00     0.064 A 
ATOM     69  C   UNL     1     -15.952  -3.855 -11.092  1.00  0.00     0.173 A 
ATOM     70  C   UNL     1     -15.890  -1.523 -11.669  1.00  0.00     0.173 A 
ATOM     71  F   UNL     1     -15.755  -4.859 -10.224  1.00  0.00    -0.203 F 
ATOM     72  C   UNL     1     -16.386  -4.159 -12.380  1.00  0.00     0.198 A 
ATOM     73  C   UNL     1     -16.355  -1.827 -12.945  1.00  0.00     0.198 A 
ATOM     74  F   UNL     1     -15.649  -0.239 -11.360  1.00  0.00    -0.203 F 
ATOM     75  F   UNL     1     -16.589  -5.436 -12.734  1.00  0.00    -0.200 F 
ATOM     76  C   UNL     1     -16.596  -3.144 -13.302  1.00  0.00     0.200 A 
ATOM     77  F   UNL     1     -16.570  -0.843 -13.829  1.00  0.00    -0.200 F 
ATOM     78  F   UNL     1     -17.025  -3.437 -14.538  1.00  0.00    -0.200 F 
ENDBRANCH  54  68
BRANCH  55  79
ATOM     79  C   UNL     1     -12.198  -0.207  -1.640  1.00  0.00     0.064 A 
ATOM     80  C   UNL     1     -12.806  -0.666  -0.463  1.00  0.00     0.173 A 
ATOM     81  C   UNL     1     -11.104   0.663  -1.509  1.00  0.00     0.173 A 
ATOM     82  F   UNL     1     -13.872  -1.477  -0.532  1.00  0.00    -0.203 F 
ATOM     83  C   UNL     1     -12.360  -0.248   0.790  1.00  0.00     0.198 A 
ATOM     84  C   UNL     1     -10.637   1.052  -0.256  1.00  0.00     0.198 A 
ATOM     85  F   UNL     1     -10.488   1.135  -2.603  1.00  0.00    -0.203 F 
ATOM     86  F   UNL     1     -12.999  -0.653   1.895  1.00  0.00    -0.200 F 
ATOM     87  C   UNL     1     -11.272   0.606   0.892  1.00  0.00     0.200 A 
ATOM     88  F   UNL     1      -9.578   1.867  -0.163  1.00  0.00    -0.200 F 
ATOM     89  F   UNL     1     -10.844   1.008   2.096  1.00  0.00    -0.200 F 
ENDBRANCH  55  79
BRANCH  67  90
ATOM     90  C   UNL     1     -18.188   1.055  -4.970  1.00  0.00     0.064 A 
ATOM     91  C   UNL     1     -18.200   2.445  -4.773  1.00  0.00     0.173 A 
ATOM     92  C   UNL     1     -19.393   0.359  -4.784  1.00  0.00     0.173 A 
ATOM     93  F   UNL     1     -17.075   3.159  -4.927  1.00  0.00    -0.203 F 
ATOM     94  C   UNL     1     -19.358   3.101  -4.361  1.00  0.00     0.198 A 
ATOM     95  C   UNL     1     -20.558   1.024  -4.411  1.00  0.00     0.198 A 
ATOM     96  F   UNL     1     -19.443  -0.969  -4.970  1.00  0.00    -0.203 F 
ATOM     97  F   UNL     1     -19.326   4.417  -4.111  1.00  0.00    -0.200 F 
ATOM     98  C   UNL     1     -20.536   2.392  -4.186  1.00  0.00     0.200 A 
ATOM     99  F   UNL     1     -21.700   0.339  -4.261  1.00  0.00    -0.200 F 
ATOM    100  F   UNL     1     -21.649   3.024  -3.789  1.00  0.00    -0.200 F 
ENDBRANCH  67  90
ENDBRANCH  41  42
ENDBRANCH  34  36
ENDBRANCH  33  34
ENDBRANCH  32  33
ENDBRANCH  31  32
ENDBRANCH  30  31
ENDBRANCH  29  30
ENDBRANCH  28  29
ENDBRANCH  27  28
ENDBRANCH   1  27
TORSDOF 24
