REMARK SMILES Cc1c(Cl)cc2c(c1C)O[C@@H](C(F)(F)F)C(C(=O)OCCOCCOCCOCCOC(=O)c1ccc(-c3c4nc(c(-c5c(F)c(F)c(F)c(F)c5F)c5ccc([nH]5)c(-c5c(F)c(F)c(F)c(F)c5F)c5nc(c(-c6c(F)c(F)c(F)c(F)c6F)c6ccc3[nH]6)C=C5)C=C4)cc1)=C2
REMARK SMILES IDX 26 1 25 2 24 3 23 4 22 5 21 6 20 7 19 8 17 9 18 10 16 11
REMARK SMILES IDX 1 12 2 13 3 14 8 15 4 16 5 17 7 18 9 19 6 20 10 21 97 22
REMARK SMILES IDX 11 23 12 24 13 25 14 26 15 27 27 28 28 29 29 30 30 31 31 32
REMARK SMILES IDX 32 33 33 34 34 35 35 36 96 37 36 38 95 39 37 40 38 41 39 42
REMARK SMILES IDX 89 43 40 44 94 45 88 46 90 47 41 48 93 49 87 50 86 51 42 53
REMARK SMILES IDX 74 54 54 55 73 56 55 57 58 58 72 59 91 60 56 61 57 62 71 64
REMARK SMILES IDX 92 65 59 66 43 67 44 68 52 69 45 70 46 71 50 72 53 73 47 74
REMARK SMILES IDX 48 75 51 76 49 77 75 78 76 79 84 80 77 81 78 82 82 83 85 84
REMARK SMILES IDX 79 85 80 86 83 87 81 88 60 89 61 90 69 91 62 92 63 93 67 94
REMARK SMILES IDX 70 95 64 96 65 97 68 98 66 99
REMARK H PARENT 90 52 58 63
REMARK Flexibility Score: inf
ROOT
ATOM      1  C   UNL     1       0.653   0.594  10.284  1.00  0.00     0.188 C 
ENDROOT
BRANCH   1   2
ATOM      2  O   UNL     1      -0.198   0.788   9.162  1.00  0.00    -0.377 OA
BRANCH   2   3
ATOM      3  C   UNL     1       0.247   1.718   8.197  1.00  0.00     0.188 C 
BRANCH   3   4
ATOM      4  C   UNL     1      -0.459   3.083   8.261  1.00  0.00     0.188 C 
BRANCH   4   5
ATOM      5  O   UNL     1      -1.346   3.411   9.325  1.00  0.00    -0.376 OA
BRANCH   5   6
ATOM      6  C   UNL     1      -2.261   2.455   9.848  1.00  0.00     0.202 C 
BRANCH   6   7
ATOM      7  C   UNL     1      -3.239   1.738   8.906  1.00  0.00     0.261 C 
BRANCH   7   8
ATOM      8  O   UNL     1      -2.605   1.016   7.836  1.00  0.00    -0.460 OA
BRANCH   8   9
ATOM      9  C   UNL     1      -2.910   1.433   6.592  1.00  0.00     0.338 C 
ATOM     10  O   UNL     1      -3.746   2.272   6.294  1.00  0.00    -0.246 OA
BRANCH   9  11
ATOM     11  C   UNL     1      -1.985   0.853   5.603  1.00  0.00     0.087 C 
ATOM     12  C   UNL     1       1.080  -0.082  -0.072  1.00  0.00     0.046 C 
ATOM     13  C   UNL     1       0.523   0.336   1.265  1.00  0.00    -0.026 A 
ATOM     14  C   UNL     1       0.642   1.683   1.670  1.00  0.00     0.045 A 
ATOM     15  C   UNL     1      -0.114  -0.582   2.139  1.00  0.00    -0.004 A 
ATOM     16  Cl  UNL     1       1.487   2.858   0.718  1.00  0.00    -0.084 Cl
ATOM     17  C   UNL     1       0.064   2.135   2.855  1.00  0.00     0.032 A 
ATOM     18  C   UNL     1      -0.722  -0.101   3.320  1.00  0.00     0.131 A 
ATOM     19  C   UNL     1      -0.189  -2.064   1.873  1.00  0.00     0.049 C 
ATOM     20  C   UNL     1      -0.650   1.252   3.661  1.00  0.00     0.019 A 
ATOM     21  O   UNL     1      -1.461  -0.996   4.056  1.00  0.00    -0.475 OA
ATOM     22  C   UNL     1      -1.415   1.750   4.787  1.00  0.00     0.027 C 
ATOM     23  C   UNL     1      -1.831  -0.631   5.421  1.00  0.00     0.316 C 
BRANCH  23  24
ATOM     24  C   UNL     1      -0.872  -1.349   6.390  1.00  0.00     0.430 C 
ATOM     25  F   UNL     1       0.369  -0.812   6.393  1.00  0.00    -0.167 F 
ATOM     26  F   UNL     1      -1.336  -1.357   7.658  1.00  0.00    -0.167 F 
ATOM     27  F   UNL     1      -0.729  -2.655   6.038  1.00  0.00    -0.167 F 
ENDBRANCH  23  24
ENDBRANCH   9  11
ENDBRANCH   8   9
ENDBRANCH   7   8
ENDBRANCH   6   7
ENDBRANCH   5   6
ENDBRANCH   4   5
ENDBRANCH   3   4
ENDBRANCH   2   3
ENDBRANCH   1   2
BRANCH   1  28
ATOM     28  C   UNL     1       1.290   1.852  10.895  1.00  0.00     0.188 C 
BRANCH  28  29
ATOM     29  O   UNL     1       2.262   2.438  10.029  1.00  0.00    -0.376 OA
BRANCH  29  30
ATOM     30  C   UNL     1       3.627   2.142  10.314  1.00  0.00     0.202 C 
BRANCH  30  31
ATOM     31  C   UNL     1       4.094   0.725   9.939  1.00  0.00     0.261 C 
BRANCH  31  32
ATOM     32  O   UNL     1       3.491  -0.364  10.664  1.00  0.00    -0.460 OA
BRANCH  32  33
ATOM     33  C   UNL     1       3.522  -0.350  12.012  1.00  0.00     0.338 C 
ATOM     34  O   UNL     1       4.096   0.448  12.730  1.00  0.00    -0.246 OA
BRANCH  33  35
ATOM     35  C   UNL     1       2.550  -1.358  12.491  1.00  0.00     0.060 A 
ATOM     36  C   UNL     1       1.534  -0.951  13.364  1.00  0.00     0.016 A 
ATOM     37  C   UNL     1       2.629  -2.689  12.072  1.00  0.00     0.016 A 
ATOM     38  C   UNL     1       0.611  -1.881  13.844  1.00  0.00     0.010 A 
ATOM     39  C   UNL     1       1.718  -3.626  12.573  1.00  0.00     0.010 A 
ATOM     40  C   UNL     1       0.726  -3.231  13.487  1.00  0.00    -0.014 A 
BRANCH  40  41
ATOM     41  C   UNL     1      -0.038  -4.249  14.249  1.00  0.00     0.031 A 
ATOM     42  C   UNL     1       0.617  -4.859  15.459  1.00  0.00     0.074 A 
ATOM     43  C   UNL     1      -1.295  -4.595  13.917  1.00  0.00     0.049 A 
ATOM     44  N   UNL     1       0.147  -5.735  16.309  1.00  0.00    -0.248 NA
ATOM     45  C   UNL     1       1.990  -4.414  15.751  1.00  0.00     0.031 C 
ATOM     46  C   UNL     1      -2.053  -4.053  12.794  1.00  0.00     0.029 A 
ATOM     47  N   UNL     1      -2.156  -5.489  14.508  1.00  0.00    -0.354 N 
ATOM     48  C   UNL     1       1.155  -5.929  17.242  1.00  0.00     0.074 A 
ATOM     49  C   UNL     1       2.281  -5.120  16.833  1.00  0.00     0.031 C 
ATOM     50  C   UNL     1      -3.272  -4.623  12.777  1.00  0.00     0.029 A 
ATOM     51  C   UNL     1      -3.372  -5.585  13.876  1.00  0.00     0.049 A 
ATOM     52  H   UNL     1      -1.924  -6.011  15.309  1.00  0.00     0.167 HD
ATOM     53  C   UNL     1       1.138  -6.695  18.357  1.00  0.00     0.037 A 
ATOM     54  C   UNL     1      -4.436  -6.366  14.152  1.00  0.00     0.037 A 
ATOM     55  C   UNL     1       0.027  -7.508  18.763  1.00  0.00     0.049 A 
ATOM     56  C   UNL     1      -4.387  -7.301  15.336  1.00  0.00     0.074 A 
ATOM     57  C   UNL     1      -0.091  -8.304  19.888  1.00  0.00     0.029 A 
ATOM     58  N   UNL     1      -1.155  -7.639  18.051  1.00  0.00    -0.354 N 
ATOM     59  N   UNL     1      -3.450  -7.441  16.242  1.00  0.00    -0.248 NA
ATOM     60  C   UNL     1      -5.543  -8.191  15.533  1.00  0.00     0.031 C 
ATOM     61  C   UNL     1      -1.324  -8.958  19.830  1.00  0.00     0.029 A 
ATOM     62  C   UNL     1      -1.993  -8.535  18.692  1.00  0.00     0.049 A 
ATOM     63  H   UNL     1      -1.367  -7.165  17.214  1.00  0.00     0.167 HD
ATOM     64  C   UNL     1      -3.905  -8.418  17.120  1.00  0.00     0.074 A 
ATOM     65  C   UNL     1      -5.212  -8.825  16.651  1.00  0.00     0.031 C 
ATOM     66  C   UNL     1      -3.292  -8.932  18.214  1.00  0.00     0.037 A 
BRANCH  53  67
ATOM     67  C   UNL     1       2.365  -6.691  19.218  1.00  0.00     0.064 A 
ATOM     68  C   UNL     1       2.696  -5.582  20.010  1.00  0.00     0.173 A 
ATOM     69  C   UNL     1       3.189  -7.823  19.290  1.00  0.00     0.173 A 
ATOM     70  F   UNL     1       1.945  -4.471  19.963  1.00  0.00    -0.203 F 
ATOM     71  C   UNL     1       3.819  -5.600  20.831  1.00  0.00     0.198 A 
ATOM     72  C   UNL     1       4.298  -7.846  20.132  1.00  0.00     0.198 A 
ATOM     73  F   UNL     1       2.914  -8.909  18.552  1.00  0.00    -0.203 F 
ATOM     74  F   UNL     1       4.137  -4.516  21.552  1.00  0.00    -0.200 F 
ATOM     75  C   UNL     1       4.614  -6.734  20.898  1.00  0.00     0.200 A 
ATOM     76  F   UNL     1       5.059  -8.947  20.203  1.00  0.00    -0.200 F 
ATOM     77  F   UNL     1       5.688  -6.755  21.698  1.00  0.00    -0.200 F 
ENDBRANCH  53  67
BRANCH  54  78
ATOM     78  C   UNL     1      -5.649  -6.302  13.294  1.00  0.00     0.064 A 
ATOM     79  C   UNL     1      -6.853  -5.778  13.784  1.00  0.00     0.173 A 
ATOM     80  C   UNL     1      -5.635  -6.775  11.973  1.00  0.00     0.173 A 
ATOM     81  F   UNL     1      -6.926  -5.341  15.050  1.00  0.00    -0.203 F 
ATOM     82  C   UNL     1      -7.998  -5.736  12.990  1.00  0.00     0.198 A 
ATOM     83  C   UNL     1      -6.774  -6.710  11.172  1.00  0.00     0.198 A 
ATOM     84  F   UNL     1      -4.512  -7.297  11.458  1.00  0.00    -0.203 F 
ATOM     85  F   UNL     1      -9.145  -5.264  13.497  1.00  0.00    -0.200 F 
ATOM     86  C   UNL     1      -7.955  -6.195  11.682  1.00  0.00     0.200 A 
ATOM     87  F   UNL     1      -6.726  -7.149   9.906  1.00  0.00    -0.200 F 
ATOM     88  F   UNL     1      -9.054  -6.149  10.917  1.00  0.00    -0.200 F 
ENDBRANCH  54  78
BRANCH  66  89
ATOM     89  C   UNL     1      -4.006 -10.000  18.989  1.00  0.00     0.064 A 
ATOM     90  C   UNL     1      -4.093 -11.313  18.503  1.00  0.00     0.173 A 
ATOM     91  C   UNL     1      -4.497  -9.742  20.278  1.00  0.00     0.173 A 
ATOM     92  F   UNL     1      -3.647 -11.608  17.273  1.00  0.00    -0.203 F 
ATOM     93  C   UNL     1      -4.643 -12.328  19.281  1.00  0.00     0.198 A 
ATOM     94  C   UNL     1      -5.022 -10.764  21.063  1.00  0.00     0.198 A 
ATOM     95  F   UNL     1      -4.428  -8.504  20.792  1.00  0.00    -0.203 F 
ATOM     96  F   UNL     1      -4.729 -13.573  18.792  1.00  0.00    -0.200 F 
ATOM     97  C   UNL     1      -5.094 -12.056  20.565  1.00  0.00     0.200 A 
ATOM     98  F   UNL     1      -5.440 -10.504  22.310  1.00  0.00    -0.200 F 
ATOM     99  F   UNL     1      -5.595 -13.041  21.323  1.00  0.00    -0.200 F 
ENDBRANCH  66  89
ENDBRANCH  40  41
ENDBRANCH  33  35
ENDBRANCH  32  33
ENDBRANCH  31  32
ENDBRANCH  30  31
ENDBRANCH  29  30
ENDBRANCH  28  29
ENDBRANCH   1  28
TORSDOF 21
