REMARK SMILES C#Cc1ccc2c(c1)C=C(C(=O)OCCOCCOCCOCCOC(=O)c1ccc(-c3c4nc(c(-c5c(F)c(F)c(F)c(F)c5F)c5ccc([nH]5)c(-c5c(F)c(F)c(F)c(F)c5F)c5nc(c(-c6c(F)c(F)c(F)c(F)c6F)c6ccc3[nH]6)C=C5)C=C4)cc1)[C@@H](C(F)(F)F)O2
REMARK SMILES IDX 20 1 19 2 18 3 17 4 16 5 15 6 14 7 13 8 11 9 12 10 10 11
REMARK SMILES IDX 3 12 4 13 8 14 5 15 7 16 6 17 9 18 96 19 91 20 2 21 1 22
REMARK SMILES IDX 92 23 93 24 94 25 95 26 21 27 22 28 23 29 24 30 25 31 26 32
REMARK SMILES IDX 27 33 28 34 29 35 90 36 30 37 89 38 31 39 32 40 33 41 83 42
REMARK SMILES IDX 34 43 88 44 82 45 84 46 35 47 87 48 81 49 80 50 36 52 68 53
REMARK SMILES IDX 48 54 67 55 49 56 52 57 66 58 85 59 50 60 51 61 65 63 86 64
REMARK SMILES IDX 53 65 37 66 38 67 46 68 39 69 40 70 44 71 47 72 41 73 42 74
REMARK SMILES IDX 45 75 43 76 69 77 70 78 78 79 71 80 72 81 76 82 79 83 73 84
REMARK SMILES IDX 74 85 77 86 75 87 54 88 55 89 63 90 56 91 57 92 61 93 64 94
REMARK SMILES IDX 58 95 59 96 62 97 60 98
REMARK H PARENT 84 51 52 62
REMARK Flexibility Score: inf
ROOT
ATOM      1  C   UNL     1      -8.803   4.572   2.878  1.00  0.00     0.188 C 
ENDROOT
BRANCH   1   2
ATOM      2  O   UNL     1      -8.000   3.628   2.170  1.00  0.00    -0.377 OA
BRANCH   2   3
ATOM      3  C   UNL     1      -6.591   3.778   2.163  1.00  0.00     0.188 C 
BRANCH   3   4
ATOM      4  C   UNL     1      -6.039   4.990   1.382  1.00  0.00     0.188 C 
BRANCH   4   5
ATOM      5  O   UNL     1      -6.960   6.040   1.169  1.00  0.00    -0.376 OA
BRANCH   5   6
ATOM      6  C   UNL     1      -7.816   6.106   0.046  1.00  0.00     0.202 C 
BRANCH   6   7
ATOM      7  C   UNL     1      -8.315   4.900  -0.767  1.00  0.00     0.261 C 
BRANCH   7   8
ATOM      8  O   UNL     1      -7.627   3.665  -0.599  1.00  0.00    -0.460 OA
BRANCH   8   9
ATOM      9  C   UNL     1      -6.527   3.486  -1.357  1.00  0.00     0.338 C 
ATOM     10  O   UNL     1      -6.077   4.261  -2.183  1.00  0.00    -0.246 OA
BRANCH   9  11
ATOM     11  C   UNL     1      -5.847   2.260  -0.892  1.00  0.00     0.087 C 
ATOM     12  C   UNL     1      -1.742  -0.044   0.043  1.00  0.00     0.025 A 
ATOM     13  C   UNL     1      -2.448  -1.241   0.170  1.00  0.00     0.021 A 
ATOM     14  C   UNL     1      -2.430   1.151  -0.172  1.00  0.00     0.029 A 
ATOM     15  C   UNL     1      -3.844  -1.238   0.104  1.00  0.00     0.048 A 
ATOM     16  C   UNL     1      -3.823   1.143  -0.300  1.00  0.00     0.018 A 
ATOM     17  C   UNL     1      -4.531  -0.048  -0.132  1.00  0.00     0.128 A 
ATOM     18  C   UNL     1      -4.525   2.347  -0.701  1.00  0.00     0.027 C 
ATOM     19  O   UNL     1      -5.890  -0.142  -0.205  1.00  0.00    -0.475 OA
ATOM     20  C   UNL     1      -6.659   1.022  -0.612  1.00  0.00     0.316 C 
BRANCH  12  21
ATOM     21  C   UNL     1      -0.309  -0.045   0.075  1.00  0.00    -0.070 C 
ATOM     22  C   UNL     1       0.887  -0.042   0.068  1.00  0.00     0.010 C 
ENDBRANCH  12  21
BRANCH  20  23
ATOM     23  C   UNL     1      -7.531   0.628  -1.812  1.00  0.00     0.430 C 
ATOM     24  F   UNL     1      -8.181  -0.539  -1.589  1.00  0.00    -0.167 F 
ATOM     25  F   UNL     1      -8.482   1.556  -2.072  1.00  0.00    -0.167 F 
ATOM     26  F   UNL     1      -6.797   0.478  -2.938  1.00  0.00    -0.167 F 
ENDBRANCH  20  23
ENDBRANCH   9  11
ENDBRANCH   8   9
ENDBRANCH   7   8
ENDBRANCH   6   7
ENDBRANCH   5   6
ENDBRANCH   4   5
ENDBRANCH   3   4
ENDBRANCH   2   3
ENDBRANCH   1   2
BRANCH   1  27
ATOM     27  C   UNL     1      -8.227   5.811   3.613  1.00  0.00     0.188 C 
BRANCH  27  28
ATOM     28  O   UNL     1      -6.851   5.746   3.914  1.00  0.00    -0.376 OA
BRANCH  28  29
ATOM     29  C   UNL     1      -6.383   5.424   5.204  1.00  0.00     0.202 C 
BRANCH  29  30
ATOM     30  C   UNL     1      -6.945   4.222   5.975  1.00  0.00     0.261 C 
BRANCH  30  31
ATOM     31  O   UNL     1      -8.335   3.928   5.808  1.00  0.00    -0.460 OA
BRANCH  31  32
ATOM     32  C   UNL     1      -9.223   4.721   6.448  1.00  0.00     0.338 C 
ATOM     33  O   UNL     1      -8.984   5.695   7.134  1.00  0.00    -0.246 OA
BRANCH  32  34
ATOM     34  C   UNL     1     -10.568   4.298   5.995  1.00  0.00     0.060 A 
ATOM     35  C   UNL     1     -10.989   2.984   6.206  1.00  0.00     0.016 A 
ATOM     36  C   UNL     1     -11.381   5.199   5.294  1.00  0.00     0.016 A 
ATOM     37  C   UNL     1     -12.238   2.579   5.734  1.00  0.00     0.010 A 
ATOM     38  C   UNL     1     -12.627   4.787   4.811  1.00  0.00     0.010 A 
ATOM     39  C   UNL     1     -13.076   3.481   5.051  1.00  0.00    -0.014 A 
BRANCH  39  40
ATOM     40  C   UNL     1     -14.481   3.098   4.765  1.00  0.00     0.031 A 
ATOM     41  C   UNL     1     -14.959   2.762   3.386  1.00  0.00     0.074 A 
ATOM     42  C   UNL     1     -15.336   3.051   5.804  1.00  0.00     0.049 A 
ATOM     43  N   UNL     1     -16.134   2.318   3.011  1.00  0.00    -0.248 NA
ATOM     44  C   UNL     1     -14.007   2.954   2.284  1.00  0.00     0.031 C 
ATOM     45  C   UNL     1     -14.989   3.393   7.183  1.00  0.00     0.029 A 
ATOM     46  N   UNL     1     -16.656   2.683   5.872  1.00  0.00    -0.354 N 
ATOM     47  C   UNL     1     -16.058   2.151   1.636  1.00  0.00     0.074 A 
ATOM     48  C   UNL     1     -14.739   2.597   1.234  1.00  0.00     0.031 C 
ATOM     49  C   UNL     1     -16.052   3.176   7.969  1.00  0.00     0.029 A 
ATOM     50  C   UNL     1     -17.167   2.718   7.146  1.00  0.00     0.049 A 
ATOM     51  H   UNL     1     -17.185   2.420   5.084  1.00  0.00     0.167 HD
ATOM     52  C   UNL     1     -16.999   1.651   0.797  1.00  0.00     0.037 A 
ATOM     53  C   UNL     1     -18.395   2.412   7.605  1.00  0.00     0.037 A 
ATOM     54  C   UNL     1     -18.317   1.228   1.208  1.00  0.00     0.049 A 
ATOM     55  C   UNL     1     -19.435   1.912   6.643  1.00  0.00     0.074 A 
ATOM     56  C   UNL     1     -19.324   0.676   0.433  1.00  0.00     0.029 A 
ATOM     57  N   UNL     1     -18.819   1.324   2.498  1.00  0.00    -0.354 N 
ATOM     58  N   UNL     1     -19.326   1.677   5.358  1.00  0.00    -0.248 NA
ATOM     59  C   UNL     1     -20.766   1.628   7.195  1.00  0.00     0.031 C 
ATOM     60  C   UNL     1     -20.455   0.504   1.237  1.00  0.00     0.029 A 
ATOM     61  C   UNL     1     -20.134   0.878   2.531  1.00  0.00     0.049 A 
ATOM     62  H   UNL     1     -18.317   1.659   3.276  1.00  0.00     0.167 HD
ATOM     63  C   UNL     1     -20.564   1.199   4.951  1.00  0.00     0.074 A 
ATOM     64  C   UNL     1     -21.402   1.154   6.132  1.00  0.00     0.031 C 
ATOM     65  C   UNL     1     -20.967   0.836   3.709  1.00  0.00     0.037 A 
BRANCH  52  66
ATOM     66  C   UNL     1     -16.646   1.518  -0.659  1.00  0.00     0.064 A 
ATOM     67  C   UNL     1     -15.701   0.578  -1.100  1.00  0.00     0.173 A 
ATOM     68  C   UNL     1     -17.324   2.268  -1.634  1.00  0.00     0.173 A 
ATOM     69  F   UNL     1     -15.025  -0.167  -0.212  1.00  0.00    -0.203 F 
ATOM     70  C   UNL     1     -15.432   0.411  -2.457  1.00  0.00     0.198 A 
ATOM     71  C   UNL     1     -17.077   2.073  -2.991  1.00  0.00     0.198 A 
ATOM     72  F   UNL     1     -18.249   3.169  -1.273  1.00  0.00    -0.203 F 
ATOM     73  F   UNL     1     -14.499  -0.467  -2.849  1.00  0.00    -0.200 F 
ATOM     74  C   UNL     1     -16.127   1.151  -3.401  1.00  0.00     0.200 A 
ATOM     75  F   UNL     1     -17.767   2.773  -3.903  1.00  0.00    -0.200 F 
ATOM     76  F   UNL     1     -15.882   0.974  -4.707  1.00  0.00    -0.200 F 
ENDBRANCH  52  66
BRANCH  53  77
ATOM     77  C   UNL     1     -18.682   2.537   9.058  1.00  0.00     0.064 A 
ATOM     78  C   UNL     1     -18.912   1.403   9.848  1.00  0.00     0.173 A 
ATOM     79  C   UNL     1     -18.693   3.788   9.693  1.00  0.00     0.173 A 
ATOM     80  F   UNL     1     -18.928   0.186   9.284  1.00  0.00    -0.203 F 
ATOM     81  C   UNL     1     -19.150   1.516  11.215  1.00  0.00     0.198 A 
ATOM     82  C   UNL     1     -18.897   3.897  11.066  1.00  0.00     0.198 A 
ATOM     83  F   UNL     1     -18.472   4.905   8.983  1.00  0.00    -0.203 F 
ATOM     84  F   UNL     1     -19.402   0.418  11.941  1.00  0.00    -0.200 F 
ATOM     85  C   UNL     1     -19.131   2.761  11.825  1.00  0.00     0.200 A 
ATOM     86  F   UNL     1     -18.856   5.100  11.654  1.00  0.00    -0.200 F 
ATOM     87  F   UNL     1     -19.341   2.866  13.145  1.00  0.00    -0.200 F 
ENDBRANCH  53  77
BRANCH  65  88
ATOM     88  C   UNL     1     -22.380   0.344   3.547  1.00  0.00     0.064 A 
ATOM     89  C   UNL     1     -23.479   1.207   3.679  1.00  0.00     0.173 A 
ATOM     90  C   UNL     1     -22.635  -0.988   3.184  1.00  0.00     0.173 A 
ATOM     91  F   UNL     1     -23.294   2.486   4.038  1.00  0.00    -0.203 F 
ATOM     92  C   UNL     1     -24.778   0.751   3.470  1.00  0.00     0.198 A 
ATOM     93  C   UNL     1     -23.932  -1.431   2.939  1.00  0.00     0.198 A 
ATOM     94  F   UNL     1     -21.622  -1.856   3.038  1.00  0.00    -0.203 F 
ATOM     95  F   UNL     1     -25.814   1.584   3.643  1.00  0.00    -0.200 F 
ATOM     96  C   UNL     1     -25.003  -0.563   3.088  1.00  0.00     0.200 A 
ATOM     97  F   UNL     1     -24.145  -2.696   2.550  1.00  0.00    -0.200 F 
ATOM     98  F   UNL     1     -26.252  -0.993   2.865  1.00  0.00    -0.200 F 
ENDBRANCH  65  88
ENDBRANCH  39  40
ENDBRANCH  32  34
ENDBRANCH  31  32
ENDBRANCH  30  31
ENDBRANCH  29  30
ENDBRANCH  28  29
ENDBRANCH  27  28
ENDBRANCH   1  27
TORSDOF 22
