REMARK SMILES COc1ccc(-n2ccnc2C[N@@H+]2CCn3nc(C(=O)OCCOCCOCCOCCOC(=O)c4ccc(-c5c6nc(c(-c7c(F)c(F)c(F)c(F)c7F)c7ccc([nH]7)c(-c7c(F)c(F)c(F)c(F)c7F)c7nc(c(-c8c(F)c(F)c(F)c(F)c8F)c8ccc5[nH]8)C=C7)C=C6)cc4)cc3C2)cc1
REMARK SMILES IDX 26 1 25 2 24 3 23 4 22 5 21 6 19 7 20 8 18 9 13 10 14 11
REMARK SMILES IDX 101 12 15 14 100 15 16 16 99 17 17 18 12 19 11 20 7 21 8 22
REMARK SMILES IDX 9 23 10 24 6 25 3 26 4 27 103 28 5 29 102 30 2 31 1 32 27 33
REMARK SMILES IDX 28 34 29 35 30 36 31 37 32 38 33 39 34 40 35 41 36 42 37 43
REMARK SMILES IDX 98 44 38 45 97 46 39 47 40 48 41 49 91 50 42 51 96 52 90 53
REMARK SMILES IDX 92 54 43 55 95 56 89 57 88 58 44 60 76 61 56 62 75 63 57 64
REMARK SMILES IDX 60 65 74 66 93 67 58 68 59 69 73 71 94 72 61 73 45 74 46 75
REMARK SMILES IDX 54 76 47 77 48 78 52 79 55 80 49 81 50 82 53 83 51 84 77 85
REMARK SMILES IDX 78 86 86 87 79 88 80 89 84 90 87 91 81 92 82 93 85 94 83 95
REMARK SMILES IDX 62 96 63 97 71 98 64 99 65 100 69 101 72 102 66 103 67 104
REMARK SMILES IDX 70 105 68 106
REMARK H PARENT 13 13 92 59 60 70
REMARK Flexibility Score: inf
ROOT
ATOM      1  C   UNL     1       3.359   1.919  -3.892  1.00  0.00     0.188 C 
ENDROOT
BRANCH   1   2
ATOM      2  C   UNL     1       3.069   0.669  -3.066  1.00  0.00     0.188 C 
BRANCH   2   3
ATOM      3  O   UNL     1       2.386  -0.327  -3.779  1.00  0.00    -0.376 OA
BRANCH   3   4
ATOM      4  C   UNL     1       0.989  -0.220  -3.950  1.00  0.00     0.202 C 
BRANCH   4   5
ATOM      5  C   UNL     1       0.208   1.131  -4.105  1.00  0.00     0.261 C 
BRANCH   5   6
ATOM      6  O   UNL     1       0.531   2.371  -3.368  1.00  0.00    -0.458 OA
BRANCH   6   7
ATOM      7  C   UNL     1       0.521   2.257  -1.875  1.00  0.00     0.358 C 
ATOM      8  O   UNL     1       0.618   0.997  -1.752  1.00  0.00    -0.244 OA
BRANCH   7   9
ATOM      9  C   UNL     1       0.225   3.725  -0.421  1.00  0.00     0.170 A 
ATOM     10  N   UNL     1       0.991   7.687   0.048  1.00  0.00    -0.322 N 
ATOM     11  C   UNL     1       2.225   7.069   0.615  1.00  0.00     0.286 C 
ATOM     12  C   UNL     1      -0.213   7.276   0.795  1.00  0.00     0.319 C 
ATOM     13  H   UNL     1       1.197   8.679   0.161  1.00  0.00     0.348 HD
ATOM     14  C   UNL     1       2.044   5.833   1.532  1.00  0.00     0.206 C 
ATOM     15  C   UNL     1      -0.240   5.809   0.683  1.00  0.00     0.094 A 
ATOM     16  N   UNL     1       0.829   5.146   1.150  1.00  0.00    -0.257 N 
ATOM     17  C   UNL     1      -0.816   4.941  -0.209  1.00  0.00     0.067 A 
ATOM     18  N   UNL     1       0.845   3.867   0.855  1.00  0.00    -0.165 NA
BRANCH  10  19
ATOM     19  C   UNL     1       0.726   7.519  -1.413  1.00  0.00     0.339 C 
BRANCH  19  20
ATOM     20  C   UNL     1       1.721   6.848  -2.312  1.00  0.00     0.168 A 
ATOM     21  N   UNL     1       1.767   5.509  -2.765  1.00  0.00    -0.299 N 
ATOM     22  C   UNL     1       2.881   5.479  -3.591  1.00  0.00     0.113 A 
ATOM     23  C   UNL     1       3.402   6.744  -3.649  1.00  0.00     0.132 A 
ATOM     24  N   UNL     1       2.689   7.574  -2.858  1.00  0.00    -0.236 NA
BRANCH  21  25
ATOM     25  C   UNL     1       1.147   4.310  -2.234  1.00  0.00     0.047 A 
ATOM     26  C   UNL     1      -0.304   1.722  -0.040  1.00  0.00     0.119 A 
ATOM     27  C   UNL     1      -1.372   2.621  -1.244  1.00  0.00     0.048 A 
ATOM     28  C   UNL     1       1.521   2.017  -0.069  1.00  0.00     0.048 A 
ATOM     29  C   UNL     1      -0.641   3.922  -2.347  1.00  0.00     0.030 A 
ATOM     30  C   UNL     1       2.208   3.310  -1.161  1.00  0.00     0.030 A 
BRANCH  26  31
ATOM     31  O   UNL     1      -0.824   0.604   0.568  1.00  0.00    -0.497 OA
ATOM     32  C   UNL     1       0.197  -0.352   0.875  1.00  0.00     0.278 C 
ENDBRANCH  26  31
ENDBRANCH  21  25
ENDBRANCH  19  20
ENDBRANCH  10  19
ENDBRANCH   7   9
ENDBRANCH   6   7
ENDBRANCH   5   6
ENDBRANCH   4   5
ENDBRANCH   3   4
ENDBRANCH   2   3
ENDBRANCH   1   2
BRANCH   1  33
ATOM     33  O   UNL     1       3.072   1.923  -5.271  1.00  0.00    -0.377 OA
BRANCH  33  34
ATOM     34  C   UNL     1       3.477   0.809  -6.033  1.00  0.00     0.188 C 
BRANCH  34  35
ATOM     35  C   UNL     1       4.632  -0.152  -5.626  1.00  0.00     0.188 C 
BRANCH  35  36
ATOM     36  O   UNL     1       5.319  -0.171  -4.389  1.00  0.00    -0.376 OA
BRANCH  36  37
ATOM     37  C   UNL     1       6.246   0.714  -3.783  1.00  0.00     0.202 C 
BRANCH  37  38
ATOM     38  C   UNL     1       6.832   1.975  -4.390  1.00  0.00     0.261 C 
BRANCH  38  39
ATOM     39  O   UNL     1       6.098   2.463  -5.481  1.00  0.00    -0.460 OA
BRANCH  39  40
ATOM     40  C   UNL     1       6.478   1.871  -6.625  1.00  0.00     0.338 C 
ATOM     41  O   UNL     1       7.247   0.934  -6.756  1.00  0.00    -0.246 OA
BRANCH  40  42
ATOM     42  C   UNL     1       5.931   2.638  -7.740  1.00  0.00     0.060 A 
ATOM     43  C   UNL     1       6.225   2.109  -8.988  1.00  0.00     0.016 A 
ATOM     44  C   UNL     1       5.667   3.998  -7.535  1.00  0.00     0.016 A 
ATOM     45  C   UNL     1       6.705   2.993  -9.917  1.00  0.00     0.010 A 
ATOM     46  C   UNL     1       6.081   4.878  -8.497  1.00  0.00     0.010 A 
ATOM     47  C   UNL     1       6.758   4.363  -9.593  1.00  0.00    -0.014 A 
BRANCH  47  48
ATOM     48  C   UNL     1       7.309   5.286 -10.564  1.00  0.00     0.031 A 
ATOM     49  C   UNL     1       6.399   5.298 -11.727  1.00  0.00     0.074 A 
ATOM     50  C   UNL     1       8.449   6.000 -10.410  1.00  0.00     0.049 A 
ATOM     51  N   UNL     1       6.579   4.609 -12.801  1.00  0.00    -0.248 NA
ATOM     52  C   UNL     1       5.025   5.807 -11.577  1.00  0.00     0.031 C 
ATOM     53  C   UNL     1       9.310   6.143  -9.229  1.00  0.00     0.029 A 
ATOM     54  N   UNL     1       9.080   6.806 -11.327  1.00  0.00    -0.354 N 
ATOM     55  C   UNL     1       5.462   4.845 -13.587  1.00  0.00     0.074 A 
ATOM     56  C   UNL     1       4.458   5.376 -12.708  1.00  0.00     0.031 C 
ATOM     57  C   UNL     1      10.193   7.159  -9.418  1.00  0.00     0.029 A 
ATOM     58  C   UNL     1      10.078   7.637 -10.783  1.00  0.00     0.049 A 
ATOM     59  H   UNL     1       8.852   6.802 -12.285  1.00  0.00     0.167 HD
ATOM     60  C   UNL     1       5.624   4.912 -14.935  1.00  0.00     0.037 A 
ATOM     61  C   UNL     1      10.761   8.611 -11.452  1.00  0.00     0.037 A 
ATOM     62  C   UNL     1       6.905   4.351 -15.300  1.00  0.00     0.049 A 
ATOM     63  C   UNL     1      10.680   8.254 -12.886  1.00  0.00     0.074 A 
ATOM     64  C   UNL     1       7.452   3.088 -15.374  1.00  0.00     0.029 A 
ATOM     65  N   UNL     1       7.940   5.234 -15.126  1.00  0.00    -0.354 N 
ATOM     66  N   UNL     1      11.276   7.208 -13.386  1.00  0.00    -0.248 NA
ATOM     67  C   UNL     1       9.561   8.776 -13.652  1.00  0.00     0.031 C 
ATOM     68  C   UNL     1       8.838   3.240 -15.059  1.00  0.00     0.029 A 
ATOM     69  C   UNL     1       9.125   4.596 -14.910  1.00  0.00     0.049 A 
ATOM     70  H   UNL     1       7.838   6.213 -15.154  1.00  0.00     0.167 HD
ATOM     71  C   UNL     1      10.341   6.672 -14.252  1.00  0.00     0.074 A 
ATOM     72  C   UNL     1       9.366   7.742 -14.475  1.00  0.00     0.031 C 
ATOM     73  C   UNL     1      10.280   5.319 -14.432  1.00  0.00     0.037 A 
BRANCH  60  74
ATOM     74  C   UNL     1       4.964   5.959 -15.802  1.00  0.00     0.064 A 
ATOM     75  C   UNL     1       5.160   5.898 -17.195  1.00  0.00     0.173 A 
ATOM     76  C   UNL     1       4.433   7.176 -15.316  1.00  0.00     0.173 A 
ATOM     77  F   UNL     1       5.696   4.806 -17.760  1.00  0.00    -0.203 F 
ATOM     78  C   UNL     1       4.892   6.989 -18.027  1.00  0.00     0.198 A 
ATOM     79  C   UNL     1       4.121   8.243 -16.155  1.00  0.00     0.198 A 
ATOM     80  F   UNL     1       4.301   7.433 -14.011  1.00  0.00    -0.203 F 
ATOM     81  F   UNL     1       5.196   6.923 -19.330  1.00  0.00    -0.200 F 
ATOM     82  C   UNL     1       4.373   8.160 -17.506  1.00  0.00     0.200 A 
ATOM     83  F   UNL     1       3.651   9.381 -15.623  1.00  0.00    -0.200 F 
ATOM     84  F   UNL     1       4.159   9.222 -18.293  1.00  0.00    -0.200 F 
ENDBRANCH  60  74
BRANCH  61  85
ATOM     85  C   UNL     1      11.173   9.986 -11.043  1.00  0.00     0.064 A 
ATOM     86  C   UNL     1      12.080  10.754 -11.807  1.00  0.00     0.173 A 
ATOM     87  C   UNL     1      10.413  10.697 -10.099  1.00  0.00     0.173 A 
ATOM     88  F   UNL     1      12.808  10.177 -12.774  1.00  0.00    -0.203 F 
ATOM     89  C   UNL     1      12.193  12.145 -11.651  1.00  0.00     0.198 A 
ATOM     90  C   UNL     1      10.520  12.085  -9.951  1.00  0.00     0.198 A 
ATOM     91  F   UNL     1       9.471  10.070  -9.381  1.00  0.00    -0.203 F 
ATOM     92  F   UNL     1      13.022  12.848 -12.439  1.00  0.00    -0.200 F 
ATOM     93  C   UNL     1      11.401  12.811 -10.733  1.00  0.00     0.200 A 
ATOM     94  F   UNL     1       9.710  12.725  -9.095  1.00  0.00    -0.200 F 
ATOM     95  F   UNL     1      11.450  14.147 -10.633  1.00  0.00    -0.200 F 
ENDBRANCH  61  85
BRANCH  73  96
ATOM     96  C   UNL     1      11.478   4.514 -14.024  1.00  0.00     0.064 A 
ATOM     97  C   UNL     1      11.908   4.311 -12.701  1.00  0.00     0.173 A 
ATOM     98  C   UNL     1      12.163   3.837 -15.040  1.00  0.00     0.173 A 
ATOM     99  F   UNL     1      11.253   4.862 -11.670  1.00  0.00    -0.203 F 
ATOM    100  C   UNL     1      13.003   3.490 -12.422  1.00  0.00     0.198 A 
ATOM    101  C   UNL     1      13.229   2.993 -14.757  1.00  0.00     0.198 A 
ATOM    102  F   UNL     1      11.762   3.963 -16.315  1.00  0.00    -0.203 F 
ATOM    103  F   UNL     1      13.409   3.314 -11.156  1.00  0.00    -0.200 F 
ATOM    104  C   UNL     1      13.658   2.829 -13.450  1.00  0.00     0.200 A 
ATOM    105  F   UNL     1      13.823   2.321 -15.751  1.00  0.00    -0.200 F 
ATOM    106  F   UNL     1      14.689   2.016 -13.182  1.00  0.00    -0.200 F 
ENDBRANCH  73  96
ENDBRANCH  47  48
ENDBRANCH  40  42
ENDBRANCH  39  40
ENDBRANCH  38  39
ENDBRANCH  37  38
ENDBRANCH  36  37
ENDBRANCH  35  36
ENDBRANCH  34  35
ENDBRANCH  33  34
ENDBRANCH   1  33
TORSDOF 24
