REMARK SMILES CC[C@@](C)(NS(=O)(=O)Cc1ccccc1)C(=O)OCCOCCOCCOCCOC(=O)c1ccc(-c2c3nc(c(-c4c(F)c(F)c(F)c(F)c4F)c4ccc([nH]4)c(-c4c(F)c(F)c(F)c(F)c4F)c4nc(c(-c5c(F)c(F)c(F)c(F)c5F)c5ccc2[nH]5)C=C4)C=C3)cc1
REMARK SMILES IDX 23 1 22 2 21 3 20 4 19 5 18 6 16 7 17 8 3 9 4 10 2 11 1 12
REMARK SMILES IDX 5 13 6 15 7 16 8 17 9 18 10 19 11 20 15 21 12 22 14 23 13 24
REMARK SMILES IDX 24 25 25 26 26 27 27 28 28 29 29 30 30 31 31 32 32 33 33 34
REMARK SMILES IDX 34 35 95 36 35 37 94 38 36 39 37 40 38 41 88 42 39 43 93 44
REMARK SMILES IDX 87 45 89 46 40 47 92 48 86 49 85 50 41 52 73 53 53 54 72 55
REMARK SMILES IDX 54 56 57 57 71 58 90 59 55 60 56 61 70 63 91 64 58 65 42 66
REMARK SMILES IDX 43 67 51 68 44 69 45 70 49 71 52 72 46 73 47 74 50 75 48 76
REMARK SMILES IDX 74 77 75 78 83 79 76 80 77 81 81 82 84 83 78 84 79 85 82 86
REMARK SMILES IDX 80 87 59 88 60 89 68 90 61 91 62 92 66 93 69 94 63 95 64 96
REMARK SMILES IDX 67 97 65 98
REMARK H PARENT 5 14 89 51 57 62
REMARK Flexibility Score: inf
ROOT
ATOM      1  C   UNL     1       2.257   2.291   3.034  1.00  0.00     0.188 C 
ENDROOT
BRANCH   1   2
ATOM      2  C   UNL     1       2.967   1.207   2.008  1.00  0.00     0.188 C 
BRANCH   2   3
ATOM      3  O   UNL     1       4.371   1.042   1.788  1.00  0.00    -0.376 OA
BRANCH   3   4
ATOM      4  C   UNL     1       5.068   1.342   0.569  1.00  0.00     0.202 C 
BRANCH   4   5
ATOM      5  C   UNL     1       4.541   2.279  -0.549  1.00  0.00     0.261 C 
BRANCH   5   6
ATOM      6  O   UNL     1       3.239   2.814  -0.311  1.00  0.00    -0.462 OA
BRANCH   6   7
ATOM      7  C   UNL     1       2.221   2.167  -0.936  1.00  0.00     0.327 C 
ATOM      8  O   UNL     1       2.397   1.305  -1.791  1.00  0.00    -0.250 OA
BRANCH   7   9
ATOM      9  C   UNL     1       0.844   2.549  -0.362  1.00  0.00     0.127 C 
ATOM     10  C   UNL     1      -0.018   2.997  -1.536  1.00  0.00     0.042 C 
BRANCH   9  11
ATOM     11  C   UNL     1       0.121   1.284   0.285  1.00  0.00     0.032 C 
ATOM     12  C   UNL     1       0.375  -0.099  -0.316  1.00  0.00     0.006 C 
ENDBRANCH   9  11
BRANCH   9  13
ATOM     13  N   UNL     1       0.865   3.581   0.734  1.00  0.00    -0.198 NA
ATOM     14  H   UNL     1       1.543   3.217   1.403  1.00  0.00     0.142 HD
BRANCH  13  15
ATOM     15  S   UNL     1       1.194   5.208   0.673  1.00  0.00     0.216 S 
ATOM     16  O   UNL     1       0.861   5.659  -0.661  1.00  0.00    -0.212 OA
ATOM     17  O   UNL     1       0.401   5.725   1.775  1.00  0.00    -0.212 OA
BRANCH  15  18
ATOM     18  C   UNL     1       2.989   5.615   0.980  1.00  0.00     0.189 C 
BRANCH  18  19
ATOM     19  C   UNL     1       3.498   5.155   2.344  1.00  0.00    -0.032 A 
ATOM     20  C   UNL     1       4.432   3.626   2.466  1.00  0.00     0.005 A 
ATOM     21  C   UNL     1       2.557   5.714   3.721  1.00  0.00     0.005 A 
ATOM     22  C   UNL     1       4.247   2.545   3.941  1.00  0.00     0.000 A 
ATOM     23  C   UNL     1       2.319   4.712   5.148  1.00  0.00     0.000 A 
ATOM     24  C   UNL     1       3.115   3.124   5.274  1.00  0.00     0.000 A 
ENDBRANCH  18  19
ENDBRANCH  15  18
ENDBRANCH  13  15
ENDBRANCH   9  13
ENDBRANCH   7   9
ENDBRANCH   6   7
ENDBRANCH   5   6
ENDBRANCH   4   5
ENDBRANCH   3   4
ENDBRANCH   2   3
ENDBRANCH   1   2
BRANCH   1  25
ATOM     25  O   UNL     1       2.833   3.745   3.498  1.00  0.00    -0.377 OA
BRANCH  25  26
ATOM     26  C   UNL     1       4.455   4.503   4.410  1.00  0.00     0.188 C 
BRANCH  26  27
ATOM     27  C   UNL     1       5.744   3.609   5.304  1.00  0.00     0.188 C 
BRANCH  27  28
ATOM     28  O   UNL     1       5.684   2.510   6.224  1.00  0.00    -0.376 OA
BRANCH  28  29
ATOM     29  C   UNL     1       4.807   2.240   7.305  1.00  0.00     0.202 C 
BRANCH  29  30
ATOM     30  C   UNL     1       4.127   3.321   8.171  1.00  0.00     0.261 C 
BRANCH  30  31
ATOM     31  O   UNL     1       4.263   4.667   7.714  1.00  0.00    -0.460 OA
BRANCH  31  32
ATOM     32  C   UNL     1       5.485   5.207   7.926  1.00  0.00     0.338 C 
ATOM     33  O   UNL     1       6.410   4.695   8.533  1.00  0.00    -0.246 OA
BRANCH  32  34
ATOM     34  C   UNL     1       5.617   6.434   7.098  1.00  0.00     0.060 A 
ATOM     35  C   UNL     1       6.784   6.577   6.329  1.00  0.00     0.016 A 
ATOM     36  C   UNL     1       4.610   7.398   7.015  1.00  0.00     0.016 A 
ATOM     37  C   UNL     1       6.950   7.657   5.469  1.00  0.00     0.010 A 
ATOM     38  C   UNL     1       4.816   8.537   6.221  1.00  0.00     0.010 A 
ATOM     39  C   UNL     1       6.008   8.689   5.480  1.00  0.00    -0.014 A 
BRANCH  39  40
ATOM     40  C   UNL     1       6.488  10.043   5.092  1.00  0.00     0.031 A 
ATOM     41  C   UNL     1       7.065  10.888   6.201  1.00  0.00     0.074 A 
ATOM     42  C   UNL     1       6.525  10.495   3.826  1.00  0.00     0.049 A 
ATOM     43  N   UNL     1       7.517  12.115   6.175  1.00  0.00    -0.248 NA
ATOM     44  C   UNL     1       7.137  10.251   7.528  1.00  0.00     0.031 C 
ATOM     45  C   UNL     1       6.101   9.759   2.639  1.00  0.00     0.029 A 
ATOM     46  N   UNL     1       6.951  11.709   3.337  1.00  0.00    -0.354 N 
ATOM     47  C   UNL     1       7.900  12.397   7.480  1.00  0.00     0.074 A 
ATOM     48  C   UNL     1       7.598  11.234   8.280  1.00  0.00     0.031 C 
ATOM     49  C   UNL     1       6.268  10.546   1.559  1.00  0.00     0.029 A 
ATOM     50  C   UNL     1       6.780  11.852   1.981  1.00  0.00     0.049 A 
ATOM     51  H   UNL     1       7.343  12.410   3.906  1.00  0.00     0.167 HD
ATOM     52  C   UNL     1       8.466  13.521   7.976  1.00  0.00     0.037 A 
ATOM     53  C   UNL     1       6.988  12.923   1.185  1.00  0.00     0.037 A 
ATOM     54  C   UNL     1       8.778  14.682   7.192  1.00  0.00     0.049 A 
ATOM     55  C   UNL     1       7.521  14.210   1.780  1.00  0.00     0.074 A 
ATOM     56  C   UNL     1       9.354  15.869   7.607  1.00  0.00     0.029 A 
ATOM     57  N   UNL     1       8.533  14.806   5.833  1.00  0.00    -0.354 N 
ATOM     58  N   UNL     1       7.880  14.474   3.013  1.00  0.00    -0.248 NA
ATOM     59  C   UNL     1       7.677  15.352   0.863  1.00  0.00     0.031 C 
ATOM     60  C   UNL     1       9.389  16.740   6.515  1.00  0.00     0.029 A 
ATOM     61  C   UNL     1       8.916  16.065   5.401  1.00  0.00     0.049 A 
ATOM     62  H   UNL     1       8.145  14.105   5.262  1.00  0.00     0.167 HD
ATOM     63  C   UNL     1       8.339  15.788   3.010  1.00  0.00     0.074 A 
ATOM     64  C   UNL     1       8.225  16.267   1.650  1.00  0.00     0.031 C 
ATOM     65  C   UNL     1       8.816  16.530   4.041  1.00  0.00     0.037 A 
BRANCH  52  66
ATOM     66  C   UNL     1       8.732  13.560   9.453  1.00  0.00     0.064 A 
ATOM     67  C   UNL     1       9.705  12.749  10.057  1.00  0.00     0.173 A 
ATOM     68  C   UNL     1       7.997  14.426  10.276  1.00  0.00     0.173 A 
ATOM     69  F   UNL     1      10.420  11.886   9.318  1.00  0.00    -0.203 F 
ATOM     70  C   UNL     1       9.905  12.777  11.434  1.00  0.00     0.198 A 
ATOM     71  C   UNL     1       8.229  14.482  11.646  1.00  0.00     0.198 A 
ATOM     72  F   UNL     1       7.054  15.222   9.750  1.00  0.00    -0.203 F 
ATOM     73  F   UNL     1      10.790  11.943  11.998  1.00  0.00    -0.200 F 
ATOM     74  C   UNL     1       9.174  13.649  12.226  1.00  0.00     0.200 A 
ATOM     75  F   UNL     1       7.533  15.338  12.407  1.00  0.00    -0.200 F 
ATOM     76  F   UNL     1       9.372  13.680  13.551  1.00  0.00    -0.200 F 
ENDBRANCH  52  66
BRANCH  53  77
ATOM     77  C   UNL     1       6.666  12.855  -0.270  1.00  0.00     0.064 A 
ATOM     78  C   UNL     1       7.667  12.984  -1.244  1.00  0.00     0.173 A 
ATOM     79  C   UNL     1       5.342  12.726  -0.716  1.00  0.00     0.173 A 
ATOM     80  F   UNL     1       8.945  13.149  -0.874  1.00  0.00    -0.203 F 
ATOM     81  C   UNL     1       7.354  13.009  -2.603  1.00  0.00     0.198 A 
ATOM     82  C   UNL     1       5.034  12.715  -2.075  1.00  0.00     0.198 A 
ATOM     83  F   UNL     1       4.342  12.614   0.171  1.00  0.00    -0.203 F 
ATOM     84  F   UNL     1       8.324  13.198  -3.509  1.00  0.00    -0.200 F 
ATOM     85  C   UNL     1       6.039  12.867  -3.018  1.00  0.00     0.200 A 
ATOM     86  F   UNL     1       3.762  12.570  -2.471  1.00  0.00    -0.200 F 
ATOM     87  F   UNL     1       5.739  12.892  -4.324  1.00  0.00    -0.200 F 
ENDBRANCH  53  77
BRANCH  65  88
ATOM     88  C   UNL     1       9.312  17.921   3.745  1.00  0.00     0.064 A 
ATOM     89  C   UNL     1       8.445  18.961   3.380  1.00  0.00     0.173 A 
ATOM     90  C   UNL     1      10.675  18.230   3.892  1.00  0.00     0.173 A 
ATOM     91  F   UNL     1       7.135  18.724   3.219  1.00  0.00    -0.203 F 
ATOM     92  C   UNL     1       8.927  20.247   3.143  1.00  0.00     0.198 A 
ATOM     93  C   UNL     1      11.147  19.524   3.692  1.00  0.00     0.198 A 
ATOM     94  F   UNL     1      11.550  17.279   4.253  1.00  0.00    -0.203 F 
ATOM     95  F   UNL     1       8.087  21.212   2.743  1.00  0.00    -0.200 F 
ATOM     96  C   UNL     1      10.275  20.530   3.308  1.00  0.00     0.200 A 
ATOM     97  F   UNL     1      12.446  19.799   3.877  1.00  0.00    -0.200 F 
ATOM     98  F   UNL     1      10.733  21.771   3.093  1.00  0.00    -0.200 F 
ENDBRANCH  65  88
ENDBRANCH  39  40
ENDBRANCH  32  34
ENDBRANCH  31  32
ENDBRANCH  30  31
ENDBRANCH  29  30
ENDBRANCH  28  29
ENDBRANCH  27  28
ENDBRANCH  26  27
ENDBRANCH  25  26
ENDBRANCH   1  25
TORSDOF 25
