REMARK SMILES Nc1nc2ccccc2nc1N1CCC(C(=O)OCCOCCOCCOCCOC(=O)c2ccc(-c3c4nc(c(-c5c(F)c(F)c(F)c(F)c5F)c5ccc([nH]5)c(-c5c(F)c(F)c(F)c(F)c5F)c5nc(c(-c6c(F)c(F)c(F)c(F)c6F)c6ccc3[nH]6)C=C5)C=C4)cc2)CC1
REMARK SMILES IDX 24 1 23 2 22 3 21 4 20 5 19 6 18 7 16 8 17 9 15 10 12 11
REMARK SMILES IDX 13 12 97 13 14 14 96 15 11 16 2 17 3 18 4 19 10 20 5 21 9 22
REMARK SMILES IDX 6 23 8 24 7 25 1 26 25 29 26 30 27 31 28 32 29 33 30 34
REMARK SMILES IDX 31 35 32 36 33 37 34 38 95 39 35 40 94 41 36 42 37 43 38 44
REMARK SMILES IDX 88 45 39 46 93 47 87 48 89 49 40 50 92 51 86 52 85 53 41 55
REMARK SMILES IDX 73 56 53 57 72 58 54 59 57 60 71 61 90 62 55 63 56 64 70 66
REMARK SMILES IDX 91 67 58 68 42 69 43 70 51 71 44 72 45 73 49 74 52 75 46 76
REMARK SMILES IDX 47 77 50 78 48 79 74 80 75 81 83 82 76 83 77 84 81 85 84 86
REMARK SMILES IDX 78 87 79 88 82 89 80 90 59 91 60 92 68 93 61 94 62 95 66 96
REMARK SMILES IDX 69 97 63 98 64 99 67 100 65 101
REMARK H PARENT 1 27 1 28 89 54 57 65
REMARK Flexibility Score: inf
ROOT
ATOM      1  O   UNL     1       3.507  -4.566   6.551  1.00  0.00    -0.377 OA
ENDROOT
BRANCH   1   2
ATOM      2  C   UNL     1       4.695  -3.845   6.290  1.00  0.00     0.188 C 
BRANCH   2   3
ATOM      3  C   UNL     1       5.098  -2.842   7.378  1.00  0.00     0.188 C 
BRANCH   3   4
ATOM      4  O   UNL     1       4.506  -2.900   8.668  1.00  0.00    -0.376 OA
BRANCH   4   5
ATOM      5  C   UNL     1       3.099  -3.044   8.812  1.00  0.00     0.202 C 
BRANCH   5   6
ATOM      6  C   UNL     1       2.127  -2.128   8.051  1.00  0.00     0.261 C 
BRANCH   6   7
ATOM      7  O   UNL     1       2.195  -2.187   6.612  1.00  0.00    -0.463 OA
BRANCH   7   8
ATOM      8  C   UNL     1       2.617  -1.058   6.000  1.00  0.00     0.309 C 
ATOM      9  O   UNL     1       2.989  -0.047   6.591  1.00  0.00    -0.252 OA
BRANCH   8  10
ATOM     10  C   UNL     1       2.567  -1.096   4.486  1.00  0.00     0.103 C 
ATOM     11  N   UNL     1       1.611  -1.230   1.800  1.00  0.00    -0.353 N 
ATOM     12  C   UNL     1       2.574  -2.217   2.257  1.00  0.00     0.119 C 
ATOM     13  C   UNL     1       1.498   0.036   2.519  1.00  0.00     0.119 C 
ATOM     14  C   UNL     1       2.458  -2.442   3.763  1.00  0.00     0.037 C 
ATOM     15  C   UNL     1       1.410  -0.207   4.023  1.00  0.00     0.037 C 
BRANCH  11  16
ATOM     16  C   UNL     1       0.487  -1.690   1.120  1.00  0.00     0.172 A 
ATOM     17  C   UNL     1      -0.033  -0.969   0.012  1.00  0.00     0.167 A 
ATOM     18  N   UNL     1      -1.106  -1.387  -0.683  1.00  0.00    -0.226 NA
ATOM     19  C   UNL     1      -1.654  -2.550  -0.293  1.00  0.00     0.091 A 
ATOM     20  N   UNL     1      -0.059  -2.872   1.488  1.00  0.00    -0.225 NA
ATOM     21  C   UNL     1      -2.758  -3.037  -0.979  1.00  0.00     0.031 A 
ATOM     22  C   UNL     1      -1.132  -3.294   0.793  1.00  0.00     0.091 A 
ATOM     23  C   UNL     1      -3.368  -4.237  -0.615  1.00  0.00     0.002 A 
ATOM     24  C   UNL     1      -1.749  -4.488   1.147  1.00  0.00     0.031 A 
ATOM     25  C   UNL     1      -2.864  -4.965   0.455  1.00  0.00     0.002 A 
BRANCH  17  26
ATOM     26  N   UNL     1       0.550   0.218  -0.423  1.00  0.00    -0.381 N 
ATOM     27  H   UNL     1       0.170   0.699  -1.194  1.00  0.00     0.158 HD
ATOM     28  H   UNL     1       1.341   0.576   0.039  1.00  0.00     0.158 HD
ENDBRANCH  17  26
ENDBRANCH  11  16
ENDBRANCH   8  10
ENDBRANCH   7   8
ENDBRANCH   6   7
ENDBRANCH   5   6
ENDBRANCH   4   5
ENDBRANCH   3   4
ENDBRANCH   2   3
ENDBRANCH   1   2
BRANCH   1  29
ATOM     29  C   UNL     1       3.652  -5.911   6.995  1.00  0.00     0.188 C 
BRANCH  29  30
ATOM     30  C   UNL     1       4.824  -6.236   7.938  1.00  0.00     0.188 C 
BRANCH  30  31
ATOM     31  O   UNL     1       6.100  -5.975   7.361  1.00  0.00    -0.376 OA
BRANCH  31  32
ATOM     32  C   UNL     1       6.780  -7.062   6.740  1.00  0.00     0.202 C 
BRANCH  32  33
ATOM     33  C   UNL     1       6.187  -7.569   5.415  1.00  0.00     0.261 C 
BRANCH  33  34
ATOM     34  O   UNL     1       4.905  -8.220   5.494  1.00  0.00    -0.460 OA
BRANCH  34  35
ATOM     35  C   UNL     1       4.725  -9.213   6.389  1.00  0.00     0.338 C 
ATOM     36  O   UNL     1       5.568  -9.736   7.095  1.00  0.00    -0.246 OA
BRANCH  35  37
ATOM     37  C   UNL     1       3.267  -9.423   6.531  1.00  0.00     0.060 A 
ATOM     38  C   UNL     1       2.457  -9.613   5.409  1.00  0.00     0.016 A 
ATOM     39  C   UNL     1       2.706  -9.407   7.814  1.00  0.00     0.016 A 
ATOM     40  C   UNL     1       1.088  -9.833   5.576  1.00  0.00     0.010 A 
ATOM     41  C   UNL     1       1.335  -9.616   7.979  1.00  0.00     0.010 A 
ATOM     42  C   UNL     1       0.522  -9.862   6.863  1.00  0.00    -0.014 A 
BRANCH  42  43
ATOM     43  C   UNL     1      -0.865 -10.356   7.046  1.00  0.00     0.031 A 
ATOM     44  C   UNL     1      -2.022  -9.435   7.277  1.00  0.00     0.074 A 
ATOM     45  C   UNL     1      -1.057 -11.688   7.014  1.00  0.00     0.049 A 
ATOM     46  N   UNL     1      -3.295  -9.730   7.374  1.00  0.00    -0.248 NA
ATOM     47  C   UNL     1      -1.720  -8.006   7.428  1.00  0.00     0.031 C 
ATOM     48  C   UNL     1       0.005 -12.680   6.835  1.00  0.00     0.029 A 
ATOM     49  N   UNL     1      -2.200 -12.437   7.123  1.00  0.00    -0.354 N 
ATOM     50  C   UNL     1      -3.952  -8.524   7.571  1.00  0.00     0.074 A 
ATOM     51  C   UNL     1      -2.930  -7.497   7.628  1.00  0.00     0.031 C 
ATOM     52  C   UNL     1      -0.538 -13.905   6.824  1.00  0.00     0.029 A 
ATOM     53  C   UNL     1      -1.980 -13.788   7.013  1.00  0.00     0.049 A 
ATOM     54  H   UNL     1      -3.092 -12.045   7.266  1.00  0.00     0.167 HD
ATOM     55  C   UNL     1      -5.285  -8.302   7.674  1.00  0.00     0.037 A 
ATOM     56  C   UNL     1      -2.844 -14.820   7.052  1.00  0.00     0.037 A 
ATOM     57  C   UNL     1      -6.292  -9.335   7.634  1.00  0.00     0.049 A 
ATOM     58  C   UNL     1      -4.312 -14.545   7.206  1.00  0.00     0.074 A 
ATOM     59  C   UNL     1      -7.670  -9.197   7.681  1.00  0.00     0.029 A 
ATOM     60  N   UNL     1      -6.033 -10.696   7.555  1.00  0.00    -0.354 N 
ATOM     61  N   UNL     1      -4.929 -13.393   7.299  1.00  0.00    -0.248 NA
ATOM     62  C   UNL     1      -5.203 -15.711   7.253  1.00  0.00     0.031 C 
ATOM     63  C   UNL     1      -8.241 -10.473   7.686  1.00  0.00     0.029 A 
ATOM     64  C   UNL     1      -7.223 -11.408   7.586  1.00  0.00     0.049 A 
ATOM     65  H   UNL     1      -5.137 -11.097   7.488  1.00  0.00     0.167 HD
ATOM     66  C   UNL     1      -6.281 -13.693   7.396  1.00  0.00     0.074 A 
ATOM     67  C   UNL     1      -6.395 -15.135   7.330  1.00  0.00     0.031 C 
ATOM     68  C   UNL     1      -7.330 -12.845   7.528  1.00  0.00     0.037 A 
BRANCH  55  69
ATOM     69  C   UNL     1      -5.754  -6.883   7.824  1.00  0.00     0.064 A 
ATOM     70  C   UNL     1      -5.708  -5.985   6.747  1.00  0.00     0.173 A 
ATOM     71  C   UNL     1      -6.355  -6.447   9.015  1.00  0.00     0.173 A 
ATOM     72  F   UNL     1      -5.146  -6.353   5.585  1.00  0.00    -0.203 F 
ATOM     73  C   UNL     1      -6.235  -4.701   6.860  1.00  0.00     0.198 A 
ATOM     74  C   UNL     1      -6.903  -5.171   9.117  1.00  0.00     0.198 A 
ATOM     75  F   UNL     1      -6.438  -7.271  10.071  1.00  0.00    -0.203 F 
ATOM     76  F   UNL     1      -6.162  -3.855   5.823  1.00  0.00    -0.200 F 
ATOM     77  C   UNL     1      -6.841  -4.299   8.040  1.00  0.00     0.200 A 
ATOM     78  F   UNL     1      -7.506  -4.790  10.252  1.00  0.00    -0.200 F 
ATOM     79  F   UNL     1      -7.369  -3.071   8.140  1.00  0.00    -0.200 F 
ENDBRANCH  55  69
BRANCH  56  80
ATOM     80  C   UNL     1      -2.331 -16.203   6.893  1.00  0.00     0.064 A 
ATOM     81  C   UNL     1      -2.581 -16.930   5.722  1.00  0.00     0.173 A 
ATOM     82  C   UNL     1      -1.549 -16.810   7.887  1.00  0.00     0.173 A 
ATOM     83  F   UNL     1      -3.336 -16.395   4.751  1.00  0.00    -0.203 F 
ATOM     84  C   UNL     1      -2.075 -18.217   5.553  1.00  0.00     0.198 A 
ATOM     85  C   UNL     1      -1.021 -18.086   7.706  1.00  0.00     0.198 A 
ATOM     86  F   UNL     1      -1.275 -16.151   9.022  1.00  0.00    -0.203 F 
ATOM     87  F   UNL     1      -2.353 -18.902   4.436  1.00  0.00    -0.200 F 
ATOM     88  C   UNL     1      -1.288 -18.790   6.541  1.00  0.00     0.200 A 
ATOM     89  F   UNL     1      -0.247 -18.629   8.655  1.00  0.00    -0.200 F 
ATOM     90  F   UNL     1      -0.790 -20.022   6.372  1.00  0.00    -0.200 F 
ENDBRANCH  56  80
BRANCH  68  91
ATOM     91  C   UNL     1      -8.702 -13.449   7.609  1.00  0.00     0.064 A 
ATOM     92  C   UNL     1      -9.132 -14.139   8.752  1.00  0.00     0.173 A 
ATOM     93  C   UNL     1      -9.618 -13.285   6.558  1.00  0.00     0.173 A 
ATOM     94  F   UNL     1      -8.289 -14.337   9.777  1.00  0.00    -0.203 F 
ATOM     95  C   UNL     1     -10.422 -14.655   8.834  1.00  0.00     0.198 A 
ATOM     96  C   UNL     1     -10.916 -13.777   6.656  1.00  0.00     0.198 A 
ATOM     97  F   UNL     1      -9.259 -12.629   5.444  1.00  0.00    -0.203 F 
ATOM     98  F   UNL     1     -10.799 -15.343   9.921  1.00  0.00    -0.200 F 
ATOM     99  C   UNL     1     -11.316 -14.465   7.791  1.00  0.00     0.200 A 
ATOM    100  F   UNL     1     -11.783 -13.580   5.652  1.00  0.00    -0.200 F 
ATOM    101  F   UNL     1     -12.563 -14.949   7.878  1.00  0.00    -0.200 F 
ENDBRANCH  68  91
ENDBRANCH  42  43
ENDBRANCH  35  37
ENDBRANCH  34  35
ENDBRANCH  33  34
ENDBRANCH  32  33
ENDBRANCH  31  32
ENDBRANCH  30  31
ENDBRANCH  29  30
ENDBRANCH   1  29
TORSDOF 22
