REMARK SMILES COc1ccc(C(=O)c2ccccc2)cc1[C@@H](C)C(=O)OCCOCCOCCOCCOC(=O)c1ccc(-c2c3nc(c(-c4c(F)c(F)c(F)c(F)c4F)c4ccc([nH]4)c(-c4c(F)c(F)c(F)c(F)c4F)c4nc(c(-c5c(F)c(F)c(F)c(F)c5F)c5ccc2[nH]5)C=C4)C=C3)cc1
REMARK SMILES IDX 26 1 25 2 24 3 23 4 22 5 21 6 19 7 20 8 17 9 18 10 16 11
REMARK SMILES IDX 3 12 4 13 5 14 15 15 6 16 2 17 1 18 7 19 8 20 9 21 10 22
REMARK SMILES IDX 14 23 11 24 13 25 12 26 27 27 28 28 29 29 30 30 31 31 32 32
REMARK SMILES IDX 33 33 34 34 35 35 36 36 37 37 98 38 38 39 97 40 39 41 40 42
REMARK SMILES IDX 41 43 91 44 42 45 96 46 90 47 92 48 43 49 95 50 89 51 88 52
REMARK SMILES IDX 44 54 76 55 56 56 75 57 57 58 60 59 74 60 93 61 58 62 59 63
REMARK SMILES IDX 73 65 94 66 61 67 45 68 46 69 54 70 47 71 48 72 52 73 55 74
REMARK SMILES IDX 49 75 50 76 53 77 51 78 77 79 78 80 86 81 79 82 80 83 84 84
REMARK SMILES IDX 87 85 81 86 82 87 85 88 83 89 62 90 63 91 71 92 64 93 65 94
REMARK SMILES IDX 69 95 72 96 66 97 67 98 70 99 68 100
REMARK H PARENT 92 53 60 64
REMARK Flexibility Score: inf
ROOT
ATOM      1  C   UNL     1       2.049   3.195   0.415  1.00  0.00     0.188 C 
ENDROOT
BRANCH   1   2
ATOM      2  C   UNL     1       2.488   2.409   1.660  1.00  0.00     0.188 C 
BRANCH   2   3
ATOM      3  O   UNL     1       3.577   2.856   2.453  1.00  0.00    -0.376 OA
BRANCH   3   4
ATOM      4  C   UNL     1       4.725   3.416   1.835  1.00  0.00     0.202 C 
BRANCH   4   5
ATOM      5  C   UNL     1       5.433   2.710   0.660  1.00  0.00     0.261 C 
BRANCH   5   6
ATOM      6  O   UNL     1       4.612   2.179  -0.401  1.00  0.00    -0.463 OA
BRANCH   6   7
ATOM      7  C   UNL     1       4.461   0.830  -0.436  1.00  0.00     0.313 C 
ATOM      8  O   UNL     1       4.957   0.073   0.395  1.00  0.00    -0.252 OA
BRANCH   7   9
ATOM      9  C   UNL     1       3.690   0.290  -1.642  1.00  0.00     0.130 C 
ATOM     10  C   UNL     1       4.701  -0.155  -2.697  1.00  0.00     0.025 C 
BRANCH   9  11
ATOM     11  C   UNL     1       2.584   1.138  -2.268  1.00  0.00     0.009 A 
ATOM     12  C   UNL     1       1.230   0.757  -2.221  1.00  0.00     0.122 A 
ATOM     13  C   UNL     1       0.230   1.522  -2.838  1.00  0.00     0.047 A 
ATOM     14  C   UNL     1       0.556   2.711  -3.487  1.00  0.00     0.016 A 
ATOM     15  C   UNL     1       2.883   2.352  -2.916  1.00  0.00     0.020 A 
ATOM     16  C   UNL     1       1.886   3.137  -3.528  1.00  0.00     0.023 A 
BRANCH  12  17
ATOM     17  O   UNL     1       0.840  -0.403  -1.605  1.00  0.00    -0.496 OA
ATOM     18  C   UNL     1       0.495  -0.161  -0.238  1.00  0.00     0.278 C 
ENDBRANCH  12  17
BRANCH  16  19
ATOM     19  C   UNL     1       2.190   4.447  -4.180  1.00  0.00     0.193 C 
ATOM     20  O   UNL     1       1.292   5.197  -4.551  1.00  0.00    -0.289 OA
BRANCH  19  21
ATOM     21  C   UNL     1       3.590   4.895  -4.303  1.00  0.00     0.022 A 
ATOM     22  C   UNL     1       3.964   6.048  -3.619  1.00  0.00     0.012 A 
ATOM     23  C   UNL     1       4.543   4.122  -4.978  1.00  0.00     0.012 A 
ATOM     24  C   UNL     1       5.313   6.374  -3.546  1.00  0.00     0.001 A 
ATOM     25  C   UNL     1       5.891   4.473  -4.909  1.00  0.00     0.001 A 
ATOM     26  C   UNL     1       6.277   5.596  -4.184  1.00  0.00     0.000 A 
ENDBRANCH  19  21
ENDBRANCH  16  19
ENDBRANCH   9  11
ENDBRANCH   7   9
ENDBRANCH   6   7
ENDBRANCH   5   6
ENDBRANCH   4   5
ENDBRANCH   3   4
ENDBRANCH   2   3
ENDBRANCH   1   2
BRANCH   1  27
ATOM     27  O   UNL     1       2.888   4.272   0.052  1.00  0.00    -0.377 OA
BRANCH  27  28
ATOM     28  C   UNL     1       2.428   5.563   0.421  1.00  0.00     0.188 C 
BRANCH  28  29
ATOM     29  C   UNL     1       1.784   5.708   1.814  1.00  0.00     0.188 C 
BRANCH  29  30
ATOM     30  O   UNL     1       0.729   4.786   2.056  1.00  0.00    -0.376 OA
BRANCH  30  31
ATOM     31  C   UNL     1      -0.614   5.201   1.855  1.00  0.00     0.202 C 
BRANCH  31  32
ATOM     32  C   UNL     1      -1.077   5.531   0.424  1.00  0.00     0.261 C 
BRANCH  32  33
ATOM     33  O   UNL     1      -0.320   6.513  -0.298  1.00  0.00    -0.460 OA
BRANCH  33  34
ATOM     34  C   UNL     1      -0.202   7.748   0.228  1.00  0.00     0.338 C 
ATOM     35  O   UNL     1      -0.718   8.163   1.253  1.00  0.00    -0.246 OA
BRANCH  34  36
ATOM     36  C   UNL     1       0.830   8.476  -0.543  1.00  0.00     0.060 A 
ATOM     37  C   UNL     1       1.951   8.992   0.127  1.00  0.00     0.016 A 
ATOM     38  C   UNL     1       0.693   8.657  -1.920  1.00  0.00     0.016 A 
ATOM     39  C   UNL     1       2.906   9.742  -0.564  1.00  0.00     0.010 A 
ATOM     40  C   UNL     1       1.637   9.426  -2.606  1.00  0.00     0.010 A 
ATOM     41  C   UNL     1       2.722  10.014  -1.923  1.00  0.00    -0.014 A 
BRANCH  41  42
ATOM     42  C   UNL     1       3.476  11.100  -2.603  1.00  0.00     0.031 A 
ATOM     43  C   UNL     1       2.783  12.415  -2.786  1.00  0.00     0.074 A 
ATOM     44  C   UNL     1       4.721  10.941  -3.082  1.00  0.00     0.049 A 
ATOM     45  N   UNL     1       3.138  13.449  -3.501  1.00  0.00    -0.248 NA
ATOM     46  C   UNL     1       1.532  12.598  -2.032  1.00  0.00     0.031 C 
ATOM     47  C   UNL     1       5.579   9.800  -2.819  1.00  0.00     0.029 A 
ATOM     48  N   UNL     1       5.459  11.721  -3.939  1.00  0.00    -0.354 N 
ATOM     49  C   UNL     1       2.169  14.411  -3.266  1.00  0.00     0.074 A 
ATOM     50  C   UNL     1       1.178  13.820  -2.394  1.00  0.00     0.031 C 
ATOM     51  C   UNL     1       6.662   9.867  -3.613  1.00  0.00     0.029 A 
ATOM     52  C   UNL     1       6.576  11.079  -4.422  1.00  0.00     0.049 A 
ATOM     53  H   UNL     1       5.214  12.643  -4.183  1.00  0.00     0.167 HD
ATOM     54  C   UNL     1       2.131  15.685  -3.716  1.00  0.00     0.037 A 
ATOM     55  C   UNL     1       7.411  11.419  -5.423  1.00  0.00     0.037 A 
ATOM     56  C   UNL     1       3.111  16.252  -4.601  1.00  0.00     0.049 A 
ATOM     57  C   UNL     1       7.239  12.762  -6.082  1.00  0.00     0.074 A 
ATOM     58  C   UNL     1       3.166  17.532  -5.120  1.00  0.00     0.029 A 
ATOM     59  N   UNL     1       4.200  15.562  -5.115  1.00  0.00    -0.354 N 
ATOM     60  N   UNL     1       6.337  13.683  -5.845  1.00  0.00    -0.248 NA
ATOM     61  C   UNL     1       8.225  13.139  -7.105  1.00  0.00     0.031 C 
ATOM     62  C   UNL     1       4.249  17.596  -6.002  1.00  0.00     0.029 A 
ATOM     63  C   UNL     1       4.914  16.380  -5.973  1.00  0.00     0.049 A 
ATOM     64  H   UNL     1       4.430  14.629  -4.901  1.00  0.00     0.167 HD
ATOM     65  C   UNL     1       6.693  14.776  -6.623  1.00  0.00     0.074 A 
ATOM     66  C   UNL     1       7.875  14.391  -7.367  1.00  0.00     0.031 C 
ATOM     67  C   UNL     1       6.109  15.997  -6.683  1.00  0.00     0.037 A 
BRANCH  54  68
ATOM     68  C   UNL     1       0.975  16.531  -3.274  1.00  0.00     0.064 A 
ATOM     69  C   UNL     1       0.833  16.946  -1.940  1.00  0.00     0.173 A 
ATOM     70  C   UNL     1      -0.002  16.934  -4.195  1.00  0.00     0.173 A 
ATOM     71  F   UNL     1       1.731  16.572  -1.016  1.00  0.00    -0.203 F 
ATOM     72  C   UNL     1      -0.263  17.705  -1.540  1.00  0.00     0.198 A 
ATOM     73  C   UNL     1      -1.078  17.721  -3.798  1.00  0.00     0.198 A 
ATOM     74  F   UNL     1       0.087  16.563  -5.481  1.00  0.00    -0.203 F 
ATOM     75  F   UNL     1      -0.410  18.038  -0.250  1.00  0.00    -0.200 F 
ATOM     76  C   UNL     1      -1.213  18.097  -2.470  1.00  0.00     0.200 A 
ATOM     77  F   UNL     1      -1.989  18.110  -4.700  1.00  0.00    -0.200 F 
ATOM     78  F   UNL     1      -2.267  18.830  -2.084  1.00  0.00    -0.200 F 
ENDBRANCH  54  68
BRANCH  55  79
ATOM     79  C   UNL     1       8.492  10.492  -5.850  1.00  0.00     0.064 A 
ATOM     80  C   UNL     1       9.839  10.782  -5.596  1.00  0.00     0.173 A 
ATOM     81  C   UNL     1       8.202   9.310  -6.549  1.00  0.00     0.173 A 
ATOM     82  F   UNL     1      10.168  11.909  -4.947  1.00  0.00    -0.203 F 
ATOM     83  C   UNL     1      10.855   9.942  -6.047  1.00  0.00     0.198 A 
ATOM     84  C   UNL     1       9.218   8.458  -6.980  1.00  0.00     0.198 A 
ATOM     85  F   UNL     1       6.929   8.983  -6.819  1.00  0.00    -0.203 F 
ATOM     86  F   UNL     1      12.136  10.269  -5.830  1.00  0.00    -0.200 F 
ATOM     87  C   UNL     1      10.545   8.780  -6.736  1.00  0.00     0.200 A 
ATOM     88  F   UNL     1       8.915   7.330  -7.637  1.00  0.00    -0.200 F 
ATOM     89  F   UNL     1      11.524   7.975  -7.173  1.00  0.00    -0.200 F 
ENDBRANCH  55  79
BRANCH  67  90
ATOM     90  C   UNL     1       6.780  17.055  -7.509  1.00  0.00     0.064 A 
ATOM     91  C   UNL     1       6.767  17.030  -8.909  1.00  0.00     0.173 A 
ATOM     92  C   UNL     1       7.367  18.163  -6.875  1.00  0.00     0.173 A 
ATOM     93  F   UNL     1       6.234  15.986  -9.562  1.00  0.00    -0.203 F 
ATOM     94  C   UNL     1       7.322  18.073  -9.646  1.00  0.00     0.198 A 
ATOM     95  C   UNL     1       7.890  19.219  -7.614  1.00  0.00     0.198 A 
ATOM     96  F   UNL     1       7.402  18.236  -5.535  1.00  0.00    -0.203 F 
ATOM     97  F   UNL     1       7.328  18.016 -10.985  1.00  0.00    -0.200 F 
ATOM     98  C   UNL     1       7.870  19.172  -8.999  1.00  0.00     0.200 A 
ATOM     99  F   UNL     1       8.400  20.287  -6.985  1.00  0.00    -0.200 F 
ATOM    100  F   UNL     1       8.378  20.187  -9.711  1.00  0.00    -0.200 F 
ENDBRANCH  67  90
ENDBRANCH  41  42
ENDBRANCH  34  36
ENDBRANCH  33  34
ENDBRANCH  32  33
ENDBRANCH  31  32
ENDBRANCH  30  31
ENDBRANCH  29  30
ENDBRANCH  28  29
ENDBRANCH  27  28
ENDBRANCH   1  27
TORSDOF 24
