REMARK SMILES O=C(OCCOCCOCCOCCOC(=O)[C@H]1C[N@H+](Cc2ccc(Cl)c(Cl)c2)CC12CCCCC2)c1ccc(-c2c3nc(c(-c4c(F)c(F)c(F)c(F)c4F)c4ccc([nH]4)c(-c4c(F)c(F)c(F)c(F)c4F)c4nc(c(-c5c(F)c(F)c(F)c(F)c5F)c5ccc2[nH]5)C=C4)C=C3)cc1
REMARK SMILES IDX 9 1 8 2 7 3 6 4 5 5 4 6 3 7 2 8 1 9 37 10 38 11 99 12 39 13
REMARK SMILES IDX 98 14 40 15 41 16 42 17 92 18 43 19 97 20 91 21 93 22 44 23
REMARK SMILES IDX 96 24 90 25 89 26 45 28 77 29 57 30 76 31 58 32 61 33 75 34
REMARK SMILES IDX 94 35 59 36 60 37 74 39 95 40 62 41 46 42 47 43 55 44 48 45
REMARK SMILES IDX 49 46 53 47 56 48 50 49 51 50 54 51 52 52 78 53 79 54 87 55
REMARK SMILES IDX 80 56 81 57 85 58 88 59 82 60 83 61 86 62 84 63 63 64 64 65
REMARK SMILES IDX 72 66 65 67 66 68 70 69 73 70 67 71 68 72 71 73 69 74 10 75
REMARK SMILES IDX 11 76 12 77 13 78 14 79 15 80 16 81 17 82 18 83 19 84 31 85
REMARK SMILES IDX 20 86 30 87 32 88 36 89 33 91 35 92 34 93 21 94 22 95 23 96
REMARK SMILES IDX 29 97 24 98 27 99 25 100 28 101 26 102
REMARK H PARENT 93 27 61 38 20 90
REMARK Flexibility Score: inf
ROOT
ATOM      1  O   UNL     1       1.871  -2.497   2.471  1.00  0.00    -0.377 OA
ENDROOT
BRANCH   1   2
ATOM      2  C   UNL     1       1.225  -1.857   1.378  1.00  0.00     0.188 C 
BRANCH   2   3
ATOM      3  C   UNL     1       1.701  -0.423   1.142  1.00  0.00     0.188 C 
BRANCH   3   4
ATOM      4  O   UNL     1       3.026  -0.480   0.614  1.00  0.00    -0.376 OA
BRANCH   4   5
ATOM      5  C   UNL     1       3.900   0.585   0.984  1.00  0.00     0.202 C 
BRANCH   5   6
ATOM      6  C   UNL     1       3.935   1.704  -0.052  1.00  0.00     0.261 C 
BRANCH   6   7
ATOM      7  O   UNL     1       2.647   1.912  -0.645  1.00  0.00    -0.460 OA
BRANCH   7   8
ATOM      8  C   UNL     1       2.103   1.218  -1.676  1.00  0.00     0.338 C 
ATOM      9  O   UNL     1       0.932   1.445  -1.980  1.00  0.00    -0.246 OA
BRANCH   8  10
ATOM     10  C   UNL     1       2.847   0.213  -2.502  1.00  0.00     0.060 A 
ATOM     11  C   UNL     1       3.913  -0.580  -2.068  1.00  0.00     0.016 A 
ATOM     12  C   UNL     1       2.372   0.007  -3.808  1.00  0.00     0.016 A 
ATOM     13  C   UNL     1       4.503  -1.529  -2.877  1.00  0.00     0.010 A 
ATOM     14  C   UNL     1       2.961  -0.946  -4.642  1.00  0.00     0.010 A 
ATOM     15  C   UNL     1       4.035  -1.706  -4.168  1.00  0.00    -0.014 A 
BRANCH  15  16
ATOM     16  C   UNL     1       4.829  -2.565  -5.049  1.00  0.00     0.031 A 
ATOM     17  C   UNL     1       5.736  -1.884  -6.018  1.00  0.00     0.074 A 
ATOM     18  C   UNL     1       4.826  -3.895  -4.866  1.00  0.00     0.049 A 
ATOM     19  N   UNL     1       6.395  -2.381  -7.024  1.00  0.00    -0.248 NA
ATOM     20  C   UNL     1       5.934  -0.435  -5.820  1.00  0.00     0.031 C 
ATOM     21  C   UNL     1       4.115  -4.600  -3.795  1.00  0.00     0.029 A 
ATOM     22  N   UNL     1       5.448  -4.890  -5.566  1.00  0.00    -0.354 N 
ATOM     23  C   UNL     1       7.024  -1.298  -7.620  1.00  0.00     0.074 A 
ATOM     24  C   UNL     1       6.708  -0.123  -6.847  1.00  0.00     0.031 C 
ATOM     25  C   UNL     1       4.327  -5.920  -3.924  1.00  0.00     0.029 A 
ATOM     26  C   UNL     1       5.099  -6.147  -5.138  1.00  0.00     0.049 A 
ATOM     27  H   UNL     1       6.080  -4.722  -6.302  1.00  0.00     0.167 HD
ATOM     28  C   UNL     1       7.770  -1.312  -8.746  1.00  0.00     0.037 A 
ATOM     29  C   UNL     1       5.318  -7.334  -5.732  1.00  0.00     0.037 A 
ATOM     30  C   UNL     1       8.062  -2.525  -9.455  1.00  0.00     0.049 A 
ATOM     31  C   UNL     1       6.059  -7.313  -7.045  1.00  0.00     0.074 A 
ATOM     32  C   UNL     1       8.770  -2.699 -10.626  1.00  0.00     0.029 A 
ATOM     33  N   UNL     1       7.644  -3.785  -9.038  1.00  0.00    -0.354 N 
ATOM     34  N   UNL     1       6.593  -6.290  -7.675  1.00  0.00    -0.248 NA
ATOM     35  C   UNL     1       6.202  -8.591  -7.747  1.00  0.00     0.031 C 
ATOM     36  C   UNL     1       8.729  -4.060 -10.948  1.00  0.00     0.029 A 
ATOM     37  C   UNL     1       8.047  -4.741  -9.948  1.00  0.00     0.049 A 
ATOM     38  H   UNL     1       7.136  -3.968  -8.214  1.00  0.00     0.167 HD
ATOM     39  C   UNL     1       7.142  -6.799  -8.841  1.00  0.00     0.074 A 
ATOM     40  C   UNL     1       6.899  -8.230  -8.816  1.00  0.00     0.031 C 
ATOM     41  C   UNL     1       7.779  -6.156  -9.851  1.00  0.00     0.037 A 
BRANCH  28  42
ATOM     42  C   UNL     1       8.195   0.008  -9.310  1.00  0.00     0.064 A 
ATOM     43  C   UNL     1       9.178   0.808  -8.710  1.00  0.00     0.173 A 
ATOM     44  C   UNL     1       7.573   0.496 -10.471  1.00  0.00     0.173 A 
ATOM     45  F   UNL     1       9.776   0.407  -7.578  1.00  0.00    -0.203 F 
ATOM     46  C   UNL     1       9.509   2.054  -9.240  1.00  0.00     0.198 A 
ATOM     47  C   UNL     1       7.925   1.729 -11.012  1.00  0.00     0.198 A 
ATOM     48  F   UNL     1       6.612  -0.220 -11.073  1.00  0.00    -0.203 F 
ATOM     49  F   UNL     1      10.412   2.826  -8.619  1.00  0.00    -0.200 F 
ATOM     50  C   UNL     1       8.887   2.510 -10.393  1.00  0.00     0.200 A 
ATOM     51  F   UNL     1       7.320   2.167 -12.125  1.00  0.00    -0.200 F 
ATOM     52  F   UNL     1       9.206   3.709 -10.900  1.00  0.00    -0.200 F 
ENDBRANCH  28  42
BRANCH  29  53
ATOM     53  C   UNL     1       4.739  -8.586  -5.172  1.00  0.00     0.064 A 
ATOM     54  C   UNL     1       5.554  -9.652  -4.768  1.00  0.00     0.173 A 
ATOM     55  C   UNL     1       3.348  -8.761  -5.063  1.00  0.00     0.173 A 
ATOM     56  F   UNL     1       6.887  -9.551  -4.869  1.00  0.00    -0.203 F 
ATOM     57  C   UNL     1       5.004 -10.847  -4.303  1.00  0.00     0.198 A 
ATOM     58  C   UNL     1       2.800  -9.941  -4.564  1.00  0.00     0.198 A 
ATOM     59  F   UNL     1       2.513  -7.781  -5.440  1.00  0.00    -0.203 F 
ATOM     60  F   UNL     1       5.807 -11.870  -3.981  1.00  0.00    -0.200 F 
ATOM     61  C   UNL     1       3.628 -10.989  -4.197  1.00  0.00     0.200 A 
ATOM     62  F   UNL     1       1.471 -10.066  -4.450  1.00  0.00    -0.200 F 
ATOM     63  F   UNL     1       3.101 -12.139  -3.756  1.00  0.00    -0.200 F 
ENDBRANCH  29  53
BRANCH  41  64
ATOM     64  C   UNL     1       8.272  -7.003 -10.981  1.00  0.00     0.064 A 
ATOM     65  C   UNL     1       7.390  -7.530 -11.934  1.00  0.00     0.173 A 
ATOM     66  C   UNL     1       9.647  -7.209 -11.157  1.00  0.00     0.173 A 
ATOM     67  F   UNL     1       6.066  -7.369 -11.792  1.00  0.00    -0.203 F 
ATOM     68  C   UNL     1       7.871  -8.247 -13.023  1.00  0.00     0.198 A 
ATOM     69  C   UNL     1      10.126  -7.897 -12.265  1.00  0.00     0.198 A 
ATOM     70  F   UNL     1      10.525  -6.713 -10.272  1.00  0.00    -0.203 F 
ATOM     71  F   UNL     1       7.013  -8.774 -13.906  1.00  0.00    -0.200 F 
ATOM     72  C   UNL     1       9.238  -8.418 -13.194  1.00  0.00     0.200 A 
ATOM     73  F   UNL     1      11.446  -8.043 -12.441  1.00  0.00    -0.200 F 
ATOM     74  F   UNL     1       9.700  -9.088 -14.259  1.00  0.00    -0.200 F 
ENDBRANCH  41  64
ENDBRANCH  15  16
ENDBRANCH   8  10
ENDBRANCH   7   8
ENDBRANCH   6   7
ENDBRANCH   5   6
ENDBRANCH   4   5
ENDBRANCH   3   4
ENDBRANCH   2   3
ENDBRANCH   1   2
BRANCH   1  75
ATOM     75  C   UNL     1       3.285  -2.441   2.478  1.00  0.00     0.188 C 
BRANCH  75  76
ATOM     76  C   UNL     1       4.107  -3.213   1.425  1.00  0.00     0.188 C 
BRANCH  76  77
ATOM     77  O   UNL     1       3.663  -4.452   0.903  1.00  0.00    -0.376 OA
BRANCH  77  78
ATOM     78  C   UNL     1       2.805  -5.250   1.694  1.00  0.00     0.202 C 
BRANCH  78  79
ATOM     79  C   UNL     1       3.351  -5.814   3.018  1.00  0.00     0.261 C 
BRANCH  79  80
ATOM     80  O   UNL     1       3.764  -4.838   3.997  1.00  0.00    -0.463 OA
BRANCH  80  81
ATOM     81  C   UNL     1       5.094  -4.535   4.145  1.00  0.00     0.315 C 
ATOM     82  O   UNL     1       6.006  -5.083   3.539  1.00  0.00    -0.252 OA
BRANCH  81  83
ATOM     83  C   UNL     1       5.259  -3.442   5.207  1.00  0.00     0.166 C 
ATOM     84  C   UNL     1       5.873  -4.133   6.423  1.00  0.00     0.278 C 
ATOM     85  C   UNL     1       6.098  -2.117   4.988  1.00  0.00     0.038 C 
ATOM     86  N   UNL     1       6.541  -3.091   7.178  1.00  0.00    -0.330 N 
ATOM     87  C   UNL     1       7.081  -2.159   6.192  1.00  0.00     0.270 C 
ATOM     88  C   UNL     1       6.848  -1.968   3.643  1.00  0.00     0.014 C 
ATOM     89  C   UNL     1       5.188  -0.856   5.064  1.00  0.00     0.014 C 
ATOM     90  H   UNL     1       7.321  -3.472   7.715  1.00  0.00     0.348 HD
ATOM     91  C   UNL     1       7.607  -0.636   3.490  1.00  0.00     0.001 C 
ATOM     92  C   UNL     1       5.927   0.479   5.016  1.00  0.00     0.001 C 
ATOM     93  C   UNL     1       6.737   0.596   3.738  1.00  0.00     0.000 C 
BRANCH  86  94
ATOM     94  C   UNL     1       5.877  -2.583   8.382  1.00  0.00     0.299 C 
BRANCH  94  95
ATOM     95  C   UNL     1       4.610  -1.763   8.234  1.00  0.00     0.008 A 
ATOM     96  C   UNL     1       3.392  -2.348   7.851  1.00  0.00     0.011 A 
ATOM     97  C   UNL     1       4.647  -0.368   8.422  1.00  0.00     0.031 A 
ATOM     98  C   UNL     1       2.289  -1.553   7.517  1.00  0.00     0.022 A 
ATOM     99  C   UNL     1       3.536   0.431   8.109  1.00  0.00     0.060 A 
ATOM    100  C   UNL     1       2.367  -0.162   7.620  1.00  0.00     0.059 A 
ATOM    101  Cl  UNL     1       3.711   2.143   8.259  1.00  0.00    -0.083 Cl
ATOM    102  Cl  UNL     1       1.018   0.764   7.064  1.00  0.00    -0.083 Cl
ENDBRANCH  94  95
ENDBRANCH  86  94
ENDBRANCH  81  83
ENDBRANCH  80  81
ENDBRANCH  79  80
ENDBRANCH  78  79
ENDBRANCH  77  78
ENDBRANCH  76  77
ENDBRANCH  75  76
ENDBRANCH   1  75
TORSDOF 22
