REMARK SMILES O=C(N[C@@H](Cc1c[nH]c2ccccc12)C(=O)N[C@@H](CO)C(=O)OCCOCCOCCOCCOC(=O)c1ccc(-c2c3nc(c(-c4c(F)c(F)c(F)c(F)c4F)c4ccc([nH]4)c(-c4c(F)c(F)c(F)c(F)c4F)c4nc(c(-c5c(F)c(F)c(F)c(F)c5F)c5ccc2[nH]5)C=C4)C=C3)cc1)c1ccc(F)cc1
REMARK SMILES IDX 28 1 27 2 26 3 25 4 24 5 23 6 21 7 22 8 18 9 17 10 15 11
REMARK SMILES IDX 16 12 4 14 3 15 1 16 2 17 101 19 102 20 107 21 103 22 106 23
REMARK SMILES IDX 104 24 105 25 5 26 6 27 7 28 14 29 8 30 9 31 13 32 10 34
REMARK SMILES IDX 12 35 11 36 19 37 20 38 29 40 30 41 31 42 32 43 33 44 34 45
REMARK SMILES IDX 35 46 36 47 37 48 38 49 39 50 100 51 40 52 99 53 41 54 42 55
REMARK SMILES IDX 43 56 93 57 44 58 98 59 92 60 94 61 45 62 97 63 91 64 90 65
REMARK SMILES IDX 46 67 78 68 58 69 77 70 59 71 62 72 76 73 95 74 60 75 61 76
REMARK SMILES IDX 75 78 96 79 63 80 47 81 48 82 56 83 49 84 50 85 54 86 57 87
REMARK SMILES IDX 51 88 52 89 55 90 53 91 79 92 80 93 88 94 81 95 82 96 86 97
REMARK SMILES IDX 89 98 83 99 84 100 87 101 85 102 64 103 65 104 73 105 66 106
REMARK SMILES IDX 67 107 71 108 74 109 68 110 69 111 72 112 70 113
REMARK H PARENT 17 13 3 18 8 33 20 39 94 66 62 77
REMARK Flexibility Score: inf
ROOT
ATOM      1  C   UNL     1       7.422   2.133  -4.151  1.00  0.00     0.188 C 
ENDROOT
BRANCH   1   2
ATOM      2  C   UNL     1       6.915   2.220  -5.591  1.00  0.00     0.188 C 
BRANCH   2   3
ATOM      3  O   UNL     1       7.522   3.252  -6.358  1.00  0.00    -0.376 OA
BRANCH   3   4
ATOM      4  C   UNL     1       6.590   4.199  -6.881  1.00  0.00     0.202 C 
BRANCH   4   5
ATOM      5  C   UNL     1       6.048   5.224  -5.875  1.00  0.00     0.261 C 
BRANCH   5   6
ATOM      6  O   UNL     1       5.465   4.670  -4.673  1.00  0.00    -0.462 OA
BRANCH   6   7
ATOM      7  C   UNL     1       4.039   4.304  -4.616  1.00  0.00     0.331 C 
ATOM      8  O   UNL     1       3.688   4.340  -5.835  1.00  0.00    -0.250 OA
BRANCH   7   9
ATOM      9  C   UNL     1       2.932   3.927  -2.748  1.00  0.00     0.218 C 
BRANCH   9  10
ATOM     10  N   UNL     1       3.526   3.546  -1.145  1.00  0.00    -0.339 N 
ATOM     11  C   UNL     1       4.046   2.466  -0.488  1.00  0.00     0.243 C 
ATOM     12  O   UNL     1       4.584   2.738   0.599  1.00  0.00    -0.273 OA
ATOM     13  H   UNL     1       3.469   4.329  -0.550  1.00  0.00     0.164 HD
BRANCH  11  14
ATOM     14  C   UNL     1       3.958   0.970  -0.905  1.00  0.00     0.176 C 
BRANCH  14  15
ATOM     15  N   UNL     1       2.578   0.549  -0.670  1.00  0.00    -0.340 N 
ATOM     16  O   UNL     1       0.848  -0.431   0.376  1.00  0.00    -0.269 OA
ATOM     17  C   UNL     1       2.064  -0.277   0.299  1.00  0.00     0.251 C 
ATOM     18  H   UNL     1       1.917   0.912  -1.302  1.00  0.00     0.164 HD
BRANCH  17  19
ATOM     19  C   UNL     1       2.952  -1.079   1.179  1.00  0.00     0.040 A 
ATOM     20  C   UNL     1       3.983  -0.523   1.948  1.00  0.00     0.017 A 
ATOM     21  C   UNL     1       2.722  -2.462   1.225  1.00  0.00     0.017 A 
ATOM     22  C   UNL     1       4.848  -1.357   2.662  1.00  0.00     0.040 A 
ATOM     23  C   UNL     1       3.569  -3.290   1.965  1.00  0.00     0.040 A 
ATOM     24  C   UNL     1       4.638  -2.732   2.656  1.00  0.00     0.123 A 
ATOM     25  F   UNL     1       5.477  -3.531   3.329  1.00  0.00    -0.207 F 
ENDBRANCH  17  19
ENDBRANCH  14  15
BRANCH  14  26
ATOM     26  C   UNL     1       4.584   0.424  -2.204  1.00  0.00     0.072 C 
BRANCH  26  27
ATOM     27  C   UNL     1       4.037   1.070  -3.416  1.00  0.00    -0.020 A 
ATOM     28  C   UNL     1       3.184   0.528  -4.370  1.00  0.00     0.087 A 
ATOM     29  C   UNL     1       4.142   2.456  -3.643  1.00  0.00     0.003 A 
ATOM     30  N   UNL     1       2.449   1.483  -5.063  1.00  0.00    -0.361 N 
ATOM     31  C   UNL     1       2.669   2.726  -4.533  1.00  0.00     0.046 A 
ATOM     32  C   UNL     1       4.980   3.832  -2.817  1.00  0.00     0.010 A 
ATOM     33  H   UNL     1       1.856   1.292  -5.825  1.00  0.00     0.166 HD
ATOM     34  C   UNL     1       1.940   4.364  -4.591  1.00  0.00     0.026 A 
ATOM     35  C   UNL     1       4.282   5.498  -2.915  1.00  0.00     0.001 A 
ATOM     36  C   UNL     1       2.809   5.757  -3.853  1.00  0.00     0.002 A 
ENDBRANCH  26  27
ENDBRANCH  14  26
ENDBRANCH  11  14
ENDBRANCH   9  10
BRANCH   9  37
ATOM     37  C   UNL     1       1.541   4.740  -2.051  1.00  0.00     0.193 C 
BRANCH  37  38
ATOM     38  O   UNL     1       1.821   5.964  -1.360  1.00  0.00    -0.394 OA
ATOM     39  H   UNL     1       2.391   5.781  -0.597  1.00  0.00     0.210 HD
ENDBRANCH  37  38
ENDBRANCH   9  37
ENDBRANCH   7   9
ENDBRANCH   6   7
ENDBRANCH   5   6
ENDBRANCH   4   5
ENDBRANCH   3   4
ENDBRANCH   2   3
ENDBRANCH   1   2
BRANCH   1  40
ATOM     40  O   UNL     1       7.915   3.307  -3.525  1.00  0.00    -0.377 OA
BRANCH  40  41
ATOM     41  C   UNL     1       9.002   3.972  -4.151  1.00  0.00     0.188 C 
BRANCH  41  42
ATOM     42  C   UNL     1      10.121   3.098  -4.744  1.00  0.00     0.188 C 
BRANCH  42  43
ATOM     43  O   UNL     1      10.136   1.755  -4.292  1.00  0.00    -0.376 OA
BRANCH  43  44
ATOM     44  C   UNL     1      10.845   1.434  -3.106  1.00  0.00     0.202 C 
BRANCH  44  45
ATOM     45  C   UNL     1      10.497   2.169  -1.802  1.00  0.00     0.261 C 
BRANCH  45  46
ATOM     46  O   UNL     1      10.686   3.595  -1.773  1.00  0.00    -0.460 OA
BRANCH  46  47
ATOM     47  C   UNL     1      11.860   4.115  -2.186  1.00  0.00     0.338 C 
ATOM     48  O   UNL     1      12.863   3.521  -2.530  1.00  0.00    -0.246 OA
BRANCH  47  49
ATOM     49  C   UNL     1      11.658   5.571  -2.337  1.00  0.00     0.060 A 
ATOM     50  C   UNL     1      11.752   6.146  -3.613  1.00  0.00     0.016 A 
ATOM     51  C   UNL     1      11.354   6.358  -1.225  1.00  0.00     0.016 A 
ATOM     52  C   UNL     1      11.572   7.518  -3.776  1.00  0.00     0.010 A 
ATOM     53  C   UNL     1      11.215   7.738  -1.382  1.00  0.00     0.010 A 
ATOM     54  C   UNL     1      11.362   8.325  -2.652  1.00  0.00    -0.014 A 
BRANCH  54  55
ATOM     55  C   UNL     1      11.588   9.784  -2.764  1.00  0.00     0.031 A 
ATOM     56  C   UNL     1      12.973  10.293  -2.474  1.00  0.00     0.074 A 
ATOM     57  C   UNL     1      10.613  10.631  -3.135  1.00  0.00     0.049 A 
ATOM     58  N   UNL     1      13.424  11.520  -2.446  1.00  0.00    -0.248 NA
ATOM     59  C   UNL     1      13.990   9.270  -2.174  1.00  0.00     0.031 C 
ATOM     60  C   UNL     1       9.251  10.250  -3.498  1.00  0.00     0.029 A 
ATOM     61  N   UNL     1      10.628  11.998  -3.257  1.00  0.00    -0.354 N 
ATOM     62  C   UNL     1      14.770  11.415  -2.121  1.00  0.00     0.074 A 
ATOM     63  C   UNL     1      15.059  10.011  -1.932  1.00  0.00     0.031 C 
ATOM     64  C   UNL     1       8.552  11.363  -3.785  1.00  0.00     0.029 A 
ATOM     65  C   UNL     1       9.409  12.533  -3.593  1.00  0.00     0.049 A 
ATOM     66  H   UNL     1      11.436  12.543  -3.118  1.00  0.00     0.167 HD
ATOM     67  C   UNL     1      15.687  12.402  -1.996  1.00  0.00     0.037 A 
ATOM     68  C   UNL     1       9.031  13.822  -3.702  1.00  0.00     0.037 A 
ATOM     69  C   UNL     1      15.393  13.797  -2.172  1.00  0.00     0.049 A 
ATOM     70  C   UNL     1      10.050  14.911  -3.463  1.00  0.00     0.074 A 
ATOM     71  C   UNL     1      16.249  14.878  -2.075  1.00  0.00     0.029 A 
ATOM     72  N   UNL     1      14.136  14.304  -2.469  1.00  0.00    -0.354 N 
ATOM     73  N   UNL     1      11.326  14.808  -3.179  1.00  0.00    -0.248 NA
ATOM     74  C   UNL     1       9.573  16.299  -3.563  1.00  0.00     0.031 C 
ATOM     75  C   UNL     1      15.499  16.044  -2.254  1.00  0.00     0.029 A 
ATOM     76  C   UNL     1      14.188  15.687  -2.527  1.00  0.00     0.049 A 
ATOM     77  H   UNL     1      13.328  13.762  -2.616  1.00  0.00     0.167 HD
ATOM     78  C   UNL     1      11.809  16.109  -3.096  1.00  0.00     0.074 A 
ATOM     79  C   UNL     1      10.691  16.985  -3.376  1.00  0.00     0.031 C 
ATOM     80  C   UNL     1      13.064  16.542  -2.815  1.00  0.00     0.037 A 
BRANCH  67  81
ATOM     81  C   UNL     1      17.082  12.003  -1.614  1.00  0.00     0.064 A 
ATOM     82  C   UNL     1      17.922  11.309  -2.497  1.00  0.00     0.173 A 
ATOM     83  C   UNL     1      17.589  12.332  -0.348  1.00  0.00     0.173 A 
ATOM     84  F   UNL     1      17.478  10.951  -3.712  1.00  0.00    -0.203 F 
ATOM     85  C   UNL     1      19.209  10.936  -2.117  1.00  0.00     0.198 A 
ATOM     86  C   UNL     1      18.887  11.986   0.017  1.00  0.00     0.198 A 
ATOM     87  F   UNL     1      16.826  12.993   0.536  1.00  0.00    -0.203 F 
ATOM     88  F   UNL     1      19.975  10.226  -2.958  1.00  0.00    -0.200 F 
ATOM     89  C   UNL     1      19.693  11.282  -0.865  1.00  0.00     0.200 A 
ATOM     90  F   UNL     1      19.356  12.331   1.224  1.00  0.00    -0.200 F 
ATOM     91  F   UNL     1      20.934  10.928  -0.503  1.00  0.00    -0.200 F 
ENDBRANCH  67  81
BRANCH  68  92
ATOM     92  C   UNL     1       7.621  14.164  -4.030  1.00  0.00     0.064 A 
ATOM     93  C   UNL     1       7.290  14.792  -5.239  1.00  0.00     0.173 A 
ATOM     94  C   UNL     1       6.580  13.902  -3.127  1.00  0.00     0.173 A 
ATOM     95  F   UNL     1       8.252  15.090  -6.125  1.00  0.00    -0.203 F 
ATOM     96  C   UNL     1       5.976  15.162  -5.523  1.00  0.00     0.198 A 
ATOM     97  C   UNL     1       5.263  14.245  -3.425  1.00  0.00     0.198 A 
ATOM     98  F   UNL     1       6.841  13.309  -1.953  1.00  0.00    -0.203 F 
ATOM     99  F   UNL     1       5.697  15.809  -6.663  1.00  0.00    -0.200 F 
ATOM    100  C   UNL     1       4.963  14.884  -4.619  1.00  0.00     0.200 A 
ATOM    101  F   UNL     1       4.285  13.964  -2.553  1.00  0.00    -0.200 F 
ATOM    102  F   UNL     1       3.700  15.239  -4.893  1.00  0.00    -0.200 F 
ENDBRANCH  68  92
BRANCH  80 103
ATOM    103  C   UNL     1      13.308  18.025  -2.834  1.00  0.00     0.064 A 
ATOM    104  C   UNL     1      12.793  18.871  -1.841  1.00  0.00     0.173 A 
ATOM    105  C   UNL     1      14.113  18.598  -3.831  1.00  0.00     0.173 A 
ATOM    106  F   UNL     1      12.009  18.376  -0.872  1.00  0.00    -0.203 F 
ATOM    107  C   UNL     1      13.053  20.239  -1.862  1.00  0.00     0.198 A 
ATOM    108  C   UNL     1      14.399  19.960  -3.829  1.00  0.00     0.198 A 
ATOM    109  F   UNL     1      14.639  17.832  -4.799  1.00  0.00    -0.203 F 
ATOM    110  F   UNL     1      12.509  21.036  -0.931  1.00  0.00    -0.200 F 
ATOM    111  C   UNL     1      13.862  20.781  -2.850  1.00  0.00     0.200 A 
ATOM    112  F   UNL     1      15.196  20.477  -4.774  1.00  0.00    -0.200 F 
ATOM    113  F   UNL     1      14.119  22.096  -2.861  1.00  0.00    -0.200 F 
ENDBRANCH  80 103
ENDBRANCH  54  55
ENDBRANCH  47  49
ENDBRANCH  46  47
ENDBRANCH  45  46
ENDBRANCH  44  45
ENDBRANCH  43  44
ENDBRANCH  42  43
ENDBRANCH  41  42
ENDBRANCH  40  41
ENDBRANCH   1  40
TORSDOF 28
