REMARK SMILES CC(C)c1cc(C(=O)N[C@@H](Cc2c[nH]c3ccccc23)C(=O)OCCOCCOCCOCCOC(=O)c2ccc(-c3c4nc(c(-c5c(F)c(F)c(F)c(F)c5F)c5ccc([nH]5)c(-c5c(F)c(F)c(F)c(F)c5F)c5nc(c(-c6c(F)c(F)c(F)c(F)c6F)c6ccc3[nH]6)C=C5)C=C4)cc2)n(C)n1
REMARK SMILES IDX 28 1 27 2 26 3 25 4 24 5 23 6 21 7 22 8 10 9 9 10 7 11 8 12
REMARK SMILES IDX 6 14 4 15 5 16 103 17 101 18 102 19 2 20 1 21 3 22 11 23
REMARK SMILES IDX 12 24 13 25 20 26 14 27 15 28 19 29 16 31 18 32 17 33 29 34
REMARK SMILES IDX 30 35 31 36 32 37 33 38 34 39 35 40 36 41 37 42 38 43 39 44
REMARK SMILES IDX 100 45 40 46 99 47 41 48 42 49 43 50 93 51 44 52 98 53 92 54
REMARK SMILES IDX 94 55 45 56 97 57 91 58 90 59 46 61 78 62 58 63 77 64 59 65
REMARK SMILES IDX 62 66 76 67 95 68 60 69 61 70 75 72 96 73 63 74 47 75 48 76
REMARK SMILES IDX 56 77 49 78 50 79 54 80 57 81 51 82 52 83 55 84 53 85 79 86
REMARK SMILES IDX 80 87 88 88 81 89 82 90 86 91 89 92 83 93 84 94 87 95 85 96
REMARK SMILES IDX 64 97 65 98 73 99 66 100 67 101 71 102 74 103 68 104 69 105
REMARK SMILES IDX 72 106 70 107
REMARK H PARENT 9 13 14 30 94 60 62 71
REMARK Flexibility Score: inf
ROOT
ATOM      1  C   UNL     1      -5.812  -0.947   4.253  1.00  0.00     0.188 C 
ENDROOT
BRANCH   1   2
ATOM      2  C   UNL     1      -5.681   0.533   4.638  1.00  0.00     0.188 C 
BRANCH   2   3
ATOM      3  O   UNL     1      -6.644   1.154   5.474  1.00  0.00    -0.376 OA
BRANCH   3   4
ATOM      4  C   UNL     1      -8.032   1.117   5.175  1.00  0.00     0.202 C 
BRANCH   4   5
ATOM      5  C   UNL     1      -8.592   1.192   3.745  1.00  0.00     0.261 C 
BRANCH   5   6
ATOM      6  O   UNL     1      -7.872   0.440   2.759  1.00  0.00    -0.462 OA
BRANCH   6   7
ATOM      7  C   UNL     1      -7.231   1.176   1.829  1.00  0.00     0.329 C 
ATOM      8  O   UNL     1      -7.300   2.401   1.740  1.00  0.00    -0.250 OA
BRANCH   7   9
ATOM      9  C   UNL     1      -6.387   0.371   0.829  1.00  0.00     0.197 C 
BRANCH   9  10
ATOM     10  N   UNL     1      -5.858  -0.970   1.020  1.00  0.00    -0.337 N 
ATOM     11  C   UNL     1      -4.585  -1.489   0.930  1.00  0.00     0.270 C 
ATOM     12  O   UNL     1      -4.567  -2.725   0.885  1.00  0.00    -0.268 OA
ATOM     13  H   UNL     1      -6.542  -1.636   1.261  1.00  0.00     0.164 HD
BRANCH  11  14
ATOM     14  C   UNL     1      -3.321  -0.745   0.997  1.00  0.00     0.126 A 
ATOM     15  C   UNL     1      -1.093  -0.429   1.278  1.00  0.00     0.066 A 
ATOM     16  C   UNL     1      -2.096  -1.408   1.179  1.00  0.00     0.059 A 
ATOM     17  N   UNL     1      -1.635   0.781   1.225  1.00  0.00    -0.177 NA
ATOM     18  N   UNL     1      -2.923   0.577   0.907  1.00  0.00    -0.263 N 
ATOM     19  C   UNL     1      -3.559   1.777   0.420  1.00  0.00     0.174 C 
BRANCH  15  20
ATOM     20  C   UNL     1       0.398  -0.563   1.371  1.00  0.00     0.034 C 
ATOM     21  C   UNL     1       1.038  -0.221   0.019  1.00  0.00     0.014 C 
ATOM     22  C   UNL     1       0.992   0.331   2.466  1.00  0.00     0.014 C 
ENDBRANCH  15  20
ENDBRANCH  11  14
ENDBRANCH   9  10
BRANCH   9  23
ATOM     23  C   UNL     1      -7.046   0.456  -0.550  1.00  0.00     0.074 C 
BRANCH  23  24
ATOM     24  C   UNL     1      -8.418  -0.140  -0.518  1.00  0.00    -0.020 A 
ATOM     25  C   UNL     1      -8.752  -1.479  -0.554  1.00  0.00     0.087 A 
ATOM     26  C   UNL     1      -9.630   0.591  -0.320  1.00  0.00     0.003 A 
ATOM     27  N   UNL     1     -10.103  -1.585  -0.362  1.00  0.00    -0.361 N 
ATOM     28  C   UNL     1     -10.662  -0.337  -0.208  1.00  0.00     0.046 A 
ATOM     29  C   UNL     1      -9.928   1.961  -0.175  1.00  0.00     0.010 A 
ATOM     30  H   UNL     1     -10.604  -2.432  -0.337  1.00  0.00     0.166 HD
ATOM     31  C   UNL     1     -11.987   0.041   0.031  1.00  0.00     0.026 A 
ATOM     32  C   UNL     1     -11.244   2.357   0.067  1.00  0.00     0.001 A 
ATOM     33  C   UNL     1     -12.258   1.408   0.165  1.00  0.00     0.002 A 
ENDBRANCH  23  24
ENDBRANCH   9  23
ENDBRANCH   7   9
ENDBRANCH   6   7
ENDBRANCH   5   6
ENDBRANCH   4   5
ENDBRANCH   3   4
ENDBRANCH   2   3
ENDBRANCH   1   2
BRANCH   1  34
ATOM     34  O   UNL     1      -7.122  -1.470   4.276  1.00  0.00    -0.377 OA
BRANCH  34  35
ATOM     35  C   UNL     1      -7.544  -2.140   5.453  1.00  0.00     0.188 C 
BRANCH  35  36
ATOM     36  C   UNL     1      -6.864  -1.810   6.799  1.00  0.00     0.188 C 
BRANCH  36  37
ATOM     37  O   UNL     1      -5.451  -1.714   6.753  1.00  0.00    -0.376 OA
BRANCH  37  38
ATOM     38  C   UNL     1      -4.661  -2.858   7.045  1.00  0.00     0.202 C 
BRANCH  38  39
ATOM     39  C   UNL     1      -4.818  -4.118   6.175  1.00  0.00     0.261 C 
BRANCH  39  40
ATOM     40  O   UNL     1      -6.133  -4.689   6.090  1.00  0.00    -0.460 OA
BRANCH  40  41
ATOM     41  C   UNL     1      -6.753  -5.046   7.231  1.00  0.00     0.338 C 
ATOM     42  O   UNL     1      -6.299  -5.011   8.363  1.00  0.00    -0.246 OA
BRANCH  41  43
ATOM     43  C   UNL     1      -8.174  -5.299   6.907  1.00  0.00     0.060 A 
ATOM     44  C   UNL     1      -9.162  -4.530   7.539  1.00  0.00     0.016 A 
ATOM     45  C   UNL     1      -8.530  -6.278   5.976  1.00  0.00     0.016 A 
ATOM     46  C   UNL     1     -10.510  -4.768   7.274  1.00  0.00     0.010 A 
ATOM     47  C   UNL     1      -9.882  -6.533   5.732  1.00  0.00     0.010 A 
ATOM     48  C   UNL     1     -10.877  -5.806   6.410  1.00  0.00    -0.014 A 
BRANCH  48  49
ATOM     49  C   UNL     1     -12.281  -6.280   6.390  1.00  0.00     0.031 A 
ATOM     50  C   UNL     1     -12.639  -7.468   7.240  1.00  0.00     0.074 A 
ATOM     51  C   UNL     1     -13.226  -5.663   5.662  1.00  0.00     0.049 A 
ATOM     52  N   UNL     1     -13.781  -8.094   7.367  1.00  0.00    -0.248 NA
ATOM     53  C   UNL     1     -11.551  -8.028   8.056  1.00  0.00     0.031 C 
ATOM     54  C   UNL     1     -13.020  -4.468   4.849  1.00  0.00     0.029 A 
ATOM     55  N   UNL     1     -14.554  -5.966   5.492  1.00  0.00    -0.354 N 
ATOM     56  C   UNL     1     -13.545  -9.125   8.266  1.00  0.00     0.074 A 
ATOM     57  C   UNL     1     -12.144  -9.066   8.622  1.00  0.00     0.031 C 
ATOM     58  C   UNL     1     -14.185  -4.137   4.264  1.00  0.00     0.029 A 
ATOM     59  C   UNL     1     -15.205  -5.119   4.633  1.00  0.00     0.049 A 
ATOM     60  H   UNL     1     -14.997  -6.720   5.945  1.00  0.00     0.167 HD
ATOM     61  C   UNL     1     -14.419 -10.036   8.758  1.00  0.00     0.037 A 
ATOM     62  C   UNL     1     -16.476  -5.148   4.185  1.00  0.00     0.037 A 
ATOM     63  C   UNL     1     -15.809 -10.100   8.389  1.00  0.00     0.049 A 
ATOM     64  C   UNL     1     -17.405  -6.237   4.661  1.00  0.00     0.074 A 
ATOM     65  C   UNL     1     -16.784 -10.972   8.840  1.00  0.00     0.029 A 
ATOM     66  N   UNL     1     -16.417  -9.265   7.462  1.00  0.00    -0.354 N 
ATOM     67  N   UNL     1     -17.187  -7.194   5.529  1.00  0.00    -0.248 NA
ATOM     68  C   UNL     1     -18.759  -6.246   4.089  1.00  0.00     0.031 C 
ATOM     69  C   UNL     1     -17.962 -10.712   8.132  1.00  0.00     0.029 A 
ATOM     70  C   UNL     1     -17.745  -9.628   7.295  1.00  0.00     0.049 A 
ATOM     71  H   UNL     1     -15.972  -8.524   6.991  1.00  0.00     0.167 HD
ATOM     72  C   UNL     1     -18.383  -7.895   5.638  1.00  0.00     0.074 A 
ATOM     73  C   UNL     1     -19.325  -7.246   4.749  1.00  0.00     0.031 C 
ATOM     74  C   UNL     1     -18.675  -8.973   6.408  1.00  0.00     0.037 A 
BRANCH  61  75
ATOM     75  C   UNL     1     -13.870 -11.067   9.706  1.00  0.00     0.064 A 
ATOM     76  C   UNL     1     -13.391 -10.728  10.981  1.00  0.00     0.173 A 
ATOM     77  C   UNL     1     -13.800 -12.415   9.320  1.00  0.00     0.173 A 
ATOM     78  F   UNL     1     -13.421  -9.452  11.397  1.00  0.00    -0.203 F 
ATOM     79  C   UNL     1     -12.812 -11.687  11.809  1.00  0.00     0.198 A 
ATOM     80  C   UNL     1     -13.258 -13.378  10.167  1.00  0.00     0.198 A 
ATOM     81  F   UNL     1     -14.248 -12.799   8.115  1.00  0.00    -0.203 F 
ATOM     82  F   UNL     1     -12.287 -11.323  12.988  1.00  0.00    -0.200 F 
ATOM     83  C   UNL     1     -12.749 -13.011  11.403  1.00  0.00     0.200 A 
ATOM     84  F   UNL     1     -13.212 -14.659   9.778  1.00  0.00    -0.200 F 
ATOM     85  F   UNL     1     -12.186 -13.931  12.197  1.00  0.00    -0.200 F 
ENDBRANCH  61  75
BRANCH  62  86
ATOM     86  C   UNL     1     -16.952  -4.101   3.243  1.00  0.00     0.064 A 
ATOM     87  C   UNL     1     -17.904  -3.154   3.645  1.00  0.00     0.173 A 
ATOM     88  C   UNL     1     -16.468  -4.020   1.929  1.00  0.00     0.173 A 
ATOM     89  F   UNL     1     -18.417  -3.205   4.884  1.00  0.00    -0.203 F 
ATOM     90  C   UNL     1     -18.360  -2.172   2.768  1.00  0.00     0.198 A 
ATOM     91  C   UNL     1     -16.902  -3.019   1.062  1.00  0.00     0.198 A 
ATOM     92  F   UNL     1     -15.557  -4.902   1.492  1.00  0.00    -0.203 F 
ATOM     93  F   UNL     1     -19.297  -1.302   3.168  1.00  0.00    -0.200 F 
ATOM     94  C   UNL     1     -17.851  -2.100   1.480  1.00  0.00     0.200 A 
ATOM     95  F   UNL     1     -16.395  -2.944  -0.176  1.00  0.00    -0.200 F 
ATOM     96  F   UNL     1     -18.279  -1.147   0.641  1.00  0.00    -0.200 F 
ENDBRANCH  62  86
BRANCH  74  97
ATOM     97  C   UNL     1     -20.085  -9.498   6.363  1.00  0.00     0.064 A 
ATOM     98  C   UNL     1     -20.602 -10.145   5.231  1.00  0.00     0.173 A 
ATOM     99  C   UNL     1     -20.917  -9.388   7.489  1.00  0.00     0.173 A 
ATOM    100  F   UNL     1     -19.856 -10.266   4.123  1.00  0.00    -0.203 F 
ATOM    101  C   UNL     1     -21.907 -10.633   5.217  1.00  0.00     0.198 A 
ATOM    102  C   UNL     1     -22.207  -9.910   7.485  1.00  0.00     0.198 A 
ATOM    103  F   UNL     1     -20.472  -8.786   8.603  1.00  0.00    -0.203 F 
ATOM    104  F   UNL     1     -22.397 -11.198   4.105  1.00  0.00    -0.200 F 
ATOM    105  C   UNL     1     -22.705 -10.524   6.346  1.00  0.00     0.200 A 
ATOM    106  F   UNL     1     -22.969  -9.819   8.584  1.00  0.00    -0.200 F 
ATOM    107  F   UNL     1     -23.956 -11.003   6.334  1.00  0.00    -0.200 F 
ENDBRANCH  74  97
ENDBRANCH  48  49
ENDBRANCH  41  43
ENDBRANCH  40  41
ENDBRANCH  39  40
ENDBRANCH  38  39
ENDBRANCH  37  38
ENDBRANCH  36  37
ENDBRANCH  35  36
ENDBRANCH  34  35
ENDBRANCH   1  34
TORSDOF 25
