REMARK SMILES Cc1cccc(C(=O)N2CCC[C@H]2c2nnc(SCC(=O)Nc3ccc(C(=O)OCCOCCOCCOCCOC(=O)c4ccc(-c5c6nc(c(-c7c(F)c(F)c(F)c(F)c7F)c7ccc([nH]7)c(-c7c(F)c(F)c(F)c(F)c7F)c7nc(c(-c8c(F)c(F)c(F)c(F)c8F)c8ccc5[nH]8)C=C7)C=C6)cc4)cc3)n2C)c1
REMARK SMILES IDX 33 1 32 2 31 3 30 4 29 5 27 6 28 7 26 8 23 9 24 10 108 11
REMARK SMILES IDX 25 12 107 13 22 14 20 15 21 16 19 18 18 19 17 20 14 21 15 22
REMARK SMILES IDX 109 23 16 24 110 25 13 26 9 27 10 28 11 29 12 30 7 31 8 32
REMARK SMILES IDX 6 33 1 34 2 35 3 36 111 37 4 38 5 39 34 40 35 41 36 42 37 43
REMARK SMILES IDX 38 44 39 45 40 46 41 47 42 48 43 49 44 50 45 51 106 52 46 53
REMARK SMILES IDX 105 54 47 55 48 56 49 57 99 58 50 59 104 60 98 61 100 62
REMARK SMILES IDX 51 63 103 64 97 65 96 66 52 68 84 69 64 70 83 71 65 72 68 73
REMARK SMILES IDX 82 74 101 75 66 76 67 77 81 79 102 80 69 81 53 82 54 83
REMARK SMILES IDX 62 84 55 85 56 86 60 87 63 88 57 89 58 90 61 91 59 92 85 93
REMARK SMILES IDX 86 94 94 95 87 96 88 97 92 98 95 99 89 100 90 101 93 102
REMARK SMILES IDX 91 103 70 104 71 105 79 106 72 107 73 108 77 109 80 110
REMARK SMILES IDX 74 111 75 112 78 113 76 114
REMARK H PARENT 22 17 100 67 68 78
REMARK Flexibility Score: inf
ROOT
ATOM      1  C   UNL     1     -10.546   1.884   1.010  1.00  0.00     0.188 C 
ENDROOT
BRANCH   1   2
ATOM      2  O   UNL     1     -11.963   1.895   0.944  1.00  0.00    -0.376 OA
BRANCH   2   3
ATOM      3  C   UNL     1     -12.584   3.056   1.478  1.00  0.00     0.202 C 
BRANCH   3   4
ATOM      4  C   UNL     1     -12.573   3.213   2.992  1.00  0.00     0.261 C 
BRANCH   4   5
ATOM      5  O   UNL     1     -11.301   3.652   3.427  1.00  0.00    -0.460 OA
BRANCH   5   6
ATOM      6  C   UNL     1     -10.720   2.873   4.356  1.00  0.00     0.338 C 
ATOM      7  O   UNL     1     -11.250   2.095   5.117  1.00  0.00    -0.246 OA
BRANCH   6   8
ATOM      8  C   UNL     1      -9.281   2.909   4.033  1.00  0.00     0.060 A 
ATOM      9  C   UNL     1      -6.644   2.775   3.294  1.00  0.00     0.041 A 
ATOM     10  C   UNL     1      -7.401   3.857   2.867  1.00  0.00     0.027 A 
ATOM     11  C   UNL     1      -7.234   1.664   3.897  1.00  0.00     0.027 A 
ATOM     12  C   UNL     1      -8.716   3.949   3.279  1.00  0.00     0.018 A 
ATOM     13  C   UNL     1      -8.561   1.740   4.284  1.00  0.00     0.018 A 
BRANCH   9  14
ATOM     14  N   UNL     1      -5.258   2.869   3.368  1.00  0.00    -0.325 N 
ATOM     15  C   UNL     1      -4.643   3.769   4.197  1.00  0.00     0.234 C 
ATOM     16  O   UNL     1      -3.577   3.415   4.715  1.00  0.00    -0.274 OA
ATOM     17  H   UNL     1      -4.707   2.273   2.811  1.00  0.00     0.169 HD
BRANCH  15  18
ATOM     18  C   UNL     1      -5.285   5.085   4.618  1.00  0.00     0.178 C 
BRANCH  18  19
ATOM     19  S   UNL     1      -5.202   6.488   3.479  1.00  0.00    -0.076 SA
BRANCH  19  20
ATOM     20  C   UNL     1      -4.110   6.085   2.210  1.00  0.00     0.191 A 
ATOM     21  C   UNL     1      -2.341   5.475   1.081  1.00  0.00     0.156 A 
ATOM     22  N   UNL     1      -3.230   5.931   0.221  1.00  0.00    -0.132 NA
ATOM     23  N   UNL     1      -2.828   5.652   2.356  1.00  0.00    -0.307 N 
ATOM     24  N   UNL     1      -4.344   6.314   0.936  1.00  0.00    -0.123 NA
ATOM     25  C   UNL     1      -2.054   5.438   3.550  1.00  0.00     0.154 C 
BRANCH  21  26
ATOM     26  C   UNL     1      -1.017   4.854   0.819  1.00  0.00     0.154 C 
ATOM     27  N   UNL     1      -1.058   3.784  -0.163  1.00  0.00    -0.328 N 
ATOM     28  C   UNL     1      -0.135   4.067  -1.254  1.00  0.00     0.120 C 
ATOM     29  C   UNL     1       0.895   4.984  -0.606  1.00  0.00     0.024 C 
ATOM     30  C   UNL     1       0.028   5.846   0.307  1.00  0.00     0.035 C 
BRANCH  27  31
ATOM     31  C   UNL     1      -1.667   2.593   0.201  1.00  0.00     0.254 C 
ATOM     32  O   UNL     1      -2.668   2.547   0.917  1.00  0.00    -0.269 OA
BRANCH  31  33
ATOM     33  C   UNL     1      -0.990   1.301  -0.075  1.00  0.00     0.040 A 
ATOM     34  C   UNL     1       2.535  -0.137   0.018  1.00  0.00     0.044 C 
ATOM     35  C   UNL     1       1.040  -0.046  -0.051  1.00  0.00    -0.050 A 
ATOM     36  C   UNL     1       0.257  -1.202  -0.133  1.00  0.00     0.003 A 
ATOM     37  C   UNL     1       0.405   1.198   0.007  1.00  0.00     0.017 A 
ATOM     38  C   UNL     1      -1.136  -1.113  -0.181  1.00  0.00     0.001 A 
ATOM     39  C   UNL     1      -1.759   0.136  -0.157  1.00  0.00     0.014 A 
ENDBRANCH  31  33
ENDBRANCH  27  31
ENDBRANCH  21  26
ENDBRANCH  19  20
ENDBRANCH  18  19
ENDBRANCH  15  18
ENDBRANCH   9  14
ENDBRANCH   6   8
ENDBRANCH   5   6
ENDBRANCH   4   5
ENDBRANCH   3   4
ENDBRANCH   2   3
ENDBRANCH   1   2
BRANCH   1  40
ATOM     40  C   UNL     1      -9.701   2.730   0.047  1.00  0.00     0.188 C 
BRANCH  40  41
ATOM     41  O   UNL     1     -10.084   4.091  -0.159  1.00  0.00    -0.377 OA
BRANCH  41  42
ATOM     42  C   UNL     1     -10.021   4.408  -1.556  1.00  0.00     0.188 C 
BRANCH  42  43
ATOM     43  C   UNL     1     -11.335   4.043  -2.226  1.00  0.00     0.188 C 
BRANCH  43  44
ATOM     44  O   UNL     1     -11.873   2.777  -1.869  1.00  0.00    -0.376 OA
BRANCH  44  45
ATOM     45  C   UNL     1     -11.679   1.660  -2.726  1.00  0.00     0.202 C 
BRANCH  45  46
ATOM     46  C   UNL     1     -12.023   1.904  -4.201  1.00  0.00     0.261 C 
BRANCH  46  47
ATOM     47  O   UNL     1     -13.398   2.337  -4.303  1.00  0.00    -0.460 OA
BRANCH  47  48
ATOM     48  C   UNL     1     -13.592   3.657  -4.590  1.00  0.00     0.338 C 
ATOM     49  O   UNL     1     -13.032   4.267  -5.485  1.00  0.00    -0.246 OA
BRANCH  48  50
ATOM     50  C   UNL     1     -14.326   4.318  -3.462  1.00  0.00     0.060 A 
ATOM     51  C   UNL     1     -14.299   5.719  -3.326  1.00  0.00     0.016 A 
ATOM     52  C   UNL     1     -14.681   3.548  -2.365  1.00  0.00     0.016 A 
ATOM     53  C   UNL     1     -14.398   6.318  -2.049  1.00  0.00     0.010 A 
ATOM     54  C   UNL     1     -14.686   4.142  -1.113  1.00  0.00     0.010 A 
ATOM     55  C   UNL     1     -14.469   5.519  -0.911  1.00  0.00    -0.014 A 
BRANCH  55  56
ATOM     56  C   UNL     1     -14.174   5.953   0.489  1.00  0.00     0.031 A 
ATOM     57  C   UNL     1     -15.104   5.484   1.591  1.00  0.00     0.074 A 
ATOM     58  C   UNL     1     -12.921   6.400   0.811  1.00  0.00     0.049 A 
ATOM     59  N   UNL     1     -14.939   5.667   2.859  1.00  0.00    -0.248 NA
ATOM     60  C   UNL     1     -16.305   4.688   1.341  1.00  0.00     0.031 C 
ATOM     61  C   UNL     1     -12.258   6.291   2.119  1.00  0.00     0.029 A 
ATOM     62  N   UNL     1     -11.883   6.944   0.017  1.00  0.00    -0.354 N 
ATOM     63  C   UNL     1     -15.701   4.734   3.555  1.00  0.00     0.074 A 
ATOM     64  C   UNL     1     -16.610   4.229   2.561  1.00  0.00     0.031 C 
ATOM     65  C   UNL     1     -11.025   6.816   2.100  1.00  0.00     0.029 A 
ATOM     66  C   UNL     1     -10.976   7.601   0.901  1.00  0.00     0.049 A 
ATOM     67  H   UNL     1     -11.802   6.881  -0.963  1.00  0.00     0.167 HD
ATOM     68  C   UNL     1     -15.351   4.408   4.846  1.00  0.00     0.037 A 
ATOM     69  C   UNL     1     -10.860   8.963   0.960  1.00  0.00     0.037 A 
ATOM     70  C   UNL     1     -14.259   5.286   5.329  1.00  0.00     0.049 A 
ATOM     71  C   UNL     1     -11.395   9.485   2.292  1.00  0.00     0.074 A 
ATOM     72  C   UNL     1     -13.005   5.078   5.883  1.00  0.00     0.029 A 
ATOM     73  N   UNL     1     -14.329   6.659   5.079  1.00  0.00    -0.354 N 
ATOM     74  N   UNL     1     -12.349   8.877   2.964  1.00  0.00    -0.248 NA
ATOM     75  C   UNL     1     -10.779  10.556   3.076  1.00  0.00     0.031 C 
ATOM     76  C   UNL     1     -12.287   6.310   5.838  1.00  0.00     0.029 A 
ATOM     77  C   UNL     1     -13.128   7.288   5.327  1.00  0.00     0.049 A 
ATOM     78  H   UNL     1     -15.138   7.121   4.762  1.00  0.00     0.167 HD
ATOM     79  C   UNL     1     -12.367   9.332   4.254  1.00  0.00     0.074 A 
ATOM     80  C   UNL     1     -11.418  10.433   4.256  1.00  0.00     0.031 C 
ATOM     81  C   UNL     1     -13.041   8.739   5.286  1.00  0.00     0.037 A 
BRANCH  68  82
ATOM     82  C   UNL     1     -15.814   3.178   5.666  1.00  0.00     0.064 A 
ATOM     83  C   UNL     1     -15.360   2.982   6.998  1.00  0.00     0.173 A 
ATOM     84  C   UNL     1     -16.630   2.121   5.202  1.00  0.00     0.173 A 
ATOM     85  F   UNL     1     -14.638   3.914   7.634  1.00  0.00    -0.203 F 
ATOM     86  C   UNL     1     -15.644   1.832   7.756  1.00  0.00     0.198 A 
ATOM     87  C   UNL     1     -16.959   0.996   5.980  1.00  0.00     0.198 A 
ATOM     88  F   UNL     1     -17.139   2.102   3.970  1.00  0.00    -0.203 F 
ATOM     89  F   UNL     1     -15.133   1.700   8.989  1.00  0.00    -0.200 F 
ATOM     90  C   UNL     1     -16.451   0.840   7.249  1.00  0.00     0.200 A 
ATOM     91  F   UNL     1     -17.775   0.057   5.475  1.00  0.00    -0.200 F 
ATOM     92  F   UNL     1     -16.747  -0.246   7.977  1.00  0.00    -0.200 F 
ENDBRANCH  68  82
BRANCH  69  93
ATOM     93  C   UNL     1     -10.845   9.541  -0.417  1.00  0.00     0.064 A 
ATOM     94  C   UNL     1      -9.730   9.129  -1.189  1.00  0.00     0.173 A 
ATOM     95  C   UNL     1     -12.056   9.722  -1.097  1.00  0.00     0.173 A 
ATOM     96  F   UNL     1      -8.525   9.014  -0.608  1.00  0.00    -0.203 F 
ATOM     97  C   UNL     1      -9.900   8.599  -2.467  1.00  0.00     0.198 A 
ATOM     98  C   UNL     1     -12.209   9.236  -2.401  1.00  0.00     0.198 A 
ATOM     99  F   UNL     1     -13.137  10.167  -0.441  1.00  0.00    -0.203 F 
ATOM    100  F   UNL     1      -8.884   7.969  -3.075  1.00  0.00    -0.200 F 
ATOM    101  C   UNL     1     -11.157   8.597  -3.045  1.00  0.00     0.200 A 
ATOM    102  F   UNL     1     -13.414   9.266  -2.989  1.00  0.00    -0.200 F 
ATOM    103  F   UNL     1     -11.370   7.923  -4.185  1.00  0.00    -0.200 F 
ENDBRANCH  69  93
BRANCH  81 104
ATOM    104  C   UNL     1     -13.697   9.503   6.415  1.00  0.00     0.064 A 
ATOM    105  C   UNL     1     -13.931  10.885   6.361  1.00  0.00     0.173 A 
ATOM    106  C   UNL     1     -14.335   8.821   7.487  1.00  0.00     0.173 A 
ATOM    107  F   UNL     1     -13.483  11.633   5.344  1.00  0.00    -0.203 F 
ATOM    108  C   UNL     1     -14.693  11.541   7.327  1.00  0.00     0.198 A 
ATOM    109  C   UNL     1     -15.149   9.470   8.409  1.00  0.00     0.198 A 
ATOM    110  F   UNL     1     -14.234   7.495   7.656  1.00  0.00    -0.203 F 
ATOM    111  F   UNL     1     -14.853  12.868   7.247  1.00  0.00    -0.200 F 
ATOM    112  C   UNL     1     -15.313  10.834   8.340  1.00  0.00     0.200 A 
ATOM    113  F   UNL     1     -15.795   8.757   9.343  1.00  0.00    -0.200 F 
ATOM    114  F   UNL     1     -16.084  11.465   9.234  1.00  0.00    -0.200 F 
ENDBRANCH  81 104
ENDBRANCH  55  56
ENDBRANCH  48  50
ENDBRANCH  47  48
ENDBRANCH  46  47
ENDBRANCH  45  46
ENDBRANCH  44  45
ENDBRANCH  43  44
ENDBRANCH  42  43
ENDBRANCH  41  42
ENDBRANCH  40  41
ENDBRANCH   1  40
TORSDOF 27
