REMARK SMILES C[C@]1(C(=O)OCCOCCOCCOCCOC(=O)c2ccc(-c3c4nc(c(-c5c(F)c(F)c(F)c(F)c5F)c5ccc([nH]5)c(-c5c(F)c(F)c(F)c(F)c5F)c5nc(c(-c6c(F)c(F)c(F)c(F)c6F)c6ccc3[nH]6)C=C5)C=C4)cc2)[NH2+]C2(C(=O)c3ccccc3C2=O)[C@@H]2C(=O)N(c3ccccc3)C(=O)[C@H]21
REMARK SMILES IDX 12 1 11 2 10 3 9 4 8 5 7 6 6 7 5 8 3 9 4 10 2 11 1 12 83 13
REMARK SMILES IDX 107 14 84 15 95 18 105 19 85 20 93 21 96 22 98 23 106 24
REMARK SMILES IDX 86 25 87 26 92 27 94 28 97 29 88 30 91 31 89 32 90 33 99 34
REMARK SMILES IDX 100 35 104 36 101 37 103 38 102 39 13 40 14 41 15 42 16 43
REMARK SMILES IDX 17 44 18 45 19 46 20 47 21 48 82 49 22 50 81 51 23 52 24 53
REMARK SMILES IDX 25 54 75 55 26 56 80 57 74 58 76 59 27 60 79 61 73 62 72 63
REMARK SMILES IDX 28 65 60 66 40 67 59 68 41 69 44 70 58 71 77 72 42 73 43 74
REMARK SMILES IDX 57 76 78 77 45 78 29 79 30 80 38 81 31 82 32 83 36 84 39 85
REMARK SMILES IDX 33 86 34 87 37 88 35 89 61 90 62 91 70 92 63 93 64 94 68 95
REMARK SMILES IDX 71 96 65 97 66 98 69 99 67 100 46 101 47 102 55 103 48 104
REMARK SMILES IDX 49 105 53 106 56 107 50 108 51 109 54 110 52 111
REMARK H PARENT 83 16 83 17 76 64 44 75
REMARK Flexibility Score: inf
ROOT
ATOM      1  C   UNL     1      -3.987  -1.862  -1.986  1.00  0.00     0.188 C 
ENDROOT
BRANCH   1   2
ATOM      2  O   UNL     1      -2.630  -1.491  -1.807  1.00  0.00    -0.377 OA
BRANCH   2   3
ATOM      3  C   UNL     1      -2.096  -1.437  -0.502  1.00  0.00     0.188 C 
BRANCH   3   4
ATOM      4  C   UNL     1      -2.385  -0.138   0.263  1.00  0.00     0.188 C 
BRANCH   4   5
ATOM      5  O   UNL     1      -3.538   0.583  -0.112  1.00  0.00    -0.376 OA
BRANCH   5   6
ATOM      6  C   UNL     1      -3.610   1.390  -1.275  1.00  0.00     0.202 C 
BRANCH   6   7
ATOM      7  C   UNL     1      -2.554   1.540  -2.387  1.00  0.00     0.261 C 
BRANCH   7   8
ATOM      8  O   UNL     1      -1.390   0.723  -2.346  1.00  0.00    -0.459 OA
BRANCH   8   9
ATOM      9  C   UNL     1      -0.334   1.214  -1.662  1.00  0.00     0.368 C 
ATOM     10  O   UNL     1      -0.356   2.289  -1.075  1.00  0.00    -0.245 OA
BRANCH   9  11
ATOM     11  C   UNL     1       0.919   0.293  -1.739  1.00  0.00     0.205 C 
ATOM     12  C   UNL     1       1.574   0.297  -0.357  1.00  0.00     0.093 C 
ATOM     13  N   UNL     1       0.658  -1.155  -2.158  1.00  0.00    -0.313 N 
ATOM     14  C   UNL     1       1.800   0.747  -2.865  1.00  0.00     0.172 C 
ATOM     15  C   UNL     1       1.030  -1.321  -3.621  1.00  0.00     0.237 C 
ATOM     16  H   UNL     1      -0.329  -1.376  -2.029  1.00  0.00     0.348 HD
ATOM     17  H   UNL     1       1.219  -1.787  -1.586  1.00  0.00     0.348 HD
ATOM     18  C   UNL     1       1.089   0.101  -4.046  1.00  0.00     0.177 C 
ATOM     19  C   UNL     1       1.916   2.150  -3.336  1.00  0.00     0.244 C 
ATOM     20  C   UNL     1       2.306  -2.157  -3.736  1.00  0.00     0.232 C 
ATOM     21  C   UNL     1      -0.004  -2.176  -4.364  1.00  0.00     0.232 C 
ATOM     22  C   UNL     1       1.761   0.769  -5.182  1.00  0.00     0.245 C 
ATOM     23  N   UNL     1       1.944   2.074  -4.725  1.00  0.00    -0.250 N 
ATOM     24  O   UNL     1       2.018   3.114  -2.598  1.00  0.00    -0.273 OA
ATOM     25  O   UNL     1       3.405  -1.893  -3.281  1.00  0.00    -0.286 OA
ATOM     26  C   UNL     1       1.974  -3.429  -4.375  1.00  0.00     0.036 A 
ATOM     27  C   UNL     1       0.630  -3.452  -4.721  1.00  0.00     0.036 A 
ATOM     28  O   UNL     1      -1.143  -1.888  -4.685  1.00  0.00    -0.286 OA
ATOM     29  O   UNL     1       1.938   0.272  -6.279  1.00  0.00    -0.273 OA
ATOM     30  C   UNL     1       2.808  -4.510  -4.608  1.00  0.00     0.013 A 
ATOM     31  C   UNL     1       0.061  -4.561  -5.324  1.00  0.00     0.013 A 
ATOM     32  C   UNL     1       2.252  -5.637  -5.218  1.00  0.00     0.001 A 
ATOM     33  C   UNL     1       0.889  -5.663  -5.573  1.00  0.00     0.001 A 
BRANCH  23  34
ATOM     34  C   UNL     1       1.916   3.231  -5.527  1.00  0.00     0.052 A 
ATOM     35  C   UNL     1       2.632   4.372  -5.146  1.00  0.00     0.027 A 
ATOM     36  C   UNL     1       1.026   3.310  -6.606  1.00  0.00     0.027 A 
ATOM     37  C   UNL     1       2.450   5.580  -5.814  1.00  0.00     0.002 A 
ATOM     38  C   UNL     1       0.814   4.533  -7.247  1.00  0.00     0.002 A 
ATOM     39  C   UNL     1       1.525   5.665  -6.851  1.00  0.00     0.000 A 
ENDBRANCH  23  34
ENDBRANCH   9  11
ENDBRANCH   8   9
ENDBRANCH   7   8
ENDBRANCH   6   7
ENDBRANCH   5   6
ENDBRANCH   4   5
ENDBRANCH   3   4
ENDBRANCH   2   3
ENDBRANCH   1   2
BRANCH   1  40
ATOM     40  C   UNL     1      -4.979  -1.890  -0.801  1.00  0.00     0.188 C 
BRANCH  40  41
ATOM     41  O   UNL     1      -4.422  -2.271   0.446  1.00  0.00    -0.376 OA
BRANCH  41  42
ATOM     42  C   UNL     1      -4.552  -3.611   0.889  1.00  0.00     0.202 C 
BRANCH  42  43
ATOM     43  C   UNL     1      -3.915  -4.727   0.047  1.00  0.00     0.261 C 
BRANCH  43  44
ATOM     44  O   UNL     1      -4.303  -4.794  -1.332  1.00  0.00    -0.460 OA
BRANCH  44  45
ATOM     45  C   UNL     1      -5.607  -4.979  -1.622  1.00  0.00     0.338 C 
ATOM     46  O   UNL     1      -6.523  -5.146  -0.834  1.00  0.00    -0.246 OA
BRANCH  45  47
ATOM     47  C   UNL     1      -5.766  -4.745  -3.074  1.00  0.00     0.060 A 
ATOM     48  C   UNL     1      -5.002  -5.472  -3.990  1.00  0.00     0.016 A 
ATOM     49  C   UNL     1      -6.644  -3.748  -3.519  1.00  0.00     0.016 A 
ATOM     50  C   UNL     1      -5.146  -5.224  -5.357  1.00  0.00     0.010 A 
ATOM     51  C   UNL     1      -6.777  -3.492  -4.886  1.00  0.00     0.010 A 
ATOM     52  C   UNL     1      -6.052  -4.250  -5.816  1.00  0.00    -0.014 A 
BRANCH  52  53
ATOM     53  C   UNL     1      -6.380  -4.179  -7.262  1.00  0.00     0.031 A 
ATOM     54  C   UNL     1      -5.856  -3.097  -8.155  1.00  0.00     0.074 A 
ATOM     55  C   UNL     1      -7.183  -5.137  -7.762  1.00  0.00     0.049 A 
ATOM     56  N   UNL     1      -5.997  -2.969  -9.452  1.00  0.00    -0.248 NA
ATOM     57  C   UNL     1      -5.085  -2.020  -7.521  1.00  0.00     0.031 C 
ATOM     58  C   UNL     1      -7.780  -6.217  -6.974  1.00  0.00     0.029 A 
ATOM     59  N   UNL     1      -7.624  -5.371  -9.039  1.00  0.00    -0.354 N 
ATOM     60  C   UNL     1      -5.312  -1.812  -9.797  1.00  0.00     0.074 A 
ATOM     61  C   UNL     1      -4.803  -1.246  -8.563  1.00  0.00     0.031 C 
ATOM     62  C   UNL     1      -8.476  -7.021  -7.790  1.00  0.00     0.029 A 
ATOM     63  C   UNL     1      -8.401  -6.497  -9.151  1.00  0.00     0.049 A 
ATOM     64  H   UNL     1      -7.405  -4.787  -9.801  1.00  0.00     0.167 HD
ATOM     65  C   UNL     1      -5.111  -1.292 -11.033  1.00  0.00     0.037 A 
ATOM     66  C   UNL     1      -8.983  -7.055 -10.229  1.00  0.00     0.037 A 
ATOM     67  C   UNL     1      -5.638  -1.856 -12.254  1.00  0.00     0.049 A 
ATOM     68  C   UNL     1      -8.784  -6.426 -11.579  1.00  0.00     0.074 A 
ATOM     69  C   UNL     1      -5.456  -1.416 -13.555  1.00  0.00     0.029 A 
ATOM     70  N   UNL     1      -6.459  -2.973 -12.326  1.00  0.00    -0.354 N 
ATOM     71  N   UNL     1      -8.066  -5.380 -11.905  1.00  0.00    -0.248 NA
ATOM     72  C   UNL     1      -9.472  -7.059 -12.712  1.00  0.00     0.031 C 
ATOM     73  C   UNL     1      -6.212  -2.227 -14.405  1.00  0.00     0.029 A 
ATOM     74  C   UNL     1      -6.816  -3.215 -13.645  1.00  0.00     0.049 A 
ATOM     75  H   UNL     1      -6.746  -3.514 -11.555  1.00  0.00     0.167 HD
ATOM     76  C   UNL     1      -8.196  -5.241 -13.280  1.00  0.00     0.074 A 
ATOM     77  C   UNL     1      -9.044  -6.325 -13.730  1.00  0.00     0.031 C 
ATOM     78  C   UNL     1      -7.662  -4.296 -14.091  1.00  0.00     0.037 A 
BRANCH  65  79
ATOM     79  C   UNL     1      -4.269  -0.052 -11.148  1.00  0.00     0.064 A 
ATOM     80  C   UNL     1      -2.884  -0.090 -10.921  1.00  0.00     0.173 A 
ATOM     81  C   UNL     1      -4.826   1.159 -11.587  1.00  0.00     0.173 A 
ATOM     82  F   UNL     1      -2.299  -1.223 -10.505  1.00  0.00    -0.203 F 
ATOM     83  C   UNL     1      -2.094   1.042 -11.111  1.00  0.00     0.198 A 
ATOM     84  C   UNL     1      -4.029   2.280 -11.806  1.00  0.00     0.198 A 
ATOM     85  F   UNL     1      -6.142   1.248 -11.836  1.00  0.00    -0.203 F 
ATOM     86  F   UNL     1      -0.779   0.989 -10.860  1.00  0.00    -0.200 F 
ATOM     87  C   UNL     1      -2.665   2.222 -11.563  1.00  0.00     0.200 A 
ATOM     88  F   UNL     1      -4.578   3.413 -12.265  1.00  0.00    -0.200 F 
ATOM     89  F   UNL     1      -1.900   3.303 -11.766  1.00  0.00    -0.200 F 
ENDBRANCH  65  79
BRANCH  66  90
ATOM     90  C   UNL     1      -9.768  -8.306 -10.071  1.00  0.00     0.064 A 
ATOM     91  C   UNL     1      -9.302  -9.517 -10.599  1.00  0.00     0.173 A 
ATOM     92  C   UNL     1     -10.979  -8.325  -9.364  1.00  0.00     0.173 A 
ATOM     93  F   UNL     1      -8.156  -9.547 -11.296  1.00  0.00    -0.203 F 
ATOM     94  C   UNL     1     -10.023 -10.698 -10.436  1.00  0.00     0.198 A 
ATOM     95  C   UNL     1     -11.684  -9.511  -9.174  1.00  0.00     0.198 A 
ATOM     96  F   UNL     1     -11.465  -7.193  -8.832  1.00  0.00    -0.203 F 
ATOM     97  F   UNL     1      -9.572 -11.835 -10.983  1.00  0.00    -0.200 F 
ATOM     98  C   UNL     1     -11.208 -10.696  -9.716  1.00  0.00     0.200 A 
ATOM     99  F   UNL     1     -12.818  -9.508  -8.461  1.00  0.00    -0.200 F 
ATOM    100  F   UNL     1     -11.893 -11.835  -9.547  1.00  0.00    -0.200 F 
ENDBRANCH  66  90
BRANCH  78 101
ATOM    101  C   UNL     1      -7.963  -4.388 -15.561  1.00  0.00     0.064 A 
ATOM    102  C   UNL     1      -9.242  -4.115 -16.067  1.00  0.00     0.173 A 
ATOM    103  C   UNL     1      -6.946  -4.688 -16.481  1.00  0.00     0.173 A 
ATOM    104  F   UNL     1     -10.255  -3.838 -15.231  1.00  0.00    -0.203 F 
ATOM    105  C   UNL     1      -9.495  -4.154 -17.436  1.00  0.00     0.198 A 
ATOM    106  C   UNL     1      -7.194  -4.693 -17.851  1.00  0.00     0.198 A 
ATOM    107  F   UNL     1      -5.702  -4.953 -16.052  1.00  0.00    -0.203 F 
ATOM    108  F   UNL     1     -10.735  -3.929 -17.893  1.00  0.00    -0.200 F 
ATOM    109  C   UNL     1      -8.469  -4.431 -18.327  1.00  0.00     0.200 A 
ATOM    110  F   UNL     1      -6.197  -4.944 -18.711  1.00  0.00    -0.200 F 
ATOM    111  F   UNL     1      -8.711  -4.448 -19.645  1.00  0.00    -0.200 F 
ENDBRANCH  78 101
ENDBRANCH  52  53
ENDBRANCH  45  47
ENDBRANCH  44  45
ENDBRANCH  43  44
ENDBRANCH  42  43
ENDBRANCH  41  42
ENDBRANCH  40  41
ENDBRANCH   1  40
TORSDOF 21
