REMARK SMILES Cc1sc2nc(SCc3ccc(C(=O)OCCOCCOCCOCCOC(=O)c4ccc(-c5c6nc(c(-c7c(F)c(F)c(F)c(F)c7F)c7ccc([nH]7)c(-c7c(F)c(F)c(F)c(F)c7F)c7nc(c(-c8c(F)c(F)c(F)c(F)c8F)c8ccc5[nH]8)C=C7)C=C6)cc4)cc3)n(Cc3ccco3)c(=O)c2c1C
REMARK SMILES IDX 19 1 18 2 17 3 16 4 15 5 13 6 14 7 12 8 9 9 10 10 94 11
REMARK SMILES IDX 11 12 93 13 8 14 7 15 6 16 1 17 2 18 3 19 105 20 4 21 104 22
REMARK SMILES IDX 106 23 5 24 102 25 95 26 103 27 96 28 97 29 98 30 101 31
REMARK SMILES IDX 99 32 100 33 20 34 21 35 22 36 23 37 24 38 25 39 26 40 27 41
REMARK SMILES IDX 28 42 29 43 30 44 31 45 92 46 32 47 91 48 33 49 34 50 35 51
REMARK SMILES IDX 85 52 36 53 90 54 84 55 86 56 37 57 89 58 83 59 82 60 38 62
REMARK SMILES IDX 70 63 50 64 69 65 51 66 54 67 68 68 87 69 52 70 53 71 67 73
REMARK SMILES IDX 88 74 55 75 39 76 40 77 48 78 41 79 42 80 46 81 49 82 43 83
REMARK SMILES IDX 44 84 47 85 45 86 71 87 72 88 80 89 73 90 74 91 78 92 81 93
REMARK SMILES IDX 75 94 76 95 79 96 77 97 56 98 57 99 65 100 58 101 59 102
REMARK SMILES IDX 63 103 66 104 60 105 61 106 64 107 62 108
REMARK H PARENT 86 61 54 72
REMARK Flexibility Score: inf
ROOT
ATOM      1  C   UNL     1      -1.456   7.781   5.662  1.00  0.00     0.188 C 
ENDROOT
BRANCH   1   2
ATOM      2  O   UNL     1      -1.190   8.447   6.896  1.00  0.00    -0.376 OA
BRANCH   2   3
ATOM      3  C   UNL     1      -0.017   9.251   6.914  1.00  0.00     0.202 C 
BRANCH   3   4
ATOM      4  C   UNL     1      -0.160  10.593   6.181  1.00  0.00     0.261 C 
BRANCH   4   5
ATOM      5  O   UNL     1      -0.379  10.487   4.762  1.00  0.00    -0.460 OA
BRANCH   5   6
ATOM      6  C   UNL     1       0.599   9.887   4.049  1.00  0.00     0.338 C 
ATOM      7  O   UNL     1       1.675   9.510   4.470  1.00  0.00    -0.246 OA
BRANCH   6   8
ATOM      8  C   UNL     1       0.083   9.618   2.690  1.00  0.00     0.060 A 
ATOM      9  C   UNL     1      -0.766   9.028   0.072  1.00  0.00    -0.038 A 
ATOM     10  C   UNL     1      -0.672   8.015   1.022  1.00  0.00     0.005 A 
ATOM     11  C   UNL     1      -0.564  10.361   0.503  1.00  0.00     0.005 A 
ATOM     12  C   UNL     1      -0.188   8.301   2.302  1.00  0.00     0.016 A 
ATOM     13  C   UNL     1      -0.158  10.661   1.807  1.00  0.00     0.016 A 
BRANCH   9  14
ATOM     14  C   UNL     1      -1.163   8.802  -1.363  1.00  0.00     0.113 C 
BRANCH  14  15
ATOM     15  S   UNL     1      -0.637   7.424  -2.378  1.00  0.00    -0.083 SA
BRANCH  15  16
ATOM     16  C   UNL     1      -0.023   6.078  -1.448  1.00  0.00     0.173 A 
ATOM     17  C   UNL     1       0.362   0.093  -0.104  1.00  0.00     0.057 C 
ATOM     18  C   UNL     1       0.376   1.578  -0.285  1.00  0.00     0.007 A 
ATOM     19  S   UNL     1      -1.004   2.384  -0.914  1.00  0.00    -0.120 S 
ATOM     20  C   UNL     1       1.398   2.466   0.011  1.00  0.00    -0.022 A 
ATOM     21  C   UNL     1      -0.207   3.893  -0.945  1.00  0.00     0.132 A 
ATOM     22  C   UNL     1       1.090   3.767  -0.516  1.00  0.00     0.080 A 
ATOM     23  C   UNL     1       2.668   2.116   0.721  1.00  0.00     0.046 C 
ATOM     24  N   UNL     1      -0.783   5.020  -1.437  1.00  0.00    -0.213 NA
ATOM     25  C   UNL     1       1.950   4.920  -0.659  1.00  0.00     0.263 A 
ATOM     26  N   UNL     1       1.286   6.114  -0.975  1.00  0.00    -0.279 N 
ATOM     27  O   UNL     1       3.173   4.816  -0.587  1.00  0.00    -0.268 OA
BRANCH  26  28
ATOM     28  C   UNL     1       2.129   7.304  -0.908  1.00  0.00     0.203 C 
BRANCH  28  29
ATOM     29  C   UNL     1       2.604   7.586   0.489  1.00  0.00     0.123 A 
ATOM     30  C   UNL     1       3.265   8.661   1.050  1.00  0.00     0.047 A 
ATOM     31  O   UNL     1       2.395   6.633   1.452  1.00  0.00    -0.467 OA
ATOM     32  C   UNL     1       3.522   8.318   2.399  1.00  0.00     0.042 A 
ATOM     33  C   UNL     1       2.976   7.073   2.594  1.00  0.00     0.195 A 
ENDBRANCH  28  29
ENDBRANCH  26  28
ENDBRANCH  15  16
ENDBRANCH  14  15
ENDBRANCH   9  14
ENDBRANCH   6   8
ENDBRANCH   5   6
ENDBRANCH   4   5
ENDBRANCH   3   4
ENDBRANCH   2   3
ENDBRANCH   1   2
BRANCH   1  34
ATOM     34  C   UNL     1      -2.563   8.443   4.823  1.00  0.00     0.188 C 
BRANCH  34  35
ATOM     35  O   UNL     1      -3.249   9.525   5.422  1.00  0.00    -0.377 OA
BRANCH  35  36
ATOM     36  C   UNL     1      -3.912   9.313   6.660  1.00  0.00     0.188 C 
BRANCH  36  37
ATOM     37  C   UNL     1      -4.120   7.891   7.224  1.00  0.00     0.188 C 
BRANCH  37  38
ATOM     38  O   UNL     1      -4.269   6.861   6.253  1.00  0.00    -0.376 OA
BRANCH  38  39
ATOM     39  C   UNL     1      -5.597   6.437   5.972  1.00  0.00     0.202 C 
BRANCH  39  40
ATOM     40  C   UNL     1      -6.406   7.448   5.154  1.00  0.00     0.261 C 
BRANCH  40  41
ATOM     41  O   UNL     1      -6.743   8.634   5.886  1.00  0.00    -0.460 OA
BRANCH  41  42
ATOM     42  C   UNL     1      -7.526   8.455   6.969  1.00  0.00     0.338 C 
ATOM     43  O   UNL     1      -8.041   7.428   7.362  1.00  0.00    -0.246 OA
BRANCH  42  44
ATOM     44  C   UNL     1      -7.635   9.742   7.658  1.00  0.00     0.060 A 
ATOM     45  C   UNL     1      -6.722  10.099   8.656  1.00  0.00     0.016 A 
ATOM     46  C   UNL     1      -8.724  10.546   7.356  1.00  0.00     0.016 A 
ATOM     47  C   UNL     1      -6.916  11.269   9.380  1.00  0.00     0.010 A 
ATOM     48  C   UNL     1      -8.945  11.682   8.120  1.00  0.00     0.010 A 
ATOM     49  C   UNL     1      -8.069  12.033   9.163  1.00  0.00    -0.014 A 
BRANCH  49  50
ATOM     50  C   UNL     1      -8.411  13.117  10.115  1.00  0.00     0.031 A 
ATOM     51  C   UNL     1      -9.200  14.253   9.565  1.00  0.00     0.074 A 
ATOM     52  C   UNL     1      -8.593  12.823  11.424  1.00  0.00     0.049 A 
ATOM     53  N   UNL     1     -10.481  14.141   9.372  1.00  0.00    -0.248 NA
ATOM     54  C   UNL     1      -8.611  15.438   8.946  1.00  0.00     0.031 C 
ATOM     55  C   UNL     1      -8.777  11.457  11.939  1.00  0.00     0.029 A 
ATOM     56  N   UNL     1      -8.881  13.630  12.501  1.00  0.00    -0.354 N 
ATOM     57  C   UNL     1     -10.838  15.116   8.469  1.00  0.00     0.074 A 
ATOM     58  C   UNL     1      -9.673  15.957   8.304  1.00  0.00     0.031 C 
ATOM     59  C   UNL     1      -9.306  11.522  13.174  1.00  0.00     0.029 A 
ATOM     60  C   UNL     1      -9.374  12.915  13.591  1.00  0.00     0.049 A 
ATOM     61  H   UNL     1      -8.753  14.606  12.502  1.00  0.00     0.167 HD
ATOM     62  C   UNL     1     -12.039  15.099   7.836  1.00  0.00     0.037 A 
ATOM     63  C   UNL     1     -10.287  13.363  14.491  1.00  0.00     0.037 A 
ATOM     64  C   UNL     1     -12.870  13.962   8.105  1.00  0.00     0.049 A 
ATOM     65  C   UNL     1     -11.505  13.581  13.637  1.00  0.00     0.074 A 
ATOM     66  C   UNL     1     -13.078  12.732   7.515  1.00  0.00     0.029 A 
ATOM     67  N   UNL     1     -13.601  13.932   9.267  1.00  0.00    -0.354 N 
ATOM     68  N   UNL     1     -12.330  12.645  13.244  1.00  0.00    -0.248 NA
ATOM     69  C   UNL     1     -11.639  14.849  12.919  1.00  0.00     0.031 C 
ATOM     70  C   UNL     1     -13.561  11.881   8.556  1.00  0.00     0.029 A 
ATOM     71  C   UNL     1     -13.572  12.636   9.726  1.00  0.00     0.049 A 
ATOM     72  H   UNL     1     -14.060  14.693   9.691  1.00  0.00     0.167 HD
ATOM     73  C   UNL     1     -12.879  13.117  12.050  1.00  0.00     0.074 A 
ATOM     74  C   UNL     1     -12.465  14.499  11.942  1.00  0.00     0.031 C 
ATOM     75  C   UNL     1     -13.457  12.300  11.126  1.00  0.00     0.037 A 
BRANCH  62  76
ATOM     76  C   UNL     1     -12.513  16.134   6.910  1.00  0.00     0.064 A 
ATOM     77  C   UNL     1     -13.457  17.055   7.383  1.00  0.00     0.173 A 
ATOM     78  C   UNL     1     -12.228  16.108   5.543  1.00  0.00     0.173 A 
ATOM     79  F   UNL     1     -13.767  17.083   8.690  1.00  0.00    -0.203 F 
ATOM     80  C   UNL     1     -14.120  17.907   6.510  1.00  0.00     0.198 A 
ATOM     81  C   UNL     1     -12.892  16.966   4.670  1.00  0.00     0.198 A 
ATOM     82  F   UNL     1     -11.346  15.225   5.053  1.00  0.00    -0.203 F 
ATOM     83  F   UNL     1     -15.046  18.753   6.981  1.00  0.00    -0.200 F 
ATOM     84  C   UNL     1     -13.844  17.856   5.152  1.00  0.00     0.200 A 
ATOM     85  F   UNL     1     -12.635  16.913   3.356  1.00  0.00    -0.200 F 
ATOM     86  F   UNL     1     -14.508  18.654   4.306  1.00  0.00    -0.200 F 
ENDBRANCH  62  76
BRANCH  63  87
ATOM     87  C   UNL     1      -9.745  14.336  15.485  1.00  0.00     0.064 A 
ATOM     88  C   UNL     1      -8.562  13.993  16.179  1.00  0.00     0.173 A 
ATOM     89  C   UNL     1     -10.310  15.575  15.808  1.00  0.00     0.173 A 
ATOM     90  F   UNL     1      -8.011  12.780  16.018  1.00  0.00    -0.203 F 
ATOM     91  C   UNL     1      -7.926  14.883  17.043  1.00  0.00     0.198 A 
ATOM     92  C   UNL     1      -9.661  16.476  16.657  1.00  0.00     0.198 A 
ATOM     93  F   UNL     1     -11.495  15.948  15.310  1.00  0.00    -0.203 F 
ATOM     94  F   UNL     1      -6.786  14.525  17.651  1.00  0.00    -0.200 F 
ATOM     95  C   UNL     1      -8.462  16.137  17.260  1.00  0.00     0.200 A 
ATOM     96  F   UNL     1     -10.197  17.685  16.873  1.00  0.00    -0.200 F 
ATOM     97  F   UNL     1      -7.833  17.014  18.053  1.00  0.00    -0.200 F 
ENDBRANCH  63  87
BRANCH  75  98
ATOM     98  C   UNL     1     -13.689  10.901  11.578  1.00  0.00     0.064 A 
ATOM     99  C   UNL     1     -14.763  10.610  12.428  1.00  0.00     0.173 A 
ATOM    100  C   UNL     1     -12.863   9.843  11.168  1.00  0.00     0.173 A 
ATOM    101  F   UNL     1     -15.585  11.590  12.838  1.00  0.00    -0.203 F 
ATOM    102  C   UNL     1     -15.013   9.305  12.840  1.00  0.00     0.198 A 
ATOM    103  C   UNL     1     -13.126   8.537  11.569  1.00  0.00     0.198 A 
ATOM    104  F   UNL     1     -11.813  10.067  10.362  1.00  0.00    -0.203 F 
ATOM    105  F   UNL     1     -16.052   9.046  13.647  1.00  0.00    -0.200 F 
ATOM    106  C   UNL     1     -14.201   8.269  12.404  1.00  0.00     0.200 A 
ATOM    107  F   UNL     1     -12.351   7.533  11.135  1.00  0.00    -0.200 F 
ATOM    108  F   UNL     1     -14.460   7.009  12.780  1.00  0.00    -0.200 F 
ENDBRANCH  75  98
ENDBRANCH  49  50
ENDBRANCH  42  44
ENDBRANCH  41  42
ENDBRANCH  40  41
ENDBRANCH  39  40
ENDBRANCH  38  39
ENDBRANCH  37  38
ENDBRANCH  36  37
ENDBRANCH  35  36
ENDBRANCH  34  35
ENDBRANCH   1  34
TORSDOF 25
