REMARK SMILES O=C(OCCOCCOCCOCCOC(=O)c1ccc(-c2c3nc(c(-c4c(F)c(F)c(F)c(F)c4F)c4ccc([nH]4)c(-c4c(F)c(F)c(F)c(F)c4F)c4nc(c(-c5c(F)c(F)c(F)c(F)c5F)c5ccc2[nH]5)C=C4)C=C3)cc1)C1=Cc2cc(Cl)cc(-c3ccc(CO)cc3)c2O[C@@H]1C(F)(F)F
REMARK SMILES IDX 8 1 7 2 6 3 5 4 4 5 3 6 2 7 1 8 81 9 82 10 99 11 83 12 98 13
REMARK SMILES IDX 84 14 97 15 85 16 88 17 86 18 87 19 100 20 101 21 102 22
REMARK SMILES IDX 103 23 89 24 90 25 96 26 91 27 95 28 92 29 93 30 94 31 9 33
REMARK SMILES IDX 10 34 11 35 12 36 13 37 14 38 15 39 16 40 17 41 18 42 19 43
REMARK SMILES IDX 80 44 20 45 79 46 21 47 22 48 23 49 73 50 24 51 78 52 72 53
REMARK SMILES IDX 74 54 25 55 77 56 71 57 70 58 26 60 58 61 38 62 57 63 39 64
REMARK SMILES IDX 42 65 56 66 75 67 40 68 41 69 55 71 76 72 43 73 27 74 28 75
REMARK SMILES IDX 36 76 29 77 30 78 34 79 37 80 31 81 32 82 35 83 33 84 59 85
REMARK SMILES IDX 60 86 68 87 61 88 62 89 66 90 69 91 63 92 64 93 67 94 65 95
REMARK SMILES IDX 44 96 45 97 53 98 46 99 47 100 51 101 54 102 48 103 49 104
REMARK SMILES IDX 52 105 50 106
REMARK H PARENT 94 32 74 59 42 70
REMARK Flexibility Score: inf
ROOT
ATOM      1  C   UNL     1       0.619  -2.284  -2.302  1.00  0.00     0.188 C 
ENDROOT
BRANCH   1   2
ATOM      2  C   UNL     1       1.121  -0.890  -1.952  1.00  0.00     0.188 C 
BRANCH   2   3
ATOM      3  O   UNL     1       2.390  -0.922  -1.337  1.00  0.00    -0.376 OA
BRANCH   3   4
ATOM      4  C   UNL     1       2.509  -1.499  -0.052  1.00  0.00     0.202 C 
BRANCH   4   5
ATOM      5  C   UNL     1       2.233  -0.588   1.155  1.00  0.00     0.261 C 
BRANCH   5   6
ATOM      6  O   UNL     1       1.918   0.788   0.828  1.00  0.00    -0.460 OA
BRANCH   6   7
ATOM      7  C   UNL     1       2.708   1.771   1.363  1.00  0.00     0.338 C 
ATOM      8  O   UNL     1       2.375   2.436   2.329  1.00  0.00    -0.246 OA
BRANCH   7   9
ATOM      9  C   UNL     1       3.992   1.932   0.630  1.00  0.00     0.087 C 
ATOM     10  C   UNL     1       5.144   2.284   1.224  1.00  0.00     0.027 C 
ATOM     11  C   UNL     1       4.114   1.262  -0.689  1.00  0.00     0.316 C 
ATOM     12  C   UNL     1       6.168   1.212   1.128  1.00  0.00     0.019 A 
ATOM     13  O   UNL     1       4.902   0.047  -0.557  1.00  0.00    -0.475 OA
ATOM     14  C   UNL     1       7.360   1.263   1.846  1.00  0.00     0.032 A 
ATOM     15  C   UNL     1       5.820   0.005   0.479  1.00  0.00     0.135 A 
ATOM     16  C   UNL     1       8.157   0.119   1.935  1.00  0.00     0.042 A 
ATOM     17  C   UNL     1       6.442  -1.218   0.852  1.00  0.00     0.026 A 
ATOM     18  Cl  UNL     1       9.714   0.212   2.658  1.00  0.00    -0.084 Cl
ATOM     19  C   UNL     1       7.674  -1.119   1.510  1.00  0.00     0.033 A 
BRANCH  11  20
ATOM     20  C   UNL     1       4.434   2.268  -1.812  1.00  0.00     0.430 C 
ATOM     21  F   UNL     1       4.196   1.744  -3.036  1.00  0.00    -0.167 F 
ATOM     22  F   UNL     1       3.611   3.353  -1.707  1.00  0.00    -0.167 F 
ATOM     23  F   UNL     1       5.698   2.733  -1.790  1.00  0.00    -0.167 F 
ENDBRANCH  11  20
BRANCH  17  24
ATOM     24  C   UNL     1       5.793  -2.560   0.809  1.00  0.00    -0.015 A 
ATOM     25  C   UNL     1       5.212  -3.123   1.974  1.00  0.00     0.009 A 
ATOM     26  C   UNL     1       5.734  -3.336  -0.342  1.00  0.00     0.009 A 
ATOM     27  C   UNL     1       4.546  -4.368   1.965  1.00  0.00     0.007 A 
ATOM     28  C   UNL     1       5.028  -4.558  -0.358  1.00  0.00     0.007 A 
ATOM     29  C   UNL     1       4.413  -5.090   0.780  1.00  0.00    -0.023 A 
BRANCH  29  30
ATOM     30  C   UNL     1       3.650  -6.393   0.718  1.00  0.00     0.191 C 
BRANCH  30  31
ATOM     31  O   UNL     1       4.301  -7.405   1.464  1.00  0.00    -0.392 OA
ATOM     32  H   UNL     1       5.185  -7.560   1.097  1.00  0.00     0.211 HD
ENDBRANCH  30  31
ENDBRANCH  29  30
ENDBRANCH  17  24
ENDBRANCH   7   9
ENDBRANCH   6   7
ENDBRANCH   5   6
ENDBRANCH   4   5
ENDBRANCH   3   4
ENDBRANCH   2   3
ENDBRANCH   1   2
BRANCH   1  33
ATOM     33  O   UNL     1       1.442  -2.937  -3.268  1.00  0.00    -0.377 OA
BRANCH  33  34
ATOM     34  C   UNL     1       2.643  -3.518  -2.764  1.00  0.00     0.188 C 
BRANCH  34  35
ATOM     35  C   UNL     1       3.948  -2.768  -3.113  1.00  0.00     0.188 C 
BRANCH  35  36
ATOM     36  O   UNL     1       4.267  -2.327  -4.423  1.00  0.00    -0.376 OA
BRANCH  36  37
ATOM     37  C   UNL     1       3.301  -2.470  -5.440  1.00  0.00     0.202 C 
BRANCH  37  38
ATOM     38  C   UNL     1       3.085  -3.912  -5.931  1.00  0.00     0.261 C 
BRANCH  38  39
ATOM     39  O   UNL     1       3.717  -4.939  -5.137  1.00  0.00    -0.460 OA
BRANCH  39  40
ATOM     40  C   UNL     1       5.072  -5.041  -5.224  1.00  0.00     0.338 C 
ATOM     41  O   UNL     1       5.787  -4.490  -6.021  1.00  0.00    -0.246 OA
BRANCH  40  42
ATOM     42  C   UNL     1       5.572  -5.873  -4.077  1.00  0.00     0.060 A 
ATOM     43  C   UNL     1       6.831  -5.577  -3.530  1.00  0.00     0.016 A 
ATOM     44  C   UNL     1       4.826  -6.918  -3.522  1.00  0.00     0.016 A 
ATOM     45  C   UNL     1       7.363  -6.344  -2.475  1.00  0.00     0.010 A 
ATOM     46  C   UNL     1       5.354  -7.676  -2.459  1.00  0.00     0.010 A 
ATOM     47  C   UNL     1       6.646  -7.425  -1.944  1.00  0.00    -0.014 A 
BRANCH  47  48
ATOM     48  C   UNL     1       7.284  -8.418  -1.017  1.00  0.00     0.031 A 
ATOM     49  C   UNL     1       7.606  -9.787  -1.566  1.00  0.00     0.074 A 
ATOM     50  C   UNL     1       7.553  -8.182   0.286  1.00  0.00     0.049 A 
ATOM     51  N   UNL     1       8.110 -10.834  -0.959  1.00  0.00    -0.248 NA
ATOM     52  C   UNL     1       7.316 -10.005  -2.993  1.00  0.00     0.031 C 
ATOM     53  C   UNL     1       7.346  -6.925   0.991  1.00  0.00     0.029 A 
ATOM     54  N   UNL     1       8.000  -9.034   1.276  1.00  0.00    -0.354 N 
ATOM     55  C   UNL     1       8.249 -11.803  -1.941  1.00  0.00     0.074 A 
ATOM     56  C   UNL     1       7.647 -11.276  -3.146  1.00  0.00     0.031 C 
ATOM     57  C   UNL     1       7.530  -7.114   2.311  1.00  0.00     0.029 A 
ATOM     58  C   UNL     1       7.941  -8.495   2.543  1.00  0.00     0.049 A 
ATOM     59  H   UNL     1       8.331  -9.943   1.093  1.00  0.00     0.167 HD
ATOM     60  C   UNL     1       8.891 -12.994  -1.882  1.00  0.00     0.037 A 
ATOM     61  C   UNL     1       8.195  -9.042   3.751  1.00  0.00     0.037 A 
ATOM     62  C   UNL     1       9.487 -13.547  -0.698  1.00  0.00     0.049 A 
ATOM     63  C   UNL     1       8.782 -10.431   3.831  1.00  0.00     0.074 A 
ATOM     64  C   UNL     1      10.200 -14.725  -0.559  1.00  0.00     0.029 A 
ATOM     65  N   UNL     1       9.424 -12.969   0.560  1.00  0.00    -0.354 N 
ATOM     66  N   UNL     1       9.037 -11.281   2.867  1.00  0.00    -0.248 NA
ATOM     67  C   UNL     1       9.185 -10.907   5.164  1.00  0.00     0.031 C 
ATOM     68  C   UNL     1      10.524 -14.886   0.792  1.00  0.00     0.029 A 
ATOM     69  C   UNL     1      10.063 -13.780   1.485  1.00  0.00     0.049 A 
ATOM     70  H   UNL     1       8.990 -12.110   0.766  1.00  0.00     0.167 HD
ATOM     71  C   UNL     1       9.694 -12.351   3.465  1.00  0.00     0.074 A 
ATOM     72  C   UNL     1       9.794 -12.047   4.875  1.00  0.00     0.031 C 
ATOM     73  C   UNL     1      10.186 -13.475   2.887  1.00  0.00     0.037 A 
BRANCH  60  74
ATOM     74  C   UNL     1       9.025 -13.751  -3.171  1.00  0.00     0.064 A 
ATOM     75  C   UNL     1       9.834 -13.263  -4.212  1.00  0.00     0.173 A 
ATOM     76  C   UNL     1       8.361 -14.968  -3.369  1.00  0.00     0.173 A 
ATOM     77  F   UNL     1      10.479 -12.094  -4.075  1.00  0.00    -0.203 F 
ATOM     78  C   UNL     1       9.940 -13.947  -5.418  1.00  0.00     0.198 A 
ATOM     79  C   UNL     1       8.498 -15.668  -4.565  1.00  0.00     0.198 A 
ATOM     80  F   UNL     1       7.580 -15.478  -2.405  1.00  0.00    -0.203 F 
ATOM     81  F   UNL     1      10.665 -13.429  -6.418  1.00  0.00    -0.200 F 
ATOM     82  C   UNL     1       9.278 -15.152  -5.591  1.00  0.00     0.200 A 
ATOM     83  F   UNL     1       7.868 -16.839  -4.729  1.00  0.00    -0.200 F 
ATOM     84  F   UNL     1       9.382 -15.813  -6.752  1.00  0.00    -0.200 F 
ENDBRANCH  60  74
BRANCH  61  85
ATOM     85  C   UNL     1       7.951  -8.277   5.007  1.00  0.00     0.064 A 
ATOM     86  C   UNL     1       9.015  -7.819   5.798  1.00  0.00     0.173 A 
ATOM     87  C   UNL     1       6.650  -8.085   5.497  1.00  0.00     0.173 A 
ATOM     88  F   UNL     1      10.279  -8.013   5.393  1.00  0.00    -0.203 F 
ATOM     89  C   UNL     1       8.792  -7.242   7.048  1.00  0.00     0.198 A 
ATOM     90  C   UNL     1       6.427  -7.480   6.734  1.00  0.00     0.198 A 
ATOM     91  F   UNL     1       5.596  -8.520   4.792  1.00  0.00    -0.203 F 
ATOM     92  F   UNL     1       9.832  -6.891   7.816  1.00  0.00    -0.200 F 
ATOM     93  C   UNL     1       7.498  -7.072   7.515  1.00  0.00     0.200 A 
ATOM     94  F   UNL     1       5.175  -7.319   7.185  1.00  0.00    -0.200 F 
ATOM     95  F   UNL     1       7.285  -6.538   8.726  1.00  0.00    -0.200 F 
ENDBRANCH  61  85
BRANCH  73  96
ATOM     96  C   UNL     1      10.945 -14.436   3.761  1.00  0.00     0.064 A 
ATOM     97  C   UNL     1      10.319 -15.179   4.773  1.00  0.00     0.173 A 
ATOM     98  C   UNL     1      12.323 -14.628   3.570  1.00  0.00     0.173 A 
ATOM     99  F   UNL     1       9.007 -15.028   5.009  1.00  0.00    -0.203 F 
ATOM    100  C   UNL     1      11.050 -16.044   5.586  1.00  0.00     0.198 A 
ATOM    101  C   UNL     1      13.043 -15.523   4.357  1.00  0.00     0.198 A 
ATOM    102  F   UNL     1      12.974 -13.952   2.611  1.00  0.00    -0.203 F 
ATOM    103  F   UNL     1      10.441 -16.692   6.589  1.00  0.00    -0.200 F 
ATOM    104  C   UNL     1      12.408 -16.220   5.373  1.00  0.00     0.200 A 
ATOM    105  F   UNL     1      14.352 -15.705   4.136  1.00  0.00    -0.200 F 
ATOM    106  F   UNL     1      13.108 -17.056   6.152  1.00  0.00    -0.200 F 
ENDBRANCH  73  96
ENDBRANCH  47  48
ENDBRANCH  40  42
ENDBRANCH  39  40
ENDBRANCH  38  39
ENDBRANCH  37  38
ENDBRANCH  36  37
ENDBRANCH  35  36
ENDBRANCH  34  35
ENDBRANCH  33  34
ENDBRANCH   1  33
TORSDOF 24
