REMARK SMILES C=CCOc1ccccc1/C=C/c1cc(C(=O)OCCOCCOCCOCCOC(=O)c2ccc(-c3c4nc(c(-c5c(F)c(F)c(F)c(F)c5F)c5ccc([nH]5)c(-c5c(F)c(F)c(F)c(F)c5F)c5nc(c(-c6c(F)c(F)c(F)c(F)c6F)c6ccc3[nH]6)C=C5)C=C4)cc2)ncn1
REMARK SMILES IDX 22 1 21 2 20 3 19 4 18 5 16 6 17 7 15 8 13 9 14 10 98 11
REMARK SMILES IDX 97 12 96 13 12 14 11 15 10 16 5 17 6 18 7 19 9 20 8 21 4 22
REMARK SMILES IDX 3 23 2 24 1 25 23 26 24 27 25 28 26 29 27 30 28 31 29 32
REMARK SMILES IDX 30 33 31 34 32 35 33 36 34 37 95 38 35 39 94 40 36 41 37 42
REMARK SMILES IDX 38 43 88 44 39 45 93 46 87 47 89 48 40 49 92 50 86 51 85 52
REMARK SMILES IDX 41 54 73 55 53 56 72 57 54 58 57 59 71 60 90 61 55 62 56 63
REMARK SMILES IDX 70 65 91 66 58 67 42 68 43 69 51 70 44 71 45 72 49 73 52 74
REMARK SMILES IDX 46 75 47 76 50 77 48 78 74 79 75 80 83 81 76 82 77 83 81 84
REMARK SMILES IDX 84 85 78 86 79 87 82 88 80 89 59 90 60 91 68 92 61 93 62 94
REMARK SMILES IDX 66 95 69 96 63 97 64 98 67 99 65 100
REMARK H PARENT 89 53 57 64
REMARK Flexibility Score: inf
ROOT
ATOM      1  C   UNL     1       5.764   2.603  -2.905  1.00  0.00     0.188 C 
ENDROOT
BRANCH   1   2
ATOM      2  O   UNL     1       5.441   3.539  -3.915  1.00  0.00    -0.376 OA
BRANCH   2   3
ATOM      3  C   UNL     1       4.128   3.708  -4.421  1.00  0.00     0.202 C 
BRANCH   3   4
ATOM      4  C   UNL     1       2.811   3.260  -3.754  1.00  0.00     0.261 C 
BRANCH   4   5
ATOM      5  O   UNL     1       2.900   2.435  -2.598  1.00  0.00    -0.459 OA
BRANCH   5   6
ATOM      6  C   UNL     1       2.968   1.098  -2.792  1.00  0.00     0.357 C 
ATOM      7  O   UNL     1       2.853   0.519  -3.857  1.00  0.00    -0.244 OA
BRANCH   6   8
ATOM      8  C   UNL     1       3.361   0.475  -1.491  1.00  0.00     0.152 A 
ATOM      9  C   UNL     1       3.169   0.263   0.829  1.00  0.00     0.067 A 
ATOM     10  C   UNL     1       2.859   0.974  -0.309  1.00  0.00     0.064 A 
ATOM     11  N   UNL     1       4.043  -0.763   0.812  1.00  0.00    -0.237 NA
ATOM     12  C   UNL     1       4.540  -1.111  -0.384  1.00  0.00     0.223 A 
ATOM     13  N   UNL     1       4.218  -0.564  -1.559  1.00  0.00    -0.229 NA
BRANCH   9  14
ATOM     14  C   UNL     1       2.370   0.370   2.064  1.00  0.00     0.029 C 
ATOM     15  C   UNL     1       1.339   1.222   2.193  1.00  0.00     0.014 C 
BRANCH  15  16
ATOM     16  C   UNL     1       0.209   1.067   3.119  1.00  0.00     0.017 A 
ATOM     17  C   UNL     1      -1.083   1.413   2.667  1.00  0.00     0.126 A 
ATOM     18  C   UNL     1      -2.189   1.323   3.512  1.00  0.00     0.047 A 
ATOM     19  C   UNL     1      -2.023   0.852   4.813  1.00  0.00     0.004 A 
ATOM     20  C   UNL     1       0.357   0.589   4.425  1.00  0.00     0.012 A 
ATOM     21  C   UNL     1      -0.756   0.480   5.266  1.00  0.00     0.001 A 
BRANCH  17  22
ATOM     22  O   UNL     1      -1.262   1.932   1.403  1.00  0.00    -0.489 OA
BRANCH  22  23
ATOM     23  C   UNL     1      -1.721   0.945   0.469  1.00  0.00     0.257 C 
BRANCH  23  24
ATOM     24  C   UNL     1      -0.647   0.681  -0.549  1.00  0.00     0.006 C 
ATOM     25  C   UNL     1      -0.147  -0.532  -0.824  1.00  0.00     0.007 C 
ENDBRANCH  23  24
ENDBRANCH  22  23
ENDBRANCH  17  22
ENDBRANCH  15  16
ENDBRANCH   9  14
ENDBRANCH   6   8
ENDBRANCH   5   6
ENDBRANCH   4   5
ENDBRANCH   3   4
ENDBRANCH   2   3
ENDBRANCH   1   2
BRANCH   1  26
ATOM     26  C   UNL     1       5.534   3.100  -1.464  1.00  0.00     0.188 C 
BRANCH  26  27
ATOM     27  O   UNL     1       4.586   4.151  -1.369  1.00  0.00    -0.377 OA
BRANCH  27  28
ATOM     28  C   UNL     1       5.044   5.483  -1.598  1.00  0.00     0.188 C 
BRANCH  28  29
ATOM     29  C   UNL     1       6.347   5.776  -2.382  1.00  0.00     0.188 C 
BRANCH  29  30
ATOM     30  O   UNL     1       7.411   4.870  -2.132  1.00  0.00    -0.376 OA
BRANCH  30  31
ATOM     31  C   UNL     1       8.469   5.272  -1.278  1.00  0.00     0.202 C 
BRANCH  31  32
ATOM     32  C   UNL     1       8.119   5.505   0.199  1.00  0.00     0.261 C 
BRANCH  32  33
ATOM     33  O   UNL     1       7.087   6.470   0.451  1.00  0.00    -0.460 OA
BRANCH  33  34
ATOM     34  C   UNL     1       7.330   7.745   0.071  1.00  0.00     0.338 C 
ATOM     35  O   UNL     1       8.342   8.185  -0.430  1.00  0.00    -0.246 OA
BRANCH  34  36
ATOM     36  C   UNL     1       6.062   8.495   0.199  1.00  0.00     0.060 A 
ATOM     37  C   UNL     1       5.508   9.088  -0.943  1.00  0.00     0.016 A 
ATOM     38  C   UNL     1       5.426   8.610   1.437  1.00  0.00     0.016 A 
ATOM     39  C   UNL     1       4.333   9.832  -0.842  1.00  0.00     0.010 A 
ATOM     40  C   UNL     1       4.260   9.372   1.540  1.00  0.00     0.010 A 
ATOM     41  C   UNL     1       3.727  10.015   0.408  1.00  0.00    -0.014 A 
BRANCH  41  42
ATOM     42  C   UNL     1       2.650  11.022   0.563  1.00  0.00     0.031 A 
ATOM     43  C   UNL     1       3.007  12.377   1.108  1.00  0.00     0.074 A 
ATOM     44  C   UNL     1       1.381  10.748   0.214  1.00  0.00     0.049 A 
ATOM     45  N   UNL     1       2.236  13.399   1.377  1.00  0.00    -0.248 NA
ATOM     46  C   UNL     1       4.433  12.608   1.392  1.00  0.00     0.031 C 
ATOM     47  C   UNL     1       0.916   9.487  -0.357  1.00  0.00     0.029 A 
ATOM     48  N   UNL     1       0.248  11.519   0.302  1.00  0.00    -0.354 N 
ATOM     49  C   UNL     1       3.078  14.386   1.871  1.00  0.00     0.074 A 
ATOM     50  C   UNL     1       4.414  13.833   1.895  1.00  0.00     0.031 C 
ATOM     51  C   UNL     1      -0.412   9.563  -0.554  1.00  0.00     0.029 A 
ATOM     52  C   UNL     1      -0.893  10.864  -0.090  1.00  0.00     0.049 A 
ATOM     53  H   UNL     1       0.253  12.452   0.617  1.00  0.00     0.167 HD
ATOM     54  C   UNL     1       2.765  15.644   2.265  1.00  0.00     0.037 A 
ATOM     55  C   UNL     1      -2.181  11.261  -0.050  1.00  0.00     0.037 A 
ATOM     56  C   UNL     1       1.433  16.190   2.241  1.00  0.00     0.049 A 
ATOM     57  C   UNL     1      -2.514  12.643   0.458  1.00  0.00     0.074 A 
ATOM     58  C   UNL     1       1.017  17.463   2.588  1.00  0.00     0.029 A 
ATOM     59  N   UNL     1       0.298  15.487   1.863  1.00  0.00    -0.354 N 
ATOM     60  N   UNL     1      -1.710  13.585   0.888  1.00  0.00    -0.248 NA
ATOM     61  C   UNL     1      -3.935  13.016   0.479  1.00  0.00     0.031 C 
ATOM     62  C   UNL     1      -0.377  17.509   2.488  1.00  0.00     0.029 A 
ATOM     63  C   UNL     1      -0.824  16.289   2.005  1.00  0.00     0.049 A 
ATOM     64  H   UNL     1       0.290  14.557   1.541  1.00  0.00     0.167 HD
ATOM     65  C   UNL     1      -2.521  14.669   1.202  1.00  0.00     0.074 A 
ATOM     66  C   UNL     1      -3.880  14.273   0.898  1.00  0.00     0.031 C 
ATOM     67  C   UNL     1      -2.173  15.883   1.696  1.00  0.00     0.037 A 
BRANCH  54  68
ATOM     68  C   UNL     1       3.878  16.504   2.793  1.00  0.00     0.064 A 
ATOM     69  C   UNL     1       4.902  16.987   1.965  1.00  0.00     0.173 A 
ATOM     70  C   UNL     1       3.903  16.871   4.147  1.00  0.00     0.173 A 
ATOM     71  F   UNL     1       4.934  16.655   0.665  1.00  0.00    -0.203 F 
ATOM     72  C   UNL     1       5.927  17.779   2.479  1.00  0.00     0.198 A 
ATOM     73  C   UNL     1       4.909  17.691   4.651  1.00  0.00     0.198 A 
ATOM     74  F   UNL     1       2.947  16.440   4.984  1.00  0.00    -0.203 F 
ATOM     75  F   UNL     1       6.925  18.182   1.681  1.00  0.00    -0.200 F 
ATOM     76  C   UNL     1       5.925  18.137   3.819  1.00  0.00     0.200 A 
ATOM     77  F   UNL     1       4.896  18.048   5.942  1.00  0.00    -0.200 F 
ATOM     78  F   UNL     1       6.907  18.905   4.311  1.00  0.00    -0.200 F 
ENDBRANCH  54  68
BRANCH  55  79
ATOM     79  C   UNL     1      -3.257  10.332  -0.485  1.00  0.00     0.064 A 
ATOM     80  C   UNL     1      -4.025  10.592  -1.628  1.00  0.00     0.173 A 
ATOM     81  C   UNL     1      -3.551   9.170   0.246  1.00  0.00     0.173 A 
ATOM     82  F   UNL     1      -3.803  11.703  -2.345  1.00  0.00    -0.203 F 
ATOM     83  C   UNL     1      -5.057   9.737  -2.013  1.00  0.00     0.198 A 
ATOM     84  C   UNL     1      -4.561   8.299  -0.158  1.00  0.00     0.198 A 
ATOM     85  F   UNL     1      -2.850   8.876   1.351  1.00  0.00    -0.203 F 
ATOM     86  F   UNL     1      -5.808  10.036  -3.081  1.00  0.00    -0.200 F 
ATOM     87  C   UNL     1      -5.319   8.587  -1.283  1.00  0.00     0.200 A 
ATOM     88  F   UNL     1      -4.801   7.183   0.543  1.00  0.00    -0.200 F 
ATOM     89  F   UNL     1      -6.306   7.763  -1.657  1.00  0.00    -0.200 F 
ENDBRANCH  55  79
BRANCH  67  90
ATOM     90  C   UNL     1      -3.270  16.891   1.904  1.00  0.00     0.064 A 
ATOM     91  C   UNL     1      -4.237  16.738   2.910  1.00  0.00     0.173 A 
ATOM     92  C   UNL     1      -3.329  18.048   1.111  1.00  0.00     0.173 A 
ATOM     93  F   UNL     1      -4.234  15.646   3.689  1.00  0.00    -0.203 F 
ATOM     94  C   UNL     1      -5.238  17.690   3.092  1.00  0.00     0.198 A 
ATOM     95  C   UNL     1      -4.309  19.014   1.321  1.00  0.00     0.198 A 
ATOM     96  F   UNL     1      -2.425  18.250   0.141  1.00  0.00    -0.203 F 
ATOM     97  F   UNL     1      -6.183  17.495   4.023  1.00  0.00    -0.200 F 
ATOM     98  C   UNL     1      -5.268  18.830   2.304  1.00  0.00     0.200 A 
ATOM     99  F   UNL     1      -4.325  20.125   0.570  1.00  0.00    -0.200 F 
ATOM    100  F   UNL     1      -6.227  19.748   2.487  1.00  0.00    -0.200 F 
ENDBRANCH  67  90
ENDBRANCH  41  42
ENDBRANCH  34  36
ENDBRANCH  33  34
ENDBRANCH  32  33
ENDBRANCH  31  32
ENDBRANCH  30  31
ENDBRANCH  29  30
ENDBRANCH  28  29
ENDBRANCH  27  28
ENDBRANCH  26  27
ENDBRANCH   1  26
TORSDOF 25
