REMARK SMILES C[NH+](C)Cc1ccccc1[C@H]1[NH2+][C@@H](C(=O)OCCOCCOCCOCCOC(=O)c2ccc(-c3c4nc(c(-c5c(F)c(F)c(F)c(F)c5F)c5ccc([nH]5)c(-c5c(F)c(F)c(F)c(F)c5F)c5nc(c(-c6c(F)c(F)c(F)c(F)c6F)c6ccc3[nH]6)C=C5)C=C4)cc2)C(C)(C)S1
REMARK SMILES IDX 21 1 20 2 19 3 18 4 17 5 16 6 14 7 15 8 13 9 11 10 12 11
REMARK SMILES IDX 97 12 94 15 95 16 96 17 10 18 5 19 6 20 7 21 9 22 8 23 4 24
REMARK SMILES IDX 2 25 1 26 3 27 22 29 23 30 24 31 25 32 26 33 27 34 28 35
REMARK SMILES IDX 29 36 30 37 31 38 32 39 93 40 33 41 92 42 34 43 35 44 36 45
REMARK SMILES IDX 86 46 37 47 91 48 85 49 87 50 38 51 90 52 84 53 83 54 39 56
REMARK SMILES IDX 71 57 51 58 70 59 52 60 55 61 69 62 88 63 53 64 54 65 68 67
REMARK SMILES IDX 89 68 56 69 40 70 41 71 49 72 42 73 43 74 47 75 50 76 44 77
REMARK SMILES IDX 45 78 48 79 46 80 72 81 73 82 81 83 74 84 75 85 79 86 82 87
REMARK SMILES IDX 76 88 77 89 80 90 78 91 57 92 58 93 66 94 59 95 60 96 64 97
REMARK SMILES IDX 67 98 61 99 62 100 65 101 63 102
REMARK H PARENT 12 13 12 14 2 28 87 55 55 66
REMARK Flexibility Score: inf
ROOT
ATOM      1  C   UNL     1       2.794  -7.177   0.674  1.00  0.00     0.188 C 
ENDROOT
BRANCH   1   2
ATOM      2  C   UNL     1       3.542  -8.020  -0.367  1.00  0.00     0.188 C 
BRANCH   2   3
ATOM      3  O   UNL     1       4.802  -7.610  -0.890  1.00  0.00    -0.376 OA
BRANCH   3   4
ATOM      4  C   UNL     1       5.364  -6.356  -0.548  1.00  0.00     0.202 C 
BRANCH   4   5
ATOM      5  C   UNL     1       4.706  -5.079  -1.113  1.00  0.00     0.261 C 
BRANCH   5   6
ATOM      6  O   UNL     1       3.266  -4.986  -1.085  1.00  0.00    -0.459 OA
BRANCH   6   7
ATOM      7  C   UNL     1       2.613  -5.594  -2.109  1.00  0.00     0.366 C 
ATOM      8  O   UNL     1       3.192  -6.168  -3.028  1.00  0.00    -0.245 OA
BRANCH   7   9
ATOM      9  C   UNL     1       1.073  -5.347  -2.138  1.00  0.00     0.310 C 
ATOM     10  C   UNL     1      -0.416  -3.628  -2.941  1.00  0.00     0.275 C 
ATOM     11  N   UNL     1       0.913  -4.191  -3.037  1.00  0.00    -0.319 N 
ATOM     12  S   UNL     1      -1.246  -4.176  -1.461  1.00  0.00    -0.081 SA
ATOM     13  H   UNL     1       1.595  -3.476  -2.783  1.00  0.00     0.348 HD
ATOM     14  H   UNL     1       1.059  -4.507  -3.995  1.00  0.00     0.348 HD
ATOM     15  C   UNL     1       0.134  -5.261  -0.880  1.00  0.00     0.079 C 
ATOM     16  C   UNL     1       0.627  -4.657   0.452  1.00  0.00     0.030 C 
ATOM     17  C   UNL     1      -0.547  -6.619  -0.596  1.00  0.00     0.030 C 
BRANCH  10  18
ATOM     18  C   UNL     1      -0.344  -2.126  -3.185  1.00  0.00     0.029 A 
ATOM     19  C   UNL     1       0.391  -1.195  -2.394  1.00  0.00     0.016 A 
ATOM     20  C   UNL     1       0.621   0.092  -2.917  1.00  0.00     0.010 A 
ATOM     21  C   UNL     1       0.102   0.486  -4.147  1.00  0.00     0.001 A 
ATOM     22  C   UNL     1      -0.884  -1.687  -4.415  1.00  0.00     0.011 A 
ATOM     23  C   UNL     1      -0.667  -0.397  -4.888  1.00  0.00     0.001 A 
BRANCH  19  24
ATOM     24  C   UNL     1       1.041  -1.523  -1.060  1.00  0.00     0.299 C 
BRANCH  24  25
ATOM     25  N   UNL     1       0.508  -0.902   0.163  1.00  0.00    -0.336 N 
ATOM     26  C   UNL     1       0.983   0.452   0.394  1.00  0.00     0.332 C 
ATOM     27  C   UNL     1      -0.940  -0.987   0.306  1.00  0.00     0.332 C 
ATOM     28  H   UNL     1       0.901  -1.485   0.902  1.00  0.00     0.347 HD
ENDBRANCH  24  25
ENDBRANCH  19  24
ENDBRANCH  10  18
ENDBRANCH   7   9
ENDBRANCH   6   7
ENDBRANCH   5   6
ENDBRANCH   4   5
ENDBRANCH   3   4
ENDBRANCH   2   3
ENDBRANCH   1   2
BRANCH   1  29
ATOM     29  O   UNL     1       3.580  -6.287   1.435  1.00  0.00    -0.377 OA
BRANCH  29  30
ATOM     30  C   UNL     1       4.014  -6.725   2.707  1.00  0.00     0.188 C 
BRANCH  30  31
ATOM     31  C   UNL     1       4.374  -8.210   2.870  1.00  0.00     0.188 C 
BRANCH  31  32
ATOM     32  O   UNL     1       3.386  -9.101   2.366  1.00  0.00    -0.376 OA
BRANCH  32  33
ATOM     33  C   UNL     1       2.451  -9.683   3.262  1.00  0.00     0.202 C 
BRANCH  33  34
ATOM     34  C   UNL     1       1.347  -8.775   3.832  1.00  0.00     0.261 C 
BRANCH  34  35
ATOM     35  O   UNL     1       1.780  -7.607   4.542  1.00  0.00    -0.460 OA
BRANCH  35  36
ATOM     36  C   UNL     1       2.557  -7.805   5.629  1.00  0.00     0.338 C 
ATOM     37  O   UNL     1       2.897  -8.868   6.105  1.00  0.00    -0.246 OA
BRANCH  36  38
ATOM     38  C   UNL     1       3.104  -6.497   6.049  1.00  0.00     0.060 A 
ATOM     39  C   UNL     1       4.496  -6.348   6.098  1.00  0.00     0.016 A 
ATOM     40  C   UNL     1       2.262  -5.442   6.413  1.00  0.00     0.016 A 
ATOM     41  C   UNL     1       5.052  -5.169   6.584  1.00  0.00     0.010 A 
ATOM     42  C   UNL     1       2.821  -4.267   6.926  1.00  0.00     0.010 A 
ATOM     43  C   UNL     1       4.216  -4.156   7.069  1.00  0.00    -0.014 A 
BRANCH  43  44
ATOM     44  C   UNL     1       4.806  -3.142   7.975  1.00  0.00     0.031 A 
ATOM     45  C   UNL     1       4.737  -3.401   9.456  1.00  0.00     0.074 A 
ATOM     46  C   UNL     1       5.461  -2.069   7.504  1.00  0.00     0.049 A 
ATOM     47  N   UNL     1       5.238  -2.714  10.450  1.00  0.00    -0.248 NA
ATOM     48  C   UNL     1       3.998  -4.605   9.868  1.00  0.00     0.031 C 
ATOM     49  C   UNL     1       5.622  -1.730   6.094  1.00  0.00     0.029 A 
ATOM     50  N   UNL     1       6.116  -1.068   8.175  1.00  0.00    -0.354 N 
ATOM     51  C   UNL     1       4.873  -3.402  11.601  1.00  0.00     0.074 A 
ATOM     52  C   UNL     1       4.071  -4.530  11.186  1.00  0.00     0.031 C 
ATOM     53  C   UNL     1       6.325  -0.588   6.002  1.00  0.00     0.029 A 
ATOM     54  C   UNL     1       6.646  -0.111   7.348  1.00  0.00     0.049 A 
ATOM     55  H   UNL     1       6.199  -1.039   9.155  1.00  0.00     0.167 HD
ATOM     56  C   UNL     1       5.191  -3.127  12.889  1.00  0.00     0.037 A 
ATOM     57  C   UNL     1       7.304   1.026   7.649  1.00  0.00     0.037 A 
ATOM     58  C   UNL     1       5.975  -1.992  13.297  1.00  0.00     0.049 A 
ATOM     59  C   UNL     1       7.605   1.345   9.090  1.00  0.00     0.074 A 
ATOM     60  C   UNL     1       6.367  -1.624  14.571  1.00  0.00     0.029 A 
ATOM     61  N   UNL     1       6.473  -1.027  12.431  1.00  0.00    -0.354 N 
ATOM     62  N   UNL     1       7.294   0.673  10.173  1.00  0.00    -0.248 NA
ATOM     63  C   UNL     1       8.368   2.573   9.349  1.00  0.00     0.031 C 
ATOM     64  C   UNL     1       7.042  -0.401  14.484  1.00  0.00     0.029 A 
ATOM     65  C   UNL     1       7.142  -0.047  13.147  1.00  0.00     0.049 A 
ATOM     66  H   UNL     1       6.365  -1.037  11.453  1.00  0.00     0.167 HD
ATOM     67  C   UNL     1       7.848   1.375  11.236  1.00  0.00     0.074 A 
ATOM     68  C   UNL     1       8.525   2.522  10.664  1.00  0.00     0.031 C 
ATOM     69  C   UNL     1       7.808   1.093  12.564  1.00  0.00     0.037 A 
BRANCH  56  70
ATOM     70  C   UNL     1       4.633  -4.047  13.939  1.00  0.00     0.064 A 
ATOM     71  C   UNL     1       5.035  -5.389  14.046  1.00  0.00     0.173 A 
ATOM     72  C   UNL     1       3.653  -3.588  14.832  1.00  0.00     0.173 A 
ATOM     73  F   UNL     1       5.956  -5.887  13.206  1.00  0.00    -0.203 F 
ATOM     74  C   UNL     1       4.439  -6.247  14.967  1.00  0.00     0.198 A 
ATOM     75  C   UNL     1       3.088  -4.438  15.779  1.00  0.00     0.198 A 
ATOM     76  F   UNL     1       3.232  -2.316  14.779  1.00  0.00    -0.203 F 
ATOM     77  F   UNL     1       4.779  -7.543  14.992  1.00  0.00    -0.200 F 
ATOM     78  C   UNL     1       3.469  -5.770  15.835  1.00  0.00     0.200 A 
ATOM     79  F   UNL     1       2.160  -3.971  16.626  1.00  0.00    -0.200 F 
ATOM     80  F   UNL     1       2.888  -6.598  16.715  1.00  0.00    -0.200 F 
ENDBRANCH  56  70
BRANCH  57  81
ATOM     81  C   UNL     1       7.724   1.936   6.552  1.00  0.00     0.064 A 
ATOM     82  C   UNL     1       9.073   2.100   6.213  1.00  0.00     0.173 A 
ATOM     83  C   UNL     1       6.772   2.646   5.804  1.00  0.00     0.173 A 
ATOM     84  F   UNL     1      10.023   1.462   6.913  1.00  0.00    -0.203 F 
ATOM     85  C   UNL     1       9.456   2.944   5.171  1.00  0.00     0.198 A 
ATOM     86  C   UNL     1       7.153   3.467   4.745  1.00  0.00     0.198 A 
ATOM     87  F   UNL     1       5.468   2.525   6.090  1.00  0.00    -0.203 F 
ATOM     88  F   UNL     1      10.755   3.110   4.888  1.00  0.00    -0.200 F 
ATOM     89  C   UNL     1       8.495   3.619   4.432  1.00  0.00     0.200 A 
ATOM     90  F   UNL     1       6.220   4.104   4.025  1.00  0.00    -0.200 F 
ATOM     91  F   UNL     1       8.862   4.417   3.421  1.00  0.00    -0.200 F 
ENDBRANCH  57  81
BRANCH  69  92
ATOM     92  C   UNL     1       8.559   2.013  13.489  1.00  0.00     0.064 A 
ATOM     93  C   UNL     1       8.153   3.337  13.716  1.00  0.00     0.173 A 
ATOM     94  C   UNL     1       9.694   1.551  14.175  1.00  0.00     0.173 A 
ATOM     95  F   UNL     1       7.081   3.834  13.081  1.00  0.00    -0.203 F 
ATOM     96  C   UNL     1       8.881   4.175  14.559  1.00  0.00     0.198 A 
ATOM     97  C   UNL     1      10.395   2.379  15.047  1.00  0.00     0.198 A 
ATOM     98  F   UNL     1      10.120   0.290  14.006  1.00  0.00    -0.203 F 
ATOM     99  F   UNL     1       8.513   5.456  14.707  1.00  0.00    -0.200 F 
ATOM    100  C   UNL     1       9.996   3.694  15.227  1.00  0.00     0.200 A 
ATOM    101  F   UNL     1      11.461   1.906  15.707  1.00  0.00    -0.200 F 
ATOM    102  F   UNL     1      10.694   4.502  16.038  1.00  0.00    -0.200 F 
ENDBRANCH  69  92
ENDBRANCH  43  44
ENDBRANCH  36  38
ENDBRANCH  35  36
ENDBRANCH  34  35
ENDBRANCH  33  34
ENDBRANCH  32  33
ENDBRANCH  31  32
ENDBRANCH  30  31
ENDBRANCH  29  30
ENDBRANCH   1  29
TORSDOF 23
