REMARK SMILES Cc1ccc(C(=O)N2C[C@H](C(=O)OCCOCCOCCOCCOC(=O)c3ccc(-c4c5nc(c(-c6c(F)c(F)c(F)c(F)c6F)c6ccc([nH]6)c(-c6c(F)c(F)c(F)c(F)c6F)c6nc(c(-c7c(F)c(F)c(F)c(F)c7F)c7ccc4[nH]7)C=C6)C=C5)cc3)Oc3ccccc32)o1
REMARK SMILES IDX 19 1 18 2 17 3 16 4 15 5 14 6 13 7 11 8 12 9 10 10 8 11 9 12
REMARK SMILES IDX 97 13 92 14 96 15 91 16 93 17 95 18 94 19 6 20 7 21 5 22
REMARK SMILES IDX 1 23 2 24 3 25 98 26 4 27 20 28 21 29 22 30 23 31 24 32
REMARK SMILES IDX 25 33 26 34 27 35 28 36 29 37 90 38 30 39 89 40 31 41 32 42
REMARK SMILES IDX 33 43 83 44 34 45 88 46 82 47 84 48 35 49 87 50 81 51 80 52
REMARK SMILES IDX 36 54 68 55 48 56 67 57 49 58 52 59 66 60 85 61 50 62 51 63
REMARK SMILES IDX 65 65 86 66 53 67 37 68 38 69 46 70 39 71 40 72 44 73 47 74
REMARK SMILES IDX 41 75 42 76 45 77 43 78 69 79 70 80 78 81 71 82 72 83 76 84
REMARK SMILES IDX 79 85 73 86 74 87 77 88 75 89 54 90 55 91 63 92 56 93 57 94
REMARK SMILES IDX 61 95 64 96 58 97 59 98 62 99 60 100
REMARK H PARENT 84 53 52 64
REMARK Flexibility Score: inf
ROOT
ATOM      1  O   UNL     1      -4.535  -1.253   3.436  1.00  0.00    -0.377 OA
ENDROOT
BRANCH   1   2
ATOM      2  C   UNL     1      -4.350   0.010   4.047  1.00  0.00     0.188 C 
BRANCH   2   3
ATOM      3  C   UNL     1      -5.479   0.509   4.957  1.00  0.00     0.188 C 
BRANCH   3   4
ATOM      4  O   UNL     1      -6.295  -0.425   5.628  1.00  0.00    -0.376 OA
BRANCH   4   5
ATOM      5  C   UNL     1      -7.218  -1.266   4.955  1.00  0.00     0.202 C 
BRANCH   5   6
ATOM      6  C   UNL     1      -7.771  -1.046   3.535  1.00  0.00     0.261 C 
BRANCH   6   7
ATOM      7  O   UNL     1      -6.845  -0.659   2.508  1.00  0.00    -0.460 OA
BRANCH   7   8
ATOM      8  C   UNL     1      -6.951   0.632   2.113  1.00  0.00     0.349 C 
ATOM      9  O   UNL     1      -7.752   1.426   2.607  1.00  0.00    -0.248 OA
BRANCH   8  10
ATOM     10  C   UNL     1      -6.033   1.051   0.982  1.00  0.00     0.302 C 
ATOM     11  N   UNL     1      -4.104   1.011  -0.491  1.00  0.00    -0.298 N 
ATOM     12  C   UNL     1      -4.809   0.236   0.560  1.00  0.00     0.183 C 
ATOM     13  C   UNL     1      -4.976   1.567  -1.481  1.00  0.00     0.087 A 
ATOM     14  C   UNL     1      -6.365   1.538  -1.278  1.00  0.00     0.144 A 
ATOM     15  C   UNL     1      -4.492   2.061  -2.696  1.00  0.00     0.030 A 
ATOM     16  O   UNL     1      -6.958   1.124  -0.117  1.00  0.00    -0.475 OA
ATOM     17  C   UNL     1      -7.251   1.936  -2.275  1.00  0.00     0.049 A 
ATOM     18  C   UNL     1      -5.380   2.457  -3.700  1.00  0.00     0.002 A 
ATOM     19  C   UNL     1      -6.757   2.384  -3.494  1.00  0.00     0.004 A 
BRANCH  11  20
ATOM     20  C   UNL     1      -2.769   1.437  -0.391  1.00  0.00     0.294 C 
ATOM     21  O   UNL     1      -2.472   2.613  -0.616  1.00  0.00    -0.265 OA
BRANCH  20  22
ATOM     22  C   UNL     1      -1.745   0.443  -0.102  1.00  0.00     0.192 A 
ATOM     23  C   UNL     1       1.826   0.081   0.080  1.00  0.00     0.087 C 
ATOM     24  C   UNL     1       0.372  -0.192   0.078  1.00  0.00     0.101 A 
ATOM     25  C   UNL     1      -0.382  -1.342   0.119  1.00  0.00     0.046 A 
ATOM     26  O   UNL     1      -0.445   0.890  -0.025  1.00  0.00    -0.456 OA
ATOM     27  C   UNL     1      -1.738  -0.937   0.007  1.00  0.00     0.056 A 
ENDBRANCH  20  22
ENDBRANCH  11  20
ENDBRANCH   8  10
ENDBRANCH   7   8
ENDBRANCH   6   7
ENDBRANCH   5   6
ENDBRANCH   4   5
ENDBRANCH   3   4
ENDBRANCH   2   3
ENDBRANCH   1   2
BRANCH   1  28
ATOM     28  C   UNL     1      -4.270  -2.439   4.180  1.00  0.00     0.188 C 
BRANCH  28  29
ATOM     29  C   UNL     1      -3.937  -2.375   5.684  1.00  0.00     0.188 C 
BRANCH  29  30
ATOM     30  O   UNL     1      -3.133  -1.273   6.061  1.00  0.00    -0.376 OA
BRANCH  30  31
ATOM     31  C   UNL     1      -1.724  -1.437   6.126  1.00  0.00     0.202 C 
BRANCH  31  32
ATOM     32  C   UNL     1      -0.988  -1.870   4.849  1.00  0.00     0.261 C 
BRANCH  32  33
ATOM     33  O   UNL     1      -1.352  -3.146   4.295  1.00  0.00    -0.460 OA
BRANCH  33  34
ATOM     34  C   UNL     1      -1.306  -4.232   5.090  1.00  0.00     0.338 C 
ATOM     35  O   UNL     1      -0.922  -4.295   6.247  1.00  0.00    -0.246 OA
BRANCH  34  36
ATOM     36  C   UNL     1      -1.980  -5.333   4.376  1.00  0.00     0.060 A 
ATOM     37  C   UNL     1      -3.111  -5.936   4.944  1.00  0.00     0.016 A 
ATOM     38  C   UNL     1      -1.476  -5.779   3.152  1.00  0.00     0.016 A 
ATOM     39  C   UNL     1      -3.715  -7.024   4.311  1.00  0.00     0.010 A 
ATOM     40  C   UNL     1      -2.068  -6.879   2.531  1.00  0.00     0.010 A 
ATOM     41  C   UNL     1      -3.162  -7.531   3.129  1.00  0.00    -0.014 A 
BRANCH  41  42
ATOM     42  C   UNL     1      -3.551  -8.871   2.630  1.00  0.00     0.031 A 
ATOM     43  C   UNL     1      -2.656 -10.031   2.969  1.00  0.00     0.074 A 
ATOM     44  C   UNL     1      -4.644  -9.057   1.872  1.00  0.00     0.049 A 
ATOM     45  N   UNL     1      -2.672 -11.259   2.520  1.00  0.00    -0.248 NA
ATOM     46  C   UNL     1      -1.585  -9.758   3.941  1.00  0.00     0.031 C 
ATOM     47  C   UNL     1      -5.622  -8.028   1.530  1.00  0.00     0.029 A 
ATOM     48  N   UNL     1      -5.097 -10.184   1.232  1.00  0.00    -0.354 N 
ATOM     49  C   UNL     1      -1.603 -11.896   3.138  1.00  0.00     0.074 A 
ATOM     50  C   UNL     1      -0.944 -10.915   3.971  1.00  0.00     0.031 C 
ATOM     51  C   UNL     1      -6.550  -8.566   0.718  1.00  0.00     0.029 A 
ATOM     52  C   UNL     1      -6.202  -9.961   0.448  1.00  0.00     0.049 A 
ATOM     53  H   UNL     1      -4.671 -11.066   1.325  1.00  0.00     0.167 HD
ATOM     54  C   UNL     1      -1.210 -13.187   3.022  1.00  0.00     0.037 A 
ATOM     55  C   UNL     1      -6.831 -10.781  -0.417  1.00  0.00     0.037 A 
ATOM     56  C   UNL     1      -1.869 -14.154   2.186  1.00  0.00     0.049 A 
ATOM     57  C   UNL     1      -6.318 -12.189  -0.606  1.00  0.00     0.074 A 
ATOM     58  C   UNL     1      -1.556 -15.488   1.997  1.00  0.00     0.029 A 
ATOM     59  N   UNL     1      -2.974 -13.884   1.391  1.00  0.00    -0.354 N 
ATOM     60  N   UNL     1      -5.310 -12.791  -0.021  1.00  0.00    -0.248 NA
ATOM     61  C   UNL     1      -7.032 -13.031  -1.577  1.00  0.00     0.031 C 
ATOM     62  C   UNL     1      -2.431 -16.009   1.039  1.00  0.00     0.029 A 
ATOM     63  C   UNL     1      -3.339 -15.021   0.690  1.00  0.00     0.049 A 
ATOM     64  H   UNL     1      -3.430 -13.014   1.333  1.00  0.00     0.167 HD
ATOM     65  C   UNL     1      -5.297 -14.090  -0.517  1.00  0.00     0.074 A 
ATOM     66  C   UNL     1      -6.397 -14.189  -1.452  1.00  0.00     0.031 C 
ATOM     67  C   UNL     1      -4.455 -15.111  -0.218  1.00  0.00     0.037 A 
BRANCH  54  68
ATOM     68  C   UNL     1       0.013 -13.610   3.784  1.00  0.00     0.064 A 
ATOM     69  C   UNL     1       0.025 -13.690   5.185  1.00  0.00     0.173 A 
ATOM     70  C   UNL     1       1.189 -13.953   3.100  1.00  0.00     0.173 A 
ATOM     71  F   UNL     1      -1.067 -13.357   5.890  1.00  0.00    -0.203 F 
ATOM     72  C   UNL     1       1.177 -14.064   5.872  1.00  0.00     0.198 A 
ATOM     73  C   UNL     1       2.328 -14.362   3.788  1.00  0.00     0.198 A 
ATOM     74  F   UNL     1       1.234 -13.896   1.760  1.00  0.00    -0.203 F 
ATOM     75  F   UNL     1       1.182 -14.073   7.213  1.00  0.00    -0.200 F 
ATOM     76  C   UNL     1       2.324 -14.407   5.174  1.00  0.00     0.200 A 
ATOM     77  F   UNL     1       3.431 -14.707   3.110  1.00  0.00    -0.200 F 
ATOM     78  F   UNL     1       3.431 -14.771   5.836  1.00  0.00    -0.200 F 
ENDBRANCH  54  68
BRANCH  55  79
ATOM     79  C   UNL     1      -8.006 -10.294  -1.188  1.00  0.00     0.064 A 
ATOM     80  C   UNL     1      -9.284 -10.825  -0.965  1.00  0.00     0.173 A 
ATOM     81  C   UNL     1      -7.875  -9.305  -2.174  1.00  0.00     0.173 A 
ATOM     82  F   UNL     1      -9.458 -11.791  -0.051  1.00  0.00    -0.203 F 
ATOM     83  C   UNL     1     -10.382 -10.400  -1.712  1.00  0.00     0.198 A 
ATOM     84  C   UNL     1      -8.979  -8.858  -2.899  1.00  0.00     0.198 A 
ATOM     85  F   UNL     1      -6.675  -8.765  -2.430  1.00  0.00    -0.203 F 
ATOM     86  F   UNL     1     -11.582 -10.962  -1.513  1.00  0.00    -0.200 F 
ATOM     87  C   UNL     1     -10.229  -9.412  -2.674  1.00  0.00     0.200 A 
ATOM     88  F   UNL     1      -8.829  -7.894  -3.817  1.00  0.00    -0.200 F 
ATOM     89  F   UNL     1     -11.286  -9.001  -3.388  1.00  0.00    -0.200 F 
ENDBRANCH  55  79
BRANCH  67  90
ATOM     90  C   UNL     1      -4.727 -16.450  -0.843  1.00  0.00     0.064 A 
ATOM     91  C   UNL     1      -4.506 -16.697  -2.206  1.00  0.00     0.173 A 
ATOM     92  C   UNL     1      -5.149 -17.524  -0.042  1.00  0.00     0.173 A 
ATOM     93  F   UNL     1      -4.114 -15.704  -3.018  1.00  0.00    -0.203 F 
ATOM     94  C   UNL     1      -4.717 -17.964  -2.746  1.00  0.00     0.198 A 
ATOM     95  C   UNL     1      -5.324 -18.796  -0.579  1.00  0.00     0.198 A 
ATOM     96  F   UNL     1      -5.366 -17.345   1.269  1.00  0.00    -0.203 F 
ATOM     97  F   UNL     1      -4.540 -18.167  -4.059  1.00  0.00    -0.200 F 
ATOM     98  C   UNL     1      -5.114 -19.014  -1.931  1.00  0.00     0.200 A 
ATOM     99  F   UNL     1      -5.689 -19.812   0.215  1.00  0.00    -0.200 F 
ATOM    100  F   UNL     1      -5.298 -20.235  -2.451  1.00  0.00    -0.200 F 
ENDBRANCH  67  90
ENDBRANCH  41  42
ENDBRANCH  34  36
ENDBRANCH  33  34
ENDBRANCH  32  33
ENDBRANCH  31  32
ENDBRANCH  30  31
ENDBRANCH  29  30
ENDBRANCH  28  29
ENDBRANCH   1  28
TORSDOF 22
