REMARK SMILES Cc1cc(C)cc(Oc2nc3ccccn3c(=O)c2/C=C2\SC(=S)N(CCC(=O)OCCOCCOCCOCCOC(=O)c3ccc(-c4c5nc(c(-c6c(F)c(F)c(F)c(F)c6F)c6ccc([nH]6)c(-c6c(F)c(F)c(F)c(F)c6F)c6nc(c(-c7c(F)c(F)c(F)c(F)c7F)c7ccc4[nH]7)C=C6)C=C5)cc3)C2=O)c1
REMARK SMILES IDX 34 1 33 2 32 3 31 4 30 5 28 6 29 7 27 8 26 9 25 10 20 11
REMARK SMILES IDX 21 12 22 13 108 14 23 15 109 16 24 17 19 18 9 19 10 20 11 21
REMARK SMILES IDX 17 22 12 23 16 24 18 25 13 26 15 27 14 28 8 29 7 30 1 31
REMARK SMILES IDX 2 32 3 33 110 34 4 35 5 36 6 37 35 38 36 39 37 40 38 41
REMARK SMILES IDX 39 42 40 43 41 44 42 45 43 46 44 47 45 48 46 49 107 50 47 51
REMARK SMILES IDX 106 52 48 53 49 54 50 55 100 56 51 57 105 58 99 59 101 60
REMARK SMILES IDX 52 61 104 62 98 63 97 64 53 66 85 67 65 68 84 69 66 70 69 71
REMARK SMILES IDX 83 72 102 73 67 74 68 75 82 77 103 78 70 79 54 80 55 81
REMARK SMILES IDX 63 82 56 83 57 84 61 85 64 86 58 87 59 88 62 89 60 90 86 91
REMARK SMILES IDX 87 92 95 93 88 94 89 95 93 96 96 97 90 98 91 99 94 100
REMARK SMILES IDX 92 101 71 102 72 103 80 104 73 105 74 106 78 107 81 108
REMARK SMILES IDX 75 109 76 110 79 111 77 112
REMARK H PARENT 101 65 69 76
REMARK Flexibility Score: inf
ROOT
ATOM      1  C   UNL     1       0.757   0.660   6.595  1.00  0.00     0.188 C 
ENDROOT
BRANCH   1   2
ATOM      2  O   UNL     1      -0.311  -0.217   6.365  1.00  0.00    -0.376 OA
BRANCH   2   3
ATOM      3  C   UNL     1      -1.272  -0.026   5.347  1.00  0.00     0.202 C 
BRANCH   3   4
ATOM      4  C   UNL     1      -1.119   0.756   4.021  1.00  0.00     0.261 C 
BRANCH   4   5
ATOM      5  O   UNL     1       0.162   1.205   3.576  1.00  0.00    -0.463 OA
BRANCH   5   6
ATOM      6  C   UNL     1       0.543   2.468   3.829  1.00  0.00     0.307 C 
ATOM      7  O   UNL     1      -0.150   3.288   4.422  1.00  0.00    -0.252 OA
BRANCH   6   8
ATOM      8  C   UNL     1       1.895   2.812   3.232  1.00  0.00     0.144 C 
BRANCH   8   9
ATOM      9  C   UNL     1       3.162   2.021   3.597  1.00  0.00     0.139 C 
BRANCH   9  10
ATOM     10  N   UNL     1       3.489   0.776   2.872  1.00  0.00    -0.292 N 
ATOM     11  C   UNL     1       2.395  -2.543   2.011  1.00  0.00     0.041 C 
ATOM     12  C   UNL     1       3.184  -1.476   2.217  1.00  0.00     0.081 C 
ATOM     13  S   UNL     1       4.677  -1.069   1.486  1.00  0.00    -0.054 SA
ATOM     14  C   UNL     1       2.713  -0.352   3.042  1.00  0.00     0.266 C 
ATOM     15  C   UNL     1       4.659   0.557   2.166  1.00  0.00     0.148 C 
ATOM     16  O   UNL     1       1.742  -0.474   3.754  1.00  0.00    -0.268 OA
ATOM     17  S   UNL     1       5.942   1.597   1.919  1.00  0.00    -0.052 S 
BRANCH  11  18
ATOM     18  C   UNL     1       2.658  -3.505   0.965  1.00  0.00     0.104 A 
ATOM     19  C   UNL     1       1.960  -3.551  -0.189  1.00  0.00     0.234 A 
ATOM     20  N   UNL     1       2.392  -4.247  -1.285  1.00  0.00    -0.194 NA
ATOM     21  C   UNL     1       3.416  -5.032  -1.158  1.00  0.00     0.143 A 
ATOM     22  C   UNL     1       3.824  -4.423   1.109  1.00  0.00     0.269 A 
ATOM     23  C   UNL     1       3.913  -5.784  -2.346  1.00  0.00     0.048 A 
ATOM     24  N   UNL     1       4.105  -5.227   0.023  1.00  0.00    -0.267 N 
ATOM     25  O   UNL     1       4.466  -4.441   2.162  1.00  0.00    -0.268 OA
ATOM     26  C   UNL     1       4.837  -6.739  -2.196  1.00  0.00     0.005 A 
ATOM     27  C   UNL     1       5.079  -6.213   0.132  1.00  0.00     0.096 A 
ATOM     28  C   UNL     1       5.422  -6.982  -0.907  1.00  0.00     0.019 A 
BRANCH  19  29
ATOM     29  O   UNL     1       0.690  -2.970  -0.325  1.00  0.00    -0.438 OA
BRANCH  29  30
ATOM     30  C   UNL     1       0.517  -1.606  -0.332  1.00  0.00     0.130 A 
ATOM     31  C   UNL     1       2.469   1.633  -0.557  1.00  0.00     0.044 C 
ATOM     32  C   UNL     1       1.326   0.675  -0.426  1.00  0.00    -0.047 A 
ATOM     33  C   UNL     1       0.029   1.139  -0.179  1.00  0.00     0.007 A 
ATOM     34  C   UNL     1       1.548  -0.699  -0.554  1.00  0.00     0.050 A 
ATOM     35  C   UNL     1      -1.042   0.243  -0.058  1.00  0.00    -0.047 A 
ATOM     36  C   UNL     1      -2.436   0.777   0.108  1.00  0.00     0.044 C 
ATOM     37  C   UNL     1      -0.784  -1.134  -0.112  1.00  0.00     0.050 A 
ENDBRANCH  29  30
ENDBRANCH  19  29
ENDBRANCH  11  18
ENDBRANCH   9  10
ENDBRANCH   8   9
ENDBRANCH   6   8
ENDBRANCH   5   6
ENDBRANCH   4   5
ENDBRANCH   3   4
ENDBRANCH   2   3
ENDBRANCH   1   2
BRANCH   1  38
ATOM     38  C   UNL     1       2.147  -0.014   6.677  1.00  0.00     0.188 C 
BRANCH  38  39
ATOM     39  O   UNL     1       2.441  -1.284   6.101  1.00  0.00    -0.377 OA
BRANCH  39  40
ATOM     40  C   UNL     1       1.407  -2.259   6.021  1.00  0.00     0.188 C 
BRANCH  40  41
ATOM     41  C   UNL     1       0.788  -2.706   7.352  1.00  0.00     0.188 C 
BRANCH  41  42
ATOM     42  O   UNL     1       1.218  -1.932   8.455  1.00  0.00    -0.376 OA
BRANCH  42  43
ATOM     43  C   UNL     1       2.406  -2.326   9.130  1.00  0.00     0.202 C 
BRANCH  43  44
ATOM     44  C   UNL     1       3.668  -2.848   8.403  1.00  0.00     0.261 C 
BRANCH  44  45
ATOM     45  O   UNL     1       3.512  -3.733   7.283  1.00  0.00    -0.460 OA
BRANCH  45  46
ATOM     46  C   UNL     1       3.104  -4.995   7.512  1.00  0.00     0.338 C 
ATOM     47  O   UNL     1       2.833  -5.498   8.587  1.00  0.00    -0.246 OA
BRANCH  46  48
ATOM     48  C   UNL     1       2.872  -5.646   6.199  1.00  0.00     0.060 A 
ATOM     49  C   UNL     1       1.577  -6.065   5.867  1.00  0.00     0.016 A 
ATOM     50  C   UNL     1       3.925  -5.873   5.313  1.00  0.00     0.016 A 
ATOM     51  C   UNL     1       1.339  -6.756   4.675  1.00  0.00     0.010 A 
ATOM     52  C   UNL     1       3.689  -6.589   4.131  1.00  0.00     0.010 A 
ATOM     53  C   UNL     1       2.401  -7.067   3.817  1.00  0.00    -0.014 A 
BRANCH  53  54
ATOM     54  C   UNL     1       2.221  -8.097   2.752  1.00  0.00     0.031 A 
ATOM     55  C   UNL     1       2.752  -9.482   3.039  1.00  0.00     0.074 A 
ATOM     56  C   UNL     1       1.533  -7.863   1.616  1.00  0.00     0.049 A 
ATOM     57  N   UNL     1       2.783 -10.543   2.273  1.00  0.00    -0.248 NA
ATOM     58  C   UNL     1       3.300  -9.707   4.390  1.00  0.00     0.031 C 
ATOM     59  C   UNL     1       0.836  -6.621   1.288  1.00  0.00     0.029 A 
ATOM     60  N   UNL     1       1.295  -8.667   0.524  1.00  0.00    -0.354 N 
ATOM     61  C   UNL     1       3.324 -11.557   3.057  1.00  0.00     0.074 A 
ATOM     62  C   UNL     1       3.672 -10.976   4.332  1.00  0.00     0.031 C 
ATOM     63  C   UNL     1       0.264  -6.739   0.075  1.00  0.00     0.029 A 
ATOM     64  C   UNL     1       0.581  -8.051  -0.484  1.00  0.00     0.049 A 
ATOM     65  H   UNL     1       1.606  -9.599   0.467  1.00  0.00     0.167 HD
ATOM     66  C   UNL     1       3.480 -12.867   2.754  1.00  0.00     0.037 A 
ATOM     67  C   UNL     1       0.257  -8.492  -1.720  1.00  0.00     0.037 A 
ATOM     68  C   UNL     1       3.128 -13.440   1.483  1.00  0.00     0.049 A 
ATOM     69  C   UNL     1       0.729  -9.870  -2.123  1.00  0.00     0.074 A 
ATOM     70  C   UNL     1       3.253 -14.751   1.061  1.00  0.00     0.029 A 
ATOM     71  N   UNL     1       2.582 -12.727   0.426  1.00  0.00    -0.354 N 
ATOM     72  N   UNL     1       1.268 -10.813  -1.390  1.00  0.00    -0.248 NA
ATOM     73  C   UNL     1       0.565 -10.236  -3.538  1.00  0.00     0.031 C 
ATOM     74  C   UNL     1       2.839 -14.819  -0.272  1.00  0.00     0.029 A 
ATOM     75  C   UNL     1       2.395 -13.565  -0.659  1.00  0.00     0.049 A 
ATOM     76  H   UNL     1       2.361 -11.768   0.446  1.00  0.00     0.167 HD
ATOM     77  C   UNL     1       1.409 -11.913  -2.226  1.00  0.00     0.074 A 
ATOM     78  C   UNL     1       0.939 -11.507  -3.533  1.00  0.00     0.031 C 
ATOM     79  C   UNL     1       1.861 -13.157  -1.933  1.00  0.00     0.037 A 
BRANCH  66  80
ATOM     80  C   UNL     1       4.058 -13.768   3.807  1.00  0.00     0.064 A 
ATOM     81  C   UNL     1       3.333 -14.116   4.957  1.00  0.00     0.173 A 
ATOM     82  C   UNL     1       5.332 -14.331   3.642  1.00  0.00     0.173 A 
ATOM     83  F   UNL     1       2.116 -13.595   5.172  1.00  0.00    -0.203 F 
ATOM     84  C   UNL     1       3.869 -14.980   5.910  1.00  0.00     0.198 A 
ATOM     85  C   UNL     1       5.853 -15.218   4.581  1.00  0.00     0.198 A 
ATOM     86  F   UNL     1       6.068 -14.034   2.560  1.00  0.00    -0.203 F 
ATOM     87  F   UNL     1       3.173 -15.267   7.019  1.00  0.00    -0.200 F 
ATOM     88  C   UNL     1       5.123 -15.538   5.716  1.00  0.00     0.200 A 
ATOM     89  F   UNL     1       7.059 -15.767   4.385  1.00  0.00    -0.200 F 
ATOM     90  F   UNL     1       5.632 -16.381   6.626  1.00  0.00    -0.200 F 
ENDBRANCH  66  80
BRANCH  67  91
ATOM     91  C   UNL     1      -0.448  -7.634  -2.729  1.00  0.00     0.064 A 
ATOM     92  C   UNL     1      -1.646  -8.005  -3.353  1.00  0.00     0.173 A 
ATOM     93  C   UNL     1       0.176  -6.486  -3.226  1.00  0.00     0.173 A 
ATOM     94  F   UNL     1      -2.271  -9.131  -2.983  1.00  0.00    -0.203 F 
ATOM     95  C   UNL     1      -2.158  -7.276  -4.435  1.00  0.00     0.198 A 
ATOM     96  C   UNL     1      -0.343  -5.732  -4.274  1.00  0.00     0.198 A 
ATOM     97  F   UNL     1       1.357  -6.140  -2.732  1.00  0.00    -0.203 F 
ATOM     98  F   UNL     1      -3.251  -7.713  -5.075  1.00  0.00    -0.200 F 
ATOM     99  C   UNL     1      -1.508  -6.139  -4.892  1.00  0.00     0.200 A 
ATOM    100  F   UNL     1       0.320  -4.656  -4.718  1.00  0.00    -0.200 F 
ATOM    101  F   UNL     1      -1.976  -5.466  -5.952  1.00  0.00    -0.200 F 
ENDBRANCH  67  91
BRANCH  79 102
ATOM    102  C   UNL     1       1.718 -14.208  -2.994  1.00  0.00     0.064 A 
ATOM    103  C   UNL     1       2.506 -14.223  -4.152  1.00  0.00     0.173 A 
ATOM    104  C   UNL     1       0.775 -15.237  -2.826  1.00  0.00     0.173 A 
ATOM    105  F   UNL     1       3.406 -13.252  -4.369  1.00  0.00    -0.203 F 
ATOM    106  C   UNL     1       2.331 -15.208  -5.121  1.00  0.00     0.198 A 
ATOM    107  C   UNL     1       0.632 -16.241  -3.776  1.00  0.00     0.198 A 
ATOM    108  F   UNL     1       0.002 -15.273  -1.730  1.00  0.00    -0.203 F 
ATOM    109  F   UNL     1       3.050 -15.168  -6.251  1.00  0.00    -0.200 F 
ATOM    110  C   UNL     1       1.401 -16.220  -4.928  1.00  0.00     0.200 A 
ATOM    111  F   UNL     1      -0.254 -17.227  -3.578  1.00  0.00    -0.200 F 
ATOM    112  F   UNL     1       1.240 -17.171  -5.859  1.00  0.00    -0.200 F 
ENDBRANCH  79 102
ENDBRANCH  53  54
ENDBRANCH  46  48
ENDBRANCH  45  46
ENDBRANCH  44  45
ENDBRANCH  43  44
ENDBRANCH  42  43
ENDBRANCH  41  42
ENDBRANCH  40  41
ENDBRANCH  39  40
ENDBRANCH  38  39
ENDBRANCH   1  38
TORSDOF 25
