REMARK SMILES COc1ccc(C(=O)OCCOCCOCCOCCOC(=O)c2ccc(-c3c4nc(c(-c5c(F)c(F)c(F)c(F)c5F)c5ccc([nH]5)c(-c5c(F)c(F)c(F)c(F)c5F)c5nc(c(-c6c(F)c(F)c(F)c(F)c6F)c6ccc3[nH]6)C=C5)C=C4)cc2)cc1NC(=O)c1ccccc1[N+](=O)[O-]
REMARK SMILES IDX 14 1 13 2 12 3 11 4 10 5 9 6 7 7 8 8 6 9 3 10 4 11 88 12
REMARK SMILES IDX 5 13 87 14 2 15 1 16 89 17 90 18 91 20 92 21 93 22 97 23
REMARK SMILES IDX 94 24 96 25 95 26 98 27 99 28 100 29 15 30 16 31 17 32 18 33
REMARK SMILES IDX 19 34 20 35 21 36 22 37 23 38 24 39 25 40 86 41 26 42 85 43
REMARK SMILES IDX 27 44 28 45 29 46 79 47 30 48 84 49 78 50 80 51 31 52 83 53
REMARK SMILES IDX 77 54 76 55 32 57 64 58 44 59 63 60 45 61 48 62 62 63 81 64
REMARK SMILES IDX 46 65 47 66 61 68 82 69 49 70 33 71 34 72 42 73 35 74 36 75
REMARK SMILES IDX 40 76 43 77 37 78 38 79 41 80 39 81 65 82 66 83 74 84 67 85
REMARK SMILES IDX 68 86 72 87 75 88 69 89 70 90 73 91 71 92 50 93 51 94 59 95
REMARK SMILES IDX 52 96 53 97 57 98 60 99 54 100 55 101 58 102 56 103
REMARK H PARENT 89 19 80 56 48 67
REMARK Flexibility Score: inf
ROOT
ATOM      1  C   UNL     1       2.655   6.576   2.748  1.00  0.00     0.188 C 
ENDROOT
BRANCH   1   2
ATOM      2  C   UNL     1       1.486   7.030   3.646  1.00  0.00     0.188 C 
BRANCH   2   3
ATOM      3  O   UNL     1       1.721   7.546   4.947  1.00  0.00    -0.376 OA
BRANCH   3   4
ATOM      4  C   UNL     1       2.564   6.921   5.900  1.00  0.00     0.202 C 
BRANCH   4   5
ATOM      5  C   UNL     1       2.754   5.403   6.053  1.00  0.00     0.261 C 
BRANCH   5   6
ATOM      6  O   UNL     1       2.510   4.602   4.904  1.00  0.00    -0.460 OA
BRANCH   6   7
ATOM      7  C   UNL     1       1.252   4.130   4.756  1.00  0.00     0.338 C 
ATOM      8  O   UNL     1       0.319   4.295   5.520  1.00  0.00    -0.246 OA
BRANCH   7   9
ATOM      9  C   UNL     1       1.147   3.467   3.427  1.00  0.00     0.062 A 
ATOM     10  C   UNL     1       0.934   2.063   1.045  1.00  0.00     0.142 A 
ATOM     11  C   UNL     1      -0.203   2.653   1.609  1.00  0.00     0.049 A 
ATOM     12  C   UNL     1       2.197   2.197   1.644  1.00  0.00     0.084 A 
ATOM     13  C   UNL     1      -0.105   3.307   2.837  1.00  0.00     0.019 A 
ATOM     14  C   UNL     1       2.293   3.013   2.759  1.00  0.00     0.045 A 
BRANCH  10  15
ATOM     15  O   UNL     1       0.781   1.379  -0.134  1.00  0.00    -0.495 OA
ATOM     16  C   UNL     1       0.648  -0.027   0.095  1.00  0.00     0.278 C 
ENDBRANCH  10  15
BRANCH  12  17
ATOM     17  N   UNL     1       3.269   1.437   1.136  1.00  0.00    -0.319 N 
ATOM     18  C   UNL     1       4.503   1.073   1.630  1.00  0.00     0.262 C 
ATOM     19  H   UNL     1       3.100   1.091   0.230  1.00  0.00     0.170 HD
ATOM     20  O   UNL     1       5.209   0.297   0.985  1.00  0.00    -0.269 OA
BRANCH  18  21
ATOM     21  C   UNL     1       5.087   1.647   2.856  1.00  0.00     0.117 A 
ATOM     22  C   UNL     1       6.217   2.456   2.640  1.00  0.00     0.021 A 
ATOM     23  C   UNL     1       4.590   1.511   4.158  1.00  0.00     0.282 A 
ATOM     24  C   UNL     1       6.772   3.197   3.683  1.00  0.00     0.001 A 
ATOM     25  C   UNL     1       5.128   2.287   5.203  1.00  0.00     0.086 A 
ATOM     26  C   UNL     1       6.207   3.139   4.956  1.00  0.00     0.007 A 
BRANCH  23  27
ATOM     27  N   UNL     1       3.446   0.653   4.456  1.00  0.00     0.063 N 
ATOM     28  O   UNL     1       2.697   1.012   5.377  1.00  0.00    -0.258 OA
ATOM     29  O   UNL     1       3.292  -0.370   3.781  1.00  0.00    -0.258 OA
ENDBRANCH  23  27
ENDBRANCH  18  21
ENDBRANCH  12  17
ENDBRANCH   7   9
ENDBRANCH   6   7
ENDBRANCH   5   6
ENDBRANCH   4   5
ENDBRANCH   3   4
ENDBRANCH   2   3
ENDBRANCH   1   2
BRANCH   1  30
ATOM     30  O   UNL     1       3.892   6.463   3.429  1.00  0.00    -0.377 OA
BRANCH  30  31
ATOM     31  C   UNL     1       4.746   7.602   3.358  1.00  0.00     0.188 C 
BRANCH  31  32
ATOM     32  C   UNL     1       4.110   9.008   3.446  1.00  0.00     0.188 C 
BRANCH  32  33
ATOM     33  O   UNL     1       3.008   9.200   2.569  1.00  0.00    -0.376 OA
BRANCH  33  34
ATOM     34  C   UNL     1       3.195   9.931   1.369  1.00  0.00     0.202 C 
BRANCH  34  35
ATOM     35  C   UNL     1       4.079   9.284   0.292  1.00  0.00     0.261 C 
BRANCH  35  36
ATOM     36  O   UNL     1       5.415   8.950   0.699  1.00  0.00    -0.460 OA
BRANCH  36  37
ATOM     37  C   UNL     1       6.210   9.963   1.097  1.00  0.00     0.338 C 
ATOM     38  O   UNL     1       5.942  11.153   1.113  1.00  0.00    -0.246 OA
BRANCH  37  39
ATOM     39  C   UNL     1       7.419   9.373   1.705  1.00  0.00     0.060 A 
ATOM     40  C   UNL     1       7.722   9.674   3.039  1.00  0.00     0.016 A 
ATOM     41  C   UNL     1       8.251   8.534   0.960  1.00  0.00     0.016 A 
ATOM     42  C   UNL     1       8.885   9.169   3.620  1.00  0.00     0.010 A 
ATOM     43  C   UNL     1       9.426   8.047   1.536  1.00  0.00     0.010 A 
ATOM     44  C   UNL     1       9.767   8.394   2.857  1.00  0.00    -0.014 A 
BRANCH  44  45
ATOM     45  C   UNL     1      11.132   8.117   3.366  1.00  0.00     0.031 A 
ATOM     46  C   UNL     1      12.260   8.991   2.887  1.00  0.00     0.074 A 
ATOM     47  C   UNL     1      11.366   7.122   4.240  1.00  0.00     0.049 A 
ATOM     48  N   UNL     1      13.541   8.907   3.135  1.00  0.00    -0.248 NA
ATOM     49  C   UNL     1      11.891  10.112   2.005  1.00  0.00     0.031 C 
ATOM     50  C   UNL     1      10.351   6.236   4.806  1.00  0.00     0.029 A 
ATOM     51  N   UNL     1      12.543   6.683   4.793  1.00  0.00    -0.354 N 
ATOM     52  C   UNL     1      14.131   9.945   2.425  1.00  0.00     0.074 A 
ATOM     53  C   UNL     1      13.074  10.639   1.725  1.00  0.00     0.031 C 
ATOM     54  C   UNL     1      10.954   5.342   5.610  1.00  0.00     0.029 A 
ATOM     55  C   UNL     1      12.398   5.571   5.586  1.00  0.00     0.049 A 
ATOM     56  H   UNL     1      13.410   7.123   4.636  1.00  0.00     0.167 HD
ATOM     57  C   UNL     1      15.439  10.287   2.366  1.00  0.00     0.037 A 
ATOM     58  C   UNL     1      13.331   4.810   6.193  1.00  0.00     0.037 A 
ATOM     59  C   UNL     1      16.485   9.607   3.081  1.00  0.00     0.049 A 
ATOM     60  C   UNL     1      14.789   5.186   6.061  1.00  0.00     0.074 A 
ATOM     61  C   UNL     1      17.833   9.912   3.128  1.00  0.00     0.029 A 
ATOM     62  N   UNL     1      16.301   8.478   3.864  1.00  0.00    -0.354 N 
ATOM     63  N   UNL     1      15.333   6.200   5.433  1.00  0.00    -0.248 NA
ATOM     64  C   UNL     1      15.764   4.310   6.730  1.00  0.00     0.031 C 
ATOM     65  C   UNL     1      18.477   8.926   3.879  1.00  0.00     0.029 A 
ATOM     66  C   UNL     1      17.520   8.051   4.365  1.00  0.00     0.049 A 
ATOM     67  H   UNL     1      15.434   8.045   4.038  1.00  0.00     0.167 HD
ATOM     68  C   UNL     1      16.701   6.105   5.662  1.00  0.00     0.074 A 
ATOM     69  C   UNL     1      16.904   4.945   6.501  1.00  0.00     0.031 C 
ATOM     70  C   UNL     1      17.702   6.905   5.217  1.00  0.00     0.037 A 
BRANCH  57  71
ATOM     71  C   UNL     1      15.832  11.427   1.474  1.00  0.00     0.064 A 
ATOM     72  C   UNL     1      15.536  12.760   1.794  1.00  0.00     0.173 A 
ATOM     73  C   UNL     1      16.591  11.182   0.319  1.00  0.00     0.173 A 
ATOM     74  F   UNL     1      14.801  13.047   2.879  1.00  0.00    -0.203 F 
ATOM     75  C   UNL     1      15.980  13.804   0.986  1.00  0.00     0.198 A 
ATOM     76  C   UNL     1      17.058  12.229  -0.469  1.00  0.00     0.198 A 
ATOM     77  F   UNL     1      16.901   9.924  -0.032  1.00  0.00    -0.203 F 
ATOM     78  F   UNL     1      15.661  15.069   1.294  1.00  0.00    -0.200 F 
ATOM     79  C   UNL     1      16.750  13.539  -0.137  1.00  0.00     0.200 A 
ATOM     80  F   UNL     1      17.814  11.970  -1.545  1.00  0.00    -0.200 F 
ATOM     81  F   UNL     1      17.196  14.547  -0.899  1.00  0.00    -0.200 F 
ENDBRANCH  57  71
BRANCH  58  82
ATOM     82  C   UNL     1      12.938   3.589   6.950  1.00  0.00     0.064 A 
ATOM     83  C   UNL     1      13.173   3.478   8.328  1.00  0.00     0.173 A 
ATOM     84  C   UNL     1      12.386   2.477   6.296  1.00  0.00     0.173 A 
ATOM     85  F   UNL     1      13.720   4.503   8.998  1.00  0.00    -0.203 F 
ATOM     86  C   UNL     1      12.912   2.292   9.012  1.00  0.00     0.198 A 
ATOM     87  C   UNL     1      12.091   1.304   6.988  1.00  0.00     0.198 A 
ATOM     88  F   UNL     1      12.138   2.526   4.979  1.00  0.00    -0.203 F 
ATOM     89  F   UNL     1      13.218   2.191  10.313  1.00  0.00    -0.200 F 
ATOM     90  C   UNL     1      12.369   1.206   8.342  1.00  0.00     0.200 A 
ATOM     91  F   UNL     1      11.550   0.265   6.338  1.00  0.00    -0.200 F 
ATOM     92  F   UNL     1      12.127   0.063   8.998  1.00  0.00    -0.200 F 
ENDBRANCH  58  82
BRANCH  70  93
ATOM     93  C   UNL     1      19.100   6.592   5.673  1.00  0.00     0.064 A 
ATOM     94  C   UNL     1      19.791   5.457   5.225  1.00  0.00     0.173 A 
ATOM     95  C   UNL     1      19.774   7.470   6.538  1.00  0.00     0.173 A 
ATOM     96  F   UNL     1      19.189   4.580   4.407  1.00  0.00    -0.203 F 
ATOM     97  C   UNL     1      21.091   5.195   5.651  1.00  0.00     0.198 A 
ATOM     98  C   UNL     1      21.087   7.225   6.931  1.00  0.00     0.198 A 
ATOM     99  F   UNL     1      19.165   8.577   6.988  1.00  0.00    -0.203 F 
ATOM    100  F   UNL     1      21.710   4.075   5.254  1.00  0.00    -0.200 F 
ATOM    101  C   UNL     1      21.740   6.083   6.495  1.00  0.00     0.200 A 
ATOM    102  F   UNL     1      21.718   8.096   7.730  1.00  0.00    -0.200 F 
ATOM    103  F   UNL     1      22.995   5.835   6.895  1.00  0.00    -0.200 F 
ENDBRANCH  70  93
ENDBRANCH  44  45
ENDBRANCH  37  39
ENDBRANCH  36  37
ENDBRANCH  35  36
ENDBRANCH  34  35
ENDBRANCH  33  34
ENDBRANCH  32  33
ENDBRANCH  31  32
ENDBRANCH  30  31
ENDBRANCH   1  30
TORSDOF 24
