REMARK SMILES O=C(OCCOCCOCCOCCOC(=O)c1ccc2c(=O)n(CCC[NH+]3CCOCC3)c(=O)[nH]c2c1)c1ccc(-c2c3nc(c(-c4c(F)c(F)c(F)c(F)c4F)c4ccc([nH]4)c(-c4c(F)c(F)c(F)c(F)c4F)c4nc(c(-c5c(F)c(F)c(F)c(F)c5F)c5ccc2[nH]5)C=C4)C=C3)cc1
REMARK SMILES IDX 10 1 9 2 8 3 7 4 6 5 5 6 4 7 3 8 2 9 1 10 39 11 40 12 101 13
REMARK SMILES IDX 41 14 100 15 42 16 43 17 44 18 94 19 45 20 99 21 93 22 95 23
REMARK SMILES IDX 46 24 98 25 92 26 91 27 47 29 79 30 59 31 78 32 60 33 63 34
REMARK SMILES IDX 77 35 96 36 61 37 62 38 76 40 97 41 64 42 48 43 49 44 57 45
REMARK SMILES IDX 50 46 51 47 55 48 58 49 52 50 53 51 56 52 54 53 80 54 81 55
REMARK SMILES IDX 89 56 82 57 83 58 87 59 90 60 84 61 85 62 88 63 86 64 65 65
REMARK SMILES IDX 66 66 74 67 67 68 68 69 72 70 75 71 69 72 70 73 73 74 71 75
REMARK SMILES IDX 11 76 12 77 13 78 14 79 15 80 16 81 17 82 18 83 19 84 38 85
REMARK SMILES IDX 20 86 37 87 21 88 36 89 22 90 34 91 23 93 24 94 35 95 25 96
REMARK SMILES IDX 26 97 27 98 28 99 29 100 33 101 30 103 32 104 31 105
REMARK H PARENT 95 28 63 39 36 92 28 102
REMARK Flexibility Score: inf
ROOT
ATOM      1  C   UNL     1       3.884   2.984   2.326  1.00  0.00     0.188 C 
ENDROOT
BRANCH   1   2
ATOM      2  O   UNL     1       2.464   2.993   2.319  1.00  0.00    -0.377 OA
BRANCH   2   3
ATOM      3  C   UNL     1       1.816   1.853   1.762  1.00  0.00     0.188 C 
BRANCH   3   4
ATOM      4  C   UNL     1       2.331   1.422   0.389  1.00  0.00     0.188 C 
BRANCH   4   5
ATOM      5  O   UNL     1       3.647   0.865   0.490  1.00  0.00    -0.376 OA
BRANCH   5   6
ATOM      6  C   UNL     1       4.534   1.238  -0.562  1.00  0.00     0.202 C 
BRANCH   6   7
ATOM      7  C   UNL     1       4.453   0.341  -1.795  1.00  0.00     0.261 C 
BRANCH   7   8
ATOM      8  O   UNL     1       3.146  -0.203  -2.014  1.00  0.00    -0.460 OA
BRANCH   8   9
ATOM      9  C   UNL     1       2.559  -1.281  -1.441  1.00  0.00     0.338 C 
ATOM     10  O   UNL     1       1.424  -1.570  -1.825  1.00  0.00    -0.246 OA
BRANCH   9  11
ATOM     11  C   UNL     1       3.158  -2.142  -0.359  1.00  0.00     0.060 A 
ATOM     12  C   UNL     1       2.377  -3.240   0.057  1.00  0.00     0.016 A 
ATOM     13  C   UNL     1       4.394  -1.967   0.272  1.00  0.00     0.016 A 
ATOM     14  C   UNL     1       2.834  -4.141   1.024  1.00  0.00     0.010 A 
ATOM     15  C   UNL     1       4.859  -2.855   1.242  1.00  0.00     0.010 A 
ATOM     16  C   UNL     1       4.098  -3.966   1.595  1.00  0.00    -0.014 A 
BRANCH  16  17
ATOM     17  C   UNL     1       4.750  -5.057   2.342  1.00  0.00     0.031 A 
ATOM     18  C   UNL     1       4.928  -5.006   3.823  1.00  0.00     0.074 A 
ATOM     19  C   UNL     1       5.284  -6.043   1.597  1.00  0.00     0.049 A 
ATOM     20  N   UNL     1       5.410  -5.926   4.616  1.00  0.00    -0.248 NA
ATOM     21  C   UNL     1       4.548  -3.760   4.506  1.00  0.00     0.031 C 
ATOM     22  C   UNL     1       5.270  -6.077   0.130  1.00  0.00     0.029 A 
ATOM     23  N   UNL     1       5.947  -7.187   1.947  1.00  0.00    -0.354 N 
ATOM     24  C   UNL     1       5.368  -5.386   5.893  1.00  0.00     0.074 A 
ATOM     25  C   UNL     1       4.870  -4.034   5.766  1.00  0.00     0.031 C 
ATOM     26  C   UNL     1       5.870  -7.198  -0.292  1.00  0.00     0.029 A 
ATOM     27  C   UNL     1       6.305  -7.960   0.870  1.00  0.00     0.049 A 
ATOM     28  H   UNL     1       6.149  -7.431   2.879  1.00  0.00     0.167 HD
ATOM     29  C   UNL     1       5.698  -5.996   7.057  1.00  0.00     0.037 A 
ATOM     30  C   UNL     1       6.888  -9.171   0.830  1.00  0.00     0.037 A 
ATOM     31  C   UNL     1       6.202  -7.346   7.125  1.00  0.00     0.049 A 
ATOM     32  C   UNL     1       7.174  -9.851   2.136  1.00  0.00     0.074 A 
ATOM     33  C   UNL     1       6.495  -8.104   8.245  1.00  0.00     0.029 A 
ATOM     34  N   UNL     1       6.497  -8.133   6.019  1.00  0.00    -0.354 N 
ATOM     35  N   UNL     1       6.991  -9.396   3.353  1.00  0.00    -0.248 NA
ATOM     36  C   UNL     1       7.714 -11.213   2.075  1.00  0.00     0.031 C 
ATOM     37  C   UNL     1       7.008  -9.331   7.816  1.00  0.00     0.029 A 
ATOM     38  C   UNL     1       6.987  -9.361   6.429  1.00  0.00     0.049 A 
ATOM     39  H   UNL     1       6.376  -7.858   5.081  1.00  0.00     0.167 HD
ATOM     40  C   UNL     1       7.371 -10.419   4.204  1.00  0.00     0.074 A 
ATOM     41  C   UNL     1       7.781 -11.527   3.362  1.00  0.00     0.031 C 
ATOM     42  C   UNL     1       7.382 -10.440   5.559  1.00  0.00     0.037 A 
BRANCH  29  43
ATOM     43  C   UNL     1       5.488  -5.256   8.348  1.00  0.00     0.064 A 
ATOM     44  C   UNL     1       4.197  -5.005   8.836  1.00  0.00     0.173 A 
ATOM     45  C   UNL     1       6.573  -4.918   9.172  1.00  0.00     0.173 A 
ATOM     46  F   UNL     1       3.123  -5.307   8.091  1.00  0.00    -0.203 F 
ATOM     47  C   UNL     1       3.999  -4.446  10.097  1.00  0.00     0.198 A 
ATOM     48  C   UNL     1       6.372  -4.382  10.443  1.00  0.00     0.198 A 
ATOM     49  F   UNL     1       7.831  -5.144   8.762  1.00  0.00    -0.203 F 
ATOM     50  F   UNL     1       2.755  -4.208  10.535  1.00  0.00    -0.200 F 
ATOM     51  C   UNL     1       5.086  -4.148  10.905  1.00  0.00     0.200 A 
ATOM     52  F   UNL     1       7.423  -4.111  11.230  1.00  0.00    -0.200 F 
ATOM     53  F   UNL     1       4.893  -3.642  12.130  1.00  0.00    -0.200 F 
ENDBRANCH  29  43
BRANCH  30  54
ATOM     54  C   UNL     1       7.106  -9.828  -0.483  1.00  0.00     0.064 A 
ATOM     55  C   UNL     1       6.298 -10.899  -0.888  1.00  0.00     0.173 A 
ATOM     56  C   UNL     1       8.046  -9.338  -1.402  1.00  0.00     0.173 A 
ATOM     57  F   UNL     1       5.382 -11.401  -0.046  1.00  0.00    -0.203 F 
ATOM     58  C   UNL     1       6.425 -11.460  -2.157  1.00  0.00     0.198 A 
ATOM     59  C   UNL     1       8.155  -9.882  -2.680  1.00  0.00     0.198 A 
ATOM     60  F   UNL     1       8.825  -8.296  -1.075  1.00  0.00    -0.203 F 
ATOM     61  F   UNL     1       5.650 -12.493  -2.511  1.00  0.00    -0.200 F 
ATOM     62  C   UNL     1       7.347 -10.945  -3.056  1.00  0.00     0.200 A 
ATOM     63  F   UNL     1       9.028  -9.364  -3.556  1.00  0.00    -0.200 F 
ATOM     64  F   UNL     1       7.451 -11.467  -4.285  1.00  0.00    -0.200 F 
ENDBRANCH  30  54
BRANCH  42  65
ATOM     65  C   UNL     1       7.850 -11.700   6.217  1.00  0.00     0.064 A 
ATOM     66  C   UNL     1       9.211 -12.034   6.258  1.00  0.00     0.173 A 
ATOM     67  C   UNL     1       6.942 -12.525   6.896  1.00  0.00     0.173 A 
ATOM     68  F   UNL     1      10.111 -11.279   5.611  1.00  0.00    -0.203 F 
ATOM     69  C   UNL     1       9.646 -13.156   6.955  1.00  0.00     0.198 A 
ATOM     70  C   UNL     1       7.385 -13.630   7.614  1.00  0.00     0.198 A 
ATOM     71  F   UNL     1       5.631 -12.237   6.890  1.00  0.00    -0.203 F 
ATOM     72  F   UNL     1      10.948 -13.471   6.964  1.00  0.00    -0.200 F 
ATOM     73  C   UNL     1       8.735 -13.945   7.642  1.00  0.00     0.200 A 
ATOM     74  F   UNL     1       6.506 -14.383   8.291  1.00  0.00    -0.200 F 
ATOM     75  F   UNL     1       9.161 -15.011   8.334  1.00  0.00    -0.200 F 
ENDBRANCH  42  65
ENDBRANCH  16  17
ENDBRANCH   9  11
ENDBRANCH   8   9
ENDBRANCH   7   8
ENDBRANCH   6   7
ENDBRANCH   5   6
ENDBRANCH   4   5
ENDBRANCH   3   4
ENDBRANCH   2   3
ENDBRANCH   1   2
BRANCH   1  76
ATOM     76  C   UNL     1       4.619   1.829   3.042  1.00  0.00     0.188 C 
BRANCH  76  77
ATOM     77  O   UNL     1       3.771   0.887   3.682  1.00  0.00    -0.376 OA
BRANCH  77  78
ATOM     78  C   UNL     1       3.749   0.950   5.104  1.00  0.00     0.202 C 
BRANCH  78  79
ATOM     79  C   UNL     1       3.033   2.172   5.693  1.00  0.00     0.261 C 
BRANCH  79  80
ATOM     80  O   UNL     1       3.590   3.446   5.334  1.00  0.00    -0.460 OA
BRANCH  80  81
ATOM     81  C   UNL     1       4.859   3.732   5.717  1.00  0.00     0.338 C 
ATOM     82  O   UNL     1       5.613   3.051   6.366  1.00  0.00    -0.246 OA
BRANCH  81  83
ATOM     83  C   UNL     1       5.232   4.949   4.960  1.00  0.00     0.062 A 
ATOM     84  C   UNL     1       4.463   6.110   5.109  1.00  0.00     0.016 A 
ATOM     85  C   UNL     1       6.228   4.854   3.967  1.00  0.00     0.042 A 
ATOM     86  C   UNL     1       4.738   7.208   4.308  1.00  0.00     0.017 A 
ATOM     87  C   UNL     1       6.390   5.911   3.081  1.00  0.00     0.056 A 
ATOM     88  C   UNL     1       5.712   7.091   3.313  1.00  0.00     0.064 A 
ATOM     89  N   UNL     1       7.158   5.808   1.921  1.00  0.00    -0.307 N 
ATOM     90  C   UNL     1       6.163   8.252   2.566  1.00  0.00     0.264 A 
ATOM     91  C   UNL     1       7.253   6.808   0.979  1.00  0.00     0.328 A 
ATOM     92  H   UNL     1       7.660   4.975   1.768  1.00  0.00     0.171 HD
ATOM     93  O   UNL     1       6.159   9.301   3.193  1.00  0.00    -0.268 OA
ATOM     94  N   UNL     1       6.683   8.038   1.303  1.00  0.00    -0.260 N 
ATOM     95  O   UNL     1       7.870   6.576  -0.060  1.00  0.00    -0.248 OA
BRANCH  94  96
ATOM     96  C   UNL     1       7.037   9.183   0.457  1.00  0.00     0.137 C 
BRANCH  96  97
ATOM     97  C   UNL     1       5.989  10.276   0.172  1.00  0.00     0.083 C 
BRANCH  97  98
ATOM     98  C   UNL     1       5.384  11.162   1.277  1.00  0.00     0.264 C 
BRANCH  98  99
ATOM     99  N   UNL     1       6.160  12.055   2.143  1.00  0.00    -0.331 N 
ATOM    100  C   UNL     1       5.929  13.487   1.921  1.00  0.00     0.291 C 
ATOM    101  C   UNL     1       7.592  11.827   2.356  1.00  0.00     0.291 C 
ATOM    102  H   UNL     1       5.735  11.744   3.017  1.00  0.00     0.348 HD
ATOM    103  C   UNL     1       6.810  14.042   0.796  1.00  0.00     0.221 C 
ATOM    104  C   UNL     1       8.480  12.439   1.262  1.00  0.00     0.221 C 
ATOM    105  O   UNL     1       8.203  13.832   1.072  1.00  0.00    -0.370 OA
ENDBRANCH  98  99
ENDBRANCH  97  98
ENDBRANCH  96  97
ENDBRANCH  94  96
ENDBRANCH  81  83
ENDBRANCH  80  81
ENDBRANCH  79  80
ENDBRANCH  78  79
ENDBRANCH  77  78
ENDBRANCH  76  77
ENDBRANCH   1  76
TORSDOF 24
