REMARK SMILES O=C(OCCOCCOCCOCCOC(=O)c1cnc([C@H]2CSCCS2)[nH]c1=O)c1ccc(-c2c3nc(c(-c4c(F)c(F)c(F)c(F)c4F)c4ccc([nH]4)c(-c4c(F)c(F)c(F)c(F)c4F)c4nc(c(-c5c(F)c(F)c(F)c(F)c5F)c5ccc2[nH]5)C=C4)C=C3)cc1
REMARK SMILES IDX 8 1 7 2 6 3 5 4 4 5 3 6 2 7 1 8 31 9 32 10 93 11 33 12 92 13
REMARK SMILES IDX 34 14 35 15 36 16 86 17 37 18 91 19 85 20 87 21 38 22 90 23
REMARK SMILES IDX 84 24 83 25 39 27 71 28 51 29 70 30 52 31 55 32 69 33 88 34
REMARK SMILES IDX 53 35 54 36 68 38 89 39 56 40 40 41 41 42 49 43 42 44 43 45
REMARK SMILES IDX 47 46 50 47 44 48 45 49 48 50 46 51 72 52 73 53 81 54 74 55
REMARK SMILES IDX 75 56 79 57 82 58 76 59 77 60 80 61 78 62 57 63 58 64 66 65
REMARK SMILES IDX 59 66 60 67 64 68 67 69 61 70 62 71 65 72 63 73 9 74 10 75
REMARK SMILES IDX 11 76 12 77 13 78 14 79 15 80 16 81 17 82 18 83 19 84 29 85
REMARK SMILES IDX 20 86 28 87 30 88 21 89 22 91 23 92 27 93 24 94 26 95 25 96
REMARK H PARENT 87 26 55 37 28 90
REMARK Flexibility Score: inf
ROOT
ATOM      1  C   UNL     1       3.758   0.635 -15.584  1.00  0.00     0.188 C 
ENDROOT
BRANCH   1   2
ATOM      2  C   UNL     1       3.113  -0.750 -15.650  1.00  0.00     0.188 C 
BRANCH   2   3
ATOM      3  O   UNL     1       1.894  -0.746 -14.913  1.00  0.00    -0.376 OA
BRANCH   3   4
ATOM      4  C   UNL     1       1.439  -1.991 -14.403  1.00  0.00     0.202 C 
BRANCH   4   5
ATOM      5  C   UNL     1       1.081  -3.064 -15.434  1.00  0.00     0.261 C 
BRANCH   5   6
ATOM      6  O   UNL     1       1.437  -2.749 -16.793  1.00  0.00    -0.460 OA
BRANCH   6   7
ATOM      7  C   UNL     1       0.705  -2.124 -17.745  1.00  0.00     0.338 C 
ATOM      8  O   UNL     1       1.087  -2.143 -18.912  1.00  0.00    -0.246 OA
BRANCH   7   9
ATOM      9  C   UNL     1      -0.584  -1.451 -17.445  1.00  0.00     0.060 A 
ATOM     10  C   UNL     1      -0.798  -0.649 -16.328  1.00  0.00     0.016 A 
ATOM     11  C   UNL     1      -1.603  -1.536 -18.401  1.00  0.00     0.016 A 
ATOM     12  C   UNL     1      -2.047  -0.115 -16.049  1.00  0.00     0.010 A 
ATOM     13  C   UNL     1      -2.835  -0.912 -18.181  1.00  0.00     0.010 A 
ATOM     14  C   UNL     1      -3.085  -0.260 -16.964  1.00  0.00    -0.014 A 
BRANCH  14  15
ATOM     15  C   UNL     1      -4.458   0.116 -16.557  1.00  0.00     0.031 A 
ATOM     16  C   UNL     1      -5.468  -0.985 -16.402  1.00  0.00     0.074 A 
ATOM     17  C   UNL     1      -4.761   1.383 -16.219  1.00  0.00     0.049 A 
ATOM     18  N   UNL     1      -6.753  -0.915 -16.179  1.00  0.00    -0.248 NA
ATOM     19  C   UNL     1      -4.957  -2.362 -16.525  1.00  0.00     0.031 C 
ATOM     20  C   UNL     1      -3.823   2.507 -16.218  1.00  0.00     0.029 A 
ATOM     21  N   UNL     1      -5.936   1.931 -15.774  1.00  0.00    -0.354 N 
ATOM     22  C   UNL     1      -7.209  -2.227 -16.212  1.00  0.00     0.074 A 
ATOM     23  C   UNL     1      -6.070  -3.075 -16.472  1.00  0.00     0.031 C 
ATOM     24  C   UNL     1      -4.445   3.598 -15.740  1.00  0.00     0.029 A 
ATOM     25  C   UNL     1      -5.843   3.272 -15.487  1.00  0.00     0.049 A 
ATOM     26  H   UNL     1      -6.766   1.413 -15.669  1.00  0.00     0.167 HD
ATOM     27  C   UNL     1      -8.474  -2.677 -16.044  1.00  0.00     0.037 A 
ATOM     28  C   UNL     1      -6.797   4.137 -15.093  1.00  0.00     0.037 A 
ATOM     29  C   UNL     1      -9.580  -1.817 -15.727  1.00  0.00     0.049 A 
ATOM     30  C   UNL     1      -8.204   3.619 -14.945  1.00  0.00     0.074 A 
ATOM     31  C   UNL     1     -10.915  -2.137 -15.571  1.00  0.00     0.029 A 
ATOM     32  N   UNL     1      -9.460  -0.452 -15.492  1.00  0.00    -0.354 N 
ATOM     33  N   UNL     1      -8.654   2.393 -15.076  1.00  0.00    -0.248 NA
ATOM     34  C   UNL     1      -9.240   4.608 -14.620  1.00  0.00     0.031 C 
ATOM     35  C   UNL     1     -11.609  -0.959 -15.272  1.00  0.00     0.029 A 
ATOM     36  C   UNL     1     -10.700   0.086 -15.198  1.00  0.00     0.049 A 
ATOM     37  H   UNL     1      -8.618   0.056 -15.530  1.00  0.00     0.167 HD
ATOM     38  C   UNL     1     -10.019   2.458 -14.838  1.00  0.00     0.074 A 
ATOM     39  C   UNL     1     -10.319   3.843 -14.530  1.00  0.00     0.031 C 
ATOM     40  C   UNL     1     -10.947   1.470 -14.880  1.00  0.00     0.037 A 
BRANCH  27  41
ATOM     41  C   UNL     1      -8.715  -4.139 -16.277  1.00  0.00     0.064 A 
ATOM     42  C   UNL     1      -8.254  -5.126 -15.393  1.00  0.00     0.173 A 
ATOM     43  C   UNL     1      -9.374  -4.561 -17.442  1.00  0.00     0.173 A 
ATOM     44  F   UNL     1      -7.588  -4.778 -14.281  1.00  0.00    -0.203 F 
ATOM     45  C   UNL     1      -8.409  -6.479 -15.685  1.00  0.00     0.198 A 
ATOM     46  C   UNL     1      -9.554  -5.914 -17.717  1.00  0.00     0.198 A 
ATOM     47  F   UNL     1      -9.828  -3.659 -18.326  1.00  0.00    -0.203 F 
ATOM     48  F   UNL     1      -7.896  -7.404 -14.862  1.00  0.00    -0.200 F 
ATOM     49  C   UNL     1      -9.061  -6.872 -16.845  1.00  0.00     0.200 A 
ATOM     50  F   UNL     1     -10.186  -6.290 -18.837  1.00  0.00    -0.200 F 
ATOM     51  F   UNL     1      -9.197  -8.174 -17.131  1.00  0.00    -0.200 F 
ENDBRANCH  27  41
BRANCH  28  52
ATOM     52  C   UNL     1      -6.467   5.567 -14.849  1.00  0.00     0.064 A 
ATOM     53  C   UNL     1      -6.579   6.128 -13.569  1.00  0.00     0.173 A 
ATOM     54  C   UNL     1      -6.040   6.409 -15.888  1.00  0.00     0.173 A 
ATOM     55  F   UNL     1      -7.007   5.377 -12.544  1.00  0.00    -0.203 F 
ATOM     56  C   UNL     1      -6.288   7.473 -13.340  1.00  0.00     0.198 A 
ATOM     57  C   UNL     1      -5.718   7.744 -15.653  1.00  0.00     0.198 A 
ATOM     58  F   UNL     1      -5.920   5.929 -17.135  1.00  0.00    -0.203 F 
ATOM     59  F   UNL     1      -6.446   7.992 -12.115  1.00  0.00    -0.200 F 
ATOM     60  C   UNL     1      -5.850   8.278 -14.381  1.00  0.00     0.200 A 
ATOM     61  F   UNL     1      -5.282   8.513 -16.660  1.00  0.00    -0.200 F 
ATOM     62  F   UNL     1      -5.564   9.568 -14.160  1.00  0.00    -0.200 F 
ENDBRANCH  28  52
BRANCH  40  63
ATOM     63  C   UNL     1     -12.356   1.852 -14.546  1.00  0.00     0.064 A 
ATOM     64  C   UNL     1     -13.152   2.576 -15.444  1.00  0.00     0.173 A 
ATOM     65  C   UNL     1     -12.926   1.451 -13.329  1.00  0.00     0.173 A 
ATOM     66  F   UNL     1     -12.642   2.993 -16.613  1.00  0.00    -0.203 F 
ATOM     67  C   UNL     1     -14.465   2.907 -15.125  1.00  0.00     0.198 A 
ATOM     68  C   UNL     1     -14.247   1.759 -13.025  1.00  0.00     0.198 A 
ATOM     69  F   UNL     1     -12.203   0.749 -12.442  1.00  0.00    -0.203 F 
ATOM     70  F   UNL     1     -15.196   3.638 -15.977  1.00  0.00    -0.200 F 
ATOM     71  C   UNL     1     -15.013   2.492 -13.919  1.00  0.00     0.200 A 
ATOM     72  F   UNL     1     -14.780   1.348 -11.866  1.00  0.00    -0.200 F 
ATOM     73  F   UNL     1     -16.280   2.806 -13.616  1.00  0.00    -0.200 F 
ENDBRANCH  40  63
ENDBRANCH  14  15
ENDBRANCH   7   9
ENDBRANCH   6   7
ENDBRANCH   5   6
ENDBRANCH   4   5
ENDBRANCH   3   4
ENDBRANCH   2   3
ENDBRANCH   1   2
BRANCH   1  74
ATOM     74  O   UNL     1       4.261   1.008 -14.299  1.00  0.00    -0.377 OA
BRANCH  74  75
ATOM     75  C   UNL     1       3.375   0.854 -13.198  1.00  0.00     0.188 C 
BRANCH  75  76
ATOM     76  C   UNL     1       2.069   1.679 -13.164  1.00  0.00     0.188 C 
BRANCH  76  77
ATOM     77  O   UNL     1       1.713   2.344 -14.371  1.00  0.00    -0.376 OA
BRANCH  77  78
ATOM     78  C   UNL     1       1.803   3.770 -14.322  1.00  0.00     0.202 C 
BRANCH  78  79
ATOM     79  C   UNL     1       3.225   4.305 -14.531  1.00  0.00     0.261 C 
BRANCH  79  80
ATOM     80  O   UNL     1       4.162   3.864 -13.538  1.00  0.00    -0.459 OA
BRANCH  80  81
ATOM     81  C   UNL     1       3.982   4.309 -12.273  1.00  0.00     0.345 C 
ATOM     82  O   UNL     1       3.126   5.090 -11.906  1.00  0.00    -0.246 OA
BRANCH  81  83
ATOM     83  C   UNL     1       4.840   3.529 -11.367  1.00  0.00     0.143 A 
ATOM     84  C   UNL     1       4.298   3.038 -10.243  1.00  0.00     0.134 A 
ATOM     85  C   UNL     1       6.231   3.150 -11.657  1.00  0.00     0.265 A 
ATOM     86  N   UNL     1       4.942   2.241  -9.328  1.00  0.00    -0.241 NA
ATOM     87  N   UNL     1       6.793   2.290 -10.752  1.00  0.00    -0.309 N 
ATOM     88  O   UNL     1       6.880   3.613 -12.588  1.00  0.00    -0.269 OA
ATOM     89  C   UNL     1       6.170   1.918  -9.590  1.00  0.00     0.122 A 
ATOM     90  H   UNL     1       7.686   1.922 -10.945  1.00  0.00     0.171 HD
BRANCH  89  91
ATOM     91  C   UNL     1       6.974   1.102  -8.577  1.00  0.00     0.123 C 
ATOM     92  C   UNL     1       6.931  -0.390  -8.900  1.00  0.00     0.092 C 
ATOM     93  S   UNL     1       8.698   1.747  -8.526  1.00  0.00    -0.149 SA
ATOM     94  S   UNL     1       7.590  -1.429  -7.541  1.00  0.00    -0.160 SA
ATOM     95  C   UNL     1       9.311   0.760  -7.130  1.00  0.00     0.081 C 
ATOM     96  C   UNL     1       9.275  -0.739  -7.402  1.00  0.00     0.080 C 
ENDBRANCH  89  91
ENDBRANCH  81  83
ENDBRANCH  80  81
ENDBRANCH  79  80
ENDBRANCH  78  79
ENDBRANCH  77  78
ENDBRANCH  76  77
ENDBRANCH  75  76
ENDBRANCH  74  75
ENDBRANCH   1  74
TORSDOF 21
