REMARK SMILES Cc1ccc(C(=O)OCCOCCOCCOCCOC(=O)c2ccc(-c3c4nc(c(-c5c(F)c(F)c(F)c(F)c5F)c5ccc([nH]5)c(-c5c(F)c(F)c(F)c(F)c5F)c5nc(c(-c6c(F)c(F)c(F)c(F)c6F)c6ccc3[nH]6)C=C5)C=C4)cc2)cc1NC(=O)c1ccc(Br)o1
REMARK SMILES IDX 14 1 13 2 12 3 11 4 10 5 9 6 8 7 6 8 7 9 5 10 1 11 2 12 3 13
REMARK SMILES IDX 87 14 4 15 86 16 88 17 89 18 90 20 91 21 92 22 96 23 93 24
REMARK SMILES IDX 94 25 95 26 15 27 16 28 17 29 18 30 19 31 20 32 21 33 22 34
REMARK SMILES IDX 23 35 24 36 85 37 25 38 84 39 26 40 27 41 28 42 78 43 29 44
REMARK SMILES IDX 83 45 77 46 79 47 30 48 82 49 76 50 75 51 31 53 63 54 43 55
REMARK SMILES IDX 62 56 44 57 47 58 61 59 80 60 45 61 46 62 60 64 81 65 48 66
REMARK SMILES IDX 32 67 33 68 41 69 34 70 35 71 39 72 42 73 36 74 37 75 40 76
REMARK SMILES IDX 38 77 64 78 65 79 73 80 66 81 67 82 71 83 74 84 68 85 69 86
REMARK SMILES IDX 72 87 70 88 49 89 50 90 58 91 51 92 52 93 56 94 59 95 53 96
REMARK SMILES IDX 54 97 57 98 55 99
REMARK H PARENT 88 19 79 52 47 63
REMARK Flexibility Score: inf
ROOT
ATOM      1  O   UNL     1      -1.598   0.674  -3.194  1.00  0.00    -0.377 OA
ENDROOT
BRANCH   1   2
ATOM      2  C   UNL     1      -1.399  -0.719  -3.147  1.00  0.00     0.188 C 
BRANCH   2   3
ATOM      3  C   UNL     1      -1.888  -1.758  -2.095  1.00  0.00     0.188 C 
BRANCH   3   4
ATOM      4  O   UNL     1      -3.207  -2.135  -1.760  1.00  0.00    -0.376 OA
BRANCH   4   5
ATOM      5  C   UNL     1      -3.753  -1.342  -0.743  1.00  0.00     0.202 C 
BRANCH   5   6
ATOM      6  C   UNL     1      -3.657  -1.562   0.745  1.00  0.00     0.261 C 
BRANCH   6   7
ATOM      7  O   UNL     1      -2.475  -1.349   1.406  1.00  0.00    -0.460 OA
BRANCH   7   8
ATOM      8  C   UNL     1      -1.716  -2.426   1.378  1.00  0.00     0.338 C 
ATOM      9  O   UNL     1      -2.060  -3.587   1.355  1.00  0.00    -0.246 OA
BRANCH   8  10
ATOM     10  C   UNL     1      -0.439  -1.823   1.035  1.00  0.00     0.062 A 
ATOM     11  C   UNL     1       3.214  -0.122  -0.198  1.00  0.00     0.046 C 
ATOM     12  C   UNL     1       1.824  -0.633   0.034  1.00  0.00    -0.027 A 
ATOM     13  C   UNL     1       1.731  -2.045   0.183  1.00  0.00     0.006 A 
ATOM     14  C   UNL     1       0.658   0.136   0.178  1.00  0.00     0.045 A 
ATOM     15  C   UNL     1       0.574  -2.648   0.631  1.00  0.00     0.016 A 
ATOM     16  C   UNL     1      -0.377  -0.443   0.825  1.00  0.00     0.042 A 
BRANCH  14  17
ATOM     17  N   UNL     1       0.384   1.435  -0.252  1.00  0.00    -0.319 N 
ATOM     18  C   UNL     1      -0.894   2.095  -0.452  1.00  0.00     0.291 C 
ATOM     19  H   UNL     1       1.175   1.986  -0.450  1.00  0.00     0.170 HD
ATOM     20  O   UNL     1      -0.687   3.292  -0.752  1.00  0.00    -0.265 OA
BRANCH  18  21
ATOM     21  C   UNL     1      -2.534   1.499  -0.433  1.00  0.00     0.193 A 
ATOM     22  C   UNL     1      -3.945   1.586   0.785  1.00  0.00     0.057 A 
ATOM     23  O   UNL     1      -3.257   2.372  -1.897  1.00  0.00    -0.444 OA
ATOM     24  C   UNL     1      -5.430   2.814   0.025  1.00  0.00     0.059 A 
ATOM     25  C   UNL     1      -4.945   3.210  -1.773  1.00  0.00     0.170 A 
ATOM     26  Br  UNL     1      -3.907   4.670  -3.114  1.00  0.00    -0.008 Br
ENDBRANCH  18  21
ENDBRANCH  14  17
ENDBRANCH   8  10
ENDBRANCH   7   8
ENDBRANCH   6   7
ENDBRANCH   5   6
ENDBRANCH   4   5
ENDBRANCH   3   4
ENDBRANCH   2   3
ENDBRANCH   1   2
BRANCH   1  27
ATOM     27  C   UNL     1      -2.833   1.148  -3.647  1.00  0.00     0.188 C 
BRANCH  27  28
ATOM     28  C   UNL     1      -3.562   0.746  -4.846  1.00  0.00     0.188 C 
BRANCH  28  29
ATOM     29  O   UNL     1      -3.792  -0.621  -4.626  1.00  0.00    -0.376 OA
BRANCH  29  30
ATOM     30  C   UNL     1      -3.728  -1.445  -5.742  1.00  0.00     0.202 C 
BRANCH  30  31
ATOM     31  C   UNL     1      -4.268  -0.756  -6.983  1.00  0.00     0.261 C 
BRANCH  31  32
ATOM     32  O   UNL     1      -5.737  -0.705  -6.910  1.00  0.00    -0.460 OA
BRANCH  32  33
ATOM     33  C   UNL     1      -6.444   0.371  -6.433  1.00  0.00     0.338 C 
ATOM     34  O   UNL     1      -6.737   1.341  -7.117  1.00  0.00    -0.246 OA
BRANCH  33  35
ATOM     35  C   UNL     1      -6.867   0.279  -4.981  1.00  0.00     0.060 A 
ATOM     36  C   UNL     1      -7.343   1.376  -4.275  1.00  0.00     0.016 A 
ATOM     37  C   UNL     1      -6.414  -0.718  -4.174  1.00  0.00     0.016 A 
ATOM     38  C   UNL     1      -6.827   1.661  -2.964  1.00  0.00     0.010 A 
ATOM     39  C   UNL     1      -5.763  -0.320  -2.971  1.00  0.00     0.010 A 
ATOM     40  C   UNL     1      -5.699   1.003  -2.432  1.00  0.00    -0.014 A 
BRANCH  40  41
ATOM     41  C   UNL     1      -4.648   1.493  -0.966  1.00  0.00     0.031 A 
ATOM     42  C   UNL     1      -5.921   0.320  -0.019  1.00  0.00     0.074 A 
ATOM     43  C   UNL     1      -3.681   3.043  -0.326  1.00  0.00     0.049 A 
ATOM     44  N   UNL     1      -5.994  -0.067   1.246  1.00  0.00    -0.248 NA
ATOM     45  C   UNL     1      -7.089  -0.558  -0.609  1.00  0.00     0.031 C 
ATOM     46  C   UNL     1      -2.822   3.503   1.149  1.00  0.00     0.029 A 
ATOM     47  N   UNL     1      -3.702   4.581  -0.556  1.00  0.00    -0.354 N 
ATOM     48  C   UNL     1      -6.527  -1.446   1.389  1.00  0.00     0.074 A 
ATOM     49  C   UNL     1      -7.259  -1.639   0.187  1.00  0.00     0.031 C 
ATOM     50  C   UNL     1      -3.145   4.744   1.547  1.00  0.00     0.029 A 
ATOM     51  C   UNL     1      -4.117   5.257   0.596  1.00  0.00     0.049 A 
ATOM     52  H   UNL     1      -3.455   5.021  -1.401  1.00  0.00     0.167 HD
ATOM     53  C   UNL     1      -6.104  -2.283   2.444  1.00  0.00     0.037 A 
ATOM     54  C   UNL     1      -5.469   5.481   0.812  1.00  0.00     0.037 A 
ATOM     55  C   UNL     1      -5.448  -1.398   3.389  1.00  0.00     0.049 A 
ATOM     56  C   UNL     1      -5.750   4.727   2.208  1.00  0.00     0.074 A 
ATOM     57  C   UNL     1      -4.149  -1.244   3.828  1.00  0.00     0.029 A 
ATOM     58  N   UNL     1      -6.131  -0.256   3.754  1.00  0.00    -0.354 N 
ATOM     59  N   UNL     1      -5.969   3.439   2.450  1.00  0.00    -0.248 NA
ATOM     60  C   UNL     1      -5.342   5.430   3.441  1.00  0.00     0.031 C 
ATOM     61  C   UNL     1      -3.990   0.132   4.133  1.00  0.00     0.029 A 
ATOM     62  C   UNL     1      -5.232   0.752   4.020  1.00  0.00     0.049 A 
ATOM     63  H   UNL     1      -7.110  -0.174   3.816  1.00  0.00     0.167 HD
ATOM     64  C   UNL     1      -5.739   3.167   3.796  1.00  0.00     0.074 A 
ATOM     65  C   UNL     1      -5.287   4.436   4.336  1.00  0.00     0.031 C 
ATOM     66  C   UNL     1      -5.747   1.994   4.517  1.00  0.00     0.037 A 
BRANCH  53  67
ATOM     67  C   UNL     1      -5.922  -3.882   2.688  1.00  0.00     0.064 A 
ATOM     68  C   UNL     1      -5.090  -4.357   3.770  1.00  0.00     0.173 A 
ATOM     69  C   UNL     1      -6.391  -4.958   1.902  1.00  0.00     0.173 A 
ATOM     70  F   UNL     1      -4.674  -3.541   4.745  1.00  0.00    -0.203 F 
ATOM     71  C   UNL     1      -4.671  -5.694   3.964  1.00  0.00     0.198 A 
ATOM     72  C   UNL     1      -6.031  -6.330   2.151  1.00  0.00     0.198 A 
ATOM     73  F   UNL     1      -7.227  -4.737   0.879  1.00  0.00    -0.203 F 
ATOM     74  F   UNL     1      -3.820  -5.996   4.961  1.00  0.00    -0.200 F 
ATOM     75  C   UNL     1      -5.149  -6.690   3.157  1.00  0.00     0.200 A 
ATOM     76  F   UNL     1      -6.558  -7.315   1.404  1.00  0.00    -0.200 F 
ATOM     77  F   UNL     1      -4.801  -7.970   3.374  1.00  0.00    -0.200 F 
ENDBRANCH  53  67
BRANCH  54  78
ATOM     78  C   UNL     1      -6.441   5.568  -0.501  1.00  0.00     0.064 A 
ATOM     79  C   UNL     1      -6.092   6.225  -1.729  1.00  0.00     0.173 A 
ATOM     80  C   UNL     1      -7.611   4.801  -0.660  1.00  0.00     0.173 A 
ATOM     81  F   UNL     1      -5.149   7.180  -1.742  1.00  0.00    -0.203 F 
ATOM     82  C   UNL     1      -6.612   5.832  -3.018  1.00  0.00     0.198 A 
ATOM     83  C   UNL     1      -8.201   4.508  -1.928  1.00  0.00     0.198 A 
ATOM     84  F   UNL     1      -8.159   4.199   0.401  1.00  0.00    -0.203 F 
ATOM     85  F   UNL     1      -5.988   6.178  -4.165  1.00  0.00    -0.200 F 
ATOM     86  C   UNL     1      -7.617   4.909  -3.111  1.00  0.00     0.200 A 
ATOM     87  F   UNL     1      -9.261   3.686  -1.998  1.00  0.00    -0.200 F 
ATOM     88  F   UNL     1      -7.958   4.363  -4.292  1.00  0.00    -0.200 F 
ENDBRANCH  54  78
BRANCH  66  89
ATOM     89  C   UNL     1      -6.281   1.906   5.941  1.00  0.00     0.064 A 
ATOM     90  C   UNL     1      -7.057   2.929   6.488  1.00  0.00     0.173 A 
ATOM     91  C   UNL     1      -6.219   0.709   6.721  1.00  0.00     0.173 A 
ATOM     92  F   UNL     1      -7.359   4.030   5.788  1.00  0.00    -0.203 F 
ATOM     93  C   UNL     1      -7.607   2.831   7.760  1.00  0.00     0.198 A 
ATOM     94  C   UNL     1      -6.852   0.583   7.950  1.00  0.00     0.198 A 
ATOM     95  F   UNL     1      -5.592  -0.404   6.314  1.00  0.00    -0.203 F 
ATOM     96  F   UNL     1      -8.259   3.884   8.265  1.00  0.00    -0.200 F 
ATOM     97  C   UNL     1      -7.512   1.660   8.488  1.00  0.00     0.200 A 
ATOM     98  F   UNL     1      -6.831  -0.594   8.592  1.00  0.00    -0.200 F 
ATOM     99  F   UNL     1      -8.077   1.566   9.696  1.00  0.00    -0.200 F 
ENDBRANCH  66  89
ENDBRANCH  40  41
ENDBRANCH  33  35
ENDBRANCH  32  33
ENDBRANCH  31  32
ENDBRANCH  30  31
ENDBRANCH  29  30
ENDBRANCH  28  29
ENDBRANCH  27  28
ENDBRANCH   1  27
TORSDOF 22
