REMARK SMILES NS(=O)(=O)c1ccc(N2N=C(C(=O)OCCOCCOCCOCCOC(=O)c3ccc(-c4c5nc(c(-c6c(F)c(F)c(F)c(F)c6F)c6ccc([nH]6)c(-c6c(F)c(F)c(F)c(F)c6F)c6nc(c(-c7c(F)c(F)c(F)c(F)c7F)c7ccc4[nH]7)C=C6)C=C5)cc3)C[C@H]2c2cccs2)cc1
REMARK SMILES IDX 19 1 18 2 17 3 16 4 15 5 14 6 12 7 13 8 11 9 9 10 10 11
REMARK SMILES IDX 93 12 92 13 8 14 5 15 6 16 100 17 7 18 99 19 2 20 3 21 4 22
REMARK SMILES IDX 1 23 94 26 95 27 98 28 96 29 97 30 20 31 21 32 22 33 23 34
REMARK SMILES IDX 24 35 25 36 26 37 27 38 28 39 29 40 30 41 91 42 31 43 90 44
REMARK SMILES IDX 32 45 33 46 34 47 84 48 35 49 89 50 83 51 85 52 36 53 88 54
REMARK SMILES IDX 82 55 81 56 37 58 69 59 49 60 68 61 50 62 53 63 67 64 86 65
REMARK SMILES IDX 51 66 52 67 66 69 87 70 54 71 38 72 39 73 47 74 40 75 41 76
REMARK SMILES IDX 45 77 48 78 42 79 43 80 46 81 44 82 70 83 71 84 79 85 72 86
REMARK SMILES IDX 73 87 77 88 80 89 74 90 75 91 78 92 76 93 55 94 56 95 64 96
REMARK SMILES IDX 57 97 58 98 62 99 65 100 59 101 60 102 63 103 61 104
REMARK H PARENT 1 24 1 25 85 57 53 68
REMARK Flexibility Score: inf
ROOT
ATOM      1  C   UNL     1       4.808   7.475  -6.132  1.00  0.00     0.188 C 
ENDROOT
BRANCH   1   2
ATOM      2  C   UNL     1       3.861   7.189  -7.311  1.00  0.00     0.188 C 
BRANCH   2   3
ATOM      3  O   UNL     1       3.906   8.160  -8.338  1.00  0.00    -0.376 OA
BRANCH   3   4
ATOM      4  C   UNL     1       3.079   9.311  -8.335  1.00  0.00     0.202 C 
BRANCH   4   5
ATOM      5  C   UNL     1       2.458   9.975  -7.090  1.00  0.00     0.261 C 
BRANCH   5   6
ATOM      6  O   UNL     1       2.488   9.231  -5.877  1.00  0.00    -0.459 OA
BRANCH   6   7
ATOM      7  C   UNL     1       1.405   8.493  -5.591  1.00  0.00     0.354 C 
ATOM      8  O   UNL     1       0.350   8.447  -6.190  1.00  0.00    -0.245 OA
BRANCH   7   9
ATOM      9  C   UNL     1       1.768   7.574  -4.454  1.00  0.00     0.148 C 
ATOM     10  N   UNL     1       1.951   5.828  -3.276  1.00  0.00    -0.256 N 
ATOM     11  N   UNL     1       1.521   6.299  -4.484  1.00  0.00    -0.169 NA
ATOM     12  C   UNL     1       2.149   6.928  -2.305  1.00  0.00     0.154 C 
ATOM     13  C   UNL     1       2.532   8.067  -3.261  1.00  0.00     0.099 C 
BRANCH  10  14
ATOM     14  C   UNL     1       1.621   4.525  -2.931  1.00  0.00     0.060 A 
ATOM     15  C   UNL     1       0.987   1.881  -2.218  1.00  0.00     0.082 A 
ATOM     16  C   UNL     1       2.247   2.173  -2.743  1.00  0.00     0.024 A 
ATOM     17  C   UNL     1       0.024   2.881  -2.096  1.00  0.00     0.024 A 
ATOM     18  C   UNL     1       2.559   3.494  -3.089  1.00  0.00     0.029 A 
ATOM     19  C   UNL     1       0.341   4.188  -2.471  1.00  0.00     0.029 A 
BRANCH  15  20
ATOM     20  S   UNL     1       0.580   0.220  -1.769  1.00  0.00     0.238 S 
ATOM     21  O   UNL     1       1.370  -0.697  -2.565  1.00  0.00    -0.207 OA
ATOM     22  O   UNL     1      -0.847   0.091  -1.627  1.00  0.00    -0.207 OA
BRANCH  20  23
ATOM     23  N   UNL     1       1.202   0.121  -0.210  1.00  0.00    -0.225 NA
ATOM     24  H   UNL     1       1.026  -0.810   0.168  1.00  0.00     0.137 HD
ATOM     25  H   UNL     1       0.749   0.819   0.382  1.00  0.00     0.137 HD
ENDBRANCH  20  23
ENDBRANCH  15  20
ENDBRANCH  10  14
BRANCH  12  26
ATOM     26  C   UNL     1       0.963   7.274  -1.408  1.00  0.00     0.030 A 
ATOM     27  C   UNL     1       0.559   6.600  -0.266  1.00  0.00     0.017 A 
ATOM     28  S   UNL     1      -0.100   8.590  -1.732  1.00  0.00    -0.147 S 
ATOM     29  C   UNL     1      -0.630   7.140   0.304  1.00  0.00     0.012 A 
ATOM     30  C   UNL     1      -1.071   8.248  -0.378  1.00  0.00     0.065 A 
ENDBRANCH  12  26
ENDBRANCH   7   9
ENDBRANCH   6   7
ENDBRANCH   5   6
ENDBRANCH   4   5
ENDBRANCH   3   4
ENDBRANCH   2   3
ENDBRANCH   1   2
BRANCH   1  31
ATOM     31  O   UNL     1       5.130   8.847  -5.957  1.00  0.00    -0.377 OA
BRANCH  31  32
ATOM     32  C   UNL     1       6.148   9.418  -6.782  1.00  0.00     0.188 C 
BRANCH  32  33
ATOM     33  C   UNL     1       6.665   8.720  -8.064  1.00  0.00     0.188 C 
BRANCH  33  34
ATOM     34  O   UNL     1       6.692   7.305  -8.001  1.00  0.00    -0.376 OA
BRANCH  34  35
ATOM     35  C   UNL     1       7.927   6.645  -7.786  1.00  0.00     0.202 C 
BRANCH  35  36
ATOM     36  C   UNL     1       8.646   6.903  -6.454  1.00  0.00     0.261 C 
BRANCH  36  37
ATOM     37  O   UNL     1       8.896   8.278  -6.129  1.00  0.00    -0.460 OA
BRANCH  37  38
ATOM     38  C   UNL     1       9.731   8.959  -6.942  1.00  0.00     0.338 C 
ATOM     39  O   UNL     1      10.327   8.533  -7.913  1.00  0.00    -0.246 OA
BRANCH  38  40
ATOM     40  C   UNL     1       9.668  10.385  -6.560  1.00  0.00     0.060 A 
ATOM     41  C   UNL     1       9.264  11.325  -7.516  1.00  0.00     0.016 A 
ATOM     42  C   UNL     1      10.028  10.792  -5.273  1.00  0.00     0.016 A 
ATOM     43  C   UNL     1       9.274  12.685  -7.205  1.00  0.00     0.010 A 
ATOM     44  C   UNL     1      10.055  12.155  -4.968  1.00  0.00     0.010 A 
ATOM     45  C   UNL     1       9.724  13.109  -5.948  1.00  0.00    -0.014 A 
BRANCH  45  46
ATOM     46  C   UNL     1      10.073  14.536  -5.740  1.00  0.00     0.031 A 
ATOM     47  C   UNL     1      11.521  14.933  -5.850  1.00  0.00     0.074 A 
ATOM     48  C   UNL     1       9.135  15.465  -5.492  1.00  0.00     0.049 A 
ATOM     49  N   UNL     1      12.085  16.099  -5.664  1.00  0.00    -0.248 NA
ATOM     50  C   UNL     1      12.463  13.863  -6.217  1.00  0.00     0.031 C 
ATOM     51  C   UNL     1       7.698  15.216  -5.410  1.00  0.00     0.029 A 
ATOM     52  N   UNL     1       9.259  16.812  -5.257  1.00  0.00    -0.354 N 
ATOM     53  C   UNL     1      13.442  15.899  -5.881  1.00  0.00     0.074 A 
ATOM     54  C   UNL     1      13.625  14.495  -6.174  1.00  0.00     0.031 C 
ATOM     55  C   UNL     1       7.072  16.373  -5.132  1.00  0.00     0.029 A 
ATOM     56  C   UNL     1       8.066  17.434  -4.981  1.00  0.00     0.049 A 
ATOM     57  H   UNL     1      10.121  17.287  -5.283  1.00  0.00     0.167 HD
ATOM     58  C   UNL     1      14.446  16.807  -5.850  1.00  0.00     0.037 A 
ATOM     59  C   UNL     1       7.816  18.710  -4.623  1.00  0.00     0.037 A 
ATOM     60  C   UNL     1      14.261  18.204  -5.559  1.00  0.00     0.049 A 
ATOM     61  C   UNL     1       8.962  19.686  -4.515  1.00  0.00     0.074 A 
ATOM     62  C   UNL     1      15.210  19.209  -5.516  1.00  0.00     0.029 A 
ATOM     63  N   UNL     1      13.042  18.790  -5.251  1.00  0.00    -0.354 N 
ATOM     64  N   UNL     1      10.240  19.497  -4.742  1.00  0.00    -0.248 NA
ATOM     65  C   UNL     1       8.627  21.058  -4.104  1.00  0.00     0.031 C 
ATOM     66  C   UNL     1      14.576  20.390  -5.117  1.00  0.00     0.029 A 
ATOM     67  C   UNL     1      13.220  20.139  -4.986  1.00  0.00     0.049 A 
ATOM     68  H   UNL     1      12.178  18.318  -5.224  1.00  0.00     0.167 HD
ATOM     69  C   UNL     1      10.853  20.729  -4.541  1.00  0.00     0.074 A 
ATOM     70  C   UNL     1       9.805  21.661  -4.184  1.00  0.00     0.031 C 
ATOM     71  C   UNL     1      12.164  21.059  -4.646  1.00  0.00     0.037 A 
BRANCH  58  72
ATOM     72  C   UNL     1      15.841  16.310  -6.106  1.00  0.00     0.064 A 
ATOM     73  C   UNL     1      16.247  15.854  -7.369  1.00  0.00     0.173 A 
ATOM     74  C   UNL     1      16.792  16.312  -5.074  1.00  0.00     0.173 A 
ATOM     75  F   UNL     1      15.373  15.815  -8.387  1.00  0.00    -0.203 F 
ATOM     76  C   UNL     1      17.543  15.390  -7.582  1.00  0.00     0.198 A 
ATOM     77  C   UNL     1      18.097  15.882  -5.300  1.00  0.00     0.198 A 
ATOM     78  F   UNL     1      16.459  16.739  -3.847  1.00  0.00    -0.203 F 
ATOM     79  F   UNL     1      17.891  14.906  -8.783  1.00  0.00    -0.200 F 
ATOM     80  C   UNL     1      18.469  15.413  -6.550  1.00  0.00     0.200 A 
ATOM     81  F   UNL     1      18.994  15.919  -4.304  1.00  0.00    -0.200 F 
ATOM     82  F   UNL     1      19.718  14.974  -6.758  1.00  0.00    -0.200 F 
ENDBRANCH  58  72
BRANCH  59  83
ATOM     83  C   UNL     1       6.423  19.143  -4.326  1.00  0.00     0.064 A 
ATOM     84  C   UNL     1       5.767  20.082  -5.135  1.00  0.00     0.173 A 
ATOM     85  C   UNL     1       5.732  18.654  -3.208  1.00  0.00     0.173 A 
ATOM     86  F   UNL     1       6.394  20.601  -6.202  1.00  0.00    -0.203 F 
ATOM     87  C   UNL     1       4.486  20.533  -4.823  1.00  0.00     0.198 A 
ATOM     88  C   UNL     1       4.437  19.080  -2.916  1.00  0.00     0.198 A 
ATOM     89  F   UNL     1       6.312  17.756  -2.398  1.00  0.00    -0.203 F 
ATOM     90  F   UNL     1       3.906  21.474  -5.581  1.00  0.00    -0.200 F 
ATOM     91  C   UNL     1       3.820  20.027  -3.717  1.00  0.00     0.200 A 
ATOM     92  F   UNL     1       3.793  18.578  -1.854  1.00  0.00    -0.200 F 
ATOM     93  F   UNL     1       2.587  20.460  -3.418  1.00  0.00    -0.200 F 
ENDBRANCH  59  83
BRANCH  71  94
ATOM     94  C   UNL     1      12.540  22.500  -4.429  1.00  0.00     0.064 A 
ATOM     95  C   UNL     1      12.471  23.105  -3.166  1.00  0.00     0.173 A 
ATOM     96  C   UNL     1      13.019  23.272  -5.500  1.00  0.00     0.173 A 
ATOM     97  F   UNL     1      12.010  22.416  -2.111  1.00  0.00    -0.203 F 
ATOM     98  C   UNL     1      12.837  24.438  -2.989  1.00  0.00     0.198 A 
ATOM     99  C   UNL     1      13.421  24.592  -5.311  1.00  0.00     0.198 A 
ATOM    100  F   UNL     1      13.116  22.741  -6.728  1.00  0.00    -0.203 F 
ATOM    101  F   UNL     1      12.710  25.011  -1.784  1.00  0.00    -0.200 F 
ATOM    102  C   UNL     1      13.319  25.177  -4.059  1.00  0.00     0.200 A 
ATOM    103  F   UNL     1      13.905  25.297  -6.343  1.00  0.00    -0.200 F 
ATOM    104  F   UNL     1      13.681  26.455  -3.884  1.00  0.00    -0.200 F 
ENDBRANCH  71  94
ENDBRANCH  45  46
ENDBRANCH  38  40
ENDBRANCH  37  38
ENDBRANCH  36  37
ENDBRANCH  35  36
ENDBRANCH  34  35
ENDBRANCH  33  34
ENDBRANCH  32  33
ENDBRANCH  31  32
ENDBRANCH   1  31
TORSDOF 24
