REMARK SMILES CC/C(=C/C(=O)[C@H](Cc1ccc(Cl)cc1Cl)C(=O)OCCOCCOCCOCCOC(=O)c1ccc(-c2c3nc(c(-c4c(F)c(F)c(F)c(F)c4F)c4ccc([nH]4)c(-c4c(F)c(F)c(F)c(F)c4F)c4nc(c(-c5c(F)c(F)c(F)c(F)c5F)c5ccc2[nH]5)C=C4)C=C3)cc1)N(C)C
REMARK SMILES IDX 24 1 23 2 22 3 21 4 20 5 19 6 17 7 18 8 7 9 5 10 6 11 4 12
REMARK SMILES IDX 3 13 2 14 1 15 97 16 98 17 99 18 8 19 9 20 10 21 15 22 11 23
REMARK SMILES IDX 14 24 16 25 12 26 13 27 25 28 26 29 27 30 28 31 29 32 30 33
REMARK SMILES IDX 31 34 32 35 33 36 34 37 35 38 96 39 36 40 95 41 37 42 38 43
REMARK SMILES IDX 39 44 89 45 40 46 94 47 88 48 90 49 41 50 93 51 87 52 86 53
REMARK SMILES IDX 42 55 74 56 54 57 73 58 55 59 58 60 72 61 91 62 56 63 57 64
REMARK SMILES IDX 71 66 92 67 59 68 43 69 44 70 52 71 45 72 46 73 50 74 53 75
REMARK SMILES IDX 47 76 48 77 51 78 49 79 75 80 76 81 84 82 77 83 78 84 82 85
REMARK SMILES IDX 85 86 79 87 80 88 83 89 81 90 60 91 61 92 69 93 62 94 63 95
REMARK SMILES IDX 67 96 70 97 64 98 65 99 68 100 66 101
REMARK H PARENT 90 54 58 65
REMARK Flexibility Score: inf
ROOT
ATOM      1  C   UNL     1       1.698   1.692   6.060  1.00  0.00     0.188 C 
ENDROOT
BRANCH   1   2
ATOM      2  C   UNL     1       3.062   1.049   5.892  1.00  0.00     0.188 C 
BRANCH   2   3
ATOM      3  O   UNL     1       4.016   1.822   5.186  1.00  0.00    -0.376 OA
BRANCH   3   4
ATOM      4  C   UNL     1       4.242   1.522   3.817  1.00  0.00     0.202 C 
BRANCH   4   5
ATOM      5  C   UNL     1       4.540   0.073   3.386  1.00  0.00     0.261 C 
BRANCH   5   6
ATOM      6  O   UNL     1       3.538  -0.918   3.757  1.00  0.00    -0.463 OA
BRANCH   6   7
ATOM      7  C   UNL     1       3.851  -2.132   4.312  1.00  0.00     0.317 C 
ATOM      8  O   UNL     1       4.940  -2.342   4.833  1.00  0.00    -0.251 OA
BRANCH   7   9
ATOM      9  C   UNL     1       2.682  -3.164   4.295  1.00  0.00     0.175 C 
BRANCH   9  10
ATOM     10  C   UNL     1       2.483  -4.217   3.153  1.00  0.00     0.171 C 
ATOM     11  O   UNL     1       3.182  -5.237   3.132  1.00  0.00    -0.294 OA
BRANCH  10  12
ATOM     12  C   UNL     1       1.297  -4.122   2.001  1.00  0.00     0.069 C 
ATOM     13  C   UNL     1       0.397  -3.127   1.331  1.00  0.00     0.016 C 
BRANCH  13  14
ATOM     14  C   UNL     1      -0.328  -4.238   0.188  1.00  0.00     0.050 C 
ATOM     15  C   UNL     1      -1.627  -4.981   0.544  1.00  0.00     0.010 C 
ENDBRANCH  13  14
BRANCH  13  16
ATOM     16  N   UNL     1       0.143  -1.157   1.562  1.00  0.00    -0.381 N 
ATOM     17  C   UNL     1      -0.992   0.053   1.093  1.00  0.00     0.143 C 
ATOM     18  C   UNL     1       0.815   0.019   2.591  1.00  0.00     0.143 C 
ENDBRANCH  13  16
ENDBRANCH  10  12
ENDBRANCH   9  10
BRANCH   9  19
ATOM     19  C   UNL     1       1.350  -2.533   4.490  1.00  0.00     0.060 C 
BRANCH  19  20
ATOM     20  C   UNL     1       0.900  -2.181   3.112  1.00  0.00    -0.028 A 
ATOM     21  C   UNL     1      -0.905  -2.361   2.834  1.00  0.00     0.007 A 
ATOM     22  C   UNL     1       2.029  -1.849   1.624  1.00  0.00     0.045 A 
ATOM     23  C   UNL     1      -1.558  -2.220   1.145  1.00  0.00     0.021 A 
ATOM     24  C   UNL     1       1.328  -1.679  -0.029  1.00  0.00     0.041 A 
ATOM     25  Cl  UNL     1       3.740  -2.242   1.366  1.00  0.00    -0.084 Cl
ATOM     26  C   UNL     1      -0.433  -1.850  -0.263  1.00  0.00     0.042 A 
ATOM     27  Cl  UNL     1      -1.059  -1.535  -1.856  1.00  0.00    -0.084 Cl
ENDBRANCH  19  20
ENDBRANCH   9  19
ENDBRANCH   7   9
ENDBRANCH   6   7
ENDBRANCH   5   6
ENDBRANCH   4   5
ENDBRANCH   3   4
ENDBRANCH   2   3
ENDBRANCH   1   2
BRANCH   1  28
ATOM     28  O   UNL     1       0.888   1.641   4.894  1.00  0.00    -0.377 OA
BRANCH  28  29
ATOM     29  C   UNL     1       0.850   2.784   4.054  1.00  0.00     0.188 C 
BRANCH  29  30
ATOM     30  C   UNL     1       0.591   4.144   4.689  1.00  0.00     0.188 C 
BRANCH  30  31
ATOM     31  O   UNL     1      -0.364   4.318   5.724  1.00  0.00    -0.376 OA
BRANCH  31  32
ATOM     32  C   UNL     1      -1.202   3.262   6.153  1.00  0.00     0.202 C 
BRANCH  32  33
ATOM     33  C   UNL     1      -2.401   2.881   5.280  1.00  0.00     0.261 C 
BRANCH  33  34
ATOM     34  O   UNL     1      -2.176   2.884   3.869  1.00  0.00    -0.460 OA
BRANCH  34  35
ATOM     35  C   UNL     1      -2.350   4.090   3.283  1.00  0.00     0.338 C 
ATOM     36  O   UNL     1      -2.601   5.158   3.808  1.00  0.00    -0.246 OA
BRANCH  35  37
ATOM     37  C   UNL     1      -2.172   3.932   1.836  1.00  0.00     0.060 A 
ATOM     38  C   UNL     1      -1.080   4.535   1.202  1.00  0.00     0.016 A 
ATOM     39  C   UNL     1      -3.168   3.287   1.101  1.00  0.00     0.016 A 
ATOM     40  C   UNL     1      -1.009   4.539  -0.187  1.00  0.00     0.010 A 
ATOM     41  C   UNL     1      -3.096   3.293  -0.288  1.00  0.00     0.010 A 
ATOM     42  C   UNL     1      -2.040   3.957  -0.937  1.00  0.00    -0.014 A 
BRANCH  42  43
ATOM     43  C   UNL     1      -2.105   4.167  -2.399  1.00  0.00     0.031 A 
ATOM     44  C   UNL     1      -3.103   5.147  -2.947  1.00  0.00     0.074 A 
ATOM     45  C   UNL     1      -1.293   3.480  -3.218  1.00  0.00     0.049 A 
ATOM     46  N   UNL     1      -3.417   5.406  -4.190  1.00  0.00    -0.248 NA
ATOM     47  C   UNL     1      -3.857   5.935  -1.958  1.00  0.00     0.031 C 
ATOM     48  C   UNL     1      -0.263   2.538  -2.787  1.00  0.00     0.029 A 
ATOM     49  N   UNL     1      -1.226   3.457  -4.586  1.00  0.00    -0.354 N 
ATOM     50  C   UNL     1      -4.413   6.372  -4.133  1.00  0.00     0.074 A 
ATOM     51  C   UNL     1      -4.677   6.627  -2.734  1.00  0.00     0.031 C 
ATOM     52  C   UNL     1       0.326   2.013  -3.873  1.00  0.00     0.029 A 
ATOM     53  C   UNL     1      -0.321   2.546  -5.070  1.00  0.00     0.049 A 
ATOM     54  H   UNL     1      -1.772   4.037  -5.165  1.00  0.00     0.167 HD
ATOM     55  C   UNL     1      -5.043   6.990  -5.160  1.00  0.00     0.037 A 
ATOM     56  C   UNL     1      -0.076   2.162  -6.337  1.00  0.00     0.037 A 
ATOM     57  C   UNL     1      -4.771   6.716  -6.547  1.00  0.00     0.049 A 
ATOM     58  C   UNL     1      -0.856   2.799  -7.458  1.00  0.00     0.074 A 
ATOM     59  C   UNL     1      -5.337   7.298  -7.668  1.00  0.00     0.029 A 
ATOM     60  N   UNL     1      -3.865   5.768  -7.003  1.00  0.00    -0.354 N 
ATOM     61  N   UNL     1      -1.778   3.731  -7.404  1.00  0.00    -0.248 NA
ATOM     62  C   UNL     1      -0.558   2.332  -8.819  1.00  0.00     0.031 C 
ATOM     63  C   UNL     1      -4.833   6.647  -8.797  1.00  0.00     0.029 A 
ATOM     64  C   UNL     1      -3.886   5.722  -8.387  1.00  0.00     0.049 A 
ATOM     65  H   UNL     1      -3.293   5.212  -6.427  1.00  0.00     0.167 HD
ATOM     66  C   UNL     1      -2.142   3.987  -8.721  1.00  0.00     0.074 A 
ATOM     67  C   UNL     1      -1.330   3.122  -9.551  1.00  0.00     0.031 C 
ATOM     68  C   UNL     1      -3.063   4.860  -9.200  1.00  0.00     0.037 A 
BRANCH  55  69
ATOM     69  C   UNL     1      -6.112   7.992  -4.824  1.00  0.00     0.064 A 
ATOM     70  C   UNL     1      -5.817   9.214  -4.200  1.00  0.00     0.173 A 
ATOM     71  C   UNL     1      -7.450   7.738  -5.161  1.00  0.00     0.173 A 
ATOM     72  F   UNL     1      -4.556   9.506  -3.846  1.00  0.00    -0.203 F 
ATOM     73  C   UNL     1      -6.825  10.127  -3.896  1.00  0.00     0.198 A 
ATOM     74  C   UNL     1      -8.450   8.669  -4.891  1.00  0.00     0.198 A 
ATOM     75  F   UNL     1      -7.791   6.589  -5.763  1.00  0.00    -0.203 F 
ATOM     76  F   UNL     1      -6.526  11.260  -3.246  1.00  0.00    -0.200 F 
ATOM     77  C   UNL     1      -8.138   9.857  -4.249  1.00  0.00     0.200 A 
ATOM     78  F   UNL     1      -9.715   8.415  -5.251  1.00  0.00    -0.200 F 
ATOM     79  F   UNL     1      -9.105  10.740  -3.964  1.00  0.00    -0.200 F 
ENDBRANCH  55  69
BRANCH  56  80
ATOM     80  C   UNL     1       0.939   1.112  -6.612  1.00  0.00     0.064 A 
ATOM     81  C   UNL     1       2.110   1.409  -7.323  1.00  0.00     0.173 A 
ATOM     82  C   UNL     1       0.754  -0.213  -6.187  1.00  0.00     0.173 A 
ATOM     83  F   UNL     1       2.324   2.656  -7.768  1.00  0.00    -0.203 F 
ATOM     84  C   UNL     1       3.041   0.417  -7.625  1.00  0.00     0.198 A 
ATOM     85  C   UNL     1       1.704  -1.196  -6.455  1.00  0.00     0.198 A 
ATOM     86  F   UNL     1      -0.348  -0.552  -5.503  1.00  0.00    -0.203 F 
ATOM     87  F   UNL     1       4.120   0.718  -8.359  1.00  0.00    -0.200 F 
ATOM     88  C   UNL     1       2.841  -0.882  -7.185  1.00  0.00     0.200 A 
ATOM     89  F   UNL     1       1.516  -2.446  -6.013  1.00  0.00    -0.200 F 
ATOM     90  F   UNL     1       3.738  -1.835  -7.473  1.00  0.00    -0.200 F 
ENDBRANCH  56  80
BRANCH  68  91
ATOM     91  C   UNL     1      -3.208   4.968 -10.693  1.00  0.00     0.064 A 
ATOM     92  C   UNL     1      -3.746   3.929 -11.466  1.00  0.00     0.173 A 
ATOM     93  C   UNL     1      -2.844   6.153 -11.353  1.00  0.00     0.173 A 
ATOM     94  F   UNL     1      -4.100   2.770 -10.889  1.00  0.00    -0.203 F 
ATOM     95  C   UNL     1      -3.885   4.060 -12.846  1.00  0.00     0.198 A 
ATOM     96  C   UNL     1      -3.025   6.296 -12.726  1.00  0.00     0.198 A 
ATOM     97  F   UNL     1      -2.333   7.184 -10.663  1.00  0.00    -0.203 F 
ATOM     98  F   UNL     1      -4.347   3.031 -13.571  1.00  0.00    -0.200 F 
ATOM     99  C   UNL     1      -3.534   5.246 -13.472  1.00  0.00     0.200 A 
ATOM    100  F   UNL     1      -2.707   7.452 -13.324  1.00  0.00    -0.200 F 
ATOM    101  F   UNL     1      -3.682   5.375 -14.798  1.00  0.00    -0.200 F 
ENDBRANCH  68  91
ENDBRANCH  42  43
ENDBRANCH  35  37
ENDBRANCH  34  35
ENDBRANCH  33  34
ENDBRANCH  32  33
ENDBRANCH  31  32
ENDBRANCH  30  31
ENDBRANCH  29  30
ENDBRANCH  28  29
ENDBRANCH   1  28
TORSDOF 26
