REMARK SMILES CCOC[C@@H](O)C[C@]1(C(=O)OCCOCCOCCOCCOC(=O)c2ccc(-c3c4nc(c(-c5c(F)c(F)c(F)c(F)c5F)c5ccc([nH]5)c(-c5c(F)c(F)c(F)c(F)c5F)c5nc(c(-c6c(F)c(F)c(F)c(F)c6F)c6ccc3[nH]6)C=C5)C=C4)cc2)CCc2ccccc21
REMARK SMILES IDX 15 1 14 2 13 3 12 4 11 5 9 6 10 7 8 8 89 9 96 10 90 11 91 12
REMARK SMILES IDX 95 13 92 14 94 15 93 16 7 17 5 18 4 19 3 20 2 21 1 22 6 23
REMARK SMILES IDX 16 25 17 26 18 27 19 28 20 29 21 30 22 31 23 32 24 33 25 34
REMARK SMILES IDX 26 35 27 36 88 37 28 38 87 39 29 40 30 41 31 42 81 43 32 44
REMARK SMILES IDX 86 45 80 46 82 47 33 48 85 49 79 50 78 51 34 53 66 54 46 55
REMARK SMILES IDX 65 56 47 57 50 58 64 59 83 60 48 61 49 62 63 64 84 65 51 66
REMARK SMILES IDX 35 67 36 68 44 69 37 70 38 71 42 72 45 73 39 74 40 75 43 76
REMARK SMILES IDX 41 77 67 78 68 79 76 80 69 81 70 82 74 83 77 84 71 85 72 86
REMARK SMILES IDX 75 87 73 88 52 89 53 90 61 91 54 92 55 93 59 94 62 95 56 96
REMARK SMILES IDX 57 97 60 98 58 99
REMARK H PARENT 6 24 82 52 50 63
REMARK Flexibility Score: inf
ROOT
ATOM      1  C   UNL     1       6.249   3.194  -4.529  1.00  0.00     0.188 C 
ENDROOT
BRANCH   1   2
ATOM      2  O   UNL     1       7.492   3.430  -5.150  1.00  0.00    -0.376 OA
BRANCH   2   3
ATOM      3  C   UNL     1       8.406   2.380  -5.421  1.00  0.00     0.202 C 
BRANCH   3   4
ATOM      4  C   UNL     1       8.261   0.893  -5.033  1.00  0.00     0.261 C 
BRANCH   4   5
ATOM      5  O   UNL     1       6.946   0.358  -4.856  1.00  0.00    -0.463 OA
BRANCH   5   6
ATOM      6  C   UNL     1       6.597   0.089  -3.574  1.00  0.00     0.316 C 
ATOM      7  O   UNL     1       7.333   0.316  -2.615  1.00  0.00    -0.251 OA
BRANCH   6   8
ATOM      8  C   UNL     1       5.154  -0.452  -3.399  1.00  0.00     0.096 C 
ATOM      9  C   UNL     1       4.347  -0.723  -4.707  1.00  0.00     0.028 C 
ATOM     10  C   UNL     1       5.281  -1.861  -2.857  1.00  0.00    -0.027 A 
ATOM     11  C   UNL     1       4.506  -2.196  -5.097  1.00  0.00     0.037 C 
ATOM     12  C   UNL     1       4.935  -2.818  -3.815  1.00  0.00    -0.044 A 
ATOM     13  C   UNL     1       5.832  -2.247  -1.642  1.00  0.00     0.005 A 
ATOM     14  C   UNL     1       5.106  -4.170  -3.570  1.00  0.00     0.004 A 
ATOM     15  C   UNL     1       6.028  -3.603  -1.395  1.00  0.00     0.000 A 
ATOM     16  C   UNL     1       5.660  -4.559  -2.350  1.00  0.00     0.000 A 
BRANCH   8  17
ATOM     17  C   UNL     1       4.476   0.547  -2.411  1.00  0.00     0.057 C 
BRANCH  17  18
ATOM     18  C   UNL     1       2.954   0.716  -2.370  1.00  0.00     0.141 C 
BRANCH  18  19
ATOM     19  C   UNL     1       2.217  -0.548  -1.909  1.00  0.00     0.191 C 
BRANCH  19  20
ATOM     20  O   UNL     1       0.792  -0.429  -1.958  1.00  0.00    -0.379 OA
BRANCH  20  21
ATOM     21  C   UNL     1       0.161   0.327  -0.927  1.00  0.00     0.157 C 
ATOM     22  C   UNL     1       0.586  -0.036   0.485  1.00  0.00     0.035 C 
ENDBRANCH  20  21
ENDBRANCH  19  20
ENDBRANCH  18  19
BRANCH  18  23
ATOM     23  O   UNL     1       2.729   1.794  -1.445  1.00  0.00    -0.391 OA
ATOM     24  H   UNL     1       3.095   1.559  -0.578  1.00  0.00     0.211 HD
ENDBRANCH  18  23
ENDBRANCH  17  18
ENDBRANCH   8  17
ENDBRANCH   6   8
ENDBRANCH   5   6
ENDBRANCH   4   5
ENDBRANCH   3   4
ENDBRANCH   2   3
ENDBRANCH   1   2
BRANCH   1  25
ATOM     25  C   UNL     1       5.133   2.600  -5.398  1.00  0.00     0.188 C 
BRANCH  25  26
ATOM     26  O   UNL     1       5.554   1.837  -6.511  1.00  0.00    -0.377 OA
BRANCH  26  27
ATOM     27  C   UNL     1       5.994   2.492  -7.690  1.00  0.00     0.188 C 
BRANCH  27  28
ATOM     28  C   UNL     1       6.106   4.027  -7.753  1.00  0.00     0.188 C 
BRANCH  28  29
ATOM     29  O   UNL     1       5.103   4.725  -7.037  1.00  0.00    -0.376 OA
BRANCH  29  30
ATOM     30  C   UNL     1       3.946   5.160  -7.733  1.00  0.00     0.202 C 
BRANCH  30  31
ATOM     31  C   UNL     1       3.051   4.093  -8.384  1.00  0.00     0.261 C 
BRANCH  31  32
ATOM     32  O   UNL     1       3.650   3.269  -9.399  1.00  0.00    -0.460 OA
BRANCH  32  33
ATOM     33  C   UNL     1       4.241   3.859 -10.459  1.00  0.00     0.338 C 
ATOM     34  O   UNL     1       4.287   5.049 -10.716  1.00  0.00    -0.246 OA
BRANCH  33  35
ATOM     35  C   UNL     1       5.006   2.812 -11.171  1.00  0.00     0.060 A 
ATOM     36  C   UNL     1       6.405   2.898 -11.228  1.00  0.00     0.016 A 
ATOM     37  C   UNL     1       4.345   1.726 -11.745  1.00  0.00     0.016 A 
ATOM     38  C   UNL     1       7.145   1.895 -11.861  1.00  0.00     0.010 A 
ATOM     39  C   UNL     1       5.084   0.740 -12.405  1.00  0.00     0.010 A 
ATOM     40  C   UNL     1       6.486   0.825 -12.479  1.00  0.00    -0.014 A 
BRANCH  40  41
ATOM     41  C   UNL     1       7.233  -0.138 -13.326  1.00  0.00     0.031 A 
ATOM     42  C   UNL     1       7.224   0.060 -14.816  1.00  0.00     0.074 A 
ATOM     43  C   UNL     1       7.889  -1.182 -12.786  1.00  0.00     0.049 A 
ATOM     44  N   UNL     1       7.668  -0.726 -15.762  1.00  0.00    -0.248 NA
ATOM     45  C   UNL     1       6.633   1.317 -15.303  1.00  0.00     0.031 C 
ATOM     46  C   UNL     1       8.022  -1.451 -11.357  1.00  0.00     0.029 A 
ATOM     47  N   UNL     1       8.548  -2.227 -13.388  1.00  0.00    -0.354 N 
ATOM     48  C   UNL     1       7.409  -0.062 -16.954  1.00  0.00     0.074 A 
ATOM     49  C   UNL     1       6.745   1.178 -16.616  1.00  0.00     0.031 C 
ATOM     50  C   UNL     1       8.692  -2.606 -11.191  1.00  0.00     0.029 A 
ATOM     51  C   UNL     1       8.992  -3.179 -12.502  1.00  0.00     0.049 A 
ATOM     52  H   UNL     1       8.688  -2.288 -14.361  1.00  0.00     0.167 HD
ATOM     53  C   UNL     1       7.708  -0.449 -18.216  1.00  0.00     0.037 A 
ATOM     54  C   UNL     1       9.534  -4.393 -12.729  1.00  0.00     0.037 A 
ATOM     55  C   UNL     1       8.361  -1.687 -18.550  1.00  0.00     0.049 A 
ATOM     56  C   UNL     1       9.741  -4.855 -14.153  1.00  0.00     0.074 A 
ATOM     57  C   UNL     1       8.705  -2.170 -19.801  1.00  0.00     0.029 A 
ATOM     58  N   UNL     1       8.763  -2.641 -17.628  1.00  0.00    -0.354 N 
ATOM     59  N   UNL     1       9.512  -4.217 -15.276  1.00  0.00    -0.248 NA
ATOM     60  C   UNL     1      10.274  -6.214 -14.342  1.00  0.00     0.031 C 
ATOM     61  C   UNL     1       9.266  -3.440 -19.640  1.00  0.00     0.029 A 
ATOM     62  C   UNL     1       9.322  -3.725 -18.285  1.00  0.00     0.049 A 
ATOM     63  H   UNL     1       8.666  -2.560 -16.652  1.00  0.00     0.167 HD
ATOM     64  C   UNL     1       9.897  -5.081 -16.294  1.00  0.00     0.074 A 
ATOM     65  C   UNL     1      10.397  -6.280 -15.659  1.00  0.00     0.031 C 
ATOM     66  C   UNL     1       9.832  -4.904 -17.637  1.00  0.00     0.037 A 
BRANCH  53  67
ATOM     67  C   UNL     1       7.325   0.466 -19.340  1.00  0.00     0.064 A 
ATOM     68  C   UNL     1       8.010   1.667 -19.573  1.00  0.00     0.173 A 
ATOM     69  C   UNL     1       6.313   0.101 -20.242  1.00  0.00     0.173 A 
ATOM     70  F   UNL     1       8.976   2.067 -18.732  1.00  0.00    -0.203 F 
ATOM     71  C   UNL     1       7.690   2.474 -20.661  1.00  0.00     0.198 A 
ATOM     72  C   UNL     1       6.015   0.897 -21.345  1.00  0.00     0.198 A 
ATOM     73  F   UNL     1       5.630  -1.040 -20.066  1.00  0.00    -0.203 F 
ATOM     74  F   UNL     1       8.339   3.632 -20.847  1.00  0.00    -0.200 F 
ATOM     75  C   UNL     1       6.702   2.083 -21.552  1.00  0.00     0.200 A 
ATOM     76  F   UNL     1       5.070   0.509 -22.212  1.00  0.00    -0.200 F 
ATOM     77  F   UNL     1       6.410   2.851 -22.611  1.00  0.00    -0.200 F 
ENDBRANCH  53  67
BRANCH  54  78
ATOM     78  C   UNL     1       9.868  -5.300 -11.595  1.00  0.00     0.064 A 
ATOM     79  C   UNL     1      11.189  -5.708 -11.357  1.00  0.00     0.173 A 
ATOM     80  C   UNL     1       8.865  -5.842 -10.776  1.00  0.00     0.173 A 
ATOM     81  F   UNL     1      12.182  -5.245 -12.130  1.00  0.00    -0.203 F 
ATOM     82  C   UNL     1      11.488  -6.650 -10.373  1.00  0.00     0.198 A 
ATOM     83  C   UNL     1       9.170  -6.754  -9.767  1.00  0.00     0.198 A 
ATOM     84  F   UNL     1       7.583  -5.495 -10.962  1.00  0.00    -0.203 F 
ATOM     85  F   UNL     1      12.748  -7.080 -10.222  1.00  0.00    -0.200 F 
ATOM     86  C   UNL     1      10.478  -7.169  -9.577  1.00  0.00     0.200 A 
ATOM     87  F   UNL     1       8.192  -7.245  -8.994  1.00  0.00    -0.200 F 
ATOM     88  F   UNL     1      10.764  -8.084  -8.640  1.00  0.00    -0.200 F 
ENDBRANCH  54  78
BRANCH  66  89
ATOM     89  C   UNL     1      10.338  -6.015 -18.512  1.00  0.00     0.064 A 
ATOM     90  C   UNL     1       9.635  -7.221 -18.648  1.00  0.00     0.173 A 
ATOM     91  C   UNL     1      11.506  -5.847 -19.274  1.00  0.00     0.173 A 
ATOM     92  F   UNL     1       8.522  -7.437 -17.932  1.00  0.00    -0.203 F 
ATOM     93  C   UNL     1      10.091  -8.224 -19.500  1.00  0.00     0.198 A 
ATOM     94  C   UNL     1      11.941  -6.839 -20.148  1.00  0.00     0.198 A 
ATOM     95  F   UNL     1      12.211  -4.709 -19.188  1.00  0.00    -0.203 F 
ATOM     96  F   UNL     1       9.425  -9.384 -19.581  1.00  0.00    -0.200 F 
ATOM     97  C   UNL     1      11.237  -8.028 -20.256  1.00  0.00     0.200 A 
ATOM     98  F   UNL     1      13.038  -6.640 -20.892  1.00  0.00    -0.200 F 
ATOM     99  F   UNL     1      11.665  -8.989 -21.087  1.00  0.00    -0.200 F 
ENDBRANCH  66  89
ENDBRANCH  40  41
ENDBRANCH  33  35
ENDBRANCH  32  33
ENDBRANCH  31  32
ENDBRANCH  30  31
ENDBRANCH  29  30
ENDBRANCH  28  29
ENDBRANCH  27  28
ENDBRANCH  26  27
ENDBRANCH  25  26
ENDBRANCH   1  25
TORSDOF 26
