REMARK SMILES NC(=O)c1c(-c2ccc(Cl)cc2)csc1NC(=O)[C@H]1[C@@H](C(=O)OCCOCCOCCOCCOC(=O)c2ccc(-c3c4nc(c(-c5c(F)c(F)c(F)c(F)c5F)c5ccc([nH]5)c(-c5c(F)c(F)c(F)c(F)c5F)c5nc(c(-c6c(F)c(F)c(F)c(F)c6F)c6ccc3[nH]6)C=C5)C=C4)cc2)[C@@H]2CC[C@H]1O2
REMARK SMILES IDX 28 1 27 2 26 3 25 4 24 5 23 6 21 7 22 8 20 9 19 10 104 11
REMARK SMILES IDX 101 12 103 13 105 14 102 15 17 16 16 17 18 19 15 20 4 21
REMARK SMILES IDX 5 22 13 23 14 24 2 25 1 26 3 29 6 30 7 31 12 32 8 33 11 34
REMARK SMILES IDX 9 35 10 36 29 37 30 38 31 39 32 40 33 41 34 42 35 43 36 44
REMARK SMILES IDX 37 45 38 46 39 47 100 48 40 49 99 50 41 51 42 52 43 53 93 54
REMARK SMILES IDX 44 55 98 56 92 57 94 58 45 59 97 60 91 61 90 62 46 64 78 65
REMARK SMILES IDX 58 66 77 67 59 68 62 69 76 70 95 71 60 72 61 73 75 75 96 76
REMARK SMILES IDX 63 77 47 78 48 79 56 80 49 81 50 82 54 83 57 84 51 85 52 86
REMARK SMILES IDX 55 87 53 88 79 89 80 90 88 91 81 92 82 93 86 94 89 95 83 96
REMARK SMILES IDX 84 97 87 98 85 99 64 100 65 101 73 102 66 103 67 104 71 105
REMARK SMILES IDX 74 106 68 107 69 108 72 109 70 110
REMARK H PARENT 16 18 1 27 1 28 94 63 62 74
REMARK Flexibility Score: inf
ROOT
ATOM      1  C   UNL     1       2.078  -5.152  -6.822  1.00  0.00     0.188 C 
ENDROOT
BRANCH   1   2
ATOM      2  C   UNL     1       3.434  -4.809  -6.176  1.00  0.00     0.188 C 
BRANCH   2   3
ATOM      3  O   UNL     1       4.067  -5.999  -5.706  1.00  0.00    -0.376 OA
BRANCH   3   4
ATOM      4  C   UNL     1       3.805  -6.354  -4.350  1.00  0.00     0.202 C 
BRANCH   4   5
ATOM      5  C   UNL     1       2.354  -6.307  -3.820  1.00  0.00     0.261 C 
BRANCH   5   6
ATOM      6  O   UNL     1       1.631  -5.091  -4.136  1.00  0.00    -0.463 OA
BRANCH   6   7
ATOM      7  C   UNL     1       1.669  -4.047  -3.299  1.00  0.00     0.312 C 
ATOM      8  O   UNL     1       2.246  -4.082  -2.215  1.00  0.00    -0.252 OA
BRANCH   7   9
ATOM      9  C   UNL     1       1.108  -2.737  -3.848  1.00  0.00     0.143 C 
ATOM     10  C   UNL     1      -0.023  -2.492  -4.879  1.00  0.00     0.124 C 
ATOM     11  C   UNL     1       0.727  -1.725  -5.997  1.00  0.00     0.132 C 
ATOM     12  C   UNL     1       2.269  -1.953  -4.481  1.00  0.00     0.133 C 
ATOM     13  C   UNL     1       1.026  -0.275  -5.616  1.00  0.00     0.035 C 
ATOM     14  O   UNL     1       2.073  -2.238  -5.883  1.00  0.00    -0.373 OA
ATOM     15  C   UNL     1       2.018  -0.446  -4.468  1.00  0.00     0.036 C 
BRANCH  10  16
ATOM     16  C   UNL     1      -0.920  -3.574  -5.483  1.00  0.00     0.231 C 
ATOM     17  N   UNL     1      -2.130  -3.297  -6.091  1.00  0.00    -0.317 N 
ATOM     18  H   UNL     1      -2.503  -4.068  -6.577  1.00  0.00     0.170 HD
ATOM     19  O   UNL     1      -0.616  -4.767  -5.418  1.00  0.00    -0.274 OA
BRANCH  17  20
ATOM     20  C   UNL     1      -2.933  -2.162  -6.164  1.00  0.00     0.108 A 
ATOM     21  C   UNL     1      -4.278  -2.089  -6.541  1.00  0.00     0.082 A 
ATOM     22  C   UNL     1      -4.825  -0.780  -6.204  1.00  0.00     0.007 A 
ATOM     23  C   UNL     1      -3.845   0.089  -5.779  1.00  0.00     0.076 A 
ATOM     24  S   UNL     1      -2.326  -0.620  -5.840  1.00  0.00    -0.125 S 
BRANCH  21  25
ATOM     25  C   UNL     1      -4.998  -3.233  -7.103  1.00  0.00     0.252 C 
ATOM     26  N   UNL     1      -6.098  -2.946  -7.859  1.00  0.00    -0.365 N 
ATOM     27  H   UNL     1      -6.622  -3.675  -8.263  1.00  0.00     0.159 HD
ATOM     28  H   UNL     1      -6.368  -2.010  -8.000  1.00  0.00     0.159 HD
ATOM     29  O   UNL     1      -4.620  -4.392  -6.967  1.00  0.00    -0.269 OA
ENDBRANCH  21  25
BRANCH  22  30
ATOM     30  C   UNL     1      -6.202  -0.308  -6.183  1.00  0.00    -0.017 A 
ATOM     31  C   UNL     1      -6.545   0.871  -6.859  1.00  0.00     0.010 A 
ATOM     32  C   UNL     1      -7.171  -0.986  -5.434  1.00  0.00     0.010 A 
ATOM     33  C   UNL     1      -7.847   1.366  -6.792  1.00  0.00     0.021 A 
ATOM     34  C   UNL     1      -8.477  -0.493  -5.375  1.00  0.00     0.021 A 
ATOM     35  C   UNL     1      -8.808   0.679  -6.054  1.00  0.00     0.041 A 
ATOM     36  Cl  UNL     1     -10.415   1.286  -5.980  1.00  0.00    -0.084 Cl
ENDBRANCH  22  30
ENDBRANCH  17  20
ENDBRANCH  10  16
ENDBRANCH   7   9
ENDBRANCH   6   7
ENDBRANCH   5   6
ENDBRANCH   4   5
ENDBRANCH   3   4
ENDBRANCH   2   3
ENDBRANCH   1   2
BRANCH   1  37
ATOM     37  O   UNL     1       2.139  -5.718  -8.120  1.00  0.00    -0.377 OA
BRANCH  37  38
ATOM     38  C   UNL     1       3.140  -6.697  -8.275  1.00  0.00     0.188 C 
BRANCH  38  39
ATOM     39  C   UNL     1       4.483  -6.135  -8.784  1.00  0.00     0.188 C 
BRANCH  39  40
ATOM     40  O   UNL     1       4.614  -4.899  -9.488  1.00  0.00    -0.376 OA
BRANCH  40  41
ATOM     41  C   UNL     1       3.509  -4.056  -9.759  1.00  0.00     0.202 C 
BRANCH  41  42
ATOM     42  C   UNL     1       2.527  -4.493 -10.859  1.00  0.00     0.261 C 
BRANCH  42  43
ATOM     43  O   UNL     1       2.253  -5.894 -10.945  1.00  0.00    -0.460 OA
BRANCH  43  44
ATOM     44  C   UNL     1       3.142  -6.646 -11.633  1.00  0.00     0.338 C 
ATOM     45  O   UNL     1       4.128  -6.275 -12.247  1.00  0.00    -0.246 OA
BRANCH  44  46
ATOM     46  C   UNL     1       2.800  -8.063 -11.386  1.00  0.00     0.060 A 
ATOM     47  C   UNL     1       3.773  -8.910 -10.833  1.00  0.00     0.016 A 
ATOM     48  C   UNL     1       1.499  -8.525 -11.604  1.00  0.00     0.016 A 
ATOM     49  C   UNL     1       3.441 -10.210 -10.467  1.00  0.00     0.010 A 
ATOM     50  C   UNL     1       1.185  -9.849 -11.304  1.00  0.00     0.010 A 
ATOM     51  C   UNL     1       2.162 -10.697 -10.755  1.00  0.00    -0.014 A 
BRANCH  51  52
ATOM     52  C   UNL     1       1.949 -12.158 -10.763  1.00  0.00     0.031 A 
ATOM     53  C   UNL     1       2.218 -12.874 -12.055  1.00  0.00     0.074 A 
ATOM     54  C   UNL     1       1.557 -12.825  -9.666  1.00  0.00     0.049 A 
ATOM     55  N   UNL     1       2.059 -14.134 -12.360  1.00  0.00    -0.248 NA
ATOM     56  C   UNL     1       2.738 -12.047 -13.159  1.00  0.00     0.031 C 
ATOM     57  C   UNL     1       1.326 -12.233  -8.351  1.00  0.00     0.029 A 
ATOM     58  N   UNL     1       1.276 -14.156  -9.495  1.00  0.00    -0.354 N 
ATOM     59  C   UNL     1       2.452 -14.246 -13.686  1.00  0.00     0.074 A 
ATOM     60  C   UNL     1       2.829 -12.928 -14.140  1.00  0.00     0.031 C 
ATOM     61  C   UNL     1       0.916 -13.198  -7.508  1.00  0.00     0.029 A 
ATOM     62  C   UNL     1       0.824 -14.463  -8.236  1.00  0.00     0.049 A 
ATOM     63  H   UNL     1       1.388 -14.827 -10.207  1.00  0.00     0.167 HD
ATOM     64  C   UNL     1       2.498 -15.357 -14.455  1.00  0.00     0.037 A 
ATOM     65  C   UNL     1       0.363 -15.632  -7.749  1.00  0.00     0.037 A 
ATOM     66  C   UNL     1       2.105 -16.660 -13.994  1.00  0.00     0.049 A 
ATOM     67  C   UNL     1       0.337 -16.840  -8.655  1.00  0.00     0.074 A 
ATOM     68  C   UNL     1       2.111 -17.857 -14.684  1.00  0.00     0.029 A 
ATOM     69  N   UNL     1       1.619 -16.928 -12.722  1.00  0.00    -0.354 N 
ATOM     70  N   UNL     1       0.728 -16.951  -9.903  1.00  0.00    -0.248 NA
ATOM     71  C   UNL     1      -0.192 -18.086  -8.083  1.00  0.00     0.031 C 
ATOM     72  C   UNL     1       1.569 -18.839 -13.851  1.00  0.00     0.029 A 
ATOM     73  C   UNL     1       1.295 -18.270 -12.616  1.00  0.00     0.049 A 
ATOM     74  H   UNL     1       1.521 -16.264 -12.002  1.00  0.00     0.167 HD
ATOM     75  C   UNL     1       0.529 -18.281 -10.252  1.00  0.00     0.074 A 
ATOM     76  C   UNL     1      -0.011 -18.940  -9.081  1.00  0.00     0.031 C 
ATOM     77  C   UNL     1       0.775 -18.905 -11.431  1.00  0.00     0.037 A 
BRANCH  64  78
ATOM     78  C   UNL     1       2.947 -15.195 -15.877  1.00  0.00     0.064 A 
ATOM     79  C   UNL     1       4.273 -14.876 -16.205  1.00  0.00     0.173 A 
ATOM     80  C   UNL     1       2.036 -15.371 -16.929  1.00  0.00     0.173 A 
ATOM     81  F   UNL     1       5.179 -14.674 -15.236  1.00  0.00    -0.203 F 
ATOM     82  C   UNL     1       4.664 -14.713 -17.531  1.00  0.00     0.198 A 
ATOM     83  C   UNL     1       2.438 -15.243 -18.255  1.00  0.00     0.198 A 
ATOM     84  F   UNL     1       0.754 -15.672 -16.671  1.00  0.00    -0.203 F 
ATOM     85  F   UNL     1       5.923 -14.354 -17.818  1.00  0.00    -0.200 F 
ATOM     86  C   UNL     1       3.749 -14.906 -18.555  1.00  0.00     0.200 A 
ATOM     87  F   UNL     1       1.554 -15.441 -19.243  1.00  0.00    -0.200 F 
ATOM     88  F   UNL     1       4.128 -14.758 -19.832  1.00  0.00    -0.200 F 
ENDBRANCH  64  78
BRANCH  65  89
ATOM     89  C   UNL     1      -0.126 -15.718  -6.347  1.00  0.00     0.064 A 
ATOM     90  C   UNL     1       0.543 -16.496  -5.392  1.00  0.00     0.173 A 
ATOM     91  C   UNL     1      -1.289 -15.046  -5.939  1.00  0.00     0.173 A 
ATOM     92  F   UNL     1       1.644 -17.179  -5.738  1.00  0.00    -0.203 F 
ATOM     93  C   UNL     1       0.057 -16.617  -4.091  1.00  0.00     0.198 A 
ATOM     94  C   UNL     1      -1.756 -15.143  -4.630  1.00  0.00     0.198 A 
ATOM     95  F   UNL     1      -1.972 -14.293  -6.813  1.00  0.00    -0.203 F 
ATOM     96  F   UNL     1       0.686 -17.412  -3.215  1.00  0.00    -0.200 F 
ATOM     97  C   UNL     1      -1.089 -15.936  -3.710  1.00  0.00     0.200 A 
ATOM     98  F   UNL     1      -2.858 -14.474  -4.263  1.00  0.00    -0.200 F 
ATOM     99  F   UNL     1      -1.556 -16.053  -2.459  1.00  0.00    -0.200 F 
ENDBRANCH  65  89
BRANCH  77 100
ATOM    100  C   UNL     1       0.519 -20.383 -11.503  1.00  0.00     0.064 A 
ATOM    101  C   UNL     1      -0.778 -20.913 -11.505  1.00  0.00     0.173 A 
ATOM    102  C   UNL     1       1.594 -21.276 -11.642  1.00  0.00     0.173 A 
ATOM    103  F   UNL     1      -1.839 -20.104 -11.364  1.00  0.00    -0.203 F 
ATOM    104  C   UNL     1      -0.990 -22.285 -11.618  1.00  0.00     0.198 A 
ATOM    105  C   UNL     1       1.378 -22.642 -11.792  1.00  0.00     0.198 A 
ATOM    106  F   UNL     1       2.856 -20.820 -11.659  1.00  0.00    -0.203 F 
ATOM    107  F   UNL     1      -2.236 -22.775 -11.570  1.00  0.00    -0.200 F 
ATOM    108  C   UNL     1       0.087 -23.147 -11.772  1.00  0.00     0.200 A 
ATOM    109  F   UNL     1       2.418 -23.469 -11.962  1.00  0.00    -0.200 F 
ATOM    110  F   UNL     1      -0.120 -24.465 -11.898  1.00  0.00    -0.200 F 
ENDBRANCH  77 100
ENDBRANCH  51  52
ENDBRANCH  44  46
ENDBRANCH  43  44
ENDBRANCH  42  43
ENDBRANCH  41  42
ENDBRANCH  40  41
ENDBRANCH  39  40
ENDBRANCH  38  39
ENDBRANCH  37  38
ENDBRANCH   1  37
TORSDOF 24
