REMARK SMILES O=C(OCCOCCOCCOCCOC(=O)c1ccc(-c2c3nc(c(-c4c(F)c(F)c(F)c(F)c4F)c4ccc([nH]4)c(-c4c(F)c(F)c(F)c(F)c4F)c4nc(c(-c5c(F)c(F)c(F)c(F)c5F)c5ccc2[nH]5)C=C4)C=C3)cc1)c1ccc(NC(=O)[C@@H]2CC=CC[C@H]2C(=O)Nc2cccc([N+](=O)[O-])c2)cc1
REMARK SMILES IDX 7 1 6 2 5 3 4 4 3 5 2 6 1 7 81 8 82 9 107 10 83 11 106 12
REMARK SMILES IDX 84 13 85 14 86 15 87 17 88 18 89 19 93 20 90 21 92 22 91 23
REMARK SMILES IDX 94 24 95 25 96 26 97 28 98 29 105 30 99 31 101 32 100 33
REMARK SMILES IDX 102 34 103 35 104 36 8 37 9 38 10 39 11 40 12 41 13 42 14 43
REMARK SMILES IDX 15 44 16 45 17 46 18 47 19 48 80 49 20 50 79 51 21 52 22 53
REMARK SMILES IDX 23 54 73 55 24 56 78 57 72 58 74 59 25 60 77 61 71 62 70 63
REMARK SMILES IDX 26 65 58 66 38 67 57 68 39 69 42 70 56 71 75 72 40 73 41 74
REMARK SMILES IDX 55 76 76 77 43 78 27 79 28 80 36 81 29 82 30 83 34 84 37 85
REMARK SMILES IDX 31 86 32 87 35 88 33 89 59 90 60 91 68 92 61 93 62 94 66 95
REMARK SMILES IDX 69 96 63 97 64 98 67 99 65 100 44 101 45 102 53 103 46 104
REMARK SMILES IDX 47 105 51 106 54 107 48 108 49 109 52 110 50 111
REMARK H PARENT 85 16 96 27 74 64 42 75
REMARK Flexibility Score: inf
ROOT
ATOM      1  C   UNL     1      10.775  -8.390   1.181  1.00  0.00     0.188 C 
ENDROOT
BRANCH   1   2
ATOM      2  O   UNL     1       9.366  -8.370   0.924  1.00  0.00    -0.376 OA
BRANCH   2   3
ATOM      3  C   UNL     1       8.853  -9.540   0.295  1.00  0.00     0.202 C 
BRANCH   3   4
ATOM      4  C   UNL     1       8.562  -9.299  -1.185  1.00  0.00     0.261 C 
BRANCH   4   5
ATOM      5  O   UNL     1       9.738  -8.855  -1.888  1.00  0.00    -0.460 OA
BRANCH   5   6
ATOM      6  C   UNL     1      10.215  -7.619  -2.168  1.00  0.00     0.338 C 
ATOM      7  O   UNL     1      11.289  -7.564  -2.771  1.00  0.00    -0.246 OA
BRANCH   6   8
ATOM      8  C   UNL     1       9.582  -6.307  -1.789  1.00  0.00     0.060 A 
ATOM      9  C   UNL     1       8.462  -6.121  -0.993  1.00  0.00     0.018 A 
ATOM     10  C   UNL     1      10.218  -5.133  -2.232  1.00  0.00     0.018 A 
ATOM     11  C   UNL     1       8.064  -4.839  -0.569  1.00  0.00     0.027 A 
ATOM     12  C   UNL     1       9.853  -3.861  -1.746  1.00  0.00     0.027 A 
ATOM     13  C   UNL     1       8.833  -3.723  -0.803  1.00  0.00     0.041 A 
BRANCH  13  14
ATOM     14  N   UNL     1       8.714  -2.496  -0.124  1.00  0.00    -0.326 N 
ATOM     15  C   UNL     1       8.120  -2.027   1.016  1.00  0.00     0.228 C 
ATOM     16  H   UNL     1       9.190  -1.777  -0.600  1.00  0.00     0.169 HD
ATOM     17  O   UNL     1       8.361  -0.835   1.258  1.00  0.00    -0.274 OA
BRANCH  15  18
ATOM     18  C   UNL     1       7.184  -2.819   1.957  1.00  0.00     0.095 C 
ATOM     19  C   UNL     1       6.291  -1.803   2.721  1.00  0.00     0.041 C 
ATOM     20  C   UNL     1       7.879  -3.800   2.935  1.00  0.00     0.095 C 
ATOM     21  C   UNL     1       5.502  -2.360   3.865  1.00  0.00    -0.030 C 
ATOM     22  C   UNL     1       7.200  -4.110   4.296  1.00  0.00     0.041 C 
ATOM     23  C   UNL     1       5.924  -3.400   4.585  1.00  0.00    -0.030 C 
BRANCH  20  24
ATOM     24  C   UNL     1       8.309  -5.136   2.343  1.00  0.00     0.228 C 
ATOM     25  O   UNL     1       9.503  -5.286   2.049  1.00  0.00    -0.274 OA
ATOM     26  N   UNL     1       7.491  -6.228   2.179  1.00  0.00    -0.326 N 
ATOM     27  H   UNL     1       8.005  -7.055   2.041  1.00  0.00     0.169 HD
BRANCH  26  28
ATOM     28  C   UNL     1       6.098  -6.463   2.158  1.00  0.00     0.048 A 
ATOM     29  C   UNL     1       5.630  -7.724   2.544  1.00  0.00     0.026 A 
ATOM     30  C   UNL     1       5.163  -5.573   1.645  1.00  0.00     0.111 A 
ATOM     31  C   UNL     1       4.263  -8.045   2.483  1.00  0.00     0.009 A 
ATOM     32  C   UNL     1       3.801  -5.889   1.554  1.00  0.00     0.271 A 
ATOM     33  C   UNL     1       3.338  -7.125   1.990  1.00  0.00     0.086 A 
BRANCH  32  34
ATOM     34  N   UNL     1       2.885  -4.915   0.939  1.00  0.00     0.062 N 
ATOM     35  O   UNL     1       1.681  -5.200   0.904  1.00  0.00    -0.258 OA
ATOM     36  O   UNL     1       3.377  -3.874   0.477  1.00  0.00    -0.258 OA
ENDBRANCH  32  34
ENDBRANCH  26  28
ENDBRANCH  20  24
ENDBRANCH  15  18
ENDBRANCH  13  14
ENDBRANCH   6   8
ENDBRANCH   5   6
ENDBRANCH   4   5
ENDBRANCH   3   4
ENDBRANCH   2   3
ENDBRANCH   1   2
BRANCH   1  37
ATOM     37  C   UNL     1      11.254  -9.316   2.317  1.00  0.00     0.188 C 
BRANCH  37  38
ATOM     38  O   UNL     1      10.665  -9.272   3.612  1.00  0.00    -0.377 OA
BRANCH  38  39
ATOM     39  C   UNL     1       9.304  -8.948   3.783  1.00  0.00     0.188 C 
BRANCH  39  40
ATOM     40  C   UNL     1       9.056  -7.735   4.699  1.00  0.00     0.188 C 
BRANCH  40  41
ATOM     41  O   UNL     1       9.898  -6.601   4.618  1.00  0.00    -0.376 OA
BRANCH  41  42
ATOM     42  C   UNL     1      11.305  -6.784   4.765  1.00  0.00     0.202 C 
BRANCH  42  43
ATOM     43  C   UNL     1      11.844  -7.509   6.016  1.00  0.00     0.261 C 
BRANCH  43  44
ATOM     44  O   UNL     1      11.368  -8.860   6.185  1.00  0.00    -0.460 OA
BRANCH  44  45
ATOM     45  C   UNL     1      10.509  -9.078   7.207  1.00  0.00     0.338 C 
ATOM     46  O   UNL     1      10.171  -8.285   8.074  1.00  0.00    -0.246 OA
BRANCH  45  47
ATOM     47  C   UNL     1       9.810 -10.365   6.997  1.00  0.00     0.060 A 
ATOM     48  C   UNL     1       8.407 -10.356   6.900  1.00  0.00     0.016 A 
ATOM     49  C   UNL     1      10.509 -11.569   6.935  1.00  0.00     0.016 A 
ATOM     50  C   UNL     1       7.699 -11.545   6.741  1.00  0.00     0.010 A 
ATOM     51  C   UNL     1       9.796 -12.769   6.837  1.00  0.00     0.010 A 
ATOM     52  C   UNL     1       8.389 -12.761   6.771  1.00  0.00    -0.014 A 
BRANCH  52  53
ATOM     53  C   UNL     1       7.633 -14.008   7.033  1.00  0.00     0.031 A 
ATOM     54  C   UNL     1       7.432 -14.404   8.470  1.00  0.00     0.074 A 
ATOM     55  C   UNL     1       7.128 -14.760   6.041  1.00  0.00     0.049 A 
ATOM     56  N   UNL     1       6.893 -15.485   8.971  1.00  0.00    -0.248 NA
ATOM     57  C   UNL     1       7.910 -13.444   9.479  1.00  0.00     0.031 C 
ATOM     58  C   UNL     1       7.198 -14.446   4.618  1.00  0.00     0.029 A 
ATOM     59  N   UNL     1       6.464 -15.961   6.091  1.00  0.00    -0.354 N 
ATOM     60  C   UNL     1       6.981 -15.339  10.350  1.00  0.00     0.074 A 
ATOM     61  C   UNL     1       7.639 -14.079  10.608  1.00  0.00     0.031 C 
ATOM     62  C   UNL     1       6.624 -15.445   3.924  1.00  0.00     0.029 A 
ATOM     63  C   UNL     1       6.182 -16.485   4.854  1.00  0.00     0.049 A 
ATOM     64  H   UNL     1       6.215 -16.405   6.934  1.00  0.00     0.167 HD
ATOM     65  C   UNL     1       6.551 -16.183  11.316  1.00  0.00     0.037 A 
ATOM     66  C   UNL     1       5.659 -17.681   4.519  1.00  0.00     0.037 A 
ATOM     67  C   UNL     1       5.913 -17.444  11.054  1.00  0.00     0.049 A 
ATOM     68  C   UNL     1       5.272 -18.649   5.613  1.00  0.00     0.074 A 
ATOM     69  C   UNL     1       5.438 -18.376  11.958  1.00  0.00     0.029 A 
ATOM     70  N   UNL     1       5.674 -17.956   9.786  1.00  0.00    -0.354 N 
ATOM     71  N   UNL     1       5.344 -18.504   6.915  1.00  0.00    -0.248 NA
ATOM     72  C   UNL     1       4.732 -19.949   5.188  1.00  0.00     0.031 C 
ATOM     73  C   UNL     1       4.966 -19.479  11.239  1.00  0.00     0.029 A 
ATOM     74  C   UNL     1       5.083 -19.204   9.885  1.00  0.00     0.049 A 
ATOM     75  H   UNL     1       5.893 -17.499   8.942  1.00  0.00     0.167 HD
ATOM     76  C   UNL     1       4.828 -19.674   7.462  1.00  0.00     0.074 A 
ATOM     77  C   UNL     1       4.437 -20.515   6.350  1.00  0.00     0.031 C 
ATOM     78  C   UNL     1       4.688 -20.021   8.765  1.00  0.00     0.037 A 
BRANCH  65  79
ATOM     79  C   UNL     1       6.804 -15.785  12.741  1.00  0.00     0.064 A 
ATOM     80  C   UNL     1       6.128 -14.712  13.342  1.00  0.00     0.173 A 
ATOM     81  C   UNL     1       7.734 -16.493  13.517  1.00  0.00     0.173 A 
ATOM     82  F   UNL     1       5.245 -13.989  12.636  1.00  0.00    -0.203 F 
ATOM     83  C   UNL     1       6.397 -14.344  14.658  1.00  0.00     0.198 A 
ATOM     84  C   UNL     1       7.975 -16.143  14.843  1.00  0.00     0.198 A 
ATOM     85  F   UNL     1       8.409 -17.525  12.990  1.00  0.00    -0.203 F 
ATOM     86  F   UNL     1       5.782 -13.280  15.193  1.00  0.00    -0.200 F 
ATOM     87  C   UNL     1       7.314 -15.064  15.409  1.00  0.00     0.200 A 
ATOM     88  F   UNL     1       8.853 -16.848  15.570  1.00  0.00    -0.200 F 
ATOM     89  F   UNL     1       7.568 -14.712  16.677  1.00  0.00    -0.200 F 
ENDBRANCH  65  79
BRANCH  66  90
ATOM     90  C   UNL     1       5.489 -18.051   3.088  1.00  0.00     0.064 A 
ATOM     91  C   UNL     1       4.214 -18.223   2.531  1.00  0.00     0.173 A 
ATOM     92  C   UNL     1       6.597 -18.269   2.255  1.00  0.00     0.173 A 
ATOM     93  F   UNL     1       3.123 -18.053   3.291  1.00  0.00    -0.203 F 
ATOM     94  C   UNL     1       4.054 -18.618   1.203  1.00  0.00     0.198 A 
ATOM     95  C   UNL     1       6.436 -18.633   0.920  1.00  0.00     0.198 A 
ATOM     96  F   UNL     1       7.840 -18.121   2.737  1.00  0.00    -0.203 F 
ATOM     97  F   UNL     1       2.825 -18.822   0.711  1.00  0.00    -0.200 F 
ATOM     98  C   UNL     1       5.165 -18.816   0.397  1.00  0.00     0.200 A 
ATOM     99  F   UNL     1       7.512 -18.809   0.141  1.00  0.00    -0.200 F 
ATOM    100  F   UNL     1       5.011 -19.189  -0.880  1.00  0.00    -0.200 F 
ENDBRANCH  66  90
BRANCH  78 101
ATOM    101  C   UNL     1       4.038 -21.342   9.069  1.00  0.00     0.064 A 
ATOM    102  C   UNL     1       4.683 -22.562   8.818  1.00  0.00     0.173 A 
ATOM    103  C   UNL     1       2.770 -21.382   9.671  1.00  0.00     0.173 A 
ATOM    104  F   UNL     1       5.890 -22.579   8.233  1.00  0.00    -0.203 F 
ATOM    105  C   UNL     1       4.072 -23.773   9.134  1.00  0.00     0.198 A 
ATOM    106  C   UNL     1       2.178 -22.593  10.018  1.00  0.00     0.198 A 
ATOM    107  F   UNL     1       2.113 -20.244   9.942  1.00  0.00    -0.203 F 
ATOM    108  F   UNL     1       4.685 -24.927   8.840  1.00  0.00    -0.200 F 
ATOM    109  C   UNL     1       2.825 -23.787   9.741  1.00  0.00     0.200 A 
ATOM    110  F   UNL     1       0.981 -22.603  10.621  1.00  0.00    -0.200 F 
ATOM    111  F   UNL     1       2.244 -24.953  10.055  1.00  0.00    -0.200 F 
ENDBRANCH  78 101
ENDBRANCH  52  53
ENDBRANCH  45  47
ENDBRANCH  44  45
ENDBRANCH  43  44
ENDBRANCH  42  43
ENDBRANCH  41  42
ENDBRANCH  40  41
ENDBRANCH  39  40
ENDBRANCH  38  39
ENDBRANCH  37  38
ENDBRANCH   1  37
TORSDOF 25
