REMARK SMILES O=C(OCCOCCOCCOCCOC(=O)c1ccc(N2C(=O)/C(=C/C3=c4ccccc4=NC3)SC2=S)cc1O)c1ccc(-c2c3nc(c(-c4c(F)c(F)c(F)c(F)c4F)c4ccc([nH]4)c(-c4c(F)c(F)c(F)c(F)c4F)c4nc(c(-c5c(F)c(F)c(F)c(F)c5F)c5ccc2[nH]5)C=C4)C=C3)cc1
REMARK SMILES IDX 9 1 8 2 7 3 6 4 5 5 4 6 3 7 2 8 1 9 42 10 43 11 104 12 44 13
REMARK SMILES IDX 103 14 45 15 46 16 47 17 97 18 48 19 102 20 96 21 98 22
REMARK SMILES IDX 49 23 101 24 95 25 94 26 50 28 82 29 62 30 81 31 63 32 66 33
REMARK SMILES IDX 80 34 99 35 64 36 65 37 79 39 100 40 67 41 51 42 52 43 60 44
REMARK SMILES IDX 53 45 54 46 58 47 61 48 55 49 56 50 59 51 57 52 83 53 84 54
REMARK SMILES IDX 92 55 85 56 86 57 90 58 93 59 87 60 88 61 91 62 89 63 68 64
REMARK SMILES IDX 69 65 77 66 70 67 71 68 75 69 78 70 72 71 73 72 76 73 74 74
REMARK SMILES IDX 10 75 11 76 12 77 13 78 14 79 15 80 16 81 17 82 18 83 19 84
REMARK SMILES IDX 40 85 20 86 39 87 21 88 41 89 22 91 23 92 37 93 24 94 25 95
REMARK SMILES IDX 36 96 38 97 26 98 27 99 28 100 35 101 29 102 33 103 34 104
REMARK SMILES IDX 30 105 32 106 31 107
REMARK H PARENT 98 27 66 38 41 90
REMARK Flexibility Score: inf
ROOT
ATOM      1  O   UNL     1       2.441   2.748  -2.348  1.00  0.00    -0.377 OA
ENDROOT
BRANCH   1   2
ATOM      2  C   UNL     1       1.840   2.040  -1.268  1.00  0.00     0.188 C 
BRANCH   2   3
ATOM      3  C   UNL     1       2.333   0.606  -1.080  1.00  0.00     0.188 C 
BRANCH   3   4
ATOM      4  O   UNL     1       3.660   0.577  -0.536  1.00  0.00    -0.376 OA
BRANCH   4   5
ATOM      5  C   UNL     1       4.540  -0.343  -1.179  1.00  0.00     0.202 C 
BRANCH   5   6
ATOM      6  C   UNL     1       4.454  -1.779  -0.668  1.00  0.00     0.261 C 
BRANCH   6   7
ATOM      7  O   UNL     1       3.151  -2.153  -0.208  1.00  0.00    -0.460 OA
BRANCH   7   8
ATOM      8  C   UNL     1       2.564  -1.914   0.988  1.00  0.00     0.338 C 
ATOM      9  O   UNL     1       1.455  -2.417   1.178  1.00  0.00    -0.246 OA
BRANCH   8  10
ATOM     10  C   UNL     1       3.122  -1.044   2.084  1.00  0.00     0.060 A 
ATOM     11  C   UNL     1       2.264  -0.809   3.178  1.00  0.00     0.016 A 
ATOM     12  C   UNL     1       4.391  -0.457   2.130  1.00  0.00     0.016 A 
ATOM     13  C   UNL     1       2.669  -0.046   4.278  1.00  0.00     0.010 A 
ATOM     14  C   UNL     1       4.801   0.318   3.216  1.00  0.00     0.010 A 
ATOM     15  C   UNL     1       3.953   0.502   4.306  1.00  0.00    -0.014 A 
BRANCH  15  16
ATOM     16  C   UNL     1       4.510   1.064   5.549  1.00  0.00     0.031 A 
ATOM     17  C   UNL     1       4.627   2.535   5.765  1.00  0.00     0.074 A 
ATOM     18  C   UNL     1       5.009   0.182   6.433  1.00  0.00     0.049 A 
ATOM     19  N   UNL     1       5.018   3.173   6.837  1.00  0.00    -0.248 NA
ATOM     20  C   UNL     1       4.287   3.406   4.630  1.00  0.00     0.031 C 
ATOM     21  C   UNL     1       5.038  -1.270   6.230  1.00  0.00     0.029 A 
ATOM     22  N   UNL     1       5.599   0.361   7.653  1.00  0.00    -0.354 N 
ATOM     23  C   UNL     1       4.949   4.521   6.520  1.00  0.00     0.074 A 
ATOM     24  C   UNL     1       4.533   4.610   5.136  1.00  0.00     0.031 C 
ATOM     25  C   UNL     1       5.605  -1.851   7.295  1.00  0.00     0.029 A 
ATOM     26  C   UNL     1       5.971  -0.815   8.254  1.00  0.00     0.049 A 
ATOM     27  H   UNL     1       5.743   1.246   8.060  1.00  0.00     0.167 HD
ATOM     28  C   UNL     1       5.195   5.575   7.335  1.00  0.00     0.037 A 
ATOM     29  C   UNL     1       6.522  -1.034   9.461  1.00  0.00     0.037 A 
ATOM     30  C   UNL     1       5.629   5.436   8.703  1.00  0.00     0.049 A 
ATOM     31  C   UNL     1       6.747   0.143  10.360  1.00  0.00     0.074 A 
ATOM     32  C   UNL     1       5.811   6.419   9.659  1.00  0.00     0.029 A 
ATOM     33  N   UNL     1       5.972   4.228   9.302  1.00  0.00    -0.354 N 
ATOM     34  N   UNL     1       6.526   1.413  10.116  1.00  0.00    -0.248 NA
ATOM     35  C   UNL     1       7.271  -0.133  11.701  1.00  0.00     0.031 C 
ATOM     36  C   UNL     1       6.317   5.814  10.815  1.00  0.00     0.029 A 
ATOM     37  C   UNL     1       6.404   4.446  10.600  1.00  0.00     0.049 A 
ATOM     38  H   UNL     1       5.916   3.347   8.866  1.00  0.00     0.167 HD
ATOM     39  C   UNL     1       6.878   2.091  11.270  1.00  0.00     0.074 A 
ATOM     40  C   UNL     1       7.306   1.086  12.225  1.00  0.00     0.031 C 
ATOM     41  C   UNL     1       6.851   3.424  11.516  1.00  0.00     0.037 A 
BRANCH  28  42
ATOM     42  C   UNL     1       4.985   6.960   6.789  1.00  0.00     0.064 A 
ATOM     43  C   UNL     1       3.700   7.439   6.486  1.00  0.00     0.173 A 
ATOM     44  C   UNL     1       6.062   7.848   6.641  1.00  0.00     0.173 A 
ATOM     45  F   UNL     1       2.633   6.636   6.610  1.00  0.00    -0.203 F 
ATOM     46  C   UNL     1       3.505   8.744   6.040  1.00  0.00     0.198 A 
ATOM     47  C   UNL     1       5.860   9.161   6.220  1.00  0.00     0.198 A 
ATOM     48  F   UNL     1       7.311   7.450   6.926  1.00  0.00    -0.203 F 
ATOM     49  F   UNL     1       2.271   9.167   5.729  1.00  0.00    -0.200 F 
ATOM     50  C   UNL     1       4.583   9.607   5.915  1.00  0.00     0.200 A 
ATOM     51  F   UNL     1       6.901   9.999   6.117  1.00  0.00    -0.200 F 
ATOM     52  F   UNL     1       4.391  10.867   5.503  1.00  0.00    -0.200 F 
ENDBRANCH  28  42
BRANCH  29  53
ATOM     53  C   UNL     1       6.777  -2.433   9.881  1.00  0.00     0.064 A 
ATOM     54  C   UNL     1       5.917  -3.073  10.783  1.00  0.00     0.173 A 
ATOM     55  C   UNL     1       7.790  -3.200   9.285  1.00  0.00     0.173 A 
ATOM     56  F   UNL     1       4.935  -2.379  11.377  1.00  0.00    -0.203 F 
ATOM     57  C   UNL     1       6.052  -4.430  11.065  1.00  0.00     0.198 A 
ATOM     58  C   UNL     1       7.910  -4.563   9.552  1.00  0.00     0.198 A 
ATOM     59  F   UNL     1       8.623  -2.639   8.397  1.00  0.00    -0.203 F 
ATOM     60  F   UNL     1       5.212  -5.019  11.928  1.00  0.00    -0.200 F 
ATOM     61  C   UNL     1       7.039  -5.177  10.439  1.00  0.00     0.200 A 
ATOM     62  F   UNL     1       8.848  -5.286   8.926  1.00  0.00    -0.200 F 
ATOM     63  F   UNL     1       7.144  -6.491  10.682  1.00  0.00    -0.200 F 
ENDBRANCH  29  53
BRANCH  41  64
ATOM     64  C   UNL     1       7.334   3.876  12.860  1.00  0.00     0.064 A 
ATOM     65  C   UNL     1       8.701   3.887  13.169  1.00  0.00     0.173 A 
ATOM     66  C   UNL     1       6.435   4.377  13.813  1.00  0.00     0.173 A 
ATOM     67  F   UNL     1       9.595   3.403  12.294  1.00  0.00    -0.203 F 
ATOM     68  C   UNL     1       9.152   4.380  14.389  1.00  0.00     0.198 A 
ATOM     69  C   UNL     1       6.892   4.894  15.021  1.00  0.00     0.198 A 
ATOM     70  F   UNL     1       5.118   4.391  13.559  1.00  0.00    -0.203 F 
ATOM     71  F   UNL     1      10.461   4.358  14.676  1.00  0.00    -0.200 F 
ATOM     72  C   UNL     1       8.249   4.893  15.309  1.00  0.00     0.200 A 
ATOM     73  F   UNL     1       6.021   5.402  15.903  1.00  0.00    -0.200 F 
ATOM     74  F   UNL     1       8.688   5.386  16.475  1.00  0.00    -0.200 F 
ENDBRANCH  41  64
ENDBRANCH  15  16
ENDBRANCH   8  10
ENDBRANCH   7   8
ENDBRANCH   6   7
ENDBRANCH   5   6
ENDBRANCH   4   5
ENDBRANCH   3   4
ENDBRANCH   2   3
ENDBRANCH   1   2
BRANCH   1  75
ATOM     75  C   UNL     1       3.862   2.764  -2.401  1.00  0.00     0.188 C 
BRANCH  75  76
ATOM     76  C   UNL     1       4.643   3.311  -1.188  1.00  0.00     0.188 C 
BRANCH  76  77
ATOM     77  O   UNL     1       3.827   3.820  -0.142  1.00  0.00    -0.376 OA
BRANCH  77  78
ATOM     78  C   UNL     1       3.774   5.238  -0.039  1.00  0.00     0.202 C 
BRANCH  78  79
ATOM     79  C   UNL     1       3.064   5.977  -1.181  1.00  0.00     0.261 C 
BRANCH  79  80
ATOM     80  O   UNL     1       3.562   5.706  -2.501  1.00  0.00    -0.460 OA
BRANCH  80  81
ATOM     81  C   UNL     1       4.785   6.177  -2.845  1.00  0.00     0.341 C 
ATOM     82  O   UNL     1       5.553   6.791  -2.138  1.00  0.00    -0.246 OA
BRANCH  81  83
ATOM     83  C   UNL     1       5.137   5.574  -4.158  1.00  0.00     0.101 A 
ATOM     84  C   UNL     1       6.272   4.748  -4.227  1.00  0.00     0.022 A 
ATOM     85  C   UNL     1       4.325   5.723  -5.284  1.00  0.00     0.132 A 
ATOM     86  C   UNL     1       6.591   4.075  -5.415  1.00  0.00     0.028 A 
ATOM     87  C   UNL     1       4.666   5.091  -6.483  1.00  0.00     0.073 A 
ATOM     88  C   UNL     1       5.814   4.284  -6.559  1.00  0.00     0.054 A 
BRANCH  85  89
ATOM     89  O   UNL     1       3.215   6.517  -5.229  1.00  0.00    -0.507 OA
ATOM     90  H   UNL     1       2.983   6.942  -4.427  1.00  0.00     0.293 HD
ENDBRANCH  85  89
BRANCH  88  91
ATOM     91  N   UNL     1       6.280   3.840  -7.827  1.00  0.00    -0.261 N 
ATOM     92  C   UNL     1       6.363   2.485  -8.138  1.00  0.00     0.270 C 
ATOM     93  C   UNL     1       6.742   4.732  -8.786  1.00  0.00     0.152 C 
ATOM     94  O   UNL     1       6.063   1.539  -7.421  1.00  0.00    -0.268 OA
ATOM     95  C   UNL     1       6.881   2.318  -9.535  1.00  0.00     0.081 C 
ATOM     96  S   UNL     1       7.207   3.858 -10.231  1.00  0.00    -0.054 SA
ATOM     97  S   UNL     1       6.946   6.389  -8.679  1.00  0.00    -0.051 S 
ATOM     98  C   UNL     1       7.041   1.133 -10.145  1.00  0.00     0.027 C 
BRANCH  98  99
ATOM     99  C   UNL     1       7.575   0.945 -11.478  1.00  0.00    -0.016 C 
ATOM    100  C   UNL     1       6.918   0.559 -12.571  1.00  0.00     0.005 A 
ATOM    101  C   UNL     1       9.019   1.219 -11.807  1.00  0.00     0.179 C 
ATOM    102  C   UNL     1       5.578   0.169 -12.876  1.00  0.00     0.011 A 
ATOM    103  C   UNL     1       7.955   0.629 -13.618  1.00  0.00     0.065 A 
ATOM    104  N   UNL     1       9.154   0.979 -13.265  1.00  0.00    -0.280 NA
ATOM    105  C   UNL     1       5.265  -0.131 -14.148  1.00  0.00     0.001 A 
ATOM    106  C   UNL     1       7.530   0.300 -14.995  1.00  0.00     0.028 A 
ATOM    107  C   UNL     1       6.252  -0.053 -15.213  1.00  0.00     0.002 A 
ENDBRANCH  98  99
ENDBRANCH  88  91
ENDBRANCH  81  83
ENDBRANCH  80  81
ENDBRANCH  79  80
ENDBRANCH  78  79
ENDBRANCH  77  78
ENDBRANCH  76  77
ENDBRANCH  75  76
ENDBRANCH   1  75
TORSDOF 23
