REMARK SMILES Nc1nc(N2CCOC[C@H]2C(=O)OCCOCCOCCOCCOC(=O)c2ccc(-c3c4nc(c(-c5c(F)c(F)c(F)c(F)c5F)c5ccc([nH]5)c(-c5c(F)c(F)c(F)c(F)c5F)c5nc(c(-c6c(F)c(F)c(F)c(F)c6F)c6ccc3[nH]6)C=C5)C=C4)cc2)ccc1[N+](=O)[O-]
REMARK SMILES IDX 19 1 18 2 17 3 16 4 15 5 14 6 13 7 11 8 12 9 10 10 5 11 6 12
REMARK SMILES IDX 7 13 9 14 8 15 4 16 2 17 3 18 93 19 92 20 91 21 1 22 94 25
REMARK SMILES IDX 95 26 96 27 20 28 21 29 22 30 23 31 24 32 25 33 26 34 27 35
REMARK SMILES IDX 28 36 29 37 90 38 30 39 89 40 31 41 32 42 33 43 83 44 34 45
REMARK SMILES IDX 88 46 82 47 84 48 35 49 87 50 81 51 80 52 36 54 68 55 48 56
REMARK SMILES IDX 67 57 49 58 52 59 66 60 85 61 50 62 51 63 65 65 86 66 53 67
REMARK SMILES IDX 37 68 38 69 46 70 39 71 40 72 44 73 47 74 41 75 42 76 45 77
REMARK SMILES IDX 43 78 69 79 70 80 78 81 71 82 72 83 76 84 79 85 73 86 74 87
REMARK SMILES IDX 77 88 75 89 54 90 55 91 63 92 56 93 57 94 61 95 64 96 58 97
REMARK SMILES IDX 59 98 62 99 60 100
REMARK H PARENT 1 23 1 24 84 53 52 64
REMARK Flexibility Score: inf
ROOT
ATOM      1  O   UNL     1       0.184   3.843   2.695  1.00  0.00    -0.377 OA
ENDROOT
BRANCH   1   2
ATOM      2  C   UNL     1       0.808   3.538   1.465  1.00  0.00     0.188 C 
BRANCH   2   3
ATOM      3  C   UNL     1       1.524   4.688   0.749  1.00  0.00     0.188 C 
BRANCH   3   4
ATOM      4  O   UNL     1       1.684   5.905   1.446  1.00  0.00    -0.376 OA
BRANCH   4   5
ATOM      5  C   UNL     1       0.565   6.633   1.916  1.00  0.00     0.202 C 
BRANCH   5   6
ATOM      6  C   UNL     1      -0.898   6.473   1.444  1.00  0.00     0.261 C 
BRANCH   6   7
ATOM      7  O   UNL     1      -1.349   5.208   0.940  1.00  0.00    -0.462 OA
BRANCH   7   8
ATOM      8  C   UNL     1      -1.443   5.071  -0.407  1.00  0.00     0.331 C 
ATOM      9  O   UNL     1      -1.115   5.960  -1.192  1.00  0.00    -0.250 OA
BRANCH   8  10
ATOM     10  C   UNL     1      -2.062   3.745  -0.900  1.00  0.00     0.220 C 
ATOM     11  N   UNL     1      -2.136   2.577   0.023  1.00  0.00    -0.339 N 
ATOM     12  C   UNL     1      -3.037   2.713   1.171  1.00  0.00     0.147 C 
ATOM     13  C   UNL     1      -4.417   3.169   0.688  1.00  0.00     0.181 C 
ATOM     14  C   UNL     1      -3.505   4.120  -1.295  1.00  0.00     0.197 C 
ATOM     15  O   UNL     1      -4.345   4.340  -0.140  1.00  0.00    -0.377 OA
BRANCH  11  16
ATOM     16  C   UNL     1      -1.516   1.369  -0.241  1.00  0.00     0.132 A 
ATOM     17  C   UNL     1       0.498   0.179  -0.507  1.00  0.00     0.204 A 
ATOM     18  N   UNL     1      -0.199   1.349  -0.558  1.00  0.00    -0.207 NA
ATOM     19  C   UNL     1      -0.139  -1.033  -0.255  1.00  0.00     0.311 A 
ATOM     20  C   UNL     1      -1.519  -1.046  -0.074  1.00  0.00     0.093 A 
ATOM     21  C   UNL     1      -2.202   0.168  -0.062  1.00  0.00     0.054 A 
BRANCH  17  22
ATOM     22  N   UNL     1       1.848   0.300  -0.772  1.00  0.00    -0.378 N 
ATOM     23  H   UNL     1       2.239   1.187  -0.943  1.00  0.00     0.158 HD
ATOM     24  H   UNL     1       2.420  -0.501  -0.789  1.00  0.00     0.158 HD
ENDBRANCH  17  22
BRANCH  19  25
ATOM     25  N   UNL     1       0.605  -2.278  -0.093  1.00  0.00     0.066 N 
ATOM     26  O   UNL     1      -0.030  -3.340  -0.187  1.00  0.00    -0.258 OA
ATOM     27  O   UNL     1       1.812  -2.213   0.189  1.00  0.00    -0.258 OA
ENDBRANCH  19  25
ENDBRANCH  11  16
ENDBRANCH   8  10
ENDBRANCH   7   8
ENDBRANCH   6   7
ENDBRANCH   5   6
ENDBRANCH   4   5
ENDBRANCH   3   4
ENDBRANCH   2   3
ENDBRANCH   1   2
BRANCH   1  28
ATOM     28  C   UNL     1       0.980   3.909   3.862  1.00  0.00     0.188 C 
BRANCH  28  29
ATOM     29  C   UNL     1       2.518   3.928   3.784  1.00  0.00     0.188 C 
BRANCH  29  30
ATOM     30  O   UNL     1       3.086   3.199   2.708  1.00  0.00    -0.376 OA
BRANCH  30  31
ATOM     31  C   UNL     1       3.580   1.889   2.938  1.00  0.00     0.202 C 
BRANCH  31  32
ATOM     32  C   UNL     1       2.565   0.791   3.293  1.00  0.00     0.261 C 
BRANCH  32  33
ATOM     33  O   UNL     1       1.745   1.038   4.442  1.00  0.00    -0.460 OA
BRANCH  33  34
ATOM     34  C   UNL     1       2.370   1.176   5.629  1.00  0.00     0.338 C 
ATOM     35  O   UNL     1       3.566   1.094   5.854  1.00  0.00    -0.246 OA
BRANCH  34  36
ATOM     36  C   UNL     1       1.364   1.629   6.606  1.00  0.00     0.060 A 
ATOM     37  C   UNL     1       1.524   2.883   7.210  1.00  0.00     0.016 A 
ATOM     38  C   UNL     1       0.256   0.831   6.902  1.00  0.00     0.016 A 
ATOM     39  C   UNL     1       0.590   3.329   8.142  1.00  0.00     0.010 A 
ATOM     40  C   UNL     1      -0.665   1.268   7.855  1.00  0.00     0.010 A 
ATOM     41  C   UNL     1      -0.481   2.502   8.503  1.00  0.00    -0.014 A 
BRANCH  41  42
ATOM     42  C   UNL     1      -1.269   2.824   9.715  1.00  0.00     0.031 A 
ATOM     43  C   UNL     1      -0.875   2.163  11.005  1.00  0.00     0.074 A 
ATOM     44  C   UNL     1      -2.280   3.707   9.681  1.00  0.00     0.049 A 
ATOM     45  N   UNL     1      -1.416   2.258  12.192  1.00  0.00    -0.248 NA
ATOM     46  C   UNL     1       0.293   1.268  10.944  1.00  0.00     0.031 C 
ATOM     47  C   UNL     1      -2.715   4.451   8.502  1.00  0.00     0.029 A 
ATOM     48  N   UNL     1      -3.126   4.124  10.678  1.00  0.00    -0.354 N 
ATOM     49  C   UNL     1      -0.655   1.438  13.016  1.00  0.00     0.074 A 
ATOM     50  C   UNL     1       0.354   0.818  12.187  1.00  0.00     0.031 C 
ATOM     51  C   UNL     1      -3.753   5.236   8.844  1.00  0.00     0.029 A 
ATOM     52  C   UNL     1      -4.074   5.021  10.254  1.00  0.00     0.049 A 
ATOM     53  H   UNL     1      -3.060   3.809  11.608  1.00  0.00     0.167 HD
ATOM     54  C   UNL     1      -0.779   1.231  14.349  1.00  0.00     0.037 A 
ATOM     55  C   UNL     1      -5.092   5.587  10.931  1.00  0.00     0.037 A 
ATOM     56  C   UNL     1      -1.800   1.836  15.163  1.00  0.00     0.049 A 
ATOM     57  C   UNL     1      -5.278   5.256  12.391  1.00  0.00     0.074 A 
ATOM     58  C   UNL     1      -2.021   1.690  16.520  1.00  0.00     0.029 A 
ATOM     59  N   UNL     1      -2.781   2.695  14.687  1.00  0.00    -0.354 N 
ATOM     60  N   UNL     1      -4.548   4.495  13.171  1.00  0.00    -0.248 NA
ATOM     61  C   UNL     1      -6.432   5.868  13.065  1.00  0.00     0.031 C 
ATOM     62  C   UNL     1      -3.174   2.410  16.853  1.00  0.00     0.029 A 
ATOM     63  C   UNL     1      -3.630   3.063  15.718  1.00  0.00     0.049 A 
ATOM     64  H   UNL     1      -2.862   2.997  13.753  1.00  0.00     0.167 HD
ATOM     65  C   UNL     1      -5.130   4.566  14.432  1.00  0.00     0.074 A 
ATOM     66  C   UNL     1      -6.268   5.454  14.313  1.00  0.00     0.031 C 
ATOM     67  C   UNL     1      -4.755   3.955  15.584  1.00  0.00     0.037 A 
BRANCH  54  68
ATOM     68  C   UNL     1       0.192   0.279  14.988  1.00  0.00     0.064 A 
ATOM     69  C   UNL     1       1.559   0.580  15.100  1.00  0.00     0.173 A 
ATOM     70  C   UNL     1      -0.248  -0.956  15.487  1.00  0.00     0.173 A 
ATOM     71  F   UNL     1       2.037   1.740  14.623  1.00  0.00    -0.203 F 
ATOM     72  C   UNL     1       2.453  -0.337  15.648  1.00  0.00     0.198 A 
ATOM     73  C   UNL     1       0.643  -1.854  16.068  1.00  0.00     0.198 A 
ATOM     74  F   UNL     1      -1.543  -1.296  15.408  1.00  0.00    -0.203 F 
ATOM     75  F   UNL     1       3.763  -0.056  15.679  1.00  0.00    -0.200 F 
ATOM     76  C   UNL     1       1.994  -1.550  16.136  1.00  0.00     0.200 A 
ATOM     77  F   UNL     1       0.195  -3.021  16.552  1.00  0.00    -0.200 F 
ATOM     78  F   UNL     1       2.855  -2.432  16.662  1.00  0.00    -0.200 F 
ENDBRANCH  54  68
BRANCH  55  79
ATOM     79  C   UNL     1      -6.013   6.530  10.242  1.00  0.00     0.064 A 
ATOM     80  C   UNL     1      -6.049   7.887  10.590  1.00  0.00     0.173 A 
ATOM     81  C   UNL     1      -6.888   6.093   9.236  1.00  0.00     0.173 A 
ATOM     82  F   UNL     1      -5.251   8.349  11.565  1.00  0.00    -0.203 F 
ATOM     83  C   UNL     1      -6.935   8.767   9.972  1.00  0.00     0.198 A 
ATOM     84  C   UNL     1      -7.752   6.980   8.597  1.00  0.00     0.198 A 
ATOM     85  F   UNL     1      -6.898   4.803   8.867  1.00  0.00    -0.203 F 
ATOM     86  F   UNL     1      -6.981  10.050  10.359  1.00  0.00    -0.200 F 
ATOM     87  C   UNL     1      -7.781   8.314   8.971  1.00  0.00     0.200 A 
ATOM     88  F   UNL     1      -8.559   6.540   7.622  1.00  0.00    -0.200 F 
ATOM     89  F   UNL     1      -8.630   9.162   8.373  1.00  0.00    -0.200 F 
ENDBRANCH  55  79
BRANCH  67  90
ATOM     90  C   UNL     1      -5.551   4.264  16.822  1.00  0.00     0.064 A 
ATOM     91  C   UNL     1      -6.870   3.815  16.989  1.00  0.00     0.173 A 
ATOM     92  C   UNL     1      -4.969   4.989  17.874  1.00  0.00     0.173 A 
ATOM     93  F   UNL     1      -7.478   3.128  16.010  1.00  0.00    -0.203 F 
ATOM     94  C   UNL     1      -7.586   4.110  18.146  1.00  0.00     0.198 A 
ATOM     95  C   UNL     1      -5.675   5.249  19.045  1.00  0.00     0.198 A 
ATOM     96  F   UNL     1      -3.707   5.434  17.773  1.00  0.00    -0.203 F 
ATOM     97  F   UNL     1      -8.864   3.721  18.258  1.00  0.00    -0.200 F 
ATOM     98  C   UNL     1      -6.986   4.819  19.176  1.00  0.00     0.200 A 
ATOM     99  F   UNL     1      -5.086   5.918  20.047  1.00  0.00    -0.200 F 
ATOM    100  F   UNL     1      -7.675   5.095  20.293  1.00  0.00    -0.200 F 
ENDBRANCH  67  90
ENDBRANCH  41  42
ENDBRANCH  34  36
ENDBRANCH  33  34
ENDBRANCH  32  33
ENDBRANCH  31  32
ENDBRANCH  30  31
ENDBRANCH  29  30
ENDBRANCH  28  29
ENDBRANCH   1  28
TORSDOF 23
