REMARK SMILES CC(C)(C)n1ccnc(N(CC(=O)OCCOCCOCCOCCOC(=O)c2ccc(-c3c4nc(c(-c5c(F)c(F)c(F)c(F)c5F)c5ccc([nH]5)c(-c5c(F)c(F)c(F)c(F)c5F)c5nc(c(-c6c(F)c(F)c(F)c(F)c6F)c6ccc3[nH]6)C=C5)C=C4)cc2)CC(F)(F)F)c1=O
REMARK SMILES IDX 19 1 18 2 17 3 16 4 15 5 14 6 12 7 13 8 11 9 10 10 9 11 5 12
REMARK SMILES IDX 6 13 97 14 7 15 98 16 8 17 2 18 1 19 3 20 4 21 92 22 93 23
REMARK SMILES IDX 94 24 95 25 96 26 20 27 21 28 22 29 23 30 24 31 25 32 26 33
REMARK SMILES IDX 27 34 28 35 29 36 30 37 91 38 31 39 90 40 32 41 33 42 34 43
REMARK SMILES IDX 84 44 35 45 89 46 83 47 85 48 36 49 88 50 82 51 81 52 37 54
REMARK SMILES IDX 69 55 49 56 68 57 50 58 53 59 67 60 86 61 51 62 52 63 66 65
REMARK SMILES IDX 87 66 54 67 38 68 39 69 47 70 40 71 41 72 45 73 48 74 42 75
REMARK SMILES IDX 43 76 46 77 44 78 70 79 71 80 79 81 72 82 73 83 77 84 80 85
REMARK SMILES IDX 74 86 75 87 78 88 76 89 55 90 56 91 64 92 57 93 58 94 62 95
REMARK SMILES IDX 65 96 59 97 60 98 63 99 61 100
REMARK H PARENT 85 53 53 64
REMARK Flexibility Score: inf
ROOT
ATOM      1  C   UNL     1       1.781  -0.349   7.513  1.00  0.00     0.188 C 
ENDROOT
BRANCH   1   2
ATOM      2  C   UNL     1       1.389   0.007   8.937  1.00  0.00     0.188 C 
BRANCH   2   3
ATOM      3  O   UNL     1       0.003   0.246   9.079  1.00  0.00    -0.376 OA
BRANCH   3   4
ATOM      4  C   UNL     1      -0.435   1.584   9.171  1.00  0.00     0.202 C 
BRANCH   4   5
ATOM      5  C   UNL     1      -0.399   2.515   7.936  1.00  0.00     0.261 C 
BRANCH   5   6
ATOM      6  O   UNL     1       0.506   2.189   6.859  1.00  0.00    -0.462 OA
BRANCH   6   7
ATOM      7  C   UNL     1       1.375   3.171   6.473  1.00  0.00     0.325 C 
ATOM      8  O   UNL     1       1.493   4.232   7.084  1.00  0.00    -0.250 OA
BRANCH   7   9
ATOM      9  C   UNL     1       2.360   2.775   5.363  1.00  0.00     0.241 C 
BRANCH   9  10
ATOM     10  N   UNL     1       1.856   2.073   4.166  1.00  0.00    -0.332 N 
BRANCH  10  11
ATOM     11  C   UNL     1       1.511   2.792   3.015  1.00  0.00     0.196 A 
ATOM     12  N   UNL     1       0.785   2.565   0.643  1.00  0.00    -0.306 N 
ATOM     13  C   UNL     1       0.290   3.849   0.816  1.00  0.00     0.110 A 
ATOM     14  C   UNL     1       1.690   2.125   1.600  1.00  0.00     0.294 A 
ATOM     15  C   UNL     1       0.499   4.532   1.950  1.00  0.00     0.131 A 
ATOM     16  O   UNL     1       2.561   1.279   1.447  1.00  0.00    -0.265 OA
ATOM     17  N   UNL     1       1.026   4.003   3.101  1.00  0.00    -0.233 NA
BRANCH  12  18
ATOM     18  C   UNL     1       0.403   1.745  -0.554  1.00  0.00     0.039 C 
ATOM     19  C   UNL     1       0.975   0.303  -0.570  1.00  0.00     0.034 C 
ATOM     20  C   UNL     1       0.874   2.414  -1.857  1.00  0.00     0.034 C 
ATOM     21  C   UNL     1      -1.136   1.582  -0.565  1.00  0.00     0.034 C 
ENDBRANCH  12  18
ENDBRANCH  10  11
BRANCH  10  22
ATOM     22  C   UNL     1       1.983   0.594   4.114  1.00  0.00     0.234 C 
BRANCH  22  23
ATOM     23  C   UNL     1       0.688  -0.160   3.755  1.00  0.00     0.405 C 
ATOM     24  F   UNL     1       0.262   0.102   2.500  1.00  0.00    -0.169 F 
ATOM     25  F   UNL     1       0.877  -1.499   3.824  1.00  0.00    -0.169 F 
ATOM     26  F   UNL     1      -0.339   0.168   4.570  1.00  0.00    -0.169 F 
ENDBRANCH  22  23
ENDBRANCH  10  22
ENDBRANCH   9  10
ENDBRANCH   7   9
ENDBRANCH   6   7
ENDBRANCH   5   6
ENDBRANCH   4   5
ENDBRANCH   3   4
ENDBRANCH   2   3
ENDBRANCH   1   2
BRANCH   1  27
ATOM     27  O   UNL     1       0.908  -1.026   6.625  1.00  0.00    -0.377 OA
BRANCH  27  28
ATOM     28  C   UNL     1      -0.419  -1.365   6.988  1.00  0.00     0.188 C 
BRANCH  28  29
ATOM     29  C   UNL     1      -0.577  -2.527   7.981  1.00  0.00     0.188 C 
BRANCH  29  30
ATOM     30  O   UNL     1       0.320  -3.635   7.976  1.00  0.00    -0.376 OA
BRANCH  30  31
ATOM     31  C   UNL     1       1.196  -3.850   6.885  1.00  0.00     0.202 C 
BRANCH  31  32
ATOM     32  C   UNL     1       0.602  -4.343   5.559  1.00  0.00     0.261 C 
BRANCH  32  33
ATOM     33  O   UNL     1      -0.617  -3.711   5.149  1.00  0.00    -0.460 OA
BRANCH  33  34
ATOM     34  C   UNL     1      -1.755  -4.367   5.469  1.00  0.00     0.338 C 
ATOM     35  O   UNL     1      -1.859  -5.435   6.052  1.00  0.00    -0.246 OA
BRANCH  34  36
ATOM     36  C   UNL     1      -2.918  -3.535   5.100  1.00  0.00     0.060 A 
ATOM     37  C   UNL     1      -3.111  -3.102   3.785  1.00  0.00     0.016 A 
ATOM     38  C   UNL     1      -3.870  -3.246   6.085  1.00  0.00     0.016 A 
ATOM     39  C   UNL     1      -4.286  -2.417   3.451  1.00  0.00     0.010 A 
ATOM     40  C   UNL     1      -5.032  -2.547   5.754  1.00  0.00     0.010 A 
ATOM     41  C   UNL     1      -5.265  -2.157   4.428  1.00  0.00    -0.014 A 
BRANCH  41  42
ATOM     42  C   UNL     1      -6.605  -1.650   4.040  1.00  0.00     0.031 A 
ATOM     43  C   UNL     1      -7.005  -0.221   4.246  1.00  0.00     0.074 A 
ATOM     44  C   UNL     1      -7.488  -2.529   3.526  1.00  0.00     0.049 A 
ATOM     45  N   UNL     1      -8.133   0.370   3.934  1.00  0.00    -0.248 NA
ATOM     46  C   UNL     1      -6.020   0.661   4.888  1.00  0.00     0.031 C 
ATOM     47  C   UNL     1      -7.222  -3.952   3.311  1.00  0.00     0.029 A 
ATOM     48  N   UNL     1      -8.780  -2.361   3.094  1.00  0.00    -0.354 N 
ATOM     49  C   UNL     1      -7.985   1.697   4.311  1.00  0.00     0.074 A 
ATOM     50  C   UNL     1      -6.677   1.815   4.925  1.00  0.00     0.031 C 
ATOM     51  C   UNL     1      -8.307  -4.522   2.764  1.00  0.00     0.029 A 
ATOM     52  C   UNL     1      -9.352  -3.514   2.615  1.00  0.00     0.049 A 
ATOM     53  H   UNL     1      -9.251  -1.497   3.125  1.00  0.00     0.167 HD
ATOM     54  C   UNL     1      -8.854   2.722   4.135  1.00  0.00     0.037 A 
ATOM     55  C   UNL     1     -10.579  -3.734   2.107  1.00  0.00     0.037 A 
ATOM     56  C   UNL     1     -10.164   2.594   3.545  1.00  0.00     0.049 A 
ATOM     57  C   UNL     1     -11.546  -2.588   1.991  1.00  0.00     0.074 A 
ATOM     58  C   UNL     1     -11.105   3.584   3.313  1.00  0.00     0.029 A 
ATOM     59  N   UNL     1     -10.725   1.405   3.103  1.00  0.00    -0.354 N 
ATOM     60  N   UNL     1     -11.368  -1.324   2.285  1.00  0.00    -0.248 NA
ATOM     61  C   UNL     1     -12.882  -2.900   1.466  1.00  0.00     0.031 C 
ATOM     62  C   UNL     1     -12.249   2.989   2.774  1.00  0.00     0.029 A 
ATOM     63  C   UNL     1     -12.005   1.635   2.620  1.00  0.00     0.049 A 
ATOM     64  H   UNL     1     -10.280   0.527   3.128  1.00  0.00     0.167 HD
ATOM     65  C   UNL     1     -12.555  -0.686   1.952  1.00  0.00     0.074 A 
ATOM     66  C   UNL     1     -13.441  -1.699   1.419  1.00  0.00     0.031 C 
ATOM     67  C   UNL     1     -12.878   0.624   2.080  1.00  0.00     0.037 A 
BRANCH  54  68
ATOM     68  C   UNL     1      -8.418   4.096   4.555  1.00  0.00     0.064 A 
ATOM     69  C   UNL     1      -7.468   4.809   3.809  1.00  0.00     0.173 A 
ATOM     70  C   UNL     1      -9.039   4.754   5.628  1.00  0.00     0.173 A 
ATOM     71  F   UNL     1      -6.846   4.225   2.773  1.00  0.00    -0.203 F 
ATOM     72  C   UNL     1      -7.151   6.128   4.124  1.00  0.00     0.198 A 
ATOM     73  C   UNL     1      -8.737   6.081   5.924  1.00  0.00     0.198 A 
ATOM     74  F   UNL     1      -9.965   4.123   6.364  1.00  0.00    -0.203 F 
ATOM     75  F   UNL     1      -6.230   6.784   3.405  1.00  0.00    -0.200 F 
ATOM     76  C   UNL     1      -7.795   6.767   5.173  1.00  0.00     0.200 A 
ATOM     77  F   UNL     1      -9.374   6.704   6.926  1.00  0.00    -0.200 F 
ATOM     78  F   UNL     1      -7.509   8.045   5.457  1.00  0.00    -0.200 F 
ENDBRANCH  54  68
BRANCH  55  79
ATOM     79  C   UNL     1     -10.947  -5.090   1.624  1.00  0.00     0.064 A 
ATOM     80  C   UNL     1     -11.132  -5.332   0.256  1.00  0.00     0.173 A 
ATOM     81  C   UNL     1     -11.121  -6.164   2.508  1.00  0.00     0.173 A 
ATOM     82  F   UNL     1     -10.996  -4.331  -0.626  1.00  0.00    -0.203 F 
ATOM     83  C   UNL     1     -11.495  -6.594  -0.208  1.00  0.00     0.198 A 
ATOM     84  C   UNL     1     -11.455  -7.433   2.040  1.00  0.00     0.198 A 
ATOM     85  F   UNL     1     -10.953  -5.983   3.826  1.00  0.00    -0.203 F 
ATOM     86  F   UNL     1     -11.710  -6.788  -1.517  1.00  0.00    -0.200 F 
ATOM     87  C   UNL     1     -11.650  -7.645   0.683  1.00  0.00     0.200 A 
ATOM     88  F   UNL     1     -11.591  -8.449   2.903  1.00  0.00    -0.200 F 
ATOM     89  F   UNL     1     -11.995  -8.860   0.236  1.00  0.00    -0.200 F 
ENDBRANCH  55  79
BRANCH  67  90
ATOM     90  C   UNL     1     -14.239   1.053   1.611  1.00  0.00     0.064 A 
ATOM     91  C   UNL     1     -15.401   0.709   2.316  1.00  0.00     0.173 A 
ATOM     92  C   UNL     1     -14.376   1.866   0.475  1.00  0.00     0.173 A 
ATOM     93  F   UNL     1     -15.325  -0.079   3.399  1.00  0.00    -0.203 F 
ATOM     94  C   UNL     1     -16.652   1.150   1.892  1.00  0.00     0.198 A 
ATOM     95  C   UNL     1     -15.625   2.330   0.072  1.00  0.00     0.198 A 
ATOM     96  F   UNL     1     -13.296   2.229  -0.232  1.00  0.00    -0.203 F 
ATOM     97  F   UNL     1     -17.753   0.776   2.559  1.00  0.00    -0.200 F 
ATOM     98  C   UNL     1     -16.763   1.967   0.777  1.00  0.00     0.200 A 
ATOM     99  F   UNL     1     -15.728   3.132  -0.997  1.00  0.00    -0.200 F 
ATOM    100  F   UNL     1     -17.966   2.402   0.380  1.00  0.00    -0.200 F 
ENDBRANCH  67  90
ENDBRANCH  41  42
ENDBRANCH  34  36
ENDBRANCH  33  34
ENDBRANCH  32  33
ENDBRANCH  31  32
ENDBRANCH  30  31
ENDBRANCH  29  30
ENDBRANCH  28  29
ENDBRANCH  27  28
ENDBRANCH   1  27
TORSDOF 25
