REMARK SMILES CC[C@@H](C)N(C)c1ccc(/C=C/C(=O)OCCOCCOCCOCCOC(=O)c2ccc(-c3c4nc(c(-c5c(F)c(F)c(F)c(F)c5F)c5ccc([nH]5)c(-c5c(F)c(F)c(F)c(F)c5F)c5nc(c(-c6c(F)c(F)c(F)c(F)c6F)c6ccc3[nH]6)C=C5)C=C4)cc2)cc1F
REMARK SMILES IDX 20 1 19 2 18 3 17 4 16 5 15 6 13 7 14 8 12 9 11 10 10 11
REMARK SMILES IDX 7 12 8 13 94 14 9 15 93 16 95 17 5 18 6 19 3 20 4 21 2 22
REMARK SMILES IDX 1 23 21 24 22 25 23 26 24 27 25 28 26 29 27 30 28 31 29 32
REMARK SMILES IDX 30 33 31 34 92 35 32 36 91 37 33 38 34 39 35 40 85 41 36 42
REMARK SMILES IDX 90 43 84 44 86 45 37 46 89 47 83 48 82 49 38 51 70 52 50 53
REMARK SMILES IDX 69 54 51 55 54 56 68 57 87 58 52 59 53 60 67 62 88 63 55 64
REMARK SMILES IDX 39 65 40 66 48 67 41 68 42 69 46 70 49 71 43 72 44 73 47 74
REMARK SMILES IDX 45 75 71 76 72 77 80 78 73 79 74 80 78 81 81 82 75 83 76 84
REMARK SMILES IDX 79 85 77 86 56 87 57 88 65 89 58 90 59 91 63 92 66 93 60 94
REMARK SMILES IDX 61 95 64 96 62 97
REMARK H PARENT 86 50 54 61
REMARK Flexibility Score: inf
ROOT
ATOM      1  C   UNL     1      -6.965   3.433  -6.189  1.00  0.00     0.188 C 
ENDROOT
BRANCH   1   2
ATOM      2  C   UNL     1      -7.726   2.481  -7.133  1.00  0.00     0.188 C 
BRANCH   2   3
ATOM      3  O   UNL     1      -9.130   2.506  -6.943  1.00  0.00    -0.376 OA
BRANCH   3   4
ATOM      4  C   UNL     1      -9.773   1.414  -6.314  1.00  0.00     0.202 C 
BRANCH   4   5
ATOM      5  C   UNL     1      -9.313   0.949  -4.923  1.00  0.00     0.261 C 
BRANCH   5   6
ATOM      6  O   UNL     1      -7.900   0.904  -4.709  1.00  0.00    -0.460 OA
BRANCH   6   7
ATOM      7  C   UNL     1      -7.230  -0.129  -5.258  1.00  0.00     0.330 C 
ATOM      8  O   UNL     1      -7.718  -1.043  -5.904  1.00  0.00    -0.247 OA
BRANCH   7   9
ATOM      9  C   UNL     1      -5.767   0.053  -5.112  1.00  0.00     0.094 C 
ATOM     10  C   UNL     1      -5.192   0.920  -4.261  1.00  0.00     0.016 C 
BRANCH  10  11
ATOM     11  C   UNL     1      -3.740   1.108  -4.117  1.00  0.00    -0.022 A 
ATOM     12  C   UNL     1      -0.925   1.270  -3.648  1.00  0.00     0.073 A 
ATOM     13  C   UNL     1      -1.440   0.867  -4.889  1.00  0.00     0.029 A 
ATOM     14  C   UNL     1      -1.868   1.724  -2.710  1.00  0.00     0.147 A 
ATOM     15  C   UNL     1      -2.822   0.796  -5.125  1.00  0.00     0.010 A 
ATOM     16  C   UNL     1      -3.244   1.636  -2.926  1.00  0.00     0.049 A 
ATOM     17  F   UNL     1      -1.467   2.286  -1.558  1.00  0.00    -0.205 F 
BRANCH  12  18
ATOM     18  N   UNL     1       0.438   1.174  -3.359  1.00  0.00    -0.370 N 
ATOM     19  C   UNL     1       1.387   1.613  -4.378  1.00  0.00     0.144 C 
BRANCH  18  20
ATOM     20  C   UNL     1       0.918   0.173  -2.368  1.00  0.00     0.078 C 
ATOM     21  C   UNL     1       0.447  -1.242  -2.724  1.00  0.00     0.031 C 
BRANCH  20  22
ATOM     22  C   UNL     1       0.566   0.568  -0.925  1.00  0.00     0.021 C 
ATOM     23  C   UNL     1       1.336  -0.205   0.136  1.00  0.00     0.006 C 
ENDBRANCH  20  22
ENDBRANCH  18  20
ENDBRANCH  12  18
ENDBRANCH  10  11
ENDBRANCH   7   9
ENDBRANCH   6   7
ENDBRANCH   5   6
ENDBRANCH   4   5
ENDBRANCH   3   4
ENDBRANCH   2   3
ENDBRANCH   1   2
BRANCH   1  24
ATOM     24  O   UNL     1      -7.649   3.902  -5.036  1.00  0.00    -0.377 OA
BRANCH  24  25
ATOM     25  C   UNL     1      -8.876   4.618  -5.181  1.00  0.00     0.188 C 
BRANCH  25  26
ATOM     26  C   UNL     1      -9.360   5.196  -6.535  1.00  0.00     0.188 C 
BRANCH  26  27
ATOM     27  O   UNL     1      -8.374   5.247  -7.551  1.00  0.00    -0.376 OA
BRANCH  27  28
ATOM     28  C   UNL     1      -7.869   6.517  -7.919  1.00  0.00     0.202 C 
BRANCH  28  29
ATOM     29  C   UNL     1      -7.082   7.279  -6.845  1.00  0.00     0.261 C 
BRANCH  29  30
ATOM     30  O   UNL     1      -7.750   7.462  -5.587  1.00  0.00    -0.460 OA
BRANCH  30  31
ATOM     31  C   UNL     1      -8.834   8.265  -5.577  1.00  0.00     0.338 C 
ATOM     32  O   UNL     1      -9.318   8.867  -6.525  1.00  0.00    -0.246 OA
BRANCH  31  33
ATOM     33  C   UNL     1      -9.463   8.161  -4.246  1.00  0.00     0.060 A 
ATOM     34  C   UNL     1     -10.776   7.683  -4.148  1.00  0.00     0.016 A 
ATOM     35  C   UNL     1      -8.758   8.535  -3.100  1.00  0.00     0.016 A 
ATOM     36  C   UNL     1     -11.402   7.617  -2.902  1.00  0.00     0.010 A 
ATOM     37  C   UNL     1      -9.392   8.486  -1.856  1.00  0.00     0.010 A 
ATOM     38  C   UNL     1     -10.729   8.062  -1.756  1.00  0.00    -0.014 A 
BRANCH  38  39
ATOM     39  C   UNL     1     -11.481   8.259  -0.493  1.00  0.00     0.031 A 
ATOM     40  C   UNL     1     -11.948   9.647  -0.148  1.00  0.00     0.074 A 
ATOM     41  C   UNL     1     -11.780   7.226   0.314  1.00  0.00     0.049 A 
ATOM     42  N   UNL     1     -12.593  10.069   0.910  1.00  0.00    -0.248 NA
ATOM     43  C   UNL     1     -11.649  10.703  -1.130  1.00  0.00     0.031 C 
ATOM     44  C   UNL     1     -11.428   5.831   0.064  1.00  0.00     0.029 A 
ATOM     45  N   UNL     1     -12.452   7.195   1.512  1.00  0.00    -0.354 N 
ATOM     46  C   UNL     1     -12.773  11.433   0.721  1.00  0.00     0.074 A 
ATOM     47  C   UNL     1     -12.142  11.779  -0.533  1.00  0.00     0.031 C 
ATOM     48  C   UNL     1     -11.887   5.078   1.079  1.00  0.00     0.029 A 
ATOM     49  C   UNL     1     -12.533   5.941   2.067  1.00  0.00     0.049 A 
ATOM     50  H   UNL     1     -12.838   7.997   1.934  1.00  0.00     0.167 HD
ATOM     51  C   UNL     1     -13.420  12.315   1.517  1.00  0.00     0.037 A 
ATOM     52  C   UNL     1     -13.054   5.543   3.245  1.00  0.00     0.037 A 
ATOM     53  C   UNL     1     -14.055  11.968   2.761  1.00  0.00     0.049 A 
ATOM     54  C   UNL     1     -13.696   6.561   4.154  1.00  0.00     0.074 A 
ATOM     55  C   UNL     1     -14.747  12.791   3.631  1.00  0.00     0.029 A 
ATOM     56  N   UNL     1     -14.072  10.696   3.313  1.00  0.00    -0.354 N 
ATOM     57  N   UNL     1     -13.876   7.846   3.962  1.00  0.00    -0.248 NA
ATOM     58  C   UNL     1     -14.211   6.074   5.442  1.00  0.00     0.031 C 
ATOM     59  C   UNL     1     -15.129  12.032   4.739  1.00  0.00     0.029 A 
ATOM     60  C   UNL     1     -14.738  10.720   4.527  1.00  0.00     0.049 A 
ATOM     61  H   UNL     1     -13.670   9.896   2.903  1.00  0.00     0.167 HD
ATOM     62  C   UNL     1     -14.548   8.312   5.085  1.00  0.00     0.074 A 
ATOM     63  C   UNL     1     -14.758   7.171   5.950  1.00  0.00     0.031 C 
ATOM     64  C   UNL     1     -14.954   9.574   5.373  1.00  0.00     0.037 A 
BRANCH  51  65
ATOM     65  C   UNL     1     -13.475  13.751   1.084  1.00  0.00     0.064 A 
ATOM     66  C   UNL     1     -12.786  14.736   1.808  1.00  0.00     0.173 A 
ATOM     67  C   UNL     1     -14.282  14.165   0.015  1.00  0.00     0.173 A 
ATOM     68  F   UNL     1     -12.002  14.391   2.841  1.00  0.00    -0.203 F 
ATOM     69  C   UNL     1     -12.926  16.084   1.496  1.00  0.00     0.198 A 
ATOM     70  C   UNL     1     -14.396  15.514  -0.314  1.00  0.00     0.198 A 
ATOM     71  F   UNL     1     -14.949  13.262  -0.719  1.00  0.00    -0.203 F 
ATOM     72  F   UNL     1     -12.295  17.010   2.231  1.00  0.00    -0.200 F 
ATOM     73  C   UNL     1     -13.730  16.473   0.435  1.00  0.00     0.200 A 
ATOM     74  F   UNL     1     -15.155  15.886  -1.354  1.00  0.00    -0.200 F 
ATOM     75  F   UNL     1     -13.865  17.772   0.136  1.00  0.00    -0.200 F 
ENDBRANCH  51  65
BRANCH  52  76
ATOM     76  C   UNL     1     -12.996   4.107   3.634  1.00  0.00     0.064 A 
ATOM     77  C   UNL     1     -11.775   3.475   3.914  1.00  0.00     0.173 A 
ATOM     78  C   UNL     1     -14.164   3.339   3.737  1.00  0.00     0.173 A 
ATOM     79  F   UNL     1     -10.628   4.166   3.837  1.00  0.00    -0.203 F 
ATOM     80  C   UNL     1     -11.723   2.127   4.261  1.00  0.00     0.198 A 
ATOM     81  C   UNL     1     -14.114   1.998   4.115  1.00  0.00     0.198 A 
ATOM     82  F   UNL     1     -15.359   3.902   3.508  1.00  0.00    -0.203 F 
ATOM     83  F   UNL     1     -10.540   1.541   4.490  1.00  0.00    -0.200 F 
ATOM     84  C   UNL     1     -12.893   1.391   4.367  1.00  0.00     0.200 A 
ATOM     85  F   UNL     1     -15.249   1.299   4.248  1.00  0.00    -0.200 F 
ATOM     86  F   UNL     1     -12.845   0.099   4.719  1.00  0.00    -0.200 F 
ENDBRANCH  52  76
BRANCH  64  87
ATOM     87  C   UNL     1     -15.701   9.799   6.658  1.00  0.00     0.064 A 
ATOM     88  C   UNL     1     -17.054  10.174   6.635  1.00  0.00     0.173 A 
ATOM     89  C   UNL     1     -15.062   9.730   7.904  1.00  0.00     0.173 A 
ATOM     90  F   UNL     1     -17.711  10.267   5.469  1.00  0.00    -0.203 F 
ATOM     91  C   UNL     1     -17.733  10.490   7.809  1.00  0.00     0.198 A 
ATOM     92  C   UNL     1     -15.754  10.013   9.080  1.00  0.00     0.198 A 
ATOM     93  F   UNL     1     -13.773   9.368   7.984  1.00  0.00    -0.203 F 
ATOM     94  F   UNL     1     -19.011  10.889   7.756  1.00  0.00    -0.200 F 
ATOM     95  C   UNL     1     -17.084  10.404   9.030  1.00  0.00     0.200 A 
ATOM     96  F   UNL     1     -15.133   9.904  10.263  1.00  0.00    -0.200 F 
ATOM     97  F   UNL     1     -17.741  10.696  10.161  1.00  0.00    -0.200 F 
ENDBRANCH  64  87
ENDBRANCH  38  39
ENDBRANCH  31  33
ENDBRANCH  30  31
ENDBRANCH  29  30
ENDBRANCH  28  29
ENDBRANCH  27  28
ENDBRANCH  26  27
ENDBRANCH  25  26
ENDBRANCH  24  25
ENDBRANCH   1  24
TORSDOF 24
