REMARK SMILES C[N@@H+]1CCN(C(=O)c2ccc3[nH]c4c(c3c2)CSCC4)C[C@H]1C(=O)OCCOCCOCCOCCOC(=O)c1ccc(-c2c3nc(c(-c4c(F)c(F)c(F)c(F)c4F)c4ccc([nH]4)c(-c4c(F)c(F)c(F)c(F)c4F)c4nc(c(-c5c(F)c(F)c(F)c(F)c5F)c5ccc2[nH]5)C=C4)C=C3)cc1
REMARK SMILES IDX 31 1 30 2 29 3 28 4 27 5 26 6 25 7 23 8 24 9 22 10 1 11 2 12
REMARK SMILES IDX 3 13 4 15 21 16 5 17 6 18 7 19 8 20 9 21 16 22 10 23 15 24
REMARK SMILES IDX 11 25 14 26 12 27 13 28 17 29 20 31 18 32 19 33 32 34 33 35
REMARK SMILES IDX 34 36 35 37 36 38 37 39 38 40 39 41 40 42 41 43 102 44 42 45
REMARK SMILES IDX 101 46 43 47 44 48 45 49 95 50 46 51 100 52 94 53 96 54
REMARK SMILES IDX 47 55 99 56 93 57 92 58 48 60 80 61 60 62 79 63 61 64 64 65
REMARK SMILES IDX 78 66 97 67 62 68 63 69 77 71 98 72 65 73 49 74 50 75 58 76
REMARK SMILES IDX 51 77 52 78 56 79 59 80 53 81 54 82 57 83 55 84 81 85 82 86
REMARK SMILES IDX 90 87 83 88 84 89 88 90 91 91 85 92 86 93 89 94 87 95 66 96
REMARK SMILES IDX 67 97 75 98 68 99 69 100 73 101 76 102 70 103 71 104 74 105
REMARK SMILES IDX 72 106
REMARK H PARENT 2 14 12 30 96 59 64 70
REMARK Flexibility Score: inf
ROOT
ATOM      1  O   UNL     1       3.389  -2.098  -0.050  1.00  0.00    -0.377 OA
ENDROOT
BRANCH   1   2
ATOM      2  C   UNL     1       3.461  -2.907   1.105  1.00  0.00     0.188 C 
BRANCH   2   3
ATOM      3  C   UNL     1       2.630  -4.188   1.067  1.00  0.00     0.188 C 
BRANCH   3   4
ATOM      4  O   UNL     1       2.940  -5.101   0.035  1.00  0.00    -0.376 OA
BRANCH   4   5
ATOM      5  C   UNL     1       2.340  -4.998  -1.252  1.00  0.00     0.202 C 
BRANCH   5   6
ATOM      6  C   UNL     1       1.071  -4.186  -1.596  1.00  0.00     0.261 C 
BRANCH   6   7
ATOM      7  O   UNL     1       1.025  -2.769  -1.286  1.00  0.00    -0.459 OA
BRANCH   7   8
ATOM      8  C   UNL     1       0.139  -2.456  -0.310  1.00  0.00     0.366 C 
ATOM      9  O   UNL     1      -0.427  -3.322   0.368  1.00  0.00    -0.245 OA
BRANCH   8  10
ATOM     10  C   UNL     1      -0.260  -1.011  -0.065  1.00  0.00     0.314 C 
ATOM     11  C   UNL     1       1.846   0.264  -0.387  1.00  0.00     0.333 C 
ATOM     12  N   UNL     1       0.418   0.190  -0.665  1.00  0.00    -0.323 N 
ATOM     13  C   UNL     1      -0.222   1.403  -0.052  1.00  0.00     0.284 C 
ATOM     14  H   UNL     1       0.314   0.129  -1.677  1.00  0.00     0.348 HD
ATOM     15  C   UNL     1      -1.752   1.471  -0.250  1.00  0.00     0.181 C 
ATOM     16  C   UNL     1      -1.740  -0.959  -0.508  1.00  0.00     0.197 C 
ATOM     17  N   UNL     1      -2.385   0.204   0.099  1.00  0.00    -0.326 N 
BRANCH  17  18
ATOM     18  C   UNL     1      -3.445   0.157   0.987  1.00  0.00     0.254 C 
ATOM     19  O   UNL     1      -3.944   1.144   1.519  1.00  0.00    -0.269 OA
BRANCH  18  20
ATOM     20  C   UNL     1      -4.036  -1.164   1.275  1.00  0.00     0.040 A 
ATOM     21  C   UNL     1      -3.399  -2.061   2.136  1.00  0.00     0.016 A 
ATOM     22  C   UNL     1      -5.224  -1.497   0.614  1.00  0.00     0.024 A 
ATOM     23  C   UNL     1      -3.933  -3.337   2.347  1.00  0.00     0.027 A 
ATOM     24  C   UNL     1      -5.781  -2.771   0.827  1.00  0.00     0.004 A 
ATOM     25  C   UNL     1      -5.127  -3.658   1.686  1.00  0.00     0.046 A 
ATOM     26  C   UNL     1      -6.955  -3.422   0.346  1.00  0.00    -0.009 A 
ATOM     27  N   UNL     1      -5.877  -4.813   1.722  1.00  0.00    -0.358 N 
ATOM     28  C   UNL     1      -7.006  -4.658   0.965  1.00  0.00     0.021 A 
ATOM     29  C   UNL     1      -7.976  -2.856  -0.586  1.00  0.00     0.107 C 
ATOM     30  H   UNL     1      -5.637  -5.628   2.219  1.00  0.00     0.166 HD
ATOM     31  C   UNL     1      -8.088  -5.676   0.855  1.00  0.00     0.065 C 
ATOM     32  S   UNL     1      -9.265  -4.054  -1.089  1.00  0.00    -0.157 SA
ATOM     33  C   UNL     1      -9.412  -5.004   0.470  1.00  0.00     0.076 C 
ENDBRANCH  18  20
ENDBRANCH  17  18
ENDBRANCH   8  10
ENDBRANCH   7   8
ENDBRANCH   6   7
ENDBRANCH   5   6
ENDBRANCH   4   5
ENDBRANCH   3   4
ENDBRANCH   2   3
ENDBRANCH   1   2
BRANCH   1  34
ATOM     34  C   UNL     1       4.292  -2.337  -1.121  1.00  0.00     0.188 C 
BRANCH  34  35
ATOM     35  C   UNL     1       5.729  -2.663  -0.726  1.00  0.00     0.188 C 
BRANCH  35  36
ATOM     36  O   UNL     1       6.381  -1.681   0.079  1.00  0.00    -0.376 OA
BRANCH  36  37
ATOM     37  C   UNL     1       6.173  -0.311  -0.279  1.00  0.00     0.202 C 
BRANCH  37  38
ATOM     38  C   UNL     1       6.829   0.138  -1.595  1.00  0.00     0.261 C 
BRANCH  38  39
ATOM     39  O   UNL     1       6.220  -0.518  -2.719  1.00  0.00    -0.460 OA
BRANCH  39  40
ATOM     40  C   UNL     1       7.058  -1.159  -3.570  1.00  0.00     0.338 C 
ATOM     41  O   UNL     1       8.264  -1.011  -3.675  1.00  0.00    -0.246 OA
BRANCH  40  42
ATOM     42  C   UNL     1       6.311  -2.306  -4.134  1.00  0.00     0.060 A 
ATOM     43  C   UNL     1       4.984  -2.180  -4.548  1.00  0.00     0.016 A 
ATOM     44  C   UNL     1       6.918  -3.571  -4.062  1.00  0.00     0.016 A 
ATOM     45  C   UNL     1       4.263  -3.328  -4.862  1.00  0.00     0.010 A 
ATOM     46  C   UNL     1       6.187  -4.721  -4.358  1.00  0.00     0.010 A 
ATOM     47  C   UNL     1       4.857  -4.602  -4.761  1.00  0.00    -0.014 A 
BRANCH  47  48
ATOM     48  C   UNL     1       4.121  -5.726  -5.352  1.00  0.00     0.031 A 
ATOM     49  C   UNL     1       3.906  -5.574  -6.821  1.00  0.00     0.074 A 
ATOM     50  C   UNL     1       3.772  -6.902  -4.790  1.00  0.00     0.049 A 
ATOM     51  N   UNL     1       2.787  -5.489  -7.463  1.00  0.00    -0.248 NA
ATOM     52  C   UNL     1       5.103  -5.416  -7.661  1.00  0.00     0.031 C 
ATOM     53  C   UNL     1       4.176  -7.457  -3.501  1.00  0.00     0.029 A 
ATOM     54  N   UNL     1       3.010  -7.902  -5.339  1.00  0.00    -0.354 N 
ATOM     55  C   UNL     1       3.129  -5.395  -8.810  1.00  0.00     0.074 A 
ATOM     56  C   UNL     1       4.561  -5.253  -8.867  1.00  0.00     0.031 C 
ATOM     57  C   UNL     1       3.808  -8.760  -3.444  1.00  0.00     0.029 A 
ATOM     58  C   UNL     1       3.036  -9.095  -4.632  1.00  0.00     0.049 A 
ATOM     59  H   UNL     1       2.488  -7.783  -6.165  1.00  0.00     0.167 HD
ATOM     60  C   UNL     1       2.226  -5.610  -9.803  1.00  0.00     0.037 A 
ATOM     61  C   UNL     1       2.503 -10.279  -5.022  1.00  0.00     0.037 A 
ATOM     62  C   UNL     1       0.874  -5.541  -9.327  1.00  0.00     0.049 A 
ATOM     63  C   UNL     1       1.469 -10.010  -6.050  1.00  0.00     0.074 A 
ATOM     64  C   UNL     1       0.060  -4.557  -8.805  1.00  0.00     0.029 A 
ATOM     65  N   UNL     1       0.234  -6.729  -9.097  1.00  0.00    -0.354 N 
ATOM     66  N   UNL     1       0.321  -9.441  -5.817  1.00  0.00    -0.248 NA
ATOM     67  C   UNL     1       1.812 -10.170  -7.457  1.00  0.00     0.031 C 
ATOM     68  C   UNL     1      -0.843  -5.231  -7.932  1.00  0.00     0.029 A 
ATOM     69  C   UNL     1      -0.530  -6.590  -7.969  1.00  0.00     0.049 A 
ATOM     70  H   UNL     1       0.311  -7.543  -9.646  1.00  0.00     0.167 HD
ATOM     71  C   UNL     1      -0.003  -8.812  -7.005  1.00  0.00     0.074 A 
ATOM     72  C   UNL     1       0.847  -9.433  -8.008  1.00  0.00     0.031 C 
ATOM     73  C   UNL     1      -0.712  -7.649  -7.003  1.00  0.00     0.037 A 
BRANCH  60  74
ATOM     74  C   UNL     1       2.566  -6.215 -11.141  1.00  0.00     0.064 A 
ATOM     75  C   UNL     1       1.610  -6.194 -12.176  1.00  0.00     0.173 A 
ATOM     76  C   UNL     1       3.668  -7.072 -11.343  1.00  0.00     0.173 A 
ATOM     77  F   UNL     1       0.504  -5.442 -12.070  1.00  0.00    -0.203 F 
ATOM     78  C   UNL     1       1.725  -7.013 -13.302  1.00  0.00     0.198 A 
ATOM     79  C   UNL     1       3.807  -7.846 -12.494  1.00  0.00     0.198 A 
ATOM     80  F   UNL     1       4.588  -7.277 -10.391  1.00  0.00    -0.203 F 
ATOM     81  F   UNL     1       0.734  -7.048 -14.203  1.00  0.00    -0.200 F 
ATOM     82  C   UNL     1       2.822  -7.839 -13.459  1.00  0.00     0.200 A 
ATOM     83  F   UNL     1       4.866  -8.660 -12.617  1.00  0.00    -0.200 F 
ATOM     84  F   UNL     1       2.908  -8.665 -14.510  1.00  0.00    -0.200 F 
ENDBRANCH  60  74
BRANCH  61  85
ATOM     85  C   UNL     1       2.941 -11.667  -4.731  1.00  0.00     0.064 A 
ATOM     86  C   UNL     1       2.089 -12.762  -4.969  1.00  0.00     0.173 A 
ATOM     87  C   UNL     1       4.295 -11.970  -4.501  1.00  0.00     0.173 A 
ATOM     88  F   UNL     1       0.789 -12.564  -5.234  1.00  0.00    -0.203 F 
ATOM     89  C   UNL     1       2.572 -14.073  -5.021  1.00  0.00     0.198 A 
ATOM     90  C   UNL     1       4.774 -13.281  -4.542  1.00  0.00     0.198 A 
ATOM     91  F   UNL     1       5.198 -10.994  -4.333  1.00  0.00    -0.203 F 
ATOM     92  F   UNL     1       1.742 -15.079  -5.331  1.00  0.00    -0.200 F 
ATOM     93  C   UNL     1       3.917 -14.330  -4.821  1.00  0.00     0.200 A 
ATOM     94  F   UNL     1       6.084 -13.514  -4.378  1.00  0.00    -0.200 F 
ATOM     95  F   UNL     1       4.394 -15.577  -4.940  1.00  0.00    -0.200 F 
ENDBRANCH  61  85
BRANCH  73  96
ATOM     96  C   UNL     1      -1.524  -7.333  -5.784  1.00  0.00     0.064 A 
ATOM     97  C   UNL     1      -0.980  -7.101  -4.510  1.00  0.00     0.173 A 
ATOM     98  C   UNL     1      -2.905  -7.152  -5.944  1.00  0.00     0.173 A 
ATOM     99  F   UNL     1       0.343  -7.151  -4.301  1.00  0.00    -0.203 F 
ATOM    100  C   UNL     1      -1.796  -6.753  -3.436  1.00  0.00     0.198 A 
ATOM    101  C   UNL     1      -3.711  -6.762  -4.879  1.00  0.00     0.198 A 
ATOM    102  F   UNL     1      -3.468  -7.310  -7.153  1.00  0.00    -0.203 F 
ATOM    103  F   UNL     1      -1.257  -6.555  -2.224  1.00  0.00    -0.200 F 
ATOM    104  C   UNL     1      -3.158  -6.576  -3.622  1.00  0.00     0.200 A 
ATOM    105  F   UNL     1      -5.018  -6.544  -5.077  1.00  0.00    -0.200 F 
ATOM    106  F   UNL     1      -3.934  -6.199  -2.596  1.00  0.00    -0.200 F 
ENDBRANCH  73  96
ENDBRANCH  47  48
ENDBRANCH  40  42
ENDBRANCH  39  40
ENDBRANCH  38  39
ENDBRANCH  37  38
ENDBRANCH  36  37
ENDBRANCH  35  36
ENDBRANCH  34  35
ENDBRANCH   1  34
TORSDOF 22
