REMARK SMILES Cn1cc(S(=O)(=O)NC[C@H]2CC[C@@H](C(=O)OCCOCCOCCOCCOC(=O)c3ccc(-c4c5nc(c(-c6c(F)c(F)c(F)c(F)c6F)c6ccc([nH]6)c(-c6c(F)c(F)c(F)c(F)c6F)c6nc(c(-c7c(F)c(F)c(F)c(F)c7F)c7ccc4[nH]7)C=C6)C=C5)cc3)CC2)cn1
REMARK SMILES IDX 21 1 20 2 19 3 18 4 17 5 16 6 14 7 15 8 13 9 10 10 11 11
REMARK SMILES IDX 95 12 12 13 94 14 9 15 8 16 5 18 6 19 7 20 4 21 1 22 2 23
REMARK SMILES IDX 3 24 97 25 96 26 22 27 23 28 24 29 25 30 26 31 27 32 28 33
REMARK SMILES IDX 29 34 30 35 31 36 32 37 93 38 33 39 92 40 34 41 35 42 36 43
REMARK SMILES IDX 86 44 37 45 91 46 85 47 87 48 38 49 90 50 84 51 83 52 39 54
REMARK SMILES IDX 71 55 51 56 70 57 52 58 55 59 69 60 88 61 53 62 54 63 68 65
REMARK SMILES IDX 89 66 56 67 40 68 41 69 49 70 42 71 43 72 47 73 50 74 44 75
REMARK SMILES IDX 45 76 48 77 46 78 72 79 73 80 81 81 74 82 75 83 79 84 82 85
REMARK SMILES IDX 76 86 77 87 80 88 78 89 57 90 58 91 66 92 59 93 60 94 64 95
REMARK SMILES IDX 67 96 61 97 62 98 65 99 63 100
REMARK H PARENT 8 17 87 53 55 64
REMARK Flexibility Score: inf
ROOT
ATOM      1  C   UNL     1       7.536  -4.018  -3.042  1.00  0.00     0.188 C 
ENDROOT
BRANCH   1   2
ATOM      2  C   UNL     1       8.321  -2.754  -2.675  1.00  0.00     0.188 C 
BRANCH   2   3
ATOM      3  O   UNL     1       8.320  -2.451  -1.287  1.00  0.00    -0.376 OA
BRANCH   3   4
ATOM      4  C   UNL     1       7.612  -1.266  -0.951  1.00  0.00     0.202 C 
BRANCH   4   5
ATOM      5  C   UNL     1       6.089  -1.407  -0.942  1.00  0.00     0.261 C 
BRANCH   5   6
ATOM      6  O   UNL     1       5.488  -2.024  -2.096  1.00  0.00    -0.463 OA
BRANCH   6   7
ATOM      7  C   UNL     1       5.249  -1.253  -3.178  1.00  0.00     0.309 C 
ATOM      8  O   UNL     1       5.700  -0.123  -3.324  1.00  0.00    -0.252 OA
BRANCH   7   9
ATOM      9  C   UNL     1       4.266  -1.894  -4.169  1.00  0.00     0.099 C 
ATOM     10  C   UNL     1       2.044  -3.040  -2.524  1.00  0.00     0.004 C 
ATOM     11  C   UNL     1       2.208  -1.530  -2.752  1.00  0.00     0.006 C 
ATOM     12  C   UNL     1       3.300  -3.865  -2.835  1.00  0.00     0.006 C 
ATOM     13  C   UNL     1       2.916  -1.181  -4.061  1.00  0.00     0.015 C 
ATOM     14  C   UNL     1       4.012  -3.406  -4.102  1.00  0.00     0.015 C 
BRANCH  10  15
ATOM     15  C   UNL     1       1.475  -3.371  -1.134  1.00  0.00     0.102 C 
BRANCH  15  16
ATOM     16  N   UNL     1       2.382  -3.094  -0.011  1.00  0.00    -0.211 NA
ATOM     17  H   UNL     1       2.232  -3.850   0.656  1.00  0.00     0.141 HD
BRANCH  16  18
ATOM     18  S   UNL     1       2.362  -1.682   0.892  1.00  0.00     0.243 S 
ATOM     19  O   UNL     1       3.483  -0.884   0.457  1.00  0.00    -0.207 OA
ATOM     20  O   UNL     1       2.220  -2.064   2.281  1.00  0.00    -0.207 OA
BRANCH  18  21
ATOM     21  C   UNL     1       0.996  -0.718   0.568  1.00  0.00     0.120 A 
ATOM     22  C   UNL     1      -2.448   0.134   0.042  1.00  0.00     0.173 C 
ATOM     23  N   UNL     1      -1.021   0.029   0.226  1.00  0.00    -0.274 N 
ATOM     24  C   UNL     1      -0.333  -1.065   0.655  1.00  0.00     0.130 A 
ATOM     25  N   UNL     1      -0.232   1.076  -0.084  1.00  0.00    -0.180 NA
ATOM     26  C   UNL     1       1.005   0.618   0.140  1.00  0.00     0.156 A 
ENDBRANCH  18  21
ENDBRANCH  16  18
ENDBRANCH  15  16
ENDBRANCH  10  15
ENDBRANCH   7   9
ENDBRANCH   6   7
ENDBRANCH   5   6
ENDBRANCH   4   5
ENDBRANCH   3   4
ENDBRANCH   2   3
ENDBRANCH   1   2
BRANCH   1  27
ATOM     27  O   UNL     1       6.744  -4.659  -2.050  1.00  0.00    -0.377 OA
BRANCH  27  28
ATOM     28  C   UNL     1       7.343  -4.989  -0.798  1.00  0.00     0.188 C 
BRANCH  28  29
ATOM     29  C   UNL     1       8.850  -5.313  -0.725  1.00  0.00     0.188 C 
BRANCH  29  30
ATOM     30  O   UNL     1       9.455  -5.646  -1.966  1.00  0.00    -0.376 OA
BRANCH  30  31
ATOM     31  C   UNL     1       9.601  -7.029  -2.261  1.00  0.00     0.202 C 
BRANCH  31  32
ATOM     32  C   UNL     1       8.290  -7.798  -2.473  1.00  0.00     0.261 C 
BRANCH  32  33
ATOM     33  O   UNL     1       7.489  -7.965  -1.291  1.00  0.00    -0.460 OA
BRANCH  33  34
ATOM     34  C   UNL     1       8.062  -8.598  -0.246  1.00  0.00     0.338 C 
ATOM     35  O   UNL     1       9.163  -9.113  -0.195  1.00  0.00    -0.246 OA
BRANCH  34  36
ATOM     36  C   UNL     1       7.175  -8.442   0.916  1.00  0.00     0.060 A 
ATOM     37  C   UNL     1       7.654  -7.769   2.046  1.00  0.00     0.016 A 
ATOM     38  C   UNL     1       5.897  -9.006   0.903  1.00  0.00     0.016 A 
ATOM     39  C   UNL     1       6.871  -7.708   3.196  1.00  0.00     0.010 A 
ATOM     40  C   UNL     1       5.120  -8.959   2.061  1.00  0.00     0.010 A 
ATOM     41  C   UNL     1       5.624  -8.349   3.223  1.00  0.00    -0.014 A 
BRANCH  41  42
ATOM     42  C   UNL     1       4.956  -8.580   4.524  1.00  0.00     0.031 A 
ATOM     43  C   UNL     1       5.214  -9.881   5.231  1.00  0.00     0.074 A 
ATOM     44  C   UNL     1       4.159  -7.649   5.074  1.00  0.00     0.049 A 
ATOM     45  N   UNL     1       4.742 -10.319   6.370  1.00  0.00    -0.248 NA
ATOM     46  C   UNL     1       6.131 -10.818   4.560  1.00  0.00     0.031 C 
ATOM     47  C   UNL     1       3.858  -6.343   4.495  1.00  0.00     0.029 A 
ATOM     48  N   UNL     1       3.452  -7.673   6.249  1.00  0.00    -0.354 N 
ATOM     49  C   UNL     1       5.305 -11.575   6.551  1.00  0.00     0.074 A 
ATOM     50  C   UNL     1       6.125 -11.848   5.391  1.00  0.00     0.031 C 
ATOM     51  C   UNL     1       3.016  -5.689   5.314  1.00  0.00     0.029 A 
ATOM     52  C   UNL     1       2.705  -6.541   6.462  1.00  0.00     0.049 A 
ATOM     53  H   UNL     1       3.478  -8.428   6.880  1.00  0.00     0.167 HD
ATOM     54  C   UNL     1       5.158 -12.423   7.596  1.00  0.00     0.037 A 
ATOM     55  C   UNL     1       1.859  -6.241   7.466  1.00  0.00     0.037 A 
ATOM     56  C   UNL     1       4.337 -12.154   8.744  1.00  0.00     0.049 A 
ATOM     57  C   UNL     1       1.669  -7.227   8.592  1.00  0.00     0.074 A 
ATOM     58  C   UNL     1       4.128 -12.943   9.861  1.00  0.00     0.029 A 
ATOM     59  N   UNL     1       3.579 -11.005   8.916  1.00  0.00    -0.354 N 
ATOM     60  N   UNL     1       2.228  -8.399   8.773  1.00  0.00    -0.248 NA
ATOM     61  C   UNL     1       0.733  -6.841   9.659  1.00  0.00     0.031 C 
ATOM     62  C   UNL     1       3.208 -12.291  10.689  1.00  0.00     0.029 A 
ATOM     63  C   UNL     1       2.884 -11.073  10.112  1.00  0.00     0.049 A 
ATOM     64  H   UNL     1       3.541 -10.252   8.283  1.00  0.00     0.167 HD
ATOM     65  C   UNL     1       1.738  -8.876   9.983  1.00  0.00     0.074 A 
ATOM     66  C   UNL     1       0.844  -7.861  10.498  1.00  0.00     0.031 C 
ATOM     67  C   UNL     1       2.005 -10.047  10.613  1.00  0.00     0.037 A 
BRANCH  54  68
ATOM     68  C   UNL     1       5.887 -13.731   7.527  1.00  0.00     0.064 A 
ATOM     69  C   UNL     1       7.281 -13.806   7.675  1.00  0.00     0.173 A 
ATOM     70  C   UNL     1       5.182 -14.927   7.327  1.00  0.00     0.173 A 
ATOM     71  F   UNL     1       8.002 -12.688   7.848  1.00  0.00    -0.203 F 
ATOM     72  C   UNL     1       7.944 -15.028   7.601  1.00  0.00     0.198 A 
ATOM     73  C   UNL     1       5.845 -16.150   7.281  1.00  0.00     0.198 A 
ATOM     74  F   UNL     1       3.849 -14.909   7.178  1.00  0.00    -0.203 F 
ATOM     75  F   UNL     1       9.280 -15.071   7.698  1.00  0.00    -0.200 F 
ATOM     76  C   UNL     1       7.225 -16.199   7.411  1.00  0.00     0.200 A 
ATOM     77  F   UNL     1       5.149 -17.282   7.104  1.00  0.00    -0.200 F 
ATOM     78  F   UNL     1       7.864 -17.375   7.344  1.00  0.00    -0.200 F 
ENDBRANCH  54  68
BRANCH  55  79
ATOM     79  C   UNL     1       1.124  -4.950   7.454  1.00  0.00     0.064 A 
ATOM     80  C   UNL     1       1.409  -3.946   8.390  1.00  0.00     0.173 A 
ATOM     81  C   UNL     1       0.104  -4.705   6.523  1.00  0.00     0.173 A 
ATOM     82  F   UNL     1       2.353  -4.147   9.321  1.00  0.00    -0.203 F 
ATOM     83  C   UNL     1       0.687  -2.754   8.408  1.00  0.00     0.198 A 
ATOM     84  C   UNL     1      -0.598  -3.502   6.525  1.00  0.00     0.198 A 
ATOM     85  F   UNL     1      -0.215  -5.638   5.614  1.00  0.00    -0.203 F 
ATOM     86  F   UNL     1       0.940  -1.835   9.350  1.00  0.00    -0.200 F 
ATOM     87  C   UNL     1      -0.312  -2.531   7.473  1.00  0.00     0.200 A 
ATOM     88  F   UNL     1      -1.564  -3.291   5.620  1.00  0.00    -0.200 F 
ATOM     89  F   UNL     1      -1.013  -1.389   7.498  1.00  0.00    -0.200 F 
ENDBRANCH  55  79
BRANCH  67  90
ATOM     90  C   UNL     1       1.355 -10.280  11.946  1.00  0.00     0.064 A 
ATOM     91  C   UNL     1      -0.015 -10.558  12.059  1.00  0.00     0.173 A 
ATOM     92  C   UNL     1       2.123 -10.268  13.120  1.00  0.00     0.173 A 
ATOM     93  F   UNL     1      -0.794 -10.570  10.967  1.00  0.00    -0.203 F 
ATOM     94  C   UNL     1      -0.597 -10.791  13.303  1.00  0.00     0.198 A 
ATOM     95  C   UNL     1       1.544 -10.530  14.358  1.00  0.00     0.198 A 
ATOM     96  F   UNL     1       3.440 -10.017  13.065  1.00  0.00    -0.203 F 
ATOM     97  F   UNL     1      -1.916 -11.010  13.392  1.00  0.00    -0.200 F 
ATOM     98  C   UNL     1       0.183 -10.784  14.450  1.00  0.00     0.200 A 
ATOM     99  F   UNL     1       2.301 -10.537  15.464  1.00  0.00    -0.200 F 
ATOM    100  F   UNL     1      -0.378 -11.015  15.645  1.00  0.00    -0.200 F 
ENDBRANCH  67  90
ENDBRANCH  41  42
ENDBRANCH  34  36
ENDBRANCH  33  34
ENDBRANCH  32  33
ENDBRANCH  31  32
ENDBRANCH  30  31
ENDBRANCH  29  30
ENDBRANCH  28  29
ENDBRANCH  27  28
ENDBRANCH   1  27
TORSDOF 24
