REMARK SMILES Nc1c(N2CCC(C(=O)OCCOCCOCCOCCOC(=O)c3ccc(-c4c5nc(c(-c6c(F)c(F)c(F)c(F)c6F)c6ccc([nH]6)c(-c6c(F)c(F)c(F)c(F)c6F)c6nc(c(-c7c(F)c(F)c(F)c(F)c7F)c7ccc4[nH]7)C=C6)C=C5)cc3)CC2)ncnc1N1CCN(c2ccccc2)CC1
REMARK SMILES IDX 15 1 14 2 13 3 12 4 11 5 10 6 8 7 9 8 7 9 4 10 5 11 89 12
REMARK SMILES IDX 6 13 88 14 3 15 2 16 93 17 90 18 92 19 91 20 1 21 94 24
REMARK SMILES IDX 95 25 105 26 96 27 104 28 97 29 98 30 99 31 103 32 100 33
REMARK SMILES IDX 102 34 101 35 16 36 17 37 18 38 19 39 20 40 21 41 22 42
REMARK SMILES IDX 23 43 24 44 25 45 26 46 87 47 27 48 86 49 28 50 29 51 30 52
REMARK SMILES IDX 80 53 31 54 85 55 79 56 81 57 32 58 84 59 78 60 77 61 33 63
REMARK SMILES IDX 65 64 45 65 64 66 46 67 49 68 63 69 82 70 47 71 48 72 62 74
REMARK SMILES IDX 83 75 50 76 34 77 35 78 43 79 36 80 37 81 41 82 44 83 38 84
REMARK SMILES IDX 39 85 42 86 40 87 66 88 67 89 75 90 68 91 69 92 73 93 76 94
REMARK SMILES IDX 70 95 71 96 74 97 72 98 51 99 52 100 60 101 53 102 54 103
REMARK SMILES IDX 58 104 61 105 55 106 56 107 59 108 57 109
REMARK H PARENT 1 22 1 23 81 62 49 73
REMARK Flexibility Score: inf
ROOT
ATOM      1  C   UNL     1      -5.789  -3.786   1.462  1.00  0.00     0.188 C 
ENDROOT
BRANCH   1   2
ATOM      2  C   UNL     1      -5.554  -5.288   1.631  1.00  0.00     0.188 C 
BRANCH   2   3
ATOM      3  O   UNL     1      -5.993  -5.959   2.800  1.00  0.00    -0.376 OA
BRANCH   3   4
ATOM      4  C   UNL     1      -5.684  -5.445   4.089  1.00  0.00     0.202 C 
BRANCH   4   5
ATOM      5  C   UNL     1      -4.267  -4.982   4.463  1.00  0.00     0.261 C 
BRANCH   5   6
ATOM      6  O   UNL     1      -3.691  -3.957   3.635  1.00  0.00    -0.463 OA
BRANCH   6   7
ATOM      7  C   UNL     1      -2.630  -4.326   2.882  1.00  0.00     0.309 C 
ATOM      8  O   UNL     1      -2.175  -5.465   2.833  1.00  0.00    -0.252 OA
BRANCH   7   9
ATOM      9  C   UNL     1      -1.973  -3.187   2.128  1.00  0.00     0.103 C 
ATOM     10  N   UNL     1      -0.785  -0.641   1.843  1.00  0.00    -0.355 N 
ATOM     11  C   UNL     1      -2.002  -0.880   1.108  1.00  0.00     0.119 C 
ATOM     12  C   UNL     1       0.094  -1.756   2.138  1.00  0.00     0.119 C 
ATOM     13  C   UNL     1      -2.810  -1.933   1.846  1.00  0.00     0.037 C 
ATOM     14  C   UNL     1      -0.699  -2.811   2.896  1.00  0.00     0.037 C 
BRANCH  10  15
ATOM     15  C   UNL     1      -0.301   0.648   1.729  1.00  0.00     0.157 A 
ATOM     16  C   UNL     1       0.655   0.998   0.774  1.00  0.00     0.118 A 
ATOM     17  C   UNL     1       1.050   2.342   0.777  1.00  0.00     0.157 A 
ATOM     18  N   UNL     1      -0.837   1.543   2.578  1.00  0.00    -0.217 NA
ATOM     19  N   UNL     1       0.578   3.233   1.666  1.00  0.00    -0.217 NA
ATOM     20  C   UNL     1      -0.362   2.789   2.506  1.00  0.00     0.226 A 
BRANCH  16  21
ATOM     21  N   UNL     1       1.152   0.086  -0.171  1.00  0.00    -0.393 N 
ATOM     22  H   UNL     1       0.857  -0.854  -0.150  1.00  0.00     0.156 HD
ATOM     23  H   UNL     1       1.794   0.385  -0.854  1.00  0.00     0.156 HD
ENDBRANCH  16  21
BRANCH  17  24
ATOM     24  N   UNL     1       1.981   2.794  -0.124  1.00  0.00    -0.351 N 
ATOM     25  C   UNL     1       3.224   3.375   0.361  1.00  0.00     0.139 C 
ATOM     26  C   UNL     1       1.767   2.761  -1.569  1.00  0.00     0.139 C 
ATOM     27  C   UNL     1       4.405   2.611  -0.280  1.00  0.00     0.138 C 
ATOM     28  C   UNL     1       2.966   2.103  -2.286  1.00  0.00     0.138 C 
ATOM     29  N   UNL     1       4.249   2.577  -1.743  1.00  0.00    -0.368 N 
BRANCH  29  30
ATOM     30  C   UNL     1       5.282   2.940  -2.572  1.00  0.00     0.037 A 
ATOM     31  C   UNL     1       6.568   2.414  -2.409  1.00  0.00     0.026 A 
ATOM     32  C   UNL     1       5.079   3.874  -3.595  1.00  0.00     0.026 A 
ATOM     33  C   UNL     1       7.617   2.802  -3.247  1.00  0.00     0.002 A 
ATOM     34  C   UNL     1       6.125   4.280  -4.424  1.00  0.00     0.002 A 
ATOM     35  C   UNL     1       7.395   3.740  -4.251  1.00  0.00     0.000 A 
ENDBRANCH  29  30
ENDBRANCH  17  24
ENDBRANCH  10  15
ENDBRANCH   7   9
ENDBRANCH   6   7
ENDBRANCH   5   6
ENDBRANCH   4   5
ENDBRANCH   3   4
ENDBRANCH   2   3
ENDBRANCH   1   2
BRANCH   1  36
ATOM     36  O   UNL     1      -6.008  -3.068   2.658  1.00  0.00    -0.377 OA
BRANCH  36  37
ATOM     37  C   UNL     1      -7.354  -2.728   2.978  1.00  0.00     0.188 C 
BRANCH  37  38
ATOM     38  C   UNL     1      -8.477  -3.673   2.509  1.00  0.00     0.188 C 
BRANCH  38  39
ATOM     39  O   UNL     1      -8.476  -3.926   1.110  1.00  0.00    -0.376 OA
BRANCH  39  40
ATOM     40  C   UNL     1      -9.277  -3.107   0.267  1.00  0.00     0.202 C 
BRANCH  40  41
ATOM     41  C   UNL     1      -8.912  -1.616   0.163  1.00  0.00     0.261 C 
BRANCH  41  42
ATOM     42  O   UNL     1      -9.043  -0.830   1.360  1.00  0.00    -0.460 OA
BRANCH  42  43
ATOM     43  C   UNL     1     -10.207  -0.862   2.039  1.00  0.00     0.338 C 
ATOM     44  O   UNL     1     -11.243  -1.411   1.712  1.00  0.00    -0.246 OA
BRANCH  43  45
ATOM     45  C   UNL     1      -9.948  -0.288   3.376  1.00  0.00     0.060 A 
ATOM     46  C   UNL     1     -10.171  -1.084   4.507  1.00  0.00     0.016 A 
ATOM     47  C   UNL     1      -9.470   1.018   3.514  1.00  0.00     0.016 A 
ATOM     48  C   UNL     1      -9.936  -0.568   5.781  1.00  0.00     0.010 A 
ATOM     49  C   UNL     1      -9.262   1.544   4.792  1.00  0.00     0.010 A 
ATOM     50  C   UNL     1      -9.522   0.762   5.931  1.00  0.00    -0.014 A 
BRANCH  50  51
ATOM     51  C   UNL     1      -9.572   1.388   7.274  1.00  0.00     0.031 A 
ATOM     52  C   UNL     1     -10.820   2.131   7.661  1.00  0.00     0.074 A 
ATOM     53  C   UNL     1      -8.560   1.263   8.150  1.00  0.00     0.049 A 
ATOM     54  N   UNL     1     -11.111   2.744   8.780  1.00  0.00    -0.248 NA
ATOM     55  C   UNL     1     -11.889   2.187   6.649  1.00  0.00     0.031 C 
ATOM     56  C   UNL     1      -7.319   0.532   7.907  1.00  0.00     0.029 A 
ATOM     57  N   UNL     1      -8.422   1.748   9.427  1.00  0.00    -0.354 N 
ATOM     58  C   UNL     1     -12.395   3.244   8.609  1.00  0.00     0.074 A 
ATOM     59  C   UNL     1     -12.813   2.904   7.267  1.00  0.00     0.031 C 
ATOM     60  C   UNL     1      -6.544   0.615   9.003  1.00  0.00     0.029 A 
ATOM     61  C   UNL     1      -7.223   1.427  10.014  1.00  0.00     0.049 A 
ATOM     62  H   UNL     1      -9.118   2.278   9.880  1.00  0.00     0.167 HD
ATOM     63  C   UNL     1     -13.165   3.910   9.499  1.00  0.00     0.037 A 
ATOM     64  C   UNL     1      -6.731   1.760  11.225  1.00  0.00     0.037 A 
ATOM     65  C   UNL     1     -12.746   4.255  10.830  1.00  0.00     0.049 A 
ATOM     66  C   UNL     1      -7.569   2.593  12.164  1.00  0.00     0.074 A 
ATOM     67  C   UNL     1     -13.458   4.923  11.809  1.00  0.00     0.029 A 
ATOM     68  N   UNL     1     -11.499   3.966  11.365  1.00  0.00    -0.354 N 
ATOM     69  N   UNL     1      -8.794   3.033  12.009  1.00  0.00    -0.248 NA
ATOM     70  C   UNL     1      -6.955   2.978  13.445  1.00  0.00     0.031 C 
ATOM     71  C   UNL     1     -12.624   5.088  12.917  1.00  0.00     0.029 A 
ATOM     72  C   UNL     1     -11.411   4.472  12.650  1.00  0.00     0.049 A 
ATOM     73  H   UNL     1     -10.784   3.474  10.900  1.00  0.00     0.167 HD
ATOM     74  C   UNL     1      -9.107   3.720  13.176  1.00  0.00     0.074 A 
ATOM     75  C   UNL     1      -7.947   3.632  14.037  1.00  0.00     0.031 C 
ATOM     76  C   UNL     1     -10.253   4.366  13.502  1.00  0.00     0.037 A 
BRANCH  63  77
ATOM     77  C   UNL     1     -14.538   4.322   9.062  1.00  0.00     0.064 A 
ATOM     78  C   UNL     1     -15.565   3.381   8.893  1.00  0.00     0.173 A 
ATOM     79  C   UNL     1     -14.848   5.676   8.868  1.00  0.00     0.173 A 
ATOM     80  F   UNL     1     -15.314   2.072   9.052  1.00  0.00    -0.203 F 
ATOM     81  C   UNL     1     -16.848   3.779   8.530  1.00  0.00     0.198 A 
ATOM     82  C   UNL     1     -16.140   6.073   8.534  1.00  0.00     0.198 A 
ATOM     83  F   UNL     1     -13.902   6.615   9.020  1.00  0.00    -0.203 F 
ATOM     84  F   UNL     1     -17.804   2.860   8.338  1.00  0.00    -0.200 F 
ATOM     85  C   UNL     1     -17.137   5.125   8.361  1.00  0.00     0.200 A 
ATOM     86  F   UNL     1     -16.420   7.375   8.384  1.00  0.00    -0.200 F 
ATOM     87  F   UNL     1     -18.377   5.509   8.028  1.00  0.00    -0.200 F 
ENDBRANCH  63  77
BRANCH  64  88
ATOM     88  C   UNL     1      -5.375   1.297  11.625  1.00  0.00     0.064 A 
ATOM     89  C   UNL     1      -5.208   0.352  12.647  1.00  0.00     0.173 A 
ATOM     90  C   UNL     1      -4.221   1.786  10.995  1.00  0.00     0.173 A 
ATOM     91  F   UNL     1      -6.278  -0.124  13.300  1.00  0.00    -0.203 F 
ATOM     92  C   UNL     1      -3.939  -0.082  13.027  1.00  0.00     0.198 A 
ATOM     93  C   UNL     1      -2.954   1.331  11.357  1.00  0.00     0.198 A 
ATOM     94  F   UNL     1      -4.324   2.698  10.017  1.00  0.00    -0.203 F 
ATOM     95  F   UNL     1      -3.806  -0.958  14.032  1.00  0.00    -0.200 F 
ATOM     96  C   UNL     1      -2.814   0.401  12.376  1.00  0.00     0.200 A 
ATOM     97  F   UNL     1      -1.870   1.794  10.720  1.00  0.00    -0.200 F 
ATOM     98  F   UNL     1      -1.595  -0.024  12.735  1.00  0.00    -0.200 F 
ENDBRANCH  64  88
BRANCH  76  99
ATOM     99  C   UNL     1     -10.341   5.021  14.850  1.00  0.00     0.064 A 
ATOM    100  C   UNL     1      -9.662   6.216  15.127  1.00  0.00     0.173 A 
ATOM    101  C   UNL     1     -11.213   4.518  15.829  1.00  0.00     0.173 A 
ATOM    102  F   UNL     1      -8.810   6.732  14.228  1.00  0.00    -0.203 F 
ATOM    103  C   UNL     1      -9.854   6.884  16.334  1.00  0.00     0.198 A 
ATOM    104  C   UNL     1     -11.424   5.204  17.022  1.00  0.00     0.198 A 
ATOM    105  F   UNL     1     -11.895   3.384  15.608  1.00  0.00    -0.203 F 
ATOM    106  F   UNL     1      -9.182   8.016  16.584  1.00  0.00    -0.200 F 
ATOM    107  C   UNL     1     -10.745   6.386  17.273  1.00  0.00     0.200 A 
ATOM    108  F   UNL     1     -12.301   4.731  17.918  1.00  0.00    -0.200 F 
ATOM    109  F   UNL     1     -10.952   7.048  18.420  1.00  0.00    -0.200 F 
ENDBRANCH  76  99
ENDBRANCH  50  51
ENDBRANCH  43  45
ENDBRANCH  42  43
ENDBRANCH  41  42
ENDBRANCH  40  41
ENDBRANCH  39  40
ENDBRANCH  38  39
ENDBRANCH  37  38
ENDBRANCH  36  37
ENDBRANCH   1  36
TORSDOF 24
