REMARK SMILES CC1=C(C(=O)OCCOCCOCCOCCOC(=O)c2ccc(-c3c4nc(c(-c5c(F)c(F)c(F)c(F)c5F)c5ccc([nH]5)c(-c5c(F)c(F)c(F)c(F)c5F)c5nc(c(-c6c(F)c(F)c(F)c(F)c6F)c6ccc3[nH]6)C=C5)C=C4)cc2)N2C(=O)[C@@H](NC(=O)c3ccn(C)n3)[C@H]2SC1
REMARK SMILES IDX 12 1 11 2 10 3 9 4 8 5 7 6 6 7 4 8 5 9 3 10 1 11 2 12 99 13
REMARK SMILES IDX 84 14 98 15 85 16 97 17 86 18 87 19 88 20 89 21 90 23 91 24
REMARK SMILES IDX 92 25 96 26 93 27 94 28 95 29 13 30 14 31 15 32 16 33 17 34
REMARK SMILES IDX 18 35 19 36 20 37 21 38 22 39 83 40 23 41 82 42 24 43 25 44
REMARK SMILES IDX 26 45 76 46 27 47 81 48 75 49 77 50 28 51 80 52 74 53 73 54
REMARK SMILES IDX 29 56 61 57 41 58 60 59 42 60 45 61 59 62 78 63 43 64 44 65
REMARK SMILES IDX 58 67 79 68 46 69 30 70 31 71 39 72 32 73 33 74 37 75 40 76
REMARK SMILES IDX 34 77 35 78 38 79 36 80 62 81 63 82 71 83 64 84 65 85 69 86
REMARK SMILES IDX 72 87 66 88 67 89 70 90 68 91 47 92 48 93 56 94 49 95 50 96
REMARK SMILES IDX 54 97 57 98 51 99 52 100 55 101 53 102
REMARK H PARENT 88 22 77 55 45 66
REMARK Flexibility Score: inf
ROOT
ATOM      1  O   UNL     1       0.822  -3.439   2.526  1.00  0.00    -0.377 OA
ENDROOT
BRANCH   1   2
ATOM      2  C   UNL     1      -0.373  -2.980   1.912  1.00  0.00     0.188 C 
BRANCH   2   3
ATOM      3  C   UNL     1      -1.159  -3.941   1.002  1.00  0.00     0.188 C 
BRANCH   3   4
ATOM      4  O   UNL     1      -0.529  -5.205   0.791  1.00  0.00    -0.376 OA
BRANCH   4   5
ATOM      5  C   UNL     1      -0.139  -5.448  -0.555  1.00  0.00     0.202 C 
BRANCH   5   6
ATOM      6  C   UNL     1       1.215  -4.825  -0.889  1.00  0.00     0.261 C 
BRANCH   6   7
ATOM      7  O   UNL     1       1.287  -3.423  -0.590  1.00  0.00    -0.459 OA
BRANCH   7   8
ATOM      8  C   UNL     1       0.738  -2.570  -1.482  1.00  0.00     0.355 C 
ATOM      9  O   UNL     1       0.160  -2.887  -2.511  1.00  0.00    -0.244 OA
BRANCH   8  10
ATOM     10  C   UNL     1       0.901  -1.147  -1.022  1.00  0.00     0.131 C 
ATOM     11  C   UNL     1       3.345  -1.398  -0.360  1.00  0.00     0.043 C 
ATOM     12  C   UNL     1       2.047  -0.639  -0.500  1.00  0.00    -0.032 C 
ATOM     13  C   UNL     1       2.174   0.777   0.049  1.00  0.00     0.105 C 
ATOM     14  N   UNL     1      -0.178  -0.334  -1.187  1.00  0.00    -0.289 N 
ATOM     15  S   UNL     1       0.594   1.612   0.387  1.00  0.00    -0.129 SA
ATOM     16  C   UNL     1      -1.524  -0.453  -1.155  1.00  0.00     0.253 C 
ATOM     17  C   UNL     1      -0.116   1.107  -1.199  1.00  0.00     0.181 C 
ATOM     18  O   UNL     1      -2.266  -1.383  -0.961  1.00  0.00    -0.272 OA
ATOM     19  C   UNL     1      -1.662   1.092  -1.336  1.00  0.00     0.206 C 
BRANCH  19  20
ATOM     20  N   UNL     1      -2.444   1.844  -0.323  1.00  0.00    -0.336 N 
ATOM     21  C   UNL     1      -3.676   2.432  -0.531  1.00  0.00     0.272 C 
ATOM     22  H   UNL     1      -2.050   1.931   0.575  1.00  0.00     0.164 HD
ATOM     23  O   UNL     1      -4.176   3.142   0.338  1.00  0.00    -0.267 OA
BRANCH  21  24
ATOM     24  C   UNL     1      -4.319   2.154  -1.818  1.00  0.00     0.150 A 
ATOM     25  C   UNL     1      -4.891   0.922  -2.233  1.00  0.00     0.056 A 
ATOM     26  N   UNL     1      -4.317   3.047  -2.826  1.00  0.00    -0.168 NA
ATOM     27  C   UNL     1      -5.260   1.116  -3.542  1.00  0.00     0.109 A 
ATOM     28  N   UNL     1      -4.928   2.404  -3.837  1.00  0.00    -0.275 N 
ATOM     29  C   UNL     1      -5.114   3.064  -5.107  1.00  0.00     0.173 C 
ENDBRANCH  21  24
ENDBRANCH  19  20
ENDBRANCH   8  10
ENDBRANCH   7   8
ENDBRANCH   6   7
ENDBRANCH   5   6
ENDBRANCH   4   5
ENDBRANCH   3   4
ENDBRANCH   2   3
ENDBRANCH   1   2
BRANCH   1  30
ATOM     30  C   UNL     1       0.826  -4.704   3.178  1.00  0.00     0.188 C 
BRANCH  30  31
ATOM     31  C   UNL     1      -0.474  -5.293   3.762  1.00  0.00     0.188 C 
BRANCH  31  32
ATOM     32  O   UNL     1      -1.508  -4.347   3.996  1.00  0.00    -0.376 OA
BRANCH  32  33
ATOM     33  C   UNL     1      -1.740  -3.978   5.348  1.00  0.00     0.202 C 
BRANCH  33  34
ATOM     34  C   UNL     1      -0.671  -3.048   5.932  1.00  0.00     0.261 C 
BRANCH  34  35
ATOM     35  O   UNL     1       0.628  -3.646   6.077  1.00  0.00    -0.460 OA
BRANCH  35  36
ATOM     36  C   UNL     1       0.719  -4.734   6.870  1.00  0.00     0.338 C 
ATOM     37  O   UNL     1      -0.159  -5.252   7.535  1.00  0.00    -0.246 OA
BRANCH  36  38
ATOM     38  C   UNL     1       2.056  -5.317   6.667  1.00  0.00     0.060 A 
ATOM     39  C   UNL     1       2.157  -6.643   6.229  1.00  0.00     0.016 A 
ATOM     40  C   UNL     1       3.199  -4.553   6.911  1.00  0.00     0.016 A 
ATOM     41  C   UNL     1       3.414  -7.223   6.069  1.00  0.00     0.010 A 
ATOM     42  C   UNL     1       4.455  -5.140   6.769  1.00  0.00     0.010 A 
ATOM     43  C   UNL     1       4.564  -6.487   6.381  1.00  0.00    -0.014 A 
BRANCH  43  44
ATOM     44  C   UNL     1       5.867  -7.176   6.511  1.00  0.00     0.031 A 
ATOM     45  C   UNL     1       6.269  -7.675   7.870  1.00  0.00     0.074 A 
ATOM     46  C   UNL     1       6.676  -7.349   5.453  1.00  0.00     0.049 A 
ATOM     47  N   UNL     1       7.372  -8.266   8.247  1.00  0.00    -0.248 NA
ATOM     48  C   UNL     1       5.291  -7.472   8.953  1.00  0.00     0.031 C 
ATOM     49  C   UNL     1       6.381  -6.931   4.085  1.00  0.00     0.029 A 
ATOM     50  N   UNL     1       7.923  -7.915   5.375  1.00  0.00    -0.354 N 
ATOM     51  C   UNL     1       7.221  -8.508   9.605  1.00  0.00     0.074 A 
ATOM     52  C   UNL     1       5.935  -7.972   9.995  1.00  0.00     0.031 C 
ATOM     53  C   UNL     1       7.428  -7.243   3.302  1.00  0.00     0.029 A 
ATOM     54  C   UNL     1       8.473  -7.858   4.120  1.00  0.00     0.049 A 
ATOM     55  H   UNL     1       8.379  -8.324   6.146  1.00  0.00     0.167 HD
ATOM     56  C   UNL     1       8.075  -9.130  10.451  1.00  0.00     0.037 A 
ATOM     57  C   UNL     1       9.691  -8.243   3.692  1.00  0.00     0.037 A 
ATOM     58  C   UNL     1       9.358  -9.649  10.065  1.00  0.00     0.049 A 
ATOM     59  C   UNL     1      10.655  -8.868   4.668  1.00  0.00     0.074 A 
ATOM     60  C   UNL     1      10.291 -10.311  10.842  1.00  0.00     0.029 A 
ATOM     61  N   UNL     1       9.893  -9.551   8.789  1.00  0.00    -0.354 N 
ATOM     62  N   UNL     1      10.491  -9.130   5.943  1.00  0.00    -0.248 NA
ATOM     63  C   UNL     1      11.973  -9.254   4.144  1.00  0.00     0.031 C 
ATOM     64  C   UNL     1      11.412 -10.573  10.047  1.00  0.00     0.029 A 
ATOM     65  C   UNL     1      11.157 -10.117   8.763  1.00  0.00     0.049 A 
ATOM     66  H   UNL     1       9.442  -9.140   8.017  1.00  0.00     0.167 HD
ATOM     67  C   UNL     1      11.669  -9.733   6.365  1.00  0.00     0.074 A 
ATOM     68  C   UNL     1      12.537  -9.808   5.208  1.00  0.00     0.031 C 
ATOM     69  C   UNL     1      12.003 -10.187   7.599  1.00  0.00     0.037 A 
BRANCH  56  70
ATOM     70  C   UNL     1       7.651  -9.254  11.883  1.00  0.00     0.064 A 
ATOM     71  C   UNL     1       6.632 -10.136  12.274  1.00  0.00     0.173 A 
ATOM     72  C   UNL     1       8.275  -8.487  12.877  1.00  0.00     0.173 A 
ATOM     73  F   UNL     1       5.991 -10.877  11.357  1.00  0.00    -0.203 F 
ATOM     74  C   UNL     1       6.237 -10.227  13.606  1.00  0.00     0.198 A 
ATOM     75  C   UNL     1       7.896  -8.600  14.212  1.00  0.00     0.198 A 
ATOM     76  F   UNL     1       9.253  -7.628  12.554  1.00  0.00    -0.203 F 
ATOM     77  F   UNL     1       5.229 -11.041  13.951  1.00  0.00    -0.200 F 
ATOM     78  C   UNL     1       6.873  -9.464  14.574  1.00  0.00     0.200 A 
ATOM     79  F   UNL     1       8.515  -7.867  15.147  1.00  0.00    -0.200 F 
ATOM     80  F   UNL     1       6.492  -9.553  15.856  1.00  0.00    -0.200 F 
ENDBRANCH  56  70
BRANCH  57  81
ATOM     81  C   UNL     1      10.076  -8.043   2.271  1.00  0.00     0.064 A 
ATOM     82  C   UNL     1      10.235  -9.134   1.406  1.00  0.00     0.173 A 
ATOM     83  C   UNL     1      10.307  -6.760   1.754  1.00  0.00     0.173 A 
ATOM     84  F   UNL     1      10.051 -10.382   1.861  1.00  0.00    -0.203 F 
ATOM     85  C   UNL     1      10.627  -8.950   0.081  1.00  0.00     0.198 A 
ATOM     86  C   UNL     1      10.674  -6.576   0.423  1.00  0.00     0.198 A 
ATOM     87  F   UNL     1      10.172  -5.683   2.543  1.00  0.00    -0.203 F 
ATOM     88  F   UNL     1      10.814 -10.013  -0.714  1.00  0.00    -0.200 F 
ATOM     89  C   UNL     1      10.841  -7.671  -0.411  1.00  0.00     0.200 A 
ATOM     90  F   UNL     1      10.871  -5.338  -0.051  1.00  0.00    -0.200 F 
ATOM     91  F   UNL     1      11.215  -7.495  -1.685  1.00  0.00    -0.200 F 
ENDBRANCH  57  81
BRANCH  69  92
ATOM     92  C   UNL     1      13.348 -10.833   7.757  1.00  0.00     0.064 A 
ATOM     93  C   UNL     1      14.531 -10.079   7.754  1.00  0.00     0.173 A 
ATOM     94  C   UNL     1      13.450 -12.217   7.966  1.00  0.00     0.173 A 
ATOM     95  F   UNL     1      14.487  -8.755   7.544  1.00  0.00    -0.203 F 
ATOM     96  C   UNL     1      15.768 -10.691   7.934  1.00  0.00     0.198 A 
ATOM     97  C   UNL     1      14.687 -12.821   8.173  1.00  0.00     0.198 A 
ATOM     98  F   UNL     1      12.347 -12.981   7.986  1.00  0.00    -0.203 F 
ATOM     99  F   UNL     1      16.889  -9.958   7.886  1.00  0.00    -0.200 F 
ATOM    100  C   UNL     1      15.845 -12.059   8.151  1.00  0.00     0.200 A 
ATOM    101  F   UNL     1      14.757 -14.141   8.396  1.00  0.00    -0.200 F 
ATOM    102  F   UNL     1      17.037 -12.645   8.332  1.00  0.00    -0.200 F 
ENDBRANCH  69  92
ENDBRANCH  43  44
ENDBRANCH  36  38
ENDBRANCH  35  36
ENDBRANCH  34  35
ENDBRANCH  33  34
ENDBRANCH  32  33
ENDBRANCH  31  32
ENDBRANCH  30  31
ENDBRANCH   1  30
TORSDOF 22
