REMARK SMILES C[C@H]1CN([C@@H](C(=O)OCCOCCOCCOCCOC(=O)c2ccc(-c3c4nc(c(-c5c(F)c(F)c(F)c(F)c5F)c5ccc([nH]5)c(-c5c(F)c(F)c(F)c(F)c5F)c5nc(c(-c6c(F)c(F)c(F)c(F)c6F)c6ccc3[nH]6)C=C5)C=C4)cc2)C(C)(C)C)S(=O)(=O)C1
REMARK SMILES IDX 15 1 14 2 13 3 12 4 11 5 10 6 9 7 8 8 6 9 7 10 5 11 4 12
REMARK SMILES IDX 1 13 2 14 3 15 93 16 90 17 91 18 92 19 86 20 87 21 88 22
REMARK SMILES IDX 89 23 16 24 17 25 18 26 19 27 20 28 21 29 22 30 23 31 24 32
REMARK SMILES IDX 85 33 25 34 84 35 26 36 27 37 28 38 78 39 29 40 83 41 77 42
REMARK SMILES IDX 79 43 30 44 82 45 76 46 75 47 31 49 63 50 43 51 62 52 44 53
REMARK SMILES IDX 47 54 61 55 80 56 45 57 46 58 60 60 81 61 48 62 32 63 33 64
REMARK SMILES IDX 41 65 34 66 35 67 39 68 42 69 36 70 37 71 40 72 38 73 64 74
REMARK SMILES IDX 65 75 73 76 66 77 67 78 71 79 74 80 68 81 69 82 72 83 70 84
REMARK SMILES IDX 49 85 50 86 58 87 51 88 52 89 56 90 59 91 53 92 54 93 57 94
REMARK SMILES IDX 55 95
REMARK H PARENT 79 48 47 59
REMARK Flexibility Score: inf
ROOT
ATOM      1  C   UNL     1      -3.471   0.592   2.216  1.00  0.00     0.188 C 
ENDROOT
BRANCH   1   2
ATOM      2  O   UNL     1      -2.558   1.241   1.356  1.00  0.00    -0.377 OA
BRANCH   2   3
ATOM      3  C   UNL     1      -2.222   2.598   1.581  1.00  0.00     0.188 C 
BRANCH   3   4
ATOM      4  C   UNL     1      -3.313   3.678   1.619  1.00  0.00     0.188 C 
BRANCH   4   5
ATOM      5  O   UNL     1      -4.298   3.821   0.597  1.00  0.00    -0.376 OA
BRANCH   5   6
ATOM      6  C   UNL     1      -4.431   2.818  -0.388  1.00  0.00     0.202 C 
BRANCH   6   7
ATOM      7  C   UNL     1      -3.477   2.965  -1.577  1.00  0.00     0.261 C 
BRANCH   7   8
ATOM      8  O   UNL     1      -2.128   3.288  -1.192  1.00  0.00    -0.462 OA
BRANCH   8   9
ATOM      9  C   UNL     1      -1.711   4.570  -1.391  1.00  0.00     0.325 C 
ATOM     10  O   UNL     1      -2.375   5.367  -2.046  1.00  0.00    -0.250 OA
BRANCH   9  11
ATOM     11  C   UNL     1      -0.266   4.877  -0.834  1.00  0.00     0.188 C 
BRANCH  11  12
ATOM     12  N   UNL     1       0.372   3.645  -0.186  1.00  0.00    -0.187 NA
ATOM     13  C   UNL     1       0.145   0.341  -0.133  1.00  0.00     0.010 C 
ATOM     14  C   UNL     1       1.258   1.376  -0.327  1.00  0.00     0.017 C 
ATOM     15  C   UNL     1       0.830   2.609  -1.153  1.00  0.00     0.107 C 
ATOM     16  C   UNL     1       1.812   1.867   1.012  1.00  0.00     0.159 C 
ATOM     17  S   UNL     1       1.428   3.601   1.131  1.00  0.00     0.215 S 
ATOM     18  O   UNL     1       2.637   4.319   0.783  1.00  0.00    -0.212 OA
ATOM     19  O   UNL     1       0.715   3.822   2.361  1.00  0.00    -0.212 OA
ENDBRANCH  11  12
BRANCH  11  20
ATOM     20  C   UNL     1      -0.137   6.302  -0.116  1.00  0.00    -0.011 C 
ATOM     21  C   UNL     1       1.216   6.942  -0.508  1.00  0.00     0.013 C 
ATOM     22  C   UNL     1      -1.202   7.319  -0.615  1.00  0.00     0.013 C 
ATOM     23  C   UNL     1      -0.257   6.340   1.417  1.00  0.00     0.013 C 
ENDBRANCH  11  20
ENDBRANCH   9  11
ENDBRANCH   8   9
ENDBRANCH   7   8
ENDBRANCH   6   7
ENDBRANCH   5   6
ENDBRANCH   4   5
ENDBRANCH   3   4
ENDBRANCH   2   3
ENDBRANCH   1   2
BRANCH   1  24
ATOM     24  C   UNL     1      -3.458   0.849   3.728  1.00  0.00     0.188 C 
BRANCH  24  25
ATOM     25  O   UNL     1      -2.763   2.018   4.111  1.00  0.00    -0.376 OA
BRANCH  25  26
ATOM     26  C   UNL     1      -1.713   1.845   5.054  1.00  0.00     0.202 C 
BRANCH  26  27
ATOM     27  C   UNL     1      -0.438   1.110   4.598  1.00  0.00     0.261 C 
BRANCH  27  28
ATOM     28  O   UNL     1      -0.614  -0.007   3.710  1.00  0.00    -0.460 OA
BRANCH  28  29
ATOM     29  C   UNL     1      -0.851  -1.204   4.288  1.00  0.00     0.338 C 
ATOM     30  O   UNL     1      -1.038  -1.432   5.469  1.00  0.00    -0.246 OA
BRANCH  29  31
ATOM     31  C   UNL     1      -0.942  -2.227   3.228  1.00  0.00     0.060 A 
ATOM     32  C   UNL     1      -2.199  -2.725   2.870  1.00  0.00     0.016 A 
ATOM     33  C   UNL     1       0.216  -2.743   2.643  1.00  0.00     0.016 A 
ATOM     34  C   UNL     1      -2.307  -3.732   1.910  1.00  0.00     0.010 A 
ATOM     35  C   UNL     1       0.111  -3.778   1.707  1.00  0.00     0.010 A 
ATOM     36  C   UNL     1      -1.150  -4.290   1.352  1.00  0.00    -0.014 A 
BRANCH  36  37
ATOM     37  C   UNL     1      -1.255  -5.539   0.559  1.00  0.00     0.031 A 
ATOM     38  C   UNL     1      -1.059  -6.852   1.264  1.00  0.00     0.074 A 
ATOM     39  C   UNL     1      -1.544  -5.516  -0.754  1.00  0.00     0.049 A 
ATOM     40  N   UNL     1      -1.080  -8.070   0.785  1.00  0.00    -0.248 NA
ATOM     41  C   UNL     1      -0.804  -6.776   2.710  1.00  0.00     0.031 C 
ATOM     42  C   UNL     1      -1.812  -4.314  -1.538  1.00  0.00     0.029 A 
ATOM     43  N   UNL     1      -1.656  -6.544  -1.657  1.00  0.00    -0.354 N 
ATOM     44  C   UNL     1      -0.832  -8.903   1.868  1.00  0.00     0.074 A 
ATOM     45  C   UNL     1      -0.633  -8.051   3.021  1.00  0.00     0.031 C 
ATOM     46  C   UNL     1      -2.054  -4.672  -2.811  1.00  0.00     0.029 A 
ATOM     47  C   UNL     1      -1.924  -6.124  -2.936  1.00  0.00     0.049 A 
ATOM     48  H   UNL     1      -1.555  -7.492  -1.411  1.00  0.00     0.167 HD
ATOM     49  C   UNL     1      -0.778 -10.256   1.899  1.00  0.00     0.037 A 
ATOM     50  C   UNL     1      -2.033  -6.834  -4.077  1.00  0.00     0.037 A 
ATOM     51  C   UNL     1      -0.962 -11.098   0.746  1.00  0.00     0.049 A 
ATOM     52  C   UNL     1      -1.872  -8.333  -4.037  1.00  0.00     0.074 A 
ATOM     53  C   UNL     1      -0.948 -12.480   0.675  1.00  0.00     0.029 A 
ATOM     54  N   UNL     1      -1.171 -10.634  -0.545  1.00  0.00    -0.354 N 
ATOM     55  N   UNL     1      -1.670  -9.119  -3.007  1.00  0.00    -0.248 NA
ATOM     56  C   UNL     1      -1.958  -9.043  -5.321  1.00  0.00     0.031 C 
ATOM     57  C   UNL     1      -1.074 -12.849  -0.669  1.00  0.00     0.029 A 
ATOM     58  C   UNL     1      -1.246 -11.701  -1.427  1.00  0.00     0.049 A 
ATOM     59  H   UNL     1      -1.255  -9.686  -0.798  1.00  0.00     0.167 HD
ATOM     60  C   UNL     1      -1.641 -10.415  -3.511  1.00  0.00     0.074 A 
ATOM     61  C   UNL     1      -1.854 -10.308  -4.939  1.00  0.00     0.031 C 
ATOM     62  C   UNL     1      -1.462 -11.585  -2.849  1.00  0.00     0.037 A 
BRANCH  49  63
ATOM     63  C   UNL     1      -0.453 -10.900   3.218  1.00  0.00     0.064 A 
ATOM     64  C   UNL     1      -1.335 -10.852   4.309  1.00  0.00     0.173 A 
ATOM     65  C   UNL     1       0.768 -11.568   3.395  1.00  0.00     0.173 A 
ATOM     66  F   UNL     1      -2.511 -10.214   4.200  1.00  0.00    -0.203 F 
ATOM     67  C   UNL     1      -0.986 -11.405   5.539  1.00  0.00     0.198 A 
ATOM     68  C   UNL     1       1.098 -12.153   4.614  1.00  0.00     0.198 A 
ATOM     69  F   UNL     1       1.648 -11.649   2.385  1.00  0.00    -0.203 F 
ATOM     70  F   UNL     1      -1.813 -11.282   6.586  1.00  0.00    -0.200 F 
ATOM     71  C   UNL     1       0.227 -12.059   5.689  1.00  0.00     0.200 A 
ATOM     72  F   UNL     1       2.264 -12.798   4.752  1.00  0.00    -0.200 F 
ATOM     73  F   UNL     1       0.564 -12.588   6.874  1.00  0.00    -0.200 F 
ENDBRANCH  49  63
BRANCH  50  74
ATOM     74  C   UNL     1      -2.318  -6.135  -5.359  1.00  0.00     0.064 A 
ATOM     75  C   UNL     1      -3.542  -6.312  -6.019  1.00  0.00     0.173 A 
ATOM     76  C   UNL     1      -1.376  -5.282  -5.952  1.00  0.00     0.173 A 
ATOM     77  F   UNL     1      -4.465  -7.139  -5.506  1.00  0.00    -0.203 F 
ATOM     78  C   UNL     1      -3.810  -5.669  -7.226  1.00  0.00     0.198 A 
ATOM     79  C   UNL     1      -1.655  -4.617  -7.144  1.00  0.00     0.198 A 
ATOM     80  F   UNL     1      -0.186  -5.082  -5.365  1.00  0.00    -0.203 F 
ATOM     81  F   UNL     1      -4.973  -5.887  -7.854  1.00  0.00    -0.200 F 
ATOM     82  C   UNL     1      -2.870  -4.816  -7.783  1.00  0.00     0.200 A 
ATOM     83  F   UNL     1      -0.749  -3.784  -7.673  1.00  0.00    -0.200 F 
ATOM     84  F   UNL     1      -3.131  -4.190  -8.939  1.00  0.00    -0.200 F 
ENDBRANCH  50  74
BRANCH  62  85
ATOM     85  C   UNL     1      -1.534 -12.857  -3.649  1.00  0.00     0.064 A 
ATOM     86  C   UNL     1      -0.540 -13.213  -4.573  1.00  0.00     0.173 A 
ATOM     87  C   UNL     1      -2.594 -13.758  -3.452  1.00  0.00     0.173 A 
ATOM     88  F   UNL     1       0.489 -12.384  -4.810  1.00  0.00    -0.203 F 
ATOM     89  C   UNL     1      -0.619 -14.406  -5.289  1.00  0.00     0.198 A 
ATOM     90  C   UNL     1      -2.650 -14.966  -4.141  1.00  0.00     0.198 A 
ATOM     91  F   UNL     1      -3.568 -13.474  -2.575  1.00  0.00    -0.203 F 
ATOM     92  F   UNL     1       0.315 -14.698  -6.204  1.00  0.00    -0.200 F 
ATOM     93  C   UNL     1      -1.668 -15.285  -5.066  1.00  0.00     0.200 A 
ATOM     94  F   UNL     1      -3.655 -15.822  -3.910  1.00  0.00    -0.200 F 
ATOM     95  F   UNL     1      -1.736 -16.437  -5.747  1.00  0.00    -0.200 F 
ENDBRANCH  62  85
ENDBRANCH  36  37
ENDBRANCH  29  31
ENDBRANCH  28  29
ENDBRANCH  27  28
ENDBRANCH  26  27
ENDBRANCH  25  26
ENDBRANCH  24  25
ENDBRANCH   1  24
TORSDOF 22
