REMARK SMILES Nn1c(S[C@@H](C(=O)OCCOCCOCCOCCOC(=O)c2ccc(-c3c4nc(c(-c5c(F)c(F)c(F)c(F)c5F)c5ccc([nH]5)c(-c5c(F)c(F)c(F)c(F)c5F)c5nc(c(-c6c(F)c(F)c(F)c(F)c6F)c6ccc3[nH]6)C=C5)C=C4)cc2)c2ccccc2)nc2ccc(Br)cc2c1=O
REMARK SMILES IDX 13 1 12 2 11 3 10 4 9 5 8 6 6 7 7 8 5 9 4 10 3 11 2 12
REMARK SMILES IDX 100 13 92 14 99 15 101 16 93 17 98 18 94 19 96 20 95 21
REMARK SMILES IDX 97 22 1 23 86 26 87 27 91 28 88 29 90 30 89 31 14 32 15 33
REMARK SMILES IDX 16 34 17 35 18 36 19 37 20 38 21 39 22 40 23 41 24 42 85 43
REMARK SMILES IDX 25 44 84 45 26 46 27 47 28 48 78 49 29 50 83 51 77 52 79 53
REMARK SMILES IDX 30 54 82 55 76 56 75 57 31 59 63 60 43 61 62 62 44 63 47 64
REMARK SMILES IDX 61 65 80 66 45 67 46 68 60 70 81 71 48 72 32 73 33 74 41 75
REMARK SMILES IDX 34 76 35 77 39 78 42 79 36 80 37 81 40 82 38 83 64 84 65 85
REMARK SMILES IDX 73 86 66 87 67 88 71 89 74 90 68 91 69 92 72 93 70 94 49 95
REMARK SMILES IDX 50 96 58 97 51 98 52 99 56 100 59 101 53 102 54 103 57 104
REMARK SMILES IDX 55 105
REMARK H PARENT 1 24 1 25 79 58 47 69
REMARK Flexibility Score: inf
ROOT
ATOM      1  C   UNL     1       2.234   1.838  -1.202  1.00  0.00     0.188 C 
ENDROOT
BRANCH   1   2
ATOM      2  C   UNL     1       2.180   1.823   0.334  1.00  0.00     0.188 C 
BRANCH   2   3
ATOM      3  O   UNL     1       3.285   2.265   1.108  1.00  0.00    -0.376 OA
BRANCH   3   4
ATOM      4  C   UNL     1       4.590   2.147   0.572  1.00  0.00     0.202 C 
BRANCH   4   5
ATOM      5  C   UNL     1       5.095   0.774   0.084  1.00  0.00     0.261 C 
BRANCH   5   6
ATOM      6  O   UNL     1       4.124  -0.137  -0.482  1.00  0.00    -0.462 OA
BRANCH   6   7
ATOM      7  C   UNL     1       3.649  -1.107   0.349  1.00  0.00     0.324 C 
ATOM      8  O   UNL     1       4.066  -1.217   1.501  1.00  0.00    -0.251 OA
BRANCH   7   9
ATOM      9  C   UNL     1       2.663  -2.118  -0.293  1.00  0.00     0.194 C 
BRANCH   9  10
ATOM     10  S   UNL     1       1.888  -1.722  -1.885  1.00  0.00    -0.066 SA
BRANCH  10  11
ATOM     11  C   UNL     1       0.296  -0.970  -1.952  1.00  0.00     0.191 A 
ATOM     12  N   UNL     1      -0.480  -0.562  -0.868  1.00  0.00    -0.202 N 
ATOM     13  C   UNL     1      -1.713   0.087  -1.017  1.00  0.00     0.280 A 
ATOM     14  N   UNL     1      -0.115  -0.763  -3.174  1.00  0.00    -0.222 NA
ATOM     15  C   UNL     1      -2.157   0.344  -2.384  1.00  0.00     0.069 A 
ATOM     16  O   UNL     1      -2.402   0.463  -0.068  1.00  0.00    -0.267 OA
ATOM     17  C   UNL     1      -1.336  -0.104  -3.413  1.00  0.00     0.079 A 
ATOM     18  C   UNL     1      -3.323   1.089  -2.622  1.00  0.00     0.031 A 
ATOM     19  C   UNL     1      -1.724   0.190  -4.725  1.00  0.00     0.030 A 
ATOM     20  C   UNL     1      -3.668   1.399  -3.931  1.00  0.00     0.018 A 
ATOM     21  C   UNL     1      -2.880   0.944  -4.987  1.00  0.00     0.018 A 
ATOM     22  Br  UNL     1      -5.172   2.492  -4.269  1.00  0.00    -0.051 Br
BRANCH  12  23
ATOM     23  N   UNL     1      -0.118  -0.771   0.459  1.00  0.00    -0.334 N 
ATOM     24  H   UNL     1       0.732  -1.220   0.672  1.00  0.00     0.178 HD
ATOM     25  H   UNL     1      -0.711  -0.470   1.185  1.00  0.00     0.178 HD
ENDBRANCH  12  23
ENDBRANCH  10  11
ENDBRANCH   9  10
BRANCH   9  26
ATOM     26  C   UNL     1       1.829  -2.936   0.687  1.00  0.00    -0.023 A 
ATOM     27  C   UNL     1       1.341  -4.196   0.308  1.00  0.00     0.005 A 
ATOM     28  C   UNL     1       1.494  -2.456   1.968  1.00  0.00     0.005 A 
ATOM     29  C   UNL     1       0.474  -4.902   1.144  1.00  0.00     0.000 A 
ATOM     30  C   UNL     1       0.604  -3.146   2.788  1.00  0.00     0.000 A 
ATOM     31  C   UNL     1       0.082  -4.362   2.367  1.00  0.00     0.000 A 
ENDBRANCH   9  26
ENDBRANCH   7   9
ENDBRANCH   6   7
ENDBRANCH   5   6
ENDBRANCH   4   5
ENDBRANCH   3   4
ENDBRANCH   2   3
ENDBRANCH   1   2
BRANCH   1  32
ATOM     32  O   UNL     1       3.196   2.736  -1.715  1.00  0.00    -0.377 OA
BRANCH  32  33
ATOM     33  C   UNL     1       2.646   3.884  -2.324  1.00  0.00     0.188 C 
BRANCH  33  34
ATOM     34  C   UNL     1       1.747   4.720  -1.405  1.00  0.00     0.188 C 
BRANCH  34  35
ATOM     35  O   UNL     1       0.555   4.029  -1.023  1.00  0.00    -0.376 OA
BRANCH  35  36
ATOM     36  C   UNL     1      -0.646   4.401  -1.693  1.00  0.00     0.202 C 
BRANCH  36  37
ATOM     37  C   UNL     1      -0.845   3.731  -3.057  1.00  0.00     0.261 C 
BRANCH  37  38
ATOM     38  O   UNL     1       0.106   4.050  -4.079  1.00  0.00    -0.460 OA
BRANCH  38  39
ATOM     39  C   UNL     1       0.327   5.344  -4.385  1.00  0.00     0.338 C 
ATOM     40  O   UNL     1      -0.266   6.319  -3.962  1.00  0.00    -0.246 OA
BRANCH  39  41
ATOM     41  C   UNL     1       1.603   5.372  -5.132  1.00  0.00     0.060 A 
ATOM     42  C   UNL     1       1.846   4.459  -6.165  1.00  0.00     0.016 A 
ATOM     43  C   UNL     1       2.613   6.238  -4.695  1.00  0.00     0.016 A 
ATOM     44  C   UNL     1       3.098   4.428  -6.776  1.00  0.00     0.010 A 
ATOM     45  C   UNL     1       3.871   6.192  -5.295  1.00  0.00     0.010 A 
ATOM     46  C   UNL     1       4.111   5.306  -6.356  1.00  0.00    -0.014 A 
BRANCH  46  47
ATOM     47  C   UNL     1       5.319   5.481  -7.190  1.00  0.00     0.031 A 
ATOM     48  C   UNL     1       6.628   4.836  -6.862  1.00  0.00     0.074 A 
ATOM     49  C   UNL     1       5.192   6.290  -8.259  1.00  0.00     0.049 A 
ATOM     50  N   UNL     1       7.756   4.903  -7.522  1.00  0.00    -0.248 NA
ATOM     51  C   UNL     1       6.689   4.021  -5.641  1.00  0.00     0.031 C 
ATOM     52  C   UNL     1       3.957   6.984  -8.634  1.00  0.00     0.029 A 
ATOM     53  N   UNL     1       6.095   6.676  -9.212  1.00  0.00    -0.354 N 
ATOM     54  C   UNL     1       8.662   4.130  -6.809  1.00  0.00     0.074 A 
ATOM     55  C   UNL     1       7.959   3.627  -5.646  1.00  0.00     0.031 C 
ATOM     56  C   UNL     1       4.180   7.711  -9.737  1.00  0.00     0.029 A 
ATOM     57  C   UNL     1       5.575   7.553 -10.130  1.00  0.00     0.049 A 
ATOM     58  H   UNL     1       7.026   6.356  -9.236  1.00  0.00     0.167 HD
ATOM     59  C   UNL     1       9.954   3.865  -7.118  1.00  0.00     0.037 A 
ATOM     60  C   UNL     1       6.159   8.169 -11.172  1.00  0.00     0.037 A 
ATOM     61  C   UNL     1      10.633   4.385  -8.281  1.00  0.00     0.049 A 
ATOM     62  C   UNL     1       7.598   7.870 -11.472  1.00  0.00     0.074 A 
ATOM     63  C   UNL     1      11.924   4.130  -8.711  1.00  0.00     0.029 A 
ATOM     64  N   UNL     1      10.081   5.276  -9.191  1.00  0.00    -0.354 N 
ATOM     65  N   UNL     1       8.421   7.072 -10.838  1.00  0.00    -0.248 NA
ATOM     66  C   UNL     1       8.187   8.546 -12.634  1.00  0.00     0.031 C 
ATOM     67  C   UNL     1      12.171   4.906  -9.847  1.00  0.00     0.029 A 
ATOM     68  C   UNL     1      11.016   5.605 -10.160  1.00  0.00     0.049 A 
ATOM     69  H   UNL     1       9.160   5.624  -9.154  1.00  0.00     0.167 HD
ATOM     70  C   UNL     1       9.620   7.135 -11.530  1.00  0.00     0.074 A 
ATOM     71  C   UNL     1       9.409   8.033 -12.647  1.00  0.00     0.031 C 
ATOM     72  C   UNL     1      10.791   6.508 -11.261  1.00  0.00     0.037 A 
BRANCH  59  73
ATOM     73  C   UNL     1      10.740   2.968  -6.206  1.00  0.00     0.064 A 
ATOM     74  C   UNL     1      10.524   1.582  -6.183  1.00  0.00     0.173 A 
ATOM     75  C   UNL     1      11.808   3.477  -5.450  1.00  0.00     0.173 A 
ATOM     76  F   UNL     1       9.518   1.045  -6.888  1.00  0.00    -0.203 F 
ATOM     77  C   UNL     1      11.347   0.740  -5.438  1.00  0.00     0.198 A 
ATOM     78  C   UNL     1      12.642   2.630  -4.724  1.00  0.00     0.198 A 
ATOM     79  F   UNL     1      12.067   4.793  -5.447  1.00  0.00    -0.203 F 
ATOM     80  F   UNL     1      11.116  -0.580  -5.424  1.00  0.00    -0.200 F 
ATOM     81  C   UNL     1      12.412   1.263  -4.719  1.00  0.00     0.200 A 
ATOM     82  F   UNL     1      13.682   3.135  -4.045  1.00  0.00    -0.200 F 
ATOM     83  F   UNL     1      13.220   0.448  -4.026  1.00  0.00    -0.200 F 
ENDBRANCH  59  73
BRANCH  60  84
ATOM     84  C   UNL     1       5.363   9.102 -12.007  1.00  0.00     0.064 A 
ATOM     85  C   UNL     1       4.998   8.764 -13.316  1.00  0.00     0.173 A 
ATOM     86  C   UNL     1       4.913  10.330 -11.498  1.00  0.00     0.173 A 
ATOM     87  F   UNL     1       5.413   7.604 -13.848  1.00  0.00    -0.203 F 
ATOM     88  C   UNL     1       4.224   9.624 -14.091  1.00  0.00     0.198 A 
ATOM     89  C   UNL     1       4.115  11.176 -12.263  1.00  0.00     0.198 A 
ATOM     90  F   UNL     1       5.224  10.692 -10.245  1.00  0.00    -0.203 F 
ATOM     91  F   UNL     1       3.916   9.291 -15.351  1.00  0.00    -0.200 F 
ATOM     92  C   UNL     1       3.777  10.826 -13.561  1.00  0.00     0.200 A 
ATOM     93  F   UNL     1       3.667  12.326 -11.741  1.00  0.00    -0.200 F 
ATOM     94  F   UNL     1       3.020  11.646 -14.303  1.00  0.00    -0.200 F 
ENDBRANCH  60  84
BRANCH  72  95
ATOM     95  C   UNL     1      11.937   6.771 -12.192  1.00  0.00     0.064 A 
ATOM     96  C   UNL     1      12.610   8.001 -12.191  1.00  0.00     0.173 A 
ATOM     97  C   UNL     1      12.401   5.766 -13.053  1.00  0.00     0.173 A 
ATOM     98  F   UNL     1      12.192   8.999 -11.397  1.00  0.00    -0.203 F 
ATOM     99  C   UNL     1      13.697   8.221 -13.031  1.00  0.00     0.198 A 
ATOM    100  C   UNL     1      13.507   5.979 -13.870  1.00  0.00     0.198 A 
ATOM    101  F   UNL     1      11.794   4.570 -13.088  1.00  0.00    -0.203 F 
ATOM    102  F   UNL     1      14.301   9.418 -13.043  1.00  0.00    -0.200 F 
ATOM    103  C   UNL     1      14.151   7.208 -13.863  1.00  0.00     0.200 A 
ATOM    104  F   UNL     1      13.953   4.995 -14.663  1.00  0.00    -0.200 F 
ATOM    105  F   UNL     1      15.207   7.417 -14.661  1.00  0.00    -0.200 F 
ENDBRANCH  72  95
ENDBRANCH  46  47
ENDBRANCH  39  41
ENDBRANCH  38  39
ENDBRANCH  37  38
ENDBRANCH  36  37
ENDBRANCH  35  36
ENDBRANCH  34  35
ENDBRANCH  33  34
ENDBRANCH  32  33
ENDBRANCH   1  32
TORSDOF 24
