REMARK SMILES CCCCNC(=O)c1c(Cl)c(Cl)c(Cl)c(Cl)c1C(=O)OCCOCCOCCOCCOC(=O)c1ccc(-c2c3nc(c(-c4c(F)c(F)c(F)c(F)c4F)c4ccc([nH]4)c(-c4c(F)c(F)c(F)c(F)c4F)c4nc(c(-c5c(F)c(F)c(F)c(F)c5F)c5ccc2[nH]5)C=C4)C=C3)cc1
REMARK SMILES IDX 25 1 24 2 23 3 22 4 21 5 20 6 18 7 19 8 17 9 8 10 9 11 10 12
REMARK SMILES IDX 11 13 15 14 12 15 13 16 16 17 14 18 6 19 5 20 7 22 4 23 3 24
REMARK SMILES IDX 2 25 1 26 26 27 27 28 28 29 29 30 30 31 31 32 32 33 33 34
REMARK SMILES IDX 34 35 35 36 36 37 97 38 37 39 96 40 38 41 39 42 40 43 90 44
REMARK SMILES IDX 41 45 95 46 89 47 91 48 42 49 94 50 88 51 87 52 43 54 75 55
REMARK SMILES IDX 55 56 74 57 56 58 59 59 73 60 92 61 57 62 58 63 72 65 93 66
REMARK SMILES IDX 60 67 44 68 45 69 53 70 46 71 47 72 51 73 54 74 48 75 49 76
REMARK SMILES IDX 52 77 50 78 76 79 77 80 85 81 78 82 79 83 83 84 86 85 80 86
REMARK SMILES IDX 81 87 84 88 82 89 61 90 62 91 70 92 63 93 64 94 68 95 71 96
REMARK SMILES IDX 65 97 66 98 69 99 67 100
REMARK H PARENT 5 21 91 53 59 64
REMARK Flexibility Score: inf
ROOT
ATOM      1  C   UNL     1      -1.482  -5.184   4.142  1.00  0.00     0.188 C 
ENDROOT
BRANCH   1   2
ATOM      2  C   UNL     1      -2.578  -5.804   5.037  1.00  0.00     0.188 C 
BRANCH   2   3
ATOM      3  O   UNL     1      -3.843  -5.952   4.410  1.00  0.00    -0.376 OA
BRANCH   3   4
ATOM      4  C   UNL     1      -4.895  -5.131   4.894  1.00  0.00     0.202 C 
BRANCH   4   5
ATOM      5  C   UNL     1      -4.734  -3.623   4.663  1.00  0.00     0.261 C 
BRANCH   5   6
ATOM      6  O   UNL     1      -3.409  -3.145   4.944  1.00  0.00    -0.460 OA
BRANCH   6   7
ATOM      7  C   UNL     1      -3.205  -2.569   6.141  1.00  0.00     0.340 C 
ATOM      8  O   UNL     1      -4.015  -2.443   7.043  1.00  0.00    -0.246 OA
BRANCH   7   9
ATOM      9  C   UNL     1      -1.777  -2.202   6.286  1.00  0.00     0.094 A 
ATOM     10  C   UNL     1      -1.187  -1.220   5.468  1.00  0.00     0.076 A 
ATOM     11  C   UNL     1       0.020  -0.629   5.873  1.00  0.00     0.074 A 
ATOM     12  Cl  UNL     1       0.512   0.896   5.192  1.00  0.00    -0.082 Cl
ATOM     13  C   UNL     1       0.782  -1.220   6.895  1.00  0.00     0.080 A 
ATOM     14  C   UNL     1      -1.032  -2.777   7.335  1.00  0.00     0.076 A 
ATOM     15  Cl  UNL     1       2.360  -0.590   7.276  1.00  0.00    -0.081 Cl
ATOM     16  C   UNL     1       0.279  -2.334   7.587  1.00  0.00     0.080 A 
ATOM     17  Cl  UNL     1      -1.691  -4.079   8.286  1.00  0.00    -0.082 Cl
ATOM     18  Cl  UNL     1       1.275  -3.156   8.757  1.00  0.00    -0.081 Cl
BRANCH  10  19
ATOM     19  C   UNL     1      -1.815  -0.845   4.178  1.00  0.00     0.253 C 
ATOM     20  N   UNL     1      -1.117  -1.001   2.994  1.00  0.00    -0.352 N 
ATOM     21  H   UNL     1      -1.657  -0.900   2.178  1.00  0.00     0.163 HD
ATOM     22  O   UNL     1      -2.973  -0.442   4.174  1.00  0.00    -0.269 OA
BRANCH  20  23
ATOM     23  C   UNL     1       0.297  -1.292   2.765  1.00  0.00     0.116 C 
BRANCH  23  24
ATOM     24  C   UNL     1       0.611  -2.103   1.508  1.00  0.00     0.021 C 
BRANCH  24  25
ATOM     25  C   UNL     1       0.213  -1.472   0.172  1.00  0.00    -0.002 C 
ATOM     26  C   UNL     1       0.844  -0.112  -0.092  1.00  0.00     0.004 C 
ENDBRANCH  24  25
ENDBRANCH  23  24
ENDBRANCH  20  23
ENDBRANCH  10  19
ENDBRANCH   7   9
ENDBRANCH   6   7
ENDBRANCH   5   6
ENDBRANCH   4   5
ENDBRANCH   3   4
ENDBRANCH   2   3
ENDBRANCH   1   2
BRANCH   1  27
ATOM     27  O   UNL     1      -1.826  -4.640   2.875  1.00  0.00    -0.377 OA
BRANCH  27  28
ATOM     28  C   UNL     1      -2.719  -5.356   2.025  1.00  0.00     0.188 C 
BRANCH  28  29
ATOM     29  C   UNL     1      -2.750  -6.902   2.047  1.00  0.00     0.188 C 
BRANCH  29  30
ATOM     30  O   UNL     1      -1.700  -7.496   2.794  1.00  0.00    -0.376 OA
BRANCH  30  31
ATOM     31  C   UNL     1      -0.657  -8.109   2.054  1.00  0.00     0.202 C 
BRANCH  31  32
ATOM     32  C   UNL     1       0.199  -7.170   1.194  1.00  0.00     0.261 C 
BRANCH  32  33
ATOM     33  O   UNL     1      -0.504  -6.415   0.192  1.00  0.00    -0.460 OA
BRANCH  33  34
ATOM     34  C   UNL     1      -1.140  -7.095  -0.787  1.00  0.00     0.338 C 
ATOM     35  O   UNL     1      -1.182  -8.302  -0.948  1.00  0.00    -0.246 OA
BRANCH  34  36
ATOM     36  C   UNL     1      -1.944  -6.111  -1.540  1.00  0.00     0.060 A 
ATOM     37  C   UNL     1      -3.343  -6.206  -1.534  1.00  0.00     0.016 A 
ATOM     38  C   UNL     1      -1.309  -5.063  -2.207  1.00  0.00     0.016 A 
ATOM     39  C   UNL     1      -4.111  -5.244  -2.195  1.00  0.00     0.010 A 
ATOM     40  C   UNL     1      -2.076  -4.118  -2.890  1.00  0.00     0.010 A 
ATOM     41  C   UNL     1      -3.479  -4.209  -2.897  1.00  0.00    -0.014 A 
BRANCH  41  42
ATOM     42  C   UNL     1      -4.257  -3.290  -3.762  1.00  0.00     0.031 A 
ATOM     43  C   UNL     1      -4.333  -3.586  -5.233  1.00  0.00     0.074 A 
ATOM     44  C   UNL     1      -4.853  -2.195  -3.258  1.00  0.00     0.049 A 
ATOM     45  N   UNL     1      -4.813  -2.855  -6.205  1.00  0.00    -0.248 NA
ATOM     46  C   UNL     1      -3.790  -4.884  -5.665  1.00  0.00     0.031 C 
ATOM     47  C   UNL     1      -4.891  -1.826  -1.845  1.00  0.00     0.029 A 
ATOM     48  N   UNL     1      -5.519  -1.173  -3.892  1.00  0.00    -0.354 N 
ATOM     49  C   UNL     1      -4.632  -3.602  -7.361  1.00  0.00     0.074 A 
ATOM     50  C   UNL     1      -3.972  -4.831  -6.976  1.00  0.00     0.031 C 
ATOM     51  C   UNL     1      -5.519  -0.643  -1.721  1.00  0.00     0.029 A 
ATOM     52  C   UNL     1      -5.885  -0.152  -3.049  1.00  0.00     0.049 A 
ATOM     53  H   UNL     1      -5.716  -1.174  -4.856  1.00  0.00     0.167 HD
ATOM     54  C   UNL     1      -4.993  -3.293  -8.628  1.00  0.00     0.037 A 
ATOM     55  C   UNL     1      -6.412   1.058  -3.327  1.00  0.00     0.037 A 
ATOM     56  C   UNL     1      -5.636  -2.064  -9.009  1.00  0.00     0.049 A 
ATOM     57  C   UNL     1      -6.696   1.426  -4.765  1.00  0.00     0.074 A 
ATOM     58  C   UNL     1      -6.040  -1.657 -10.268  1.00  0.00     0.029 A 
ATOM     59  N   UNL     1      -5.964  -1.042  -8.132  1.00  0.00    -0.354 N 
ATOM     60  N   UNL     1      -6.540   0.710  -5.852  1.00  0.00    -0.248 NA
ATOM     61  C   UNL     1      -7.221   2.778  -5.015  1.00  0.00     0.031 C 
ATOM     62  C   UNL     1      -6.565  -0.366 -10.162  1.00  0.00     0.029 A 
ATOM     63  C   UNL     1      -6.537   0.010  -8.828  1.00  0.00     0.049 A 
ATOM     64  H   UNL     1      -5.811  -1.060  -7.160  1.00  0.00     0.167 HD
ATOM     65  C   UNL     1      -6.967   1.511  -6.905  1.00  0.00     0.074 A 
ATOM     66  C   UNL     1      -7.411   2.761  -6.326  1.00  0.00     0.031 C 
ATOM     67  C   UNL     1      -6.984   1.242  -8.233  1.00  0.00     0.037 A 
BRANCH  54  68
ATOM     68  C   UNL     1      -4.690  -4.293  -9.704  1.00  0.00     0.064 A 
ATOM     69  C   UNL     1      -5.415  -5.488  -9.815  1.00  0.00     0.173 A 
ATOM     70  C   UNL     1      -3.712  -4.023 -10.672  1.00  0.00     0.173 A 
ATOM     71  F   UNL     1      -6.350  -5.798  -8.905  1.00  0.00    -0.203 F 
ATOM     72  C   UNL     1      -5.163  -6.383 -10.852  1.00  0.00     0.198 A 
ATOM     73  C   UNL     1      -3.482  -4.907 -11.723  1.00  0.00     0.198 A 
ATOM     74  F   UNL     1      -2.993  -2.892 -10.611  1.00  0.00    -0.203 F 
ATOM     75  F   UNL     1      -5.846  -7.534 -10.922  1.00  0.00    -0.200 F 
ATOM     76  C   UNL     1      -4.205  -6.087 -11.810  1.00  0.00     0.200 A 
ATOM     77  F   UNL     1      -2.565  -4.613 -12.655  1.00  0.00    -0.200 F 
ATOM     78  F   UNL     1      -3.977  -6.941 -12.817  1.00  0.00    -0.200 F 
ENDBRANCH  54  68
BRANCH  55  79
ATOM     79  C   UNL     1      -6.653   2.046  -2.240  1.00  0.00     0.064 A 
ATOM     80  C   UNL     1      -7.949   2.486  -1.932  1.00  0.00     0.173 A 
ATOM     81  C   UNL     1      -5.587   2.624  -1.534  1.00  0.00     0.173 A 
ATOM     82  F   UNL     1      -9.000   1.989  -2.600  1.00  0.00    -0.203 F 
ATOM     83  C   UNL     1      -8.165   3.487  -0.987  1.00  0.00     0.198 A 
ATOM     84  C   UNL     1      -5.807   3.601  -0.565  1.00  0.00     0.198 A 
ATOM     85  F   UNL     1      -4.326   2.249  -1.794  1.00  0.00    -0.203 F 
ATOM     86  F   UNL     1      -9.407   3.939  -0.766  1.00  0.00    -0.200 F 
ATOM     87  C   UNL     1      -7.095   4.042  -0.301  1.00  0.00     0.200 A 
ATOM     88  F   UNL     1      -4.769   4.129   0.098  1.00  0.00    -0.200 F 
ATOM     89  F   UNL     1      -7.302   5.014   0.597  1.00  0.00    -0.200 F 
ENDBRANCH  55  79
BRANCH  67  90
ATOM     90  C   UNL     1      -7.517   2.303  -9.153  1.00  0.00     0.064 A 
ATOM     91  C   UNL     1      -6.790   3.472  -9.422  1.00  0.00     0.173 A 
ATOM     92  C   UNL     1      -8.736   2.119  -9.823  1.00  0.00     0.173 A 
ATOM     93  F   UNL     1      -5.625   3.701  -8.796  1.00  0.00    -0.203 F 
ATOM     94  C   UNL     1      -7.272   4.425 -10.315  1.00  0.00     0.198 A 
ATOM     95  C   UNL     1      -9.200   3.059 -10.739  1.00  0.00     0.198 A 
ATOM     96  F   UNL     1      -9.466   1.014  -9.608  1.00  0.00    -0.203 F 
ATOM     97  F   UNL     1      -6.579   5.552 -10.528  1.00  0.00    -0.200 F 
ATOM     98  C   UNL     1      -8.471   4.213 -10.980  1.00  0.00     0.200 A 
ATOM     99  F   UNL     1     -10.350   2.845 -11.393  1.00  0.00    -0.200 F 
ATOM    100  F   UNL     1      -8.925   5.124 -11.852  1.00  0.00    -0.200 F 
ENDBRANCH  67  90
ENDBRANCH  41  42
ENDBRANCH  34  36
ENDBRANCH  33  34
ENDBRANCH  32  33
ENDBRANCH  31  32
ENDBRANCH  30  31
ENDBRANCH  29  30
ENDBRANCH  28  29
ENDBRANCH  27  28
ENDBRANCH   1  27
TORSDOF 24
