REMARK SMILES C[C@@](NC(=O)CCOC1CC[NH2+]CC1)(C(=O)OCCOCCOCCOCCOC(=O)c1ccc(-c2c3nc(c(-c4c(F)c(F)c(F)c(F)c4F)c4ccc([nH]4)c(-c4c(F)c(F)c(F)c(F)c4F)c4nc(c(-c5c(F)c(F)c(F)c(F)c5F)c5ccc2[nH]5)C=C4)C=C3)cc1)C(F)(F)F
REMARK SMILES IDX 21 1 20 2 19 3 18 4 17 5 15 6 16 7 2 8 1 9 3 10 4 11 5 13
REMARK SMILES IDX 6 14 7 15 8 16 9 17 10 18 14 19 11 20 13 21 12 22 95 25
REMARK SMILES IDX 96 26 97 27 98 28 22 29 23 30 24 31 25 32 26 33 27 34 28 35
REMARK SMILES IDX 29 36 30 37 31 38 32 39 33 40 94 41 34 42 93 43 35 44 36 45
REMARK SMILES IDX 37 46 87 47 38 48 92 49 86 50 88 51 39 52 91 53 85 54 84 55
REMARK SMILES IDX 40 57 72 58 52 59 71 60 53 61 56 62 70 63 89 64 54 65 55 66
REMARK SMILES IDX 69 68 90 69 57 70 41 71 42 72 50 73 43 74 44 75 48 76 51 77
REMARK SMILES IDX 45 78 46 79 49 80 47 81 73 82 74 83 82 84 75 85 76 86 80 87
REMARK SMILES IDX 83 88 77 89 78 90 81 91 79 92 58 93 59 94 67 95 60 96 61 97
REMARK SMILES IDX 65 98 68 99 62 100 63 101 66 102 64 103
REMARK H PARENT 3 12 12 23 12 24 88 56 56 67
REMARK Flexibility Score: inf
ROOT
ATOM      1  C   UNL     1      -1.999  -1.744   1.828  1.00  0.00     0.188 C 
ENDROOT
BRANCH   1   2
ATOM      2  O   UNL     1      -3.383  -1.455   1.819  1.00  0.00    -0.376 OA
BRANCH   2   3
ATOM      3  C   UNL     1      -3.897  -0.146   1.978  1.00  0.00     0.202 C 
BRANCH   3   4
ATOM      4  C   UNL     1      -3.095   1.109   1.651  1.00  0.00     0.261 C 
BRANCH   4   5
ATOM      5  O   UNL     1      -1.679   0.969   1.755  1.00  0.00    -0.461 OA
BRANCH   5   6
ATOM      6  C   UNL     1      -1.089   1.272   2.943  1.00  0.00     0.341 C 
ATOM      7  O   UNL     1      -1.713   1.606   3.939  1.00  0.00    -0.249 OA
BRANCH   6   8
ATOM      8  C   UNL     1       0.426   1.340   2.768  1.00  0.00     0.231 C 
ATOM      9  C   UNL     1       0.994   0.484   1.624  1.00  0.00     0.058 C 
BRANCH   8  10
ATOM     10  N   UNL     1       0.889   2.763   2.620  1.00  0.00    -0.333 N 
ATOM     11  C   UNL     1       0.506   3.765   1.778  1.00  0.00     0.223 C 
ATOM     12  H   UNL     1       1.602   3.019   3.248  1.00  0.00     0.164 HD
ATOM     13  O   UNL     1       1.343   4.630   1.511  1.00  0.00    -0.275 OA
BRANCH  11  14
ATOM     14  C   UNL     1      -0.912   3.906   1.277  1.00  0.00     0.128 C 
BRANCH  14  15
ATOM     15  C   UNL     1      -1.174   3.682  -0.208  1.00  0.00     0.170 C 
BRANCH  15  16
ATOM     16  O   UNL     1      -0.667   2.498  -0.806  1.00  0.00    -0.377 OA
BRANCH  16  17
ATOM     17  C   UNL     1       0.733   2.437  -1.107  1.00  0.00     0.129 C 
ATOM     18  C   UNL     1       1.336   3.673  -1.767  1.00  0.00     0.093 C 
ATOM     19  C   UNL     1       0.965   1.204  -1.993  1.00  0.00     0.093 C 
ATOM     20  C   UNL     1       0.837   3.836  -3.193  1.00  0.00     0.263 C 
ATOM     21  C   UNL     1       0.536   1.455  -3.437  1.00  0.00     0.263 C 
ATOM     22  N   UNL     1       1.171   2.655  -3.987  1.00  0.00    -0.346 N 
ATOM     23  H   UNL     1       2.183   2.527  -3.985  1.00  0.00     0.346 HD
ATOM     24  H   UNL     1       0.830   2.796  -4.937  1.00  0.00     0.346 HD
ENDBRANCH  16  17
ENDBRANCH  15  16
ENDBRANCH  14  15
ENDBRANCH  11  14
ENDBRANCH   8  10
BRANCH   8  25
ATOM     25  C   UNL     1       0.954   0.677   4.058  1.00  0.00     0.422 C 
ATOM     26  F   UNL     1       0.493  -0.590   4.198  1.00  0.00    -0.168 F 
ATOM     27  F   UNL     1       2.311   0.590   4.007  1.00  0.00    -0.168 F 
ATOM     28  F   UNL     1       0.657   1.359   5.181  1.00  0.00    -0.168 F 
ENDBRANCH   8  25
ENDBRANCH   6   8
ENDBRANCH   5   6
ENDBRANCH   4   5
ENDBRANCH   3   4
ENDBRANCH   2   3
ENDBRANCH   1   2
BRANCH   1  29
ATOM     29  C   UNL     1      -1.319  -1.814   0.446  1.00  0.00     0.188 C 
BRANCH  29  30
ATOM     30  O   UNL     1      -1.837  -1.017  -0.599  1.00  0.00    -0.377 OA
BRANCH  30  31
ATOM     31  C   UNL     1      -3.146  -1.266  -1.098  1.00  0.00     0.188 C 
BRANCH  31  32
ATOM     32  C   UNL     1      -3.983  -2.508  -0.703  1.00  0.00     0.188 C 
BRANCH  32  33
ATOM     33  O   UNL     1      -3.309  -3.498   0.047  1.00  0.00    -0.376 OA
BRANCH  33  34
ATOM     34  C   UNL     1      -2.962  -4.720  -0.579  1.00  0.00     0.202 C 
BRANCH  34  35
ATOM     35  C   UNL     1      -1.988  -4.652  -1.765  1.00  0.00     0.261 C 
BRANCH  35  36
ATOM     36  O   UNL     1      -2.365  -3.757  -2.821  1.00  0.00    -0.460 OA
BRANCH  36  37
ATOM     37  C   UNL     1      -3.470  -4.086  -3.521  1.00  0.00     0.338 C 
ATOM     38  O   UNL     1      -4.190  -5.061  -3.361  1.00  0.00    -0.246 OA
BRANCH  37  39
ATOM     39  C   UNL     1      -3.778  -2.960  -4.416  1.00  0.00     0.060 A 
ATOM     40  C   UNL     1      -4.940  -2.206  -4.197  1.00  0.00     0.016 A 
ATOM     41  C   UNL     1      -2.915  -2.652  -5.467  1.00  0.00     0.016 A 
ATOM     42  C   UNL     1      -5.246  -1.139  -5.038  1.00  0.00     0.010 A 
ATOM     43  C   UNL     1      -3.242  -1.607  -6.331  1.00  0.00     0.010 A 
ATOM     44  C   UNL     1      -4.418  -0.862  -6.131  1.00  0.00    -0.014 A 
BRANCH  44  45
ATOM     45  C   UNL     1      -4.861   0.087  -7.176  1.00  0.00     0.031 A 
ATOM     46  C   UNL     1      -5.521  -0.470  -8.403  1.00  0.00     0.074 A 
ATOM     47  C   UNL     1      -4.652   1.408  -7.045  1.00  0.00     0.049 A 
ATOM     48  N   UNL     1      -5.849   0.131  -9.516  1.00  0.00    -0.248 NA
ATOM     49  C   UNL     1      -5.850  -1.906  -8.374  1.00  0.00     0.031 C 
ATOM     50  C   UNL     1      -4.074   2.061  -5.872  1.00  0.00     0.029 A 
ATOM     51  N   UNL     1      -4.879   2.434  -7.928  1.00  0.00    -0.354 N 
ATOM     52  C   UNL     1      -6.394  -0.854 -10.328  1.00  0.00     0.074 A 
ATOM     53  C   UNL     1      -6.355  -2.094  -9.584  1.00  0.00     0.031 C 
ATOM     54  C   UNL     1      -3.953   3.376  -6.124  1.00  0.00     0.029 A 
ATOM     55  C   UNL     1      -4.397   3.644  -7.491  1.00  0.00     0.049 A 
ATOM     56  H   UNL     1      -5.340   2.315  -8.789  1.00  0.00     0.167 HD
ATOM     57  C   UNL     1      -6.874  -0.729 -11.586  1.00  0.00     0.037 A 
ATOM     58  C   UNL     1      -4.281   4.817  -8.146  1.00  0.00     0.037 A 
ATOM     59  C   UNL     1      -6.918   0.513 -12.308  1.00  0.00     0.049 A 
ATOM     60  C   UNL     1      -4.754   4.907  -9.578  1.00  0.00     0.074 A 
ATOM     61  C   UNL     1      -7.436   0.758 -13.567  1.00  0.00     0.029 A 
ATOM     62  N   UNL     1      -6.409   1.715 -11.841  1.00  0.00    -0.354 N 
ATOM     63  N   UNL     1      -5.311   3.986 -10.328  1.00  0.00    -0.248 NA
ATOM     64  C   UNL     1      -4.574   6.198 -10.259  1.00  0.00     0.031 C 
ATOM     65  C   UNL     1      -7.173   2.090 -13.893  1.00  0.00     0.029 A 
ATOM     66  C   UNL     1      -6.555   2.694 -12.809  1.00  0.00     0.049 A 
ATOM     67  H   UNL     1      -6.005   1.852 -10.954  1.00  0.00     0.167 HD
ATOM     68  C   UNL     1      -5.569   4.591 -11.552  1.00  0.00     0.074 A 
ATOM     69  C   UNL     1      -5.128   5.965 -11.440  1.00  0.00     0.031 C 
ATOM     70  C   UNL     1      -6.117   4.059 -12.672  1.00  0.00     0.037 A 
BRANCH  57  71
ATOM     71  C   UNL     1      -7.348  -1.966 -12.289  1.00  0.00     0.064 A 
ATOM     72  C   UNL     1      -8.544  -2.608 -11.942  1.00  0.00     0.173 A 
ATOM     73  C   UNL     1      -6.626  -2.466 -13.384  1.00  0.00     0.173 A 
ATOM     74  F   UNL     1      -9.263  -2.179 -10.893  1.00  0.00    -0.203 F 
ATOM     75  C   UNL     1      -8.997  -3.711 -12.662  1.00  0.00     0.198 A 
ATOM     76  C   UNL     1      -7.096  -3.550 -14.119  1.00  0.00     0.198 A 
ATOM     77  F   UNL     1      -5.475  -1.886 -13.757  1.00  0.00    -0.203 F 
ATOM     78  F   UNL     1     -10.129  -4.329 -12.296  1.00  0.00    -0.200 F 
ATOM     79  C   UNL     1      -8.280  -4.173 -13.756  1.00  0.00     0.200 A 
ATOM     80  F   UNL     1      -6.409  -3.984 -15.184  1.00  0.00    -0.200 F 
ATOM     81  F   UNL     1      -8.730  -5.220 -14.461  1.00  0.00    -0.200 F 
ENDBRANCH  57  71
BRANCH  58  82
ATOM     82  C   UNL     1      -3.632   5.985  -7.490  1.00  0.00     0.064 A 
ATOM     83  C   UNL     1      -4.344   7.167  -7.241  1.00  0.00     0.173 A 
ATOM     84  C   UNL     1      -2.271   5.964  -7.149  1.00  0.00     0.173 A 
ATOM     85  F   UNL     1      -5.642   7.249  -7.569  1.00  0.00    -0.203 F 
ATOM     86  C   UNL     1      -3.712   8.292  -6.712  1.00  0.00     0.198 A 
ATOM     87  C   UNL     1      -1.650   7.076  -6.584  1.00  0.00     0.198 A 
ATOM     88  F   UNL     1      -1.539   4.861  -7.364  1.00  0.00    -0.203 F 
ATOM     89  F   UNL     1      -4.402   9.430  -6.551  1.00  0.00    -0.200 F 
ATOM     90  C   UNL     1      -2.367   8.244  -6.381  1.00  0.00     0.200 A 
ATOM     91  F   UNL     1      -0.354   7.018  -6.249  1.00  0.00    -0.200 F 
ATOM     92  F   UNL     1      -1.760   9.327  -5.877  1.00  0.00    -0.200 F 
ENDBRANCH  58  82
BRANCH  70  93
ATOM     93  C   UNL     1      -6.300   4.965 -13.857  1.00  0.00     0.064 A 
ATOM     94  C   UNL     1      -5.209   5.414 -14.615  1.00  0.00     0.173 A 
ATOM     95  C   UNL     1      -7.588   5.330 -14.280  1.00  0.00     0.173 A 
ATOM     96  F   UNL     1      -3.957   5.105 -14.245  1.00  0.00    -0.203 F 
ATOM     97  C   UNL     1      -5.400   6.211 -15.741  1.00  0.00     0.198 A 
ATOM     98  C   UNL     1      -7.776   6.097 -15.425  1.00  0.00     0.198 A 
ATOM     99  F   UNL     1      -8.666   4.919 -13.596  1.00  0.00    -0.203 F 
ATOM    100  F   UNL     1      -4.340   6.665 -16.425  1.00  0.00    -0.200 F 
ATOM    101  C   UNL     1      -6.682   6.542 -16.151  1.00  0.00     0.200 A 
ATOM    102  F   UNL     1      -9.018   6.399 -15.831  1.00  0.00    -0.200 F 
ATOM    103  F   UNL     1      -6.864   7.294 -17.245  1.00  0.00    -0.200 F 
ENDBRANCH  70  93
ENDBRANCH  44  45
ENDBRANCH  37  39
ENDBRANCH  36  37
ENDBRANCH  35  36
ENDBRANCH  34  35
ENDBRANCH  33  34
ENDBRANCH  32  33
ENDBRANCH  31  32
ENDBRANCH  30  31
ENDBRANCH  29  30
ENDBRANCH   1  29
TORSDOF 26
