REMARK SMILES Cc1cc(NC(=O)CC2(CC(=O)OCCOCCOCCOCCOC(=O)c3ccc(-c4c5nc(c(-c6c(F)c(F)c(F)c(F)c6F)c6ccc([nH]6)c(-c6c(F)c(F)c(F)c(F)c6F)c6nc(c(-c7c(F)c(F)c(F)c(F)c7F)c7ccc4[nH]7)C=C6)C=C5)cc3)CCCC2)ccn1
REMARK SMILES IDX 18 1 17 2 16 3 15 4 14 5 13 6 11 7 12 8 10 9 9 10 91 11
REMARK SMILES IDX 94 12 92 13 93 14 8 15 6 16 5 17 7 19 4 20 1 21 2 22 3 23
REMARK SMILES IDX 97 24 96 25 95 26 19 27 20 28 21 29 22 30 23 31 24 32 25 33
REMARK SMILES IDX 26 34 27 35 28 36 29 37 90 38 30 39 89 40 31 41 32 42 33 43
REMARK SMILES IDX 83 44 34 45 88 46 82 47 84 48 35 49 87 50 81 51 80 52 36 54
REMARK SMILES IDX 68 55 48 56 67 57 49 58 52 59 66 60 85 61 50 62 51 63 65 65
REMARK SMILES IDX 86 66 53 67 37 68 38 69 46 70 39 71 40 72 44 73 47 74 41 75
REMARK SMILES IDX 42 76 45 77 43 78 69 79 70 80 78 81 71 82 72 83 76 84 79 85
REMARK SMILES IDX 73 86 74 87 77 88 75 89 54 90 55 91 63 92 56 93 57 94 61 95
REMARK SMILES IDX 64 96 58 97 59 98 62 99 60 100
REMARK H PARENT 5 18 84 53 52 64
REMARK Flexibility Score: inf
ROOT
ATOM      1  C   UNL     1      -6.712  -0.588   0.021  1.00  0.00     0.188 C 
ENDROOT
BRANCH   1   2
ATOM      2  C   UNL     1      -7.110  -1.974   0.578  1.00  0.00     0.188 C 
BRANCH   2   3
ATOM      3  O   UNL     1      -8.338  -2.130   1.271  1.00  0.00    -0.376 OA
BRANCH   3   4
ATOM      4  C   UNL     1      -8.859  -1.038   2.003  1.00  0.00     0.202 C 
BRANCH   4   5
ATOM      5  C   UNL     1      -7.985  -0.274   3.023  1.00  0.00     0.261 C 
BRANCH   5   6
ATOM      6  O   UNL     1      -6.559  -0.190   2.803  1.00  0.00    -0.463 OA
BRANCH   6   7
ATOM      7  C   UNL     1      -5.795  -1.127   3.410  1.00  0.00     0.306 C 
ATOM      8  O   UNL     1      -6.255  -2.026   4.107  1.00  0.00    -0.252 OA
BRANCH   7   9
ATOM      9  C   UNL     1      -4.284  -0.906   3.294  1.00  0.00     0.130 C 
BRANCH   9  10
ATOM     10  C   UNL     1      -3.504  -0.347   2.051  1.00  0.00    -0.011 C 
ATOM     11  C   UNL     1      -2.047  -0.111   2.517  1.00  0.00     0.008 C 
ATOM     12  C   UNL     1      -3.902   1.101   1.669  1.00  0.00     0.008 C 
ATOM     13  C   UNL     1      -2.037   1.237   3.228  1.00  0.00     0.001 C 
ATOM     14  C   UNL     1      -3.175   2.039   2.620  1.00  0.00     0.001 C 
BRANCH  10  15
ATOM     15  C   UNL     1      -3.596  -1.279   0.806  1.00  0.00     0.108 C 
BRANCH  15  16
ATOM     16  C   UNL     1      -2.602  -2.398   0.555  1.00  0.00     0.224 C 
ATOM     17  N   UNL     1      -1.397  -2.229  -0.054  1.00  0.00    -0.326 N 
ATOM     18  H   UNL     1      -0.933  -3.075  -0.246  1.00  0.00     0.169 HD
ATOM     19  O   UNL     1      -2.887  -3.547   0.912  1.00  0.00    -0.275 OA
BRANCH  17  20
ATOM     20  C   UNL     1      -0.683  -1.093  -0.465  1.00  0.00     0.044 A 
ATOM     21  C   UNL     1       2.908  -0.008  -0.049  1.00  0.00     0.067 C 
ATOM     22  C   UNL     1       1.458  -0.008  -0.425  1.00  0.00     0.039 A 
ATOM     23  C   UNL     1       0.700  -1.165  -0.296  1.00  0.00     0.049 A 
ATOM     24  N   UNL     1       0.912   1.178  -0.776  1.00  0.00    -0.261 NA
ATOM     25  C   UNL     1      -0.412   1.201  -1.028  1.00  0.00     0.113 A 
ATOM     26  C   UNL     1      -1.243   0.099  -0.903  1.00  0.00     0.046 A 
ENDBRANCH  17  20
ENDBRANCH  15  16
ENDBRANCH  10  15
ENDBRANCH   9  10
ENDBRANCH   7   9
ENDBRANCH   6   7
ENDBRANCH   5   6
ENDBRANCH   4   5
ENDBRANCH   3   4
ENDBRANCH   2   3
ENDBRANCH   1   2
BRANCH   1  27
ATOM     27  O   UNL     1      -7.782   0.335  -0.061  1.00  0.00    -0.377 OA
BRANCH  27  28
ATOM     28  C   UNL     1      -8.276   0.553  -1.368  1.00  0.00     0.188 C 
BRANCH  28  29
ATOM     29  C   UNL     1      -8.643  -0.709  -2.166  1.00  0.00     0.188 C 
BRANCH  29  30
ATOM     30  O   UNL     1      -7.570  -1.639  -2.225  1.00  0.00    -0.376 OA
BRANCH  30  31
ATOM     31  C   UNL     1      -6.826  -1.801  -3.416  1.00  0.00     0.202 C 
BRANCH  31  32
ATOM     32  C   UNL     1      -5.876  -0.674  -3.856  1.00  0.00     0.261 C 
BRANCH  32  33
ATOM     33  O   UNL     1      -6.361   0.668  -3.746  1.00  0.00    -0.460 OA
BRANCH  33  34
ATOM     34  C   UNL     1      -7.321   1.054  -4.614  1.00  0.00     0.338 C 
ATOM     35  O   UNL     1      -7.838   0.379  -5.486  1.00  0.00    -0.246 OA
BRANCH  34  36
ATOM     36  C   UNL     1      -7.785   2.394  -4.192  1.00  0.00     0.060 A 
ATOM     37  C   UNL     1      -9.124   2.550  -3.807  1.00  0.00     0.016 A 
ATOM     38  C   UNL     1      -6.898   3.472  -4.119  1.00  0.00     0.016 A 
ATOM     39  C   UNL     1      -9.582   3.786  -3.354  1.00  0.00     0.010 A 
ATOM     40  C   UNL     1      -7.368   4.721  -3.705  1.00  0.00     0.010 A 
ATOM     41  C   UNL     1      -8.717   4.888  -3.346  1.00  0.00    -0.014 A 
BRANCH  41  42
ATOM     42  C   UNL     1      -9.284   6.248  -3.199  1.00  0.00     0.031 A 
ATOM     43  C   UNL     1      -9.650   6.989  -4.454  1.00  0.00     0.074 A 
ATOM     44  C   UNL     1      -9.493   6.802  -1.992  1.00  0.00     0.049 A 
ATOM     45  N   UNL     1     -10.125   8.199  -4.602  1.00  0.00    -0.248 NA
ATOM     46  C   UNL     1      -9.452   6.261  -5.718  1.00  0.00     0.031 C 
ATOM     47  C   UNL     1      -9.226   6.160  -0.708  1.00  0.00     0.029 A 
ATOM     48  N   UNL     1      -9.977   8.042  -1.657  1.00  0.00    -0.354 N 
ATOM     49  C   UNL     1     -10.279   8.374  -5.971  1.00  0.00     0.074 A 
ATOM     50  C   UNL     1      -9.818   7.165  -6.613  1.00  0.00     0.031 C 
ATOM     51  C   UNL     1      -9.533   7.020   0.279  1.00  0.00     0.029 A 
ATOM     52  C   UNL     1      -9.988   8.281  -0.305  1.00  0.00     0.049 A 
ATOM     53  H   UNL     1     -10.286   8.698  -2.323  1.00  0.00     0.167 HD
ATOM     54  C   UNL     1     -10.769   9.449  -6.632  1.00  0.00     0.037 A 
ATOM     55  C   UNL     1     -10.307   9.402   0.373  1.00  0.00     0.037 A 
ATOM     56  C   UNL     1     -11.211  10.655  -5.986  1.00  0.00     0.049 A 
ATOM     57  C   UNL     1     -10.764  10.620  -0.394  1.00  0.00     0.074 A 
ATOM     58  C   UNL     1     -11.729  11.801  -6.562  1.00  0.00     0.029 A 
ATOM     59  N   UNL     1     -11.172  10.875  -4.617  1.00  0.00    -0.354 N 
ATOM     60  N   UNL     1     -10.934  10.773  -1.685  1.00  0.00    -0.248 NA
ATOM     61  C   UNL     1     -11.079  11.820   0.395  1.00  0.00     0.031 C 
ATOM     62  C   UNL     1     -11.943  12.738  -5.547  1.00  0.00     0.029 A 
ATOM     63  C   UNL     1     -11.629  12.151  -4.331  1.00  0.00     0.049 A 
ATOM     64  H   UNL     1     -10.866  10.221  -3.948  1.00  0.00     0.167 HD
ATOM     65  C   UNL     1     -11.409  12.068  -1.860  1.00  0.00     0.074 A 
ATOM     66  C   UNL     1     -11.510  12.655  -0.540  1.00  0.00     0.031 C 
ATOM     67  C   UNL     1     -11.736  12.713  -3.008  1.00  0.00     0.037 A 
BRANCH  54  68
ATOM     68  C   UNL     1     -10.812   9.377  -8.130  1.00  0.00     0.064 A 
ATOM     69  C   UNL     1     -11.698   8.524  -8.806  1.00  0.00     0.173 A 
ATOM     70  C   UNL     1      -9.967  10.189  -8.902  1.00  0.00     0.173 A 
ATOM     71  F   UNL     1     -12.513   7.712  -8.116  1.00  0.00    -0.203 F 
ATOM     72  C   UNL     1     -11.715   8.466 -10.198  1.00  0.00     0.198 A 
ATOM     73  C   UNL     1     -10.011  10.153 -10.292  1.00  0.00     0.198 A 
ATOM     74  F   UNL     1      -9.099  11.021  -8.306  1.00  0.00    -0.203 F 
ATOM     75  F   UNL     1     -12.530   7.603 -10.821  1.00  0.00    -0.200 F 
ATOM     76  C   UNL     1     -10.878   9.286 -10.939  1.00  0.00     0.200 A 
ATOM     77  F   UNL     1      -9.209  10.955 -11.007  1.00  0.00    -0.200 F 
ATOM     78  F   UNL     1     -10.900   9.234 -12.278  1.00  0.00    -0.200 F 
ENDBRANCH  54  68
BRANCH  55  79
ATOM     79  C   UNL     1     -10.192   9.438   1.856  1.00  0.00     0.064 A 
ATOM     80  C   UNL     1     -11.326   9.578   2.669  1.00  0.00     0.173 A 
ATOM     81  C   UNL     1      -8.943   9.367   2.490  1.00  0.00     0.173 A 
ATOM     82  F   UNL     1     -12.541   9.678   2.112  1.00  0.00    -0.203 F 
ATOM     83  C   UNL     1     -11.212   9.669   4.056  1.00  0.00     0.198 A 
ATOM     84  C   UNL     1      -8.833   9.426   3.878  1.00  0.00     0.198 A 
ATOM     85  F   UNL     1      -7.825   9.238   1.761  1.00  0.00    -0.203 F 
ATOM     86  F   UNL     1     -12.307   9.859   4.804  1.00  0.00    -0.200 F 
ATOM     87  C   UNL     1      -9.967   9.587   4.659  1.00  0.00     0.200 A 
ATOM     88  F   UNL     1      -7.628   9.335   4.457  1.00  0.00    -0.200 F 
ATOM     89  F   UNL     1      -9.858   9.675   5.992  1.00  0.00    -0.200 F 
ENDBRANCH  55  79
BRANCH  67  90
ATOM     90  C   UNL     1     -12.286  14.107  -2.891  1.00  0.00     0.064 A 
ATOM     91  C   UNL     1     -11.485  15.192  -2.507  1.00  0.00     0.173 A 
ATOM     92  C   UNL     1     -13.626  14.366  -3.224  1.00  0.00     0.173 A 
ATOM     93  F   UNL     1     -10.202  14.998  -2.168  1.00  0.00    -0.203 F 
ATOM     94  C   UNL     1     -12.012  16.479  -2.433  1.00  0.00     0.198 A 
ATOM     95  C   UNL     1     -14.139  15.659  -3.184  1.00  0.00     0.198 A 
ATOM     96  F   UNL     1     -14.433  13.366  -3.609  1.00  0.00    -0.203 F 
ATOM     97  F   UNL     1     -11.242  17.493  -2.014  1.00  0.00    -0.200 F 
ATOM     98  C   UNL     1     -13.334  16.713  -2.780  1.00  0.00     0.200 A 
ATOM     99  F   UNL     1     -15.411  15.885  -3.539  1.00  0.00    -0.200 F 
ATOM    100  F   UNL     1     -13.835  17.955  -2.720  1.00  0.00    -0.200 F 
ENDBRANCH  67  90
ENDBRANCH  41  42
ENDBRANCH  34  36
ENDBRANCH  33  34
ENDBRANCH  32  33
ENDBRANCH  31  32
ENDBRANCH  30  31
ENDBRANCH  29  30
ENDBRANCH  28  29
ENDBRANCH  27  28
ENDBRANCH   1  27
TORSDOF 24
