REMARK SMILES C[C@H](NC(=O)N1CC[C@H](C(=O)OCCOCCOCCOCCOC(=O)c2ccc(-c3c4nc(c(-c5c(F)c(F)c(F)c(F)c5F)c5ccc([nH]5)c(-c5c(F)c(F)c(F)c(F)c5F)c5nc(c(-c6c(F)c(F)c(F)c(F)c6F)c6ccc3[nH]6)C=C5)C=C4)cc2)[C@H]1C)c1ccsc1
REMARK SMILES IDX 17 1 16 2 15 3 14 4 13 5 12 6 10 7 11 8 9 9 6 10 7 11 90 12
REMARK SMILES IDX 8 13 91 14 4 15 3 16 5 18 2 19 1 20 92 21 93 22 96 23 94 24
REMARK SMILES IDX 95 25 18 26 19 27 20 28 21 29 22 30 23 31 24 32 25 33 26 34
REMARK SMILES IDX 27 35 28 36 89 37 29 38 88 39 30 40 31 41 32 42 82 43 33 44
REMARK SMILES IDX 87 45 81 46 83 47 34 48 86 49 80 50 79 51 35 53 67 54 47 55
REMARK SMILES IDX 66 56 48 57 51 58 65 59 84 60 49 61 50 62 64 64 85 65 52 66
REMARK SMILES IDX 36 67 37 68 45 69 38 70 39 71 43 72 46 73 40 74 41 75 44 76
REMARK SMILES IDX 42 77 68 78 69 79 77 80 70 81 71 82 75 83 78 84 72 85 73 86
REMARK SMILES IDX 76 87 74 88 53 89 54 90 62 91 55 92 56 93 60 94 63 95 57 96
REMARK SMILES IDX 58 97 61 98 59 99
REMARK H PARENT 3 17 83 52 51 63
REMARK Flexibility Score: inf
ROOT
ATOM      1  C   UNL     1       4.344   4.011   1.510  1.00  0.00     0.188 C 
ENDROOT
BRANCH   1   2
ATOM      2  C   UNL     1       4.730   3.506   0.094  1.00  0.00     0.188 C 
BRANCH   2   3
ATOM      3  O   UNL     1       5.688   4.322  -0.576  1.00  0.00    -0.376 OA
BRANCH   3   4
ATOM      4  C   UNL     1       5.202   5.154  -1.620  1.00  0.00     0.202 C 
BRANCH   4   5
ATOM      5  C   UNL     1       4.412   6.366  -1.120  1.00  0.00     0.261 C 
BRANCH   5   6
ATOM      6  O   UNL     1       3.214   6.032  -0.396  1.00  0.00    -0.463 OA
BRANCH   6   7
ATOM      7  C   UNL     1       2.220   5.416  -1.089  1.00  0.00     0.311 C 
ATOM      8  O   UNL     1       2.268   5.171  -2.284  1.00  0.00    -0.252 OA
BRANCH   7   9
ATOM      9  C   UNL     1       1.043   5.137  -0.167  1.00  0.00     0.123 C 
ATOM     10  N   UNL     1       0.322   2.863  -0.409  1.00  0.00    -0.321 N 
ATOM     11  C   UNL     1      -0.327   3.673  -1.441  1.00  0.00     0.122 C 
ATOM     12  C   UNL     1       1.041   3.750   0.517  1.00  0.00     0.098 C 
ATOM     13  C   UNL     1      -0.261   5.112  -0.955  1.00  0.00     0.039 C 
ATOM     14  C   UNL     1       0.361   3.906   1.884  1.00  0.00     0.032 C 
BRANCH  10  15
ATOM     15  C   UNL     1       0.845   1.668  -0.834  1.00  0.00     0.318 C 
ATOM     16  N   UNL     1       0.935   0.590  -0.040  1.00  0.00    -0.331 N 
ATOM     17  H   UNL     1       1.507  -0.098  -0.452  1.00  0.00     0.165 HD
ATOM     18  O   UNL     1       1.218   1.495  -1.998  1.00  0.00    -0.249 OA
BRANCH  16  19
ATOM     19  C   UNL     1       0.438   0.139   1.250  1.00  0.00     0.112 C 
ATOM     20  C   UNL     1       1.258   0.586   2.450  1.00  0.00     0.036 C 
BRANCH  19  21
ATOM     21  C   UNL     1      -1.069   0.187   1.363  1.00  0.00    -0.015 A 
ATOM     22  C   UNL     1      -1.876  -0.992   1.585  1.00  0.00     0.017 A 
ATOM     23  C   UNL     1      -1.899   1.288   1.266  1.00  0.00     0.070 A 
ATOM     24  C   UNL     1      -3.228  -0.732   1.632  1.00  0.00     0.065 A 
ATOM     25  S   UNL     1      -3.561   0.927   1.431  1.00  0.00    -0.152 S 
ENDBRANCH  19  21
ENDBRANCH  16  19
ENDBRANCH  10  15
ENDBRANCH   7   9
ENDBRANCH   6   7
ENDBRANCH   5   6
ENDBRANCH   4   5
ENDBRANCH   3   4
ENDBRANCH   2   3
ENDBRANCH   1   2
BRANCH   1  26
ATOM     26  O   UNL     1       5.314   4.435   2.459  1.00  0.00    -0.377 OA
BRANCH  26  27
ATOM     27  C   UNL     1       6.559   4.885   1.950  1.00  0.00     0.188 C 
BRANCH  27  28
ATOM     28  C   UNL     1       7.502   3.719   1.606  1.00  0.00     0.188 C 
BRANCH  28  29
ATOM     29  O   UNL     1       6.851   2.457   1.679  1.00  0.00    -0.376 OA
BRANCH  29  30
ATOM     30  C   UNL     1       6.942   1.709   2.882  1.00  0.00     0.202 C 
BRANCH  30  31
ATOM     31  C   UNL     1       6.589   2.338   4.242  1.00  0.00     0.261 C 
BRANCH  31  32
ATOM     32  O   UNL     1       7.151   3.620   4.552  1.00  0.00    -0.460 OA
BRANCH  32  33
ATOM     33  C   UNL     1       8.486   3.737   4.689  1.00  0.00     0.338 C 
ATOM     34  O   UNL     1       9.324   2.860   4.599  1.00  0.00    -0.246 OA
BRANCH  33  35
ATOM     35  C   UNL     1       8.762   5.190   4.766  1.00  0.00     0.060 A 
ATOM     36  C   UNL     1       9.543   5.796   3.770  1.00  0.00     0.016 A 
ATOM     37  C   UNL     1       8.170   5.963   5.768  1.00  0.00     0.016 A 
ATOM     38  C   UNL     1       9.730   7.179   3.776  1.00  0.00     0.010 A 
ATOM     39  C   UNL     1       8.388   7.341   5.794  1.00  0.00     0.010 A 
ATOM     40  C   UNL     1       9.184   7.952   4.809  1.00  0.00    -0.014 A 
BRANCH  40  41
ATOM     41  C   UNL     1       9.619   9.354   5.001  1.00  0.00     0.031 A 
ATOM     42  C   UNL     1      10.789   9.602   5.909  1.00  0.00     0.074 A 
ATOM     43  C   UNL     1       8.990  10.380   4.404  1.00  0.00     0.049 A 
ATOM     44  N   UNL     1      11.309  10.731   6.312  1.00  0.00    -0.248 NA
ATOM     45  C   UNL     1      11.462   8.403   6.436  1.00  0.00     0.031 C 
ATOM     46  C   UNL     1       7.882  10.262   3.461  1.00  0.00     0.029 A 
ATOM     47  N   UNL     1       9.196  11.733   4.518  1.00  0.00    -0.354 N 
ATOM     48  C   UNL     1      12.368  10.379   7.138  1.00  0.00     0.074 A 
ATOM     49  C   UNL     1      12.396   8.935   7.207  1.00  0.00     0.031 C 
ATOM     50  C   UNL     1       7.496  11.496   3.088  1.00  0.00     0.029 A 
ATOM     51  C   UNL     1       8.304  12.488   3.799  1.00  0.00     0.049 A 
ATOM     52  H   UNL     1       9.915  12.124   5.065  1.00  0.00     0.167 HD
ATOM     53  C   UNL     1      13.243  11.189   7.778  1.00  0.00     0.037 A 
ATOM     54  C   UNL     1       8.147  13.825   3.747  1.00  0.00     0.037 A 
ATOM     55  C   UNL     1      13.193  12.625   7.729  1.00  0.00     0.049 A 
ATOM     56  C   UNL     1       9.051  14.707   4.574  1.00  0.00     0.074 A 
ATOM     57  C   UNL     1      14.033  13.540   8.336  1.00  0.00     0.029 A 
ATOM     58  N   UNL     1      12.233  13.354   7.042  1.00  0.00    -0.354 N 
ATOM     59  N   UNL     1      10.067  14.374   5.334  1.00  0.00    -0.248 NA
ATOM     60  C   UNL     1       8.777  16.151   4.544  1.00  0.00     0.031 C 
ATOM     61  C   UNL     1      13.546  14.823   8.066  1.00  0.00     0.029 A 
ATOM     62  C   UNL     1      12.437  14.710   7.243  1.00  0.00     0.049 A 
ATOM     63  H   UNL     1      11.514  12.966   6.494  1.00  0.00     0.167 HD
ATOM     64  C   UNL     1      10.570  15.563   5.847  1.00  0.00     0.074 A 
ATOM     65  C   UNL     1       9.752  16.629   5.305  1.00  0.00     0.031 C 
ATOM     66  C   UNL     1      11.615  15.757   6.689  1.00  0.00     0.037 A 
BRANCH  53  67
ATOM     67  C   UNL     1      14.297  10.527   8.616  1.00  0.00     0.064 A 
ATOM     68  C   UNL     1      15.343   9.791   8.038  1.00  0.00     0.173 A 
ATOM     69  C   UNL     1      14.252  10.617  10.015  1.00  0.00     0.173 A 
ATOM     70  F   UNL     1      15.420   9.658   6.705  1.00  0.00    -0.203 F 
ATOM     71  C   UNL     1      16.282   9.138   8.832  1.00  0.00     0.198 A 
ATOM     72  C   UNL     1      15.211   9.990  10.804  1.00  0.00     0.198 A 
ATOM     73  F   UNL     1      13.272  11.307  10.617  1.00  0.00    -0.203 F 
ATOM     74  F   UNL     1      17.235   8.388   8.260  1.00  0.00    -0.200 F 
ATOM     75  C   UNL     1      16.219   9.242  10.213  1.00  0.00     0.200 A 
ATOM     76  F   UNL     1      15.154  10.099  12.139  1.00  0.00    -0.200 F 
ATOM     77  F   UNL     1      17.121   8.610  10.976  1.00  0.00    -0.200 F 
ENDBRANCH  53  67
BRANCH  54  78
ATOM     78  C   UNL     1       7.086  14.422   2.893  1.00  0.00     0.064 A 
ATOM     79  C   UNL     1       7.418  15.185   1.765  1.00  0.00     0.173 A 
ATOM     80  C   UNL     1       5.726  14.262   3.194  1.00  0.00     0.173 A 
ATOM     81  F   UNL     1       8.705  15.392   1.452  1.00  0.00    -0.203 F 
ATOM     82  C   UNL     1       6.430  15.775   0.977  1.00  0.00     0.198 A 
ATOM     83  C   UNL     1       4.738  14.830   2.391  1.00  0.00     0.198 A 
ATOM     84  F   UNL     1       5.354  13.549   4.267  1.00  0.00    -0.203 F 
ATOM     85  F   UNL     1       6.777  16.535  -0.071  1.00  0.00    -0.200 F 
ATOM     86  C   UNL     1       5.091  15.591   1.287  1.00  0.00     0.200 A 
ATOM     87  F   UNL     1       3.445  14.643   2.688  1.00  0.00    -0.200 F 
ATOM     88  F   UNL     1       4.142  16.155   0.527  1.00  0.00    -0.200 F 
ENDBRANCH  54  78
BRANCH  66  89
ATOM     89  C   UNL     1      11.958  17.172   7.058  1.00  0.00     0.064 A 
ATOM     90  C   UNL     1      11.156  17.921   7.930  1.00  0.00     0.173 A 
ATOM     91  C   UNL     1      13.141  17.761   6.584  1.00  0.00     0.173 A 
ATOM     92  F   UNL     1      10.007  17.409   8.398  1.00  0.00    -0.203 F 
ATOM     93  C   UNL     1      11.517  19.214   8.302  1.00  0.00     0.198 A 
ATOM     94  C   UNL     1      13.514  19.041   6.982  1.00  0.00     0.198 A 
ATOM     95  F   UNL     1      13.948  17.084   5.753  1.00  0.00    -0.203 F 
ATOM     96  F   UNL     1      10.715  19.926   9.106  1.00  0.00    -0.200 F 
ATOM     97  C   UNL     1      12.700  19.768   7.836  1.00  0.00     0.200 A 
ATOM     98  F   UNL     1      14.666  19.569   6.544  1.00  0.00    -0.200 F 
ATOM     99  F   UNL     1      13.053  21.006   8.208  1.00  0.00    -0.200 F 
ENDBRANCH  66  89
ENDBRANCH  40  41
ENDBRANCH  33  35
ENDBRANCH  32  33
ENDBRANCH  31  32
ENDBRANCH  30  31
ENDBRANCH  29  30
ENDBRANCH  28  29
ENDBRANCH  27  28
ENDBRANCH  26  27
ENDBRANCH   1  26
TORSDOF 23
