REMARK SMILES C[C@@H]1[C@@H](C(=O)OCCOCCOCCOCCOC(=O)c2ccc(-c3c4nc(c(-c5c(F)c(F)c(F)c(F)c5F)c5ccc([nH]5)c(-c5c(F)c(F)c(F)c(F)c5F)c5nc(c(-c6c(F)c(F)c(F)c(F)c6F)c6ccc3[nH]6)C=C5)C=C4)cc2)CCN1C(=O)Nc1nccs1
REMARK SMILES IDX 12 1 11 2 10 3 9 4 8 5 7 6 6 7 4 8 5 9 3 10 1 11 2 12 86 13
REMARK SMILES IDX 84 14 85 15 87 16 88 17 89 18 90 20 91 21 94 22 92 23 93 24
REMARK SMILES IDX 13 25 14 26 15 27 16 28 17 29 18 30 19 31 20 32 21 33 22 34
REMARK SMILES IDX 83 35 23 36 82 37 24 38 25 39 26 40 76 41 27 42 81 43 75 44
REMARK SMILES IDX 77 45 28 46 80 47 74 48 73 49 29 51 61 52 41 53 60 54 42 55
REMARK SMILES IDX 45 56 59 57 78 58 43 59 44 60 58 62 79 63 46 64 30 65 31 66
REMARK SMILES IDX 39 67 32 68 33 69 37 70 40 71 34 72 35 73 38 74 36 75 62 76
REMARK SMILES IDX 63 77 71 78 64 79 65 80 69 81 72 82 66 83 67 84 70 85 68 86
REMARK SMILES IDX 47 87 48 88 56 89 49 90 50 91 54 92 57 93 51 94 52 95 55 96
REMARK SMILES IDX 53 97
REMARK H PARENT 89 19 77 50 45 61
REMARK Flexibility Score: inf
ROOT
ATOM      1  O   UNL     1      -1.037   3.767  -2.431  1.00  0.00    -0.377 OA
ENDROOT
BRANCH   1   2
ATOM      2  C   UNL     1       0.275   3.279  -2.241  1.00  0.00     0.188 C 
BRANCH   2   3
ATOM      3  C   UNL     1       0.636   2.113  -3.176  1.00  0.00     0.188 C 
BRANCH   3   4
ATOM      4  O   UNL     1      -0.040   1.967  -4.410  1.00  0.00    -0.376 OA
BRANCH   4   5
ATOM      5  C   UNL     1      -1.432   1.728  -4.546  1.00  0.00     0.202 C 
BRANCH   5   6
ATOM      6  C   UNL     1      -2.423   1.256  -3.465  1.00  0.00     0.261 C 
BRANCH   6   7
ATOM      7  O   UNL     1      -2.023   1.357  -2.105  1.00  0.00    -0.463 OA
BRANCH   7   8
ATOM      8  C   UNL     1      -1.394   0.261  -1.623  1.00  0.00     0.311 C 
ATOM      9  O   UNL     1      -1.236  -0.775  -2.254  1.00  0.00    -0.252 OA
BRANCH   8  10
ATOM     10  C   UNL     1      -0.854   0.546  -0.231  1.00  0.00     0.123 C 
ATOM     11  C   UNL     1       1.324   0.360   1.063  1.00  0.00     0.032 C 
ATOM     12  C   UNL     1       0.445  -0.239  -0.041  1.00  0.00     0.098 C 
ATOM     13  N   UNL     1      -0.035  -1.574   0.322  1.00  0.00    -0.321 N 
ATOM     14  C   UNL     1      -1.766  -0.008   0.845  1.00  0.00     0.039 C 
ATOM     15  C   UNL     1      -1.391  -1.485   0.868  1.00  0.00     0.122 C 
BRANCH  13  16
ATOM     16  C   UNL     1       0.363  -2.792  -0.165  1.00  0.00     0.323 C 
ATOM     17  O   UNL     1      -0.311  -3.804   0.072  1.00  0.00    -0.248 OA
ATOM     18  N   UNL     1       1.377  -2.954  -1.039  1.00  0.00    -0.283 N 
ATOM     19  H   UNL     1       1.293  -3.759  -1.599  1.00  0.00     0.174 HD
BRANCH  18  20
ATOM     20  C   UNL     1       2.493  -2.221  -1.297  1.00  0.00     0.190 A 
ATOM     21  N   UNL     1       3.067  -1.270  -0.606  1.00  0.00    -0.228 NA
ATOM     22  S   UNL     1       3.263  -2.643  -2.767  1.00  0.00    -0.105 S 
ATOM     23  C   UNL     1       4.144  -0.770  -1.309  1.00  0.00     0.125 A 
ATOM     24  C   UNL     1       4.381  -1.363  -2.530  1.00  0.00     0.088 A 
ENDBRANCH  18  20
ENDBRANCH  13  16
ENDBRANCH   8  10
ENDBRANCH   7   8
ENDBRANCH   6   7
ENDBRANCH   5   6
ENDBRANCH   4   5
ENDBRANCH   3   4
ENDBRANCH   2   3
ENDBRANCH   1   2
BRANCH   1  25
ATOM     25  C   UNL     1      -1.205   4.846  -3.343  1.00  0.00     0.188 C 
BRANCH  25  26
ATOM     26  C   UNL     1      -0.249   5.012  -4.548  1.00  0.00     0.188 C 
BRANCH  26  27
ATOM     27  O   UNL     1       1.123   4.802  -4.249  1.00  0.00    -0.376 OA
BRANCH  27  28
ATOM     28  C   UNL     1       1.970   5.931  -4.119  1.00  0.00     0.202 C 
BRANCH  28  29
ATOM     29  C   UNL     1       1.729   6.838  -2.902  1.00  0.00     0.261 C 
BRANCH  29  30
ATOM     30  O   UNL     1       0.402   7.369  -2.770  1.00  0.00    -0.460 OA
BRANCH  30  31
ATOM     31  C   UNL     1      -0.036   8.189  -3.747  1.00  0.00     0.338 C 
ATOM     32  O   UNL     1       0.589   8.573  -4.723  1.00  0.00    -0.246 OA
BRANCH  31  33
ATOM     33  C   UNL     1      -1.484   8.398  -3.550  1.00  0.00     0.060 A 
ATOM     34  C   UNL     1      -2.368   8.025  -4.571  1.00  0.00     0.016 A 
ATOM     35  C   UNL     1      -1.969   8.954  -2.363  1.00  0.00     0.016 A 
ATOM     36  C   UNL     1      -3.737   8.246  -4.426  1.00  0.00     0.010 A 
ATOM     37  C   UNL     1      -3.339   9.197  -2.229  1.00  0.00     0.010 A 
ATOM     38  C   UNL     1      -4.224   8.879  -3.275  1.00  0.00    -0.014 A 
BRANCH  38  39
ATOM     39  C   UNL     1      -5.613   9.399  -3.255  1.00  0.00     0.031 A 
ATOM     40  C   UNL     1      -5.830  10.855  -3.567  1.00  0.00     0.074 A 
ATOM     41  C   UNL     1      -6.661   8.601  -2.992  1.00  0.00     0.049 A 
ATOM     42  N   UNL     1      -6.935  11.555  -3.560  1.00  0.00    -0.248 NA
ATOM     43  C   UNL     1      -4.631  11.626  -3.936  1.00  0.00     0.031 C 
ATOM     44  C   UNL     1      -6.586   7.167  -2.722  1.00  0.00     0.029 A 
ATOM     45  N   UNL     1      -8.000   8.893  -2.900  1.00  0.00    -0.354 N 
ATOM     46  C   UNL     1      -6.564  12.846  -3.913  1.00  0.00     0.074 A 
ATOM     47  C   UNL     1      -5.129  12.843  -4.094  1.00  0.00     0.031 C 
ATOM     48  C   UNL     1      -7.826   6.705  -2.481  1.00  0.00     0.029 A 
ATOM     49  C   UNL     1      -8.774   7.817  -2.543  1.00  0.00     0.049 A 
ATOM     50  H   UNL     1      -8.369   9.789  -3.073  1.00  0.00     0.167 HD
ATOM     51  C   UNL     1      -7.350  13.935  -4.080  1.00  0.00     0.037 A 
ATOM     52  C   UNL     1     -10.093   7.748  -2.271  1.00  0.00     0.037 A 
ATOM     53  C   UNL     1      -8.777  13.936  -3.895  1.00  0.00     0.049 A 
ATOM     54  C   UNL     1     -10.936   8.996  -2.380  1.00  0.00     0.074 A 
ATOM     55  C   UNL     1      -9.667  14.983  -4.053  1.00  0.00     0.029 A 
ATOM     56  N   UNL     1      -9.522  12.835  -3.498  1.00  0.00    -0.354 N 
ATOM     57  N   UNL     1     -10.584  10.208  -2.738  1.00  0.00    -0.248 NA
ATOM     58  C   UNL     1     -12.362   8.863  -2.050  1.00  0.00     0.031 C 
ATOM     59  C   UNL     1     -10.940  14.534  -3.689  1.00  0.00     0.029 A 
ATOM     60  C   UNL     1     -10.857  13.186  -3.376  1.00  0.00     0.049 A 
ATOM     61  H   UNL     1      -9.156  11.936  -3.329  1.00  0.00     0.167 HD
ATOM     62  C   UNL     1     -11.747  10.970  -2.711  1.00  0.00     0.074 A 
ATOM     63  C   UNL     1     -12.818  10.079  -2.314  1.00  0.00     0.031 C 
ATOM     64  C   UNL     1     -11.915  12.286  -2.991  1.00  0.00     0.037 A 
BRANCH  51  65
ATOM     65  C   UNL     1      -6.679  15.227  -4.450  1.00  0.00     0.064 A 
ATOM     66  C   UNL     1      -6.094  15.425  -5.710  1.00  0.00     0.173 A 
ATOM     67  C   UNL     1      -6.646  16.293  -3.538  1.00  0.00     0.173 A 
ATOM     68  F   UNL     1      -6.083  14.432  -6.613  1.00  0.00    -0.203 F 
ATOM     69  C   UNL     1      -5.478  16.631  -6.033  1.00  0.00     0.198 A 
ATOM     70  C   UNL     1      -6.060  17.510  -3.877  1.00  0.00     0.198 A 
ATOM     71  F   UNL     1      -7.191  16.160  -2.320  1.00  0.00    -0.203 F 
ATOM     72  F   UNL     1      -4.879  16.778  -7.223  1.00  0.00    -0.200 F 
ATOM     73  C   UNL     1      -5.468  17.675  -5.120  1.00  0.00     0.200 A 
ATOM     74  F   UNL     1      -6.065  18.521  -2.998  1.00  0.00    -0.200 F 
ATOM     75  F   UNL     1      -4.883  18.838  -5.435  1.00  0.00    -0.200 F 
ENDBRANCH  51  65
BRANCH  52  76
ATOM     76  C   UNL     1     -10.704   6.458  -1.852  1.00  0.00     0.064 A 
ATOM     77  C   UNL     1     -11.649   5.807  -2.658  1.00  0.00     0.173 A 
ATOM     78  C   UNL     1     -10.383   5.867  -0.621  1.00  0.00     0.173 A 
ATOM     79  F   UNL     1     -12.012   6.346  -3.832  1.00  0.00    -0.203 F 
ATOM     80  C   UNL     1     -12.266   4.630  -2.238  1.00  0.00     0.198 A 
ATOM     81  C   UNL     1     -10.975   4.672  -0.218  1.00  0.00     0.198 A 
ATOM     82  F   UNL     1      -9.489   6.449   0.191  1.00  0.00    -0.203 F 
ATOM     83  F   UNL     1     -13.208   4.061  -3.003  1.00  0.00    -0.200 F 
ATOM     84  C   UNL     1     -11.924   4.060  -1.022  1.00  0.00     0.200 A 
ATOM     85  F   UNL     1     -10.632   4.119   0.954  1.00  0.00    -0.200 F 
ATOM     86  F   UNL     1     -12.517   2.928  -0.619  1.00  0.00    -0.200 F 
ENDBRANCH  52  76
BRANCH  64  87
ATOM     87  C   UNL     1     -13.312  12.839  -2.930  1.00  0.00     0.064 A 
ATOM     88  C   UNL     1     -13.998  12.995  -1.716  1.00  0.00     0.173 A 
ATOM     89  C   UNL     1     -13.958  13.260  -4.104  1.00  0.00     0.173 A 
ATOM     90  F   UNL     1     -13.432  12.599  -0.566  1.00  0.00    -0.203 F 
ATOM     91  C   UNL     1     -15.287  13.521  -1.684  1.00  0.00     0.198 A 
ATOM     92  C   UNL     1     -15.231  13.820  -4.064  1.00  0.00     0.198 A 
ATOM     93  F   UNL     1     -13.345  13.144  -5.292  1.00  0.00    -0.203 F 
ATOM     94  F   UNL     1     -15.943  13.610  -0.518  1.00  0.00    -0.200 F 
ATOM     95  C   UNL     1     -15.899  13.941  -2.855  1.00  0.00     0.200 A 
ATOM     96  F   UNL     1     -15.812  14.243  -5.195  1.00  0.00    -0.200 F 
ATOM     97  F   UNL     1     -17.135  14.457  -2.820  1.00  0.00    -0.200 F 
ENDBRANCH  64  87
ENDBRANCH  38  39
ENDBRANCH  31  33
ENDBRANCH  30  31
ENDBRANCH  29  30
ENDBRANCH  28  29
ENDBRANCH  27  28
ENDBRANCH  26  27
ENDBRANCH  25  26
ENDBRANCH   1  25
TORSDOF 22
