REMARK SMILES Cn1ncc(C(=O)OCCOCCOCCOCCOC(=O)c2ccc(-c3c4nc(c(-c5c(F)c(F)c(F)c(F)c5F)c5ccc([nH]5)c(-c5c(F)c(F)c(F)c(F)c5F)c5nc(c(-c6c(F)c(F)c(F)c(F)c6F)c6ccc3[nH]6)C=C5)C=C4)cc2)c1C(=O)NCC1CC[NH+](Cc2ccccc2)CC1
REMARK SMILES IDX 12 1 11 2 10 3 9 4 8 5 6 6 7 7 5 8 1 9 2 10 3 11 86 12 4 13
REMARK SMILES IDX 87 14 88 15 89 16 90 18 91 19 92 20 103 21 93 22 102 23
REMARK SMILES IDX 94 24 95 26 96 27 97 28 101 29 98 30 100 31 99 32 13 33
REMARK SMILES IDX 14 34 15 35 16 36 17 37 18 38 19 39 20 40 21 41 22 42 23 43
REMARK SMILES IDX 24 44 85 45 25 46 84 47 26 48 27 49 28 50 78 51 29 52 83 53
REMARK SMILES IDX 77 54 79 55 30 56 82 57 76 58 75 59 31 61 63 62 43 63 62 64
REMARK SMILES IDX 44 65 47 66 61 67 80 68 45 69 46 70 60 72 81 73 48 74 32 75
REMARK SMILES IDX 33 76 41 77 34 78 35 79 39 80 42 81 36 82 37 83 40 84 38 85
REMARK SMILES IDX 64 86 65 87 73 88 66 89 67 90 71 91 74 92 68 93 69 94 72 95
REMARK SMILES IDX 70 96 49 97 50 98 58 99 51 100 52 101 56 102 59 103 53 104
REMARK SMILES IDX 54 105 57 106 55 107
REMARK H PARENT 89 17 94 25 79 60 47 71
REMARK Flexibility Score: inf
ROOT
ATOM      1  C   UNL     1       4.716  -0.653  -0.748  1.00  0.00     0.188 C 
ENDROOT
BRANCH   1   2
ATOM      2  O   UNL     1       5.528  -1.701  -0.216  1.00  0.00    -0.376 OA
BRANCH   2   3
ATOM      3  C   UNL     1       4.830  -2.869   0.225  1.00  0.00     0.202 C 
BRANCH   3   4
ATOM      4  C   UNL     1       4.082  -2.683   1.551  1.00  0.00     0.261 C 
BRANCH   4   5
ATOM      5  O   UNL     1       2.769  -2.148   1.286  1.00  0.00    -0.460 OA
BRANCH   5   6
ATOM      6  C   UNL     1       2.376  -1.118   2.084  1.00  0.00     0.342 C 
ATOM      7  O   UNL     1       2.948  -0.780   3.115  1.00  0.00    -0.246 OA
BRANCH   6   8
ATOM      8  C   UNL     1       1.389  -0.279   1.441  1.00  0.00     0.111 A 
ATOM      9  C   UNL     1      -1.675   1.006   0.067  1.00  0.00     0.174 C 
ATOM     10  N   UNL     1      -0.341   0.644   0.476  1.00  0.00    -0.262 N 
ATOM     11  N   UNL     1       0.577   1.628   0.500  1.00  0.00    -0.180 NA
ATOM     12  C   UNL     1       0.108  -0.566   0.964  1.00  0.00     0.140 A 
ATOM     13  C   UNL     1       1.608   1.078   1.129  1.00  0.00     0.151 A 
BRANCH  12  14
ATOM     14  C   UNL     1      -0.631  -1.809   1.048  1.00  0.00     0.270 C 
ATOM     15  O   UNL     1      -0.398  -2.675   1.885  1.00  0.00    -0.268 OA
ATOM     16  N   UNL     1      -1.567  -2.037   0.054  1.00  0.00    -0.350 N 
ATOM     17  H   UNL     1      -1.270  -2.118  -0.881  1.00  0.00     0.163 HD
BRANCH  16  18
ATOM     18  C   UNL     1      -2.986  -2.159   0.366  1.00  0.00     0.120 C 
BRANCH  18  19
ATOM     19  C   UNL     1      -3.986  -2.267  -0.822  1.00  0.00     0.019 C 
ATOM     20  C   UNL     1      -4.141  -3.680  -1.396  1.00  0.00     0.067 C 
ATOM     21  C   UNL     1      -3.764  -1.323  -2.007  1.00  0.00     0.067 C 
ATOM     22  C   UNL     1      -2.967  -4.090  -2.277  1.00  0.00     0.262 C 
ATOM     23  C   UNL     1      -2.565  -1.719  -2.871  1.00  0.00     0.262 C 
ATOM     24  N   UNL     1      -2.611  -3.115  -3.316  1.00  0.00    -0.331 N 
ATOM     25  H   UNL     1      -3.398  -3.144  -3.965  1.00  0.00     0.348 HD
BRANCH  24  26
ATOM     26  C   UNL     1      -1.396  -3.508  -4.074  1.00  0.00     0.299 C 
BRANCH  26  27
ATOM     27  C   UNL     1      -0.209  -3.875  -3.202  1.00  0.00     0.006 A 
ATOM     28  C   UNL     1       0.592  -2.879  -2.640  1.00  0.00     0.009 A 
ATOM     29  C   UNL     1      -0.014  -5.209  -2.802  1.00  0.00     0.009 A 
ATOM     30  C   UNL     1       1.467  -3.192  -1.605  1.00  0.00     0.001 A 
ATOM     31  C   UNL     1       0.874  -5.517  -1.773  1.00  0.00     0.001 A 
ATOM     32  C   UNL     1       1.595  -4.503  -1.156  1.00  0.00     0.000 A 
ENDBRANCH  26  27
ENDBRANCH  24  26
ENDBRANCH  18  19
ENDBRANCH  16  18
ENDBRANCH  12  14
ENDBRANCH   6   8
ENDBRANCH   5   6
ENDBRANCH   4   5
ENDBRANCH   3   4
ENDBRANCH   2   3
ENDBRANCH   1   2
BRANCH   1  33
ATOM     33  C   UNL     1       4.784  -0.586  -2.273  1.00  0.00     0.188 C 
BRANCH  33  34
ATOM     34  O   UNL     1       3.867  -1.498  -2.869  1.00  0.00    -0.377 OA
BRANCH  34  35
ATOM     35  C   UNL     1       4.413  -2.694  -3.417  1.00  0.00     0.188 C 
BRANCH  35  36
ATOM     36  C   UNL     1       5.488  -2.529  -4.499  1.00  0.00     0.188 C 
BRANCH  36  37
ATOM     37  O   UNL     1       5.298  -1.606  -5.566  1.00  0.00    -0.376 OA
BRANCH  37  38
ATOM     38  C   UNL     1       3.996  -1.139  -5.888  1.00  0.00     0.202 C 
BRANCH  38  39
ATOM     39  C   UNL     1       3.202  -2.002  -6.870  1.00  0.00     0.261 C 
BRANCH  39  40
ATOM     40  O   UNL     1       2.808  -3.266  -6.315  1.00  0.00    -0.460 OA
BRANCH  40  41
ATOM     41  C   UNL     1       3.615  -4.298  -6.647  1.00  0.00     0.338 C 
ATOM     42  O   UNL     1       4.633  -4.259  -7.317  1.00  0.00    -0.246 OA
BRANCH  41  43
ATOM     43  C   UNL     1       3.131  -5.548  -6.036  1.00  0.00     0.060 A 
ATOM     44  C   UNL     1       4.081  -6.401  -5.463  1.00  0.00     0.016 A 
ATOM     45  C   UNL     1       1.798  -5.951  -6.163  1.00  0.00     0.016 A 
ATOM     46  C   UNL     1       3.717  -7.688  -5.076  1.00  0.00     0.010 A 
ATOM     47  C   UNL     1       1.435  -7.246  -5.783  1.00  0.00     0.010 A 
ATOM     48  C   UNL     1       2.404  -8.133  -5.282  1.00  0.00    -0.014 A 
BRANCH  48  49
ATOM     49  C   UNL     1       2.095  -9.575  -5.141  1.00  0.00     0.031 A 
ATOM     50  C   UNL     1       2.130 -10.447  -6.365  1.00  0.00     0.074 A 
ATOM     51  C   UNL     1       1.821 -10.107  -3.938  1.00  0.00     0.049 A 
ATOM     52  N   UNL     1       1.887 -11.728  -6.479  1.00  0.00    -0.248 NA
ATOM     53  C   UNL     1       2.491  -9.787  -7.630  1.00  0.00     0.031 C 
ATOM     54  C   UNL     1       1.802  -9.372  -2.678  1.00  0.00     0.029 A 
ATOM     55  N   UNL     1       1.500 -11.393  -3.586  1.00  0.00    -0.354 N 
ATOM     56  C   UNL     1       2.071 -12.027  -7.822  1.00  0.00     0.074 A 
ATOM     57  C   UNL     1       2.415 -10.792  -8.491  1.00  0.00     0.031 C 
ATOM     58  C   UNL     1       1.465 -10.214  -1.686  1.00  0.00     0.029 A 
ATOM     59  C   UNL     1       1.233 -11.544  -2.248  1.00  0.00     0.049 A 
ATOM     60  H   UNL     1       1.465 -12.137  -4.230  1.00  0.00     0.167 HD
ATOM     61  C   UNL     1       1.974 -13.228  -8.439  1.00  0.00     0.037 A 
ATOM     62  C   UNL     1       0.835 -12.632  -1.562  1.00  0.00     0.037 A 
ATOM     63  C   UNL     1       1.631 -14.457  -7.776  1.00  0.00     0.049 A 
ATOM     64  C   UNL     1       0.664 -13.942  -2.286  1.00  0.00     0.074 A 
ATOM     65  C   UNL     1       1.524 -15.728  -8.313  1.00  0.00     0.029 A 
ATOM     66  N   UNL     1       1.332 -14.565  -6.426  1.00  0.00    -0.354 N 
ATOM     67  N   UNL     1       0.868 -14.222  -3.550  1.00  0.00    -0.248 NA
ATOM     68  C   UNL     1       0.211 -15.088  -1.484  1.00  0.00     0.031 C 
ATOM     69  C   UNL     1       1.122 -16.599  -7.294  1.00  0.00     0.029 A 
ATOM     70  C   UNL     1       1.016 -15.877  -6.116  1.00  0.00     0.049 A 
ATOM     71  H   UNL     1       1.344 -13.819  -5.784  1.00  0.00     0.167 HD
ATOM     72  C   UNL     1       0.593 -15.575  -3.691  1.00  0.00     0.074 A 
ATOM     73  C   UNL     1       0.216 -16.065  -2.381  1.00  0.00     0.031 C 
ATOM     74  C   UNL     1       0.647 -16.345  -4.806  1.00  0.00     0.037 A 
BRANCH  61  75
ATOM     75  C   UNL     1       2.229 -13.266  -9.915  1.00  0.00     0.064 A 
ATOM     76  C   UNL     1       3.527 -13.165 -10.436  1.00  0.00     0.173 A 
ATOM     77  C   UNL     1       1.168 -13.437 -10.815  1.00  0.00     0.173 A 
ATOM     78  F   UNL     1       4.572 -12.985  -9.615  1.00  0.00    -0.203 F 
ATOM     79  C   UNL     1       3.752 -13.216 -11.809  1.00  0.00     0.198 A 
ATOM     80  C   UNL     1       1.398 -13.509 -12.186  1.00  0.00     0.198 A 
ATOM     81  F   UNL     1      -0.091 -13.540 -10.364  1.00  0.00    -0.203 F 
ATOM     82  F   UNL     1       4.996 -13.081 -12.289  1.00  0.00    -0.200 F 
ATOM     83  C   UNL     1       2.688 -13.393 -12.682  1.00  0.00     0.200 A 
ATOM     84  F   UNL     1       0.371 -13.688 -13.028  1.00  0.00    -0.200 F 
ATOM     85  F   UNL     1       2.906 -13.447 -14.004  1.00  0.00    -0.200 F 
ENDBRANCH  61  75
BRANCH  62  86
ATOM     86  C   UNL     1       0.561 -12.530  -0.107  1.00  0.00     0.064 A 
ATOM     87  C   UNL     1       1.407 -13.135   0.832  1.00  0.00     0.173 A 
ATOM     88  C   UNL     1      -0.562 -11.841   0.372  1.00  0.00     0.173 A 
ATOM     89  F   UNL     1       2.480 -13.826   0.419  1.00  0.00    -0.203 F 
ATOM     90  C   UNL     1       1.130 -13.069   2.196  1.00  0.00     0.198 A 
ATOM     91  C   UNL     1      -0.826 -11.756   1.737  1.00  0.00     0.198 A 
ATOM     92  F   UNL     1      -1.403 -11.247  -0.488  1.00  0.00    -0.203 F 
ATOM     93  F   UNL     1       1.932 -13.691   3.071  1.00  0.00    -0.200 F 
ATOM     94  C   UNL     1       0.017 -12.376   2.647  1.00  0.00     0.200 A 
ATOM     95  F   UNL     1      -1.899 -11.079   2.169  1.00  0.00    -0.200 F 
ATOM     96  F   UNL     1      -0.249 -12.313   3.959  1.00  0.00    -0.200 F 
ENDBRANCH  62  86
BRANCH  74  97
ATOM     97  C   UNL     1       0.312 -17.799  -4.655  1.00  0.00     0.064 A 
ATOM     98  C   UNL     1      -1.012 -18.230  -4.495  1.00  0.00     0.173 A 
ATOM     99  C   UNL     1       1.321 -18.771  -4.719  1.00  0.00     0.173 A 
ATOM    100  F   UNL     1      -2.008 -17.336  -4.412  1.00  0.00    -0.203 F 
ATOM    101  C   UNL     1      -1.313 -19.585  -4.386  1.00  0.00     0.198 A 
ATOM    102  C   UNL     1       1.013 -20.126  -4.634  1.00  0.00     0.198 A 
ATOM    103  F   UNL     1       2.602 -18.408  -4.878  1.00  0.00    -0.203 F 
ATOM    104  F   UNL     1      -2.581 -19.975  -4.197  1.00  0.00    -0.200 F 
ATOM    105  C   UNL     1      -0.302 -20.532  -4.463  1.00  0.00     0.200 A 
ATOM    106  F   UNL     1       1.990 -21.040  -4.718  1.00  0.00    -0.200 F 
ATOM    107  F   UNL     1      -0.595 -21.836  -4.365  1.00  0.00    -0.200 F 
ENDBRANCH  74  97
ENDBRANCH  48  49
ENDBRANCH  41  43
ENDBRANCH  40  41
ENDBRANCH  39  40
ENDBRANCH  38  39
ENDBRANCH  37  38
ENDBRANCH  36  37
ENDBRANCH  35  36
ENDBRANCH  34  35
ENDBRANCH  33  34
ENDBRANCH   1  33
TORSDOF 25
