REMARK SMILES O=C(OCCOCCOCCOCCOC(=O)c1cc(Cl)c2c(c1)[C@H]1C=CC[C@H]1[C@H](c1ccc(S(=O)(=O)N3CCOCC3)cc1)N2)c1ccc(-c2c3nc(c(-c4c(F)c(F)c(F)c(F)c4F)c4ccc([nH]4)c(-c4c(F)c(F)c(F)c(F)c4F)c4nc(c(-c5c(F)c(F)c(F)c(F)c5F)c5ccc2[nH]5)C=C4)C=C3)cc1
REMARK SMILES IDX 10 1 9 2 8 3 7 4 6 5 5 6 4 7 3 8 2 9 1 10 47 11 48 12 109 13
REMARK SMILES IDX 49 14 108 15 50 16 51 17 52 18 102 19 53 20 107 21 101 22
REMARK SMILES IDX 103 23 54 24 106 25 100 26 99 27 55 29 87 30 67 31 86 32
REMARK SMILES IDX 68 33 71 34 85 35 104 36 69 37 70 38 84 40 105 41 72 42
REMARK SMILES IDX 56 43 57 44 65 45 58 46 59 47 63 48 66 49 60 50 61 51 64 52
REMARK SMILES IDX 62 53 88 54 89 55 97 56 90 57 91 58 95 59 98 60 92 61 93 62
REMARK SMILES IDX 96 63 94 64 73 65 74 66 82 67 75 68 76 69 80 70 83 71 77 72
REMARK SMILES IDX 78 73 81 74 79 75 11 76 12 77 13 78 14 79 15 80 16 81 17 82
REMARK SMILES IDX 18 83 19 84 24 85 20 86 23 87 21 88 22 89 25 90 46 91 26 92
REMARK SMILES IDX 29 93 30 94 27 96 28 97 31 98 32 99 45 100 33 101 44 102
REMARK SMILES IDX 34 103 35 104 36 105 37 106 38 107 39 108 43 109 40 110
REMARK SMILES IDX 42 111 41 112
REMARK H PARENT 103 28 71 39 46 95
REMARK Flexibility Score: inf
ROOT
ATOM      1  C   UNL     1       3.885   0.285   3.720  1.00  0.00     0.188 C 
ENDROOT
BRANCH   1   2
ATOM      2  O   UNL     1       2.485   0.126   3.613  1.00  0.00    -0.377 OA
BRANCH   2   3
ATOM      3  C   UNL     1       1.902   0.397   2.352  1.00  0.00     0.188 C 
BRANCH   3   4
ATOM      4  C   UNL     1       2.591  -0.257   1.159  1.00  0.00     0.188 C 
BRANCH   4   5
ATOM      5  O   UNL     1       3.904   0.245   0.875  1.00  0.00    -0.376 OA
BRANCH   5   6
ATOM      6  C   UNL     1       3.994   1.603   0.453  1.00  0.00     0.202 C 
BRANCH   6   7
ATOM      7  C   UNL     1       4.098   1.757  -1.058  1.00  0.00     0.261 C 
BRANCH   7   8
ATOM      8  O   UNL     1       2.858   1.425  -1.705  1.00  0.00    -0.460 OA
BRANCH   8   9
ATOM      9  C   UNL     1       2.447   0.280  -2.290  1.00  0.00     0.338 C 
ATOM     10  O   UNL     1       1.453   0.339  -3.014  1.00  0.00    -0.246 OA
BRANCH   9  11
ATOM     11  C   UNL     1       3.038  -1.080  -2.047  1.00  0.00     0.060 A 
ATOM     12  C   UNL     1       4.275  -1.365  -1.461  1.00  0.00     0.016 A 
ATOM     13  C   UNL     1       2.248  -2.175  -2.456  1.00  0.00     0.016 A 
ATOM     14  C   UNL     1       4.720  -2.677  -1.297  1.00  0.00     0.010 A 
ATOM     15  C   UNL     1       2.708  -3.490  -2.352  1.00  0.00     0.010 A 
ATOM     16  C   UNL     1       3.970  -3.734  -1.809  1.00  0.00    -0.014 A 
BRANCH  16  17
ATOM     17  C   UNL     1       4.653  -5.018  -2.050  1.00  0.00     0.031 A 
ATOM     18  C   UNL     1       5.578  -5.085  -3.233  1.00  0.00     0.074 A 
ATOM     19  C   UNL     1       4.510  -6.058  -1.216  1.00  0.00     0.049 A 
ATOM     20  N   UNL     1       6.364  -6.053  -3.621  1.00  0.00    -0.248 NA
ATOM     21  C   UNL     1       5.660  -3.872  -4.069  1.00  0.00     0.031 C 
ATOM     22  C   UNL     1       3.716  -6.056   0.009  1.00  0.00     0.029 A 
ATOM     23  N   UNL     1       5.044  -7.317  -1.277  1.00  0.00    -0.354 N 
ATOM     24  C   UNL     1       7.073  -5.543  -4.699  1.00  0.00     0.074 A 
ATOM     25  C   UNL     1       6.611  -4.195  -4.929  1.00  0.00     0.031 C 
ATOM     26  C   UNL     1       3.805  -7.270   0.583  1.00  0.00     0.029 A 
ATOM     27  C   UNL     1       4.641  -8.132  -0.251  1.00  0.00     0.049 A 
ATOM     28  H   UNL     1       5.659  -7.609  -1.989  1.00  0.00     0.167 HD
ATOM     29  C   UNL     1       8.027  -6.152  -5.439  1.00  0.00     0.037 A 
ATOM     30  C   UNL     1       4.913  -9.433  -0.034  1.00  0.00     0.037 A 
ATOM     31  C   UNL     1       8.376  -7.534  -5.291  1.00  0.00     0.049 A 
ATOM     32  C   UNL     1       5.811 -10.156  -1.004  1.00  0.00     0.074 A 
ATOM     33  C   UNL     1       9.226  -8.300  -6.064  1.00  0.00     0.029 A 
ATOM     34  N   UNL     1       7.850  -8.369  -4.314  1.00  0.00    -0.354 N 
ATOM     35  N   UNL     1       6.470  -9.680  -2.034  1.00  0.00    -0.248 NA
ATOM     36  C   UNL     1       5.995 -11.598  -0.789  1.00  0.00     0.031 C 
ATOM     37  C   UNL     1       9.170  -9.615  -5.588  1.00  0.00     0.029 A 
ATOM     38  C   UNL     1       8.332  -9.653  -4.483  1.00  0.00     0.049 A 
ATOM     39  H   UNL     1       7.227  -8.088  -3.606  1.00  0.00     0.167 HD
ATOM     40  C   UNL     1       7.165 -10.752  -2.576  1.00  0.00     0.074 A 
ATOM     41  C   UNL     1       6.849 -11.906  -1.757  1.00  0.00     0.031 C 
ATOM     42  C   UNL     1       7.995 -10.780  -3.649  1.00  0.00     0.037 A 
BRANCH  29  43
ATOM     43  C   UNL     1       8.681  -5.327  -6.503  1.00  0.00     0.064 A 
ATOM     44  C   UNL     1       9.606  -4.322  -6.176  1.00  0.00     0.173 A 
ATOM     45  C   UNL     1       8.351  -5.504  -7.853  1.00  0.00     0.173 A 
ATOM     46  F   UNL     1       9.927  -4.090  -4.894  1.00  0.00    -0.203 F 
ATOM     47  C   UNL     1      10.162  -3.513  -7.163  1.00  0.00     0.198 A 
ATOM     48  C   UNL     1       8.924  -4.706  -8.839  1.00  0.00     0.198 A 
ATOM     49  F   UNL     1       7.458  -6.438  -8.213  1.00  0.00    -0.203 F 
ATOM     50  F   UNL     1      11.003  -2.526  -6.824  1.00  0.00    -0.200 F 
ATOM     51  C   UNL     1       9.823  -3.708  -8.493  1.00  0.00     0.200 A 
ATOM     52  F   UNL     1       8.592  -4.891 -10.124  1.00  0.00    -0.200 F 
ATOM     53  F   UNL     1      10.348  -2.920  -9.442  1.00  0.00    -0.200 F 
ENDBRANCH  29  43
BRANCH  30  54
ATOM     54  C   UNL     1       4.325 -10.122   1.143  1.00  0.00     0.064 A 
ATOM     55  C   UNL     1       5.126 -10.524   2.220  1.00  0.00     0.173 A 
ATOM     56  C   UNL     1       2.946 -10.370   1.228  1.00  0.00     0.173 A 
ATOM     57  F   UNL     1       6.453 -10.334   2.174  1.00  0.00    -0.203 F 
ATOM     58  C   UNL     1       4.570 -11.142   3.339  1.00  0.00     0.198 A 
ATOM     59  C   UNL     1       2.389 -10.968   2.356  1.00  0.00     0.198 A 
ATOM     60  F   UNL     1       2.136 -10.013   0.220  1.00  0.00    -0.203 F 
ATOM     61  F   UNL     1       5.362 -11.536   4.346  1.00  0.00    -0.200 F 
ATOM     62  C   UNL     1       3.202 -11.355   3.410  1.00  0.00     0.200 A 
ATOM     63  F   UNL     1       1.065 -11.165   2.423  1.00  0.00    -0.200 F 
ATOM     64  F   UNL     1       2.667 -11.937   4.493  1.00  0.00    -0.200 F 
ENDBRANCH  30  54
BRANCH  42  65
ATOM     65  C   UNL     1       8.639 -12.089  -3.992  1.00  0.00     0.064 A 
ATOM     66  C   UNL     1       7.919 -13.120  -4.610  1.00  0.00     0.173 A 
ATOM     67  C   UNL     1      10.015 -12.273  -3.787  1.00  0.00     0.173 A 
ATOM     68  F   UNL     1       6.600 -12.993  -4.818  1.00  0.00    -0.203 F 
ATOM     69  C   UNL     1       8.554 -14.295  -5.003  1.00  0.00     0.198 A 
ATOM     70  C   UNL     1      10.651 -13.437  -4.206  1.00  0.00     0.198 A 
ATOM     71  F   UNL     1      10.747 -11.307  -3.210  1.00  0.00    -0.203 F 
ATOM     72  F   UNL     1       7.844 -15.280  -5.570  1.00  0.00    -0.200 F 
ATOM     73  C   UNL     1       9.920 -14.448  -4.811  1.00  0.00     0.200 A 
ATOM     74  F   UNL     1      11.973 -13.575  -4.035  1.00  0.00    -0.200 F 
ATOM     75  F   UNL     1      10.532 -15.571  -5.209  1.00  0.00    -0.200 F 
ENDBRANCH  42  65
ENDBRANCH  16  17
ENDBRANCH   9  11
ENDBRANCH   8   9
ENDBRANCH   7   8
ENDBRANCH   6   7
ENDBRANCH   5   6
ENDBRANCH   4   5
ENDBRANCH   3   4
ENDBRANCH   2   3
ENDBRANCH   1   2
BRANCH   1  76
ATOM     76  C   UNL     1       4.698  -1.024   3.682  1.00  0.00     0.188 C 
BRANCH  76  77
ATOM     77  O   UNL     1       4.025  -2.274   3.775  1.00  0.00    -0.376 OA
BRANCH  77  78
ATOM     78  C   UNL     1       2.977  -2.438   4.725  1.00  0.00     0.202 C 
BRANCH  78  79
ATOM     79  C   UNL     1       3.298  -2.185   6.204  1.00  0.00     0.261 C 
BRANCH  79  80
ATOM     80  O   UNL     1       3.583  -0.806   6.501  1.00  0.00    -0.460 OA
BRANCH  80  81
ATOM     81  C   UNL     1       4.795  -0.552   7.064  1.00  0.00     0.338 C 
ATOM     82  O   UNL     1       5.649  -1.347   7.375  1.00  0.00    -0.246 OA
BRANCH  81  83
ATOM     83  C   UNL     1       5.020   0.910   7.045  1.00  0.00     0.062 A 
ATOM     84  C   UNL     1       4.212   1.788   7.757  1.00  0.00     0.038 A 
ATOM     85  C   UNL     1       6.033   1.400   6.215  1.00  0.00     0.022 A 
ATOM     86  C   UNL     1       4.465   3.161   7.664  1.00  0.00     0.065 A 
ATOM     87  C   UNL     1       6.222   2.782   6.054  1.00  0.00    -0.015 A 
ATOM     88  Cl  UNL     1       3.481   4.232   8.605  1.00  0.00    -0.082 Cl
ATOM     89  C   UNL     1       5.472   3.681   6.817  1.00  0.00     0.057 A 
ATOM     90  C   UNL     1       7.206   3.269   5.035  1.00  0.00     0.049 C 
ATOM     91  N   UNL     1       5.765   5.031   6.791  1.00  0.00    -0.376 N 
ATOM     92  C   UNL     1       6.649   3.425   3.640  1.00  0.00    -0.023 C 
ATOM     93  C   UNL     1       7.767   4.671   5.302  1.00  0.00     0.031 C 
ATOM     94  C   UNL     1       6.691   5.645   5.854  1.00  0.00     0.114 C 
ATOM     95  H   UNL     1       5.318   5.613   7.447  1.00  0.00     0.161 HD
ATOM     96  C   UNL     1       7.251   4.434   2.999  1.00  0.00    -0.030 C 
ATOM     97  C   UNL     1       8.259   5.088   3.894  1.00  0.00     0.034 C 
BRANCH  94  98
ATOM     98  C   UNL     1       7.376   6.835   6.523  1.00  0.00    -0.025 A 
ATOM     99  C   UNL     1       7.666   6.884   7.901  1.00  0.00     0.007 A 
ATOM    100  C   UNL     1       7.814   7.890   5.719  1.00  0.00     0.007 A 
ATOM    101  C   UNL     1       8.374   7.961   8.451  1.00  0.00     0.022 A 
ATOM    102  C   UNL     1       8.573   8.920   6.254  1.00  0.00     0.022 A 
ATOM    103  C   UNL     1       8.841   8.976   7.615  1.00  0.00     0.082 A 
BRANCH 103 104
ATOM    104  S   UNL     1       9.751  10.336   8.314  1.00  0.00     0.243 S 
ATOM    105  O   UNL     1       8.841  11.007   9.219  1.00  0.00    -0.207 OA
ATOM    106  O   UNL     1      11.014   9.792   8.762  1.00  0.00    -0.207 OA
BRANCH 104 107
ATOM    107  N   UNL     1      10.051  11.373   7.030  1.00  0.00    -0.193 NA
ATOM    108  C   UNL     1       9.056  12.359   6.564  1.00  0.00     0.131 C 
ATOM    109  C   UNL     1      11.312  11.340   6.266  1.00  0.00     0.131 C 
ATOM    110  C   UNL     1       8.890  12.297   5.038  1.00  0.00     0.177 C 
ATOM    111  C   UNL     1      11.031  11.295   4.760  1.00  0.00     0.177 C 
ATOM    112  O   UNL     1      10.146  12.345   4.347  1.00  0.00    -0.379 OA
ENDBRANCH 104 107
ENDBRANCH 103 104
ENDBRANCH  94  98
ENDBRANCH  81  83
ENDBRANCH  80  81
ENDBRANCH  79  80
ENDBRANCH  78  79
ENDBRANCH  77  78
ENDBRANCH  76  77
ENDBRANCH   1  76
TORSDOF 23
