REMARK SMILES CN1C(=O)c2ccccc2[C@@H](C(=O)OCCOCCOCCOCCOC(=O)c2ccc(-c3c4nc(c(-c5c(F)c(F)c(F)c(F)c5F)c5ccc([nH]5)c(-c5c(F)c(F)c(F)c(F)c5F)c5nc(c(-c6c(F)c(F)c(F)c(F)c6F)c6ccc3[nH]6)C=C5)C=C4)cc2)[C@@H]1c1cc2ccccc2[nH]1
REMARK SMILES IDX 21 1 20 2 19 3 18 4 17 5 16 6 15 7 14 8 12 9 13 10 11 11
REMARK SMILES IDX 1 12 2 13 3 14 92 15 4 16 5 17 6 18 10 19 7 20 9 21 8 22
REMARK SMILES IDX 93 23 94 24 101 25 95 26 100 27 96 29 99 30 97 31 98 32
REMARK SMILES IDX 22 33 23 34 24 35 25 36 26 37 27 38 28 39 29 40 30 41 91 42
REMARK SMILES IDX 31 43 90 44 32 45 33 46 34 47 84 48 35 49 89 50 83 51 85 52
REMARK SMILES IDX 36 53 88 54 82 55 81 56 37 58 69 59 49 60 68 61 50 62 53 63
REMARK SMILES IDX 67 64 86 65 51 66 52 67 66 69 87 70 54 71 38 72 39 73 47 74
REMARK SMILES IDX 40 75 41 76 45 77 48 78 42 79 43 80 46 81 44 82 70 83 71 84
REMARK SMILES IDX 79 85 72 86 73 87 77 88 80 89 74 90 75 91 78 92 76 93 55 94
REMARK SMILES IDX 56 95 64 96 57 97 58 98 62 99 65 100 59 101 60 102 63 103
REMARK SMILES IDX 61 104
REMARK H PARENT 101 28 85 57 53 68
REMARK Flexibility Score: inf
ROOT
ATOM      1  C   UNL     1       4.139   1.910   2.947  1.00  0.00     0.188 C 
ENDROOT
BRANCH   1   2
ATOM      2  O   UNL     1       3.134   2.083   1.958  1.00  0.00    -0.377 OA
BRANCH   2   3
ATOM      3  C   UNL     1       2.545   3.354   1.745  1.00  0.00     0.188 C 
BRANCH   3   4
ATOM      4  C   UNL     1       1.642   3.959   2.818  1.00  0.00     0.188 C 
BRANCH   4   5
ATOM      5  O   UNL     1       1.873   3.599   4.155  1.00  0.00    -0.376 OA
BRANCH   5   6
ATOM      6  C   UNL     1       1.475   2.352   4.692  1.00  0.00     0.202 C 
BRANCH   6   7
ATOM      7  C   UNL     1       0.729   1.212   3.967  1.00  0.00     0.261 C 
BRANCH   7   8
ATOM      8  O   UNL     1       0.833   1.094   2.541  1.00  0.00    -0.463 OA
BRANCH   8   9
ATOM      9  C   UNL     1      -0.224   1.585   1.858  1.00  0.00     0.316 C 
ATOM     10  O   UNL     1      -1.180   2.134   2.410  1.00  0.00    -0.251 OA
BRANCH   9  11
ATOM     11  C   UNL     1      -0.188   1.420   0.341  1.00  0.00     0.159 C 
ATOM     12  C   UNL     1       2.956  -0.553  -0.466  1.00  0.00     0.147 C 
ATOM     13  N   UNL     1       1.529  -0.259  -0.518  1.00  0.00    -0.332 N 
ATOM     14  C   UNL     1       0.624  -1.290  -0.312  1.00  0.00     0.254 C 
ATOM     15  C   UNL     1       1.129   1.124  -0.404  1.00  0.00     0.150 C 
ATOM     16  O   UNL     1       0.966  -2.459  -0.162  1.00  0.00    -0.269 OA
ATOM     17  C   UNL     1      -0.821  -0.922  -0.256  1.00  0.00     0.044 A 
ATOM     18  C   UNL     1      -1.794  -1.909  -0.392  1.00  0.00     0.014 A 
ATOM     19  C   UNL     1      -1.219   0.402  -0.044  1.00  0.00    -0.019 A 
ATOM     20  C   UNL     1      -3.147  -1.561  -0.366  1.00  0.00     0.001 A 
ATOM     21  C   UNL     1      -2.575   0.754  -0.048  1.00  0.00     0.005 A 
ATOM     22  C   UNL     1      -3.537  -0.231  -0.213  1.00  0.00     0.000 A 
BRANCH  15  23
ATOM     23  C   UNL     1       1.182   1.871  -1.740  1.00  0.00     0.040 A 
ATOM     24  C   UNL     1       0.156   2.362  -2.551  1.00  0.00     0.034 A 
ATOM     25  N   UNL     1       2.197   2.795  -1.954  1.00  0.00    -0.357 N 
ATOM     26  C   UNL     1       0.268   3.786  -2.354  1.00  0.00    -0.000 A 
ATOM     27  C   UNL     1       1.553   4.017  -1.863  1.00  0.00     0.046 A 
ATOM     28  H   UNL     1       3.150   2.622  -2.130  1.00  0.00     0.166 HD
ATOM     29  C   UNL     1      -0.646   4.857  -2.369  1.00  0.00     0.010 A 
ATOM     30  C   UNL     1       1.966   5.230  -1.308  1.00  0.00     0.026 A 
ATOM     31  C   UNL     1      -0.275   6.062  -1.752  1.00  0.00     0.001 A 
ATOM     32  C   UNL     1       0.999   6.232  -1.207  1.00  0.00     0.002 A 
ENDBRANCH  15  23
ENDBRANCH   9  11
ENDBRANCH   8   9
ENDBRANCH   7   8
ENDBRANCH   6   7
ENDBRANCH   5   6
ENDBRANCH   4   5
ENDBRANCH   3   4
ENDBRANCH   2   3
ENDBRANCH   1   2
BRANCH   1  33
ATOM     33  C   UNL     1       4.741   3.131   3.667  1.00  0.00     0.188 C 
BRANCH  33  34
ATOM     34  O   UNL     1       4.584   4.365   3.001  1.00  0.00    -0.376 OA
BRANCH  34  35
ATOM     35  C   UNL     1       5.560   4.811   2.076  1.00  0.00     0.202 C 
BRANCH  35  36
ATOM     36  C   UNL     1       6.188   3.863   1.035  1.00  0.00     0.261 C 
BRANCH  36  37
ATOM     37  O   UNL     1       6.579   2.553   1.472  1.00  0.00    -0.460 OA
BRANCH  37  38
ATOM     38  C   UNL     1       7.600   2.477   2.349  1.00  0.00     0.338 C 
ATOM     39  O   UNL     1       8.252   3.413   2.792  1.00  0.00    -0.246 OA
BRANCH  38  40
ATOM     40  C   UNL     1       7.692   1.092   2.859  1.00  0.00     0.060 A 
ATOM     41  C   UNL     1       7.401   0.845   4.207  1.00  0.00     0.016 A 
ATOM     42  C   UNL     1       8.107   0.048   2.029  1.00  0.00     0.016 A 
ATOM     43  C   UNL     1       7.566  -0.429   4.742  1.00  0.00     0.010 A 
ATOM     44  C   UNL     1       8.299  -1.228   2.575  1.00  0.00     0.010 A 
ATOM     45  C   UNL     1       8.066  -1.462   3.942  1.00  0.00    -0.014 A 
BRANCH  45  46
ATOM     46  C   UNL     1       8.472  -2.734   4.590  1.00  0.00     0.031 A 
ATOM     47  C   UNL     1       9.932  -3.010   4.819  1.00  0.00     0.074 A 
ATOM     48  C   UNL     1       7.543  -3.598   5.035  1.00  0.00     0.049 A 
ATOM     49  N   UNL     1      10.506  -4.046   5.378  1.00  0.00    -0.248 NA
ATOM     50  C   UNL     1      10.874  -1.980   4.356  1.00  0.00     0.031 C 
ATOM     51  C   UNL     1       6.098  -3.417   4.911  1.00  0.00     0.029 A 
ATOM     52  N   UNL     1       7.679  -4.799   5.685  1.00  0.00    -0.354 N 
ATOM     53  C   UNL     1      11.872  -3.797   5.325  1.00  0.00     0.074 A 
ATOM     54  C   UNL     1      12.043  -2.531   4.646  1.00  0.00     0.031 C 
ATOM     55  C   UNL     1       5.479  -4.469   5.470  1.00  0.00     0.029 A 
ATOM     56  C   UNL     1       6.482  -5.416   5.949  1.00  0.00     0.049 A 
ATOM     57  H   UNL     1       8.551  -5.180   5.937  1.00  0.00     0.167 HD
ATOM     58  C   UNL     1      12.887  -4.554   5.808  1.00  0.00     0.037 A 
ATOM     59  C   UNL     1       6.228  -6.622   6.494  1.00  0.00     0.037 A 
ATOM     60  C   UNL     1      12.707  -5.819   6.474  1.00  0.00     0.049 A 
ATOM     61  C   UNL     1       7.382  -7.480   6.945  1.00  0.00     0.074 A 
ATOM     62  C   UNL     1      13.669  -6.656   7.012  1.00  0.00     0.029 A 
ATOM     63  N   UNL     1      11.482  -6.441   6.678  1.00  0.00    -0.354 N 
ATOM     64  N   UNL     1       8.668  -7.227   6.918  1.00  0.00    -0.248 NA
ATOM     65  C   UNL     1       7.042  -8.790   7.515  1.00  0.00     0.031 C 
ATOM     66  C   UNL     1      13.036  -7.819   7.463  1.00  0.00     0.029 A 
ATOM     67  C   UNL     1      11.669  -7.668   7.297  1.00  0.00     0.049 A 
ATOM     68  H   UNL     1      10.609  -6.065   6.421  1.00  0.00     0.167 HD
ATOM     69  C   UNL     1       9.288  -8.329   7.495  1.00  0.00     0.074 A 
ATOM     70  C   UNL     1       8.230  -9.236   7.891  1.00  0.00     0.031 C 
ATOM     71  C   UNL     1      10.611  -8.570   7.680  1.00  0.00     0.037 A 
BRANCH  58  72
ATOM     72  C   UNL     1      14.291  -4.056   5.595  1.00  0.00     0.064 A 
ATOM     73  C   UNL     1      14.778  -2.901   6.228  1.00  0.00     0.173 A 
ATOM     74  C   UNL     1      15.177  -4.768   4.770  1.00  0.00     0.173 A 
ATOM     75  F   UNL     1      13.976  -2.175   7.021  1.00  0.00    -0.203 F 
ATOM     76  C   UNL     1      16.083  -2.461   6.015  1.00  0.00     0.198 A 
ATOM     77  C   UNL     1      16.492  -4.349   4.593  1.00  0.00     0.198 A 
ATOM     78  F   UNL     1      14.770  -5.883   4.144  1.00  0.00    -0.203 F 
ATOM     79  F   UNL     1      16.505  -1.323   6.582  1.00  0.00    -0.200 F 
ATOM     80  C   UNL     1      16.941  -3.190   5.205  1.00  0.00     0.200 A 
ATOM     81  F   UNL     1      17.325  -5.067   3.826  1.00  0.00    -0.200 F 
ATOM     82  F   UNL     1      18.199  -2.771   5.010  1.00  0.00    -0.200 F 
ENDBRANCH  58  72
BRANCH  59  83
ATOM     83  C   UNL     1       4.825  -7.100   6.627  1.00  0.00     0.064 A 
ATOM     84  C   UNL     1       4.251  -7.329   7.885  1.00  0.00     0.173 A 
ATOM     85  C   UNL     1       4.040  -7.368   5.495  1.00  0.00     0.173 A 
ATOM     86  F   UNL     1       4.967  -7.112   8.998  1.00  0.00    -0.203 F 
ATOM     87  C   UNL     1       2.959  -7.837   8.005  1.00  0.00     0.198 A 
ATOM     88  C   UNL     1       2.733  -7.835   5.617  1.00  0.00     0.198 A 
ATOM     89  F   UNL     1       4.540  -7.168   4.267  1.00  0.00    -0.203 F 
ATOM     90  F   UNL     1       2.460  -8.111   9.219  1.00  0.00    -0.200 F 
ATOM     91  C   UNL     1       2.199  -8.082   6.872  1.00  0.00     0.200 A 
ATOM     92  F   UNL     1       1.997  -8.054   4.520  1.00  0.00    -0.200 F 
ATOM     93  F   UNL     1       0.955  -8.568   6.989  1.00  0.00    -0.200 F 
ENDBRANCH  59  83
BRANCH  71  94
ATOM     94  C   UNL     1      10.983  -9.849   8.385  1.00  0.00     0.064 A 
ATOM     95  C   UNL     1      10.725 -11.112   7.827  1.00  0.00     0.173 A 
ATOM     96  C   UNL     1      11.594  -9.811   9.649  1.00  0.00     0.173 A 
ATOM     97  F   UNL     1      10.140 -11.212   6.623  1.00  0.00    -0.203 F 
ATOM     98  C   UNL     1      10.999 -12.280   8.534  1.00  0.00     0.198 A 
ATOM     99  C   UNL     1      11.915 -10.982  10.331  1.00  0.00     0.198 A 
ATOM    100  F   UNL     1      11.882  -8.635  10.228  1.00  0.00    -0.203 F 
ATOM    101  F   UNL     1      10.652 -13.468   8.020  1.00  0.00    -0.200 F 
ATOM    102  C   UNL     1      11.597 -12.214   9.783  1.00  0.00     0.200 A 
ATOM    103  F   UNL     1      12.518 -10.915  11.525  1.00  0.00    -0.200 F 
ATOM    104  F   UNL     1      11.853 -13.339  10.466  1.00  0.00    -0.200 F 
ENDBRANCH  71  94
ENDBRANCH  45  46
ENDBRANCH  38  40
ENDBRANCH  37  38
ENDBRANCH  36  37
ENDBRANCH  35  36
ENDBRANCH  34  35
ENDBRANCH  33  34
ENDBRANCH   1  33
TORSDOF 21
