REMARK SMILES Cc1ccccc1SCC(=O)N[C@H]1C=C[C@H](C(=O)OCCOCCOCCOCCOC(=O)c2ccc(-c3c4nc(c(-c5c(F)c(F)c(F)c(F)c5F)c5ccc([nH]5)c(-c5c(F)c(F)c(F)c(F)c5F)c5nc(c(-c6c(F)c(F)c(F)c(F)c6F)c6ccc3[nH]6)C=C5)C=C4)cc2)C1
REMARK SMILES IDX 24 1 23 2 22 3 21 4 20 5 19 6 17 7 18 8 16 9 13 10 14 11
REMARK SMILES IDX 97 12 15 13 12 14 10 15 11 16 9 18 8 19 7 20 1 21 2 22 3 23
REMARK SMILES IDX 4 24 6 25 5 26 25 27 26 28 27 29 28 30 29 31 30 32 31 33
REMARK SMILES IDX 32 34 33 35 34 36 35 37 96 38 36 39 95 40 37 41 38 42 39 43
REMARK SMILES IDX 89 44 40 45 94 46 88 47 90 48 41 49 93 50 87 51 86 52 42 54
REMARK SMILES IDX 74 55 54 56 73 57 55 58 58 59 72 60 91 61 56 62 57 63 71 65
REMARK SMILES IDX 92 66 59 67 43 68 44 69 52 70 45 71 46 72 50 73 53 74 47 75
REMARK SMILES IDX 48 76 51 77 49 78 75 79 76 80 84 81 77 82 78 83 82 84 85 85
REMARK SMILES IDX 79 86 80 87 83 88 81 89 60 90 61 91 69 92 62 93 63 94 67 95
REMARK SMILES IDX 70 96 64 97 65 98 68 99 66 100
REMARK H PARENT 12 17 90 53 58 64
REMARK Flexibility Score: inf
ROOT
ATOM      1  C   UNL     1       3.217   6.561   0.184  1.00  0.00     0.188 C 
ENDROOT
BRANCH   1   2
ATOM      2  C   UNL     1       2.192   5.602  -0.438  1.00  0.00     0.188 C 
BRANCH   2   3
ATOM      3  O   UNL     1       1.401   4.960   0.542  1.00  0.00    -0.376 OA
BRANCH   3   4
ATOM      4  C   UNL     1       0.178   5.624   0.800  1.00  0.00     0.202 C 
BRANCH   4   5
ATOM      5  C   UNL     1      -0.303   5.121   2.134  1.00  0.00     0.261 C 
BRANCH   5   6
ATOM      6  O   UNL     1       0.742   5.396   3.070  1.00  0.00    -0.463 OA
BRANCH   6   7
ATOM      7  C   UNL     1       1.224   4.302   3.687  1.00  0.00     0.312 C 
ATOM      8  O   UNL     1       0.595   3.259   3.851  1.00  0.00    -0.252 OA
BRANCH   7   9
ATOM      9  C   UNL     1       2.709   4.496   3.969  1.00  0.00     0.124 C 
ATOM     10  C   UNL     1       3.366   2.335   3.227  1.00  0.00     0.106 C 
ATOM     11  C   UNL     1       3.528   2.439   4.718  1.00  0.00    -0.006 C 
ATOM     12  C   UNL     1       3.503   3.811   2.857  1.00  0.00     0.048 C 
ATOM     13  C   UNL     1       3.131   3.653   5.138  1.00  0.00    -0.014 C 
BRANCH  10  14
ATOM     14  N   UNL     1       4.308   1.458   2.605  1.00  0.00    -0.349 N 
ATOM     15  C   UNL     1       4.274   1.006   1.313  1.00  0.00     0.230 C 
ATOM     16  O   UNL     1       5.010   0.050   1.039  1.00  0.00    -0.274 OA
ATOM     17  H   UNL     1       5.057   1.147   3.163  1.00  0.00     0.164 HD
BRANCH  15  18
ATOM     18  C   UNL     1       3.531   1.731   0.197  1.00  0.00     0.174 C 
BRANCH  18  19
ATOM     19  S   UNL     1       1.746   1.985   0.351  1.00  0.00    -0.116 SA
BRANCH  19  20
ATOM     20  C   UNL     1       0.750   0.551   0.037  1.00  0.00     0.011 A 
ATOM     21  C   UNL     1       2.513  -1.269  -0.341  1.00  0.00     0.045 C 
ATOM     22  C   UNL     1       1.108  -0.782  -0.180  1.00  0.00    -0.038 A 
ATOM     23  C   UNL     1       0.093  -1.765  -0.219  1.00  0.00     0.004 A 
ATOM     24  C   UNL     1      -1.257  -1.435  -0.138  1.00  0.00     0.000 A 
ATOM     25  C   UNL     1      -0.632   0.868   0.071  1.00  0.00     0.015 A 
ATOM     26  C   UNL     1      -1.625  -0.107  -0.029  1.00  0.00     0.001 A 
ENDBRANCH  19  20
ENDBRANCH  18  19
ENDBRANCH  15  18
ENDBRANCH  10  14
ENDBRANCH   7   9
ENDBRANCH   6   7
ENDBRANCH   5   6
ENDBRANCH   4   5
ENDBRANCH   3   4
ENDBRANCH   2   3
ENDBRANCH   1   2
BRANCH   1  27
ATOM     27  O   UNL     1       2.801   7.889   0.480  1.00  0.00    -0.377 OA
BRANCH  27  28
ATOM     28  C   UNL     1       2.337   8.704  -0.585  1.00  0.00     0.188 C 
BRANCH  28  29
ATOM     29  C   UNL     1       2.913   8.535  -1.981  1.00  0.00     0.188 C 
BRANCH  29  30
ATOM     30  O   UNL     1       2.172   7.502  -2.617  1.00  0.00    -0.376 OA
BRANCH  30  31
ATOM     31  C   UNL     1       2.535   7.201  -3.956  1.00  0.00     0.202 C 
BRANCH  31  32
ATOM     32  C   UNL     1       2.217   8.345  -4.926  1.00  0.00     0.261 C 
BRANCH  32  33
ATOM     33  O   UNL     1       0.809   8.636  -4.835  1.00  0.00    -0.460 OA
BRANCH  33  34
ATOM     34  C   UNL     1       0.494   9.856  -4.323  1.00  0.00     0.338 C 
ATOM     35  O   UNL     1       1.039  10.908  -4.609  1.00  0.00    -0.246 OA
BRANCH  34  36
ATOM     36  C   UNL     1      -0.420   9.683  -3.155  1.00  0.00     0.060 A 
ATOM     37  C   UNL     1      -0.666  10.763  -2.289  1.00  0.00     0.016 A 
ATOM     38  C   UNL     1      -0.811   8.402  -2.777  1.00  0.00     0.016 A 
ATOM     39  C   UNL     1      -1.185  10.540  -1.001  1.00  0.00     0.010 A 
ATOM     40  C   UNL     1      -1.254   8.184  -1.484  1.00  0.00     0.010 A 
ATOM     41  C   UNL     1      -1.416   9.235  -0.563  1.00  0.00    -0.014 A 
BRANCH  41  42
ATOM     42  C   UNL     1      -1.624   8.826   0.848  1.00  0.00     0.031 A 
ATOM     43  C   UNL     1      -2.700   7.824   1.176  1.00  0.00     0.074 A 
ATOM     44  C   UNL     1      -0.602   9.052   1.716  1.00  0.00     0.049 A 
ATOM     45  N   UNL     1      -2.920   7.300   2.337  1.00  0.00    -0.248 NA
ATOM     46  C   UNL     1      -3.645   7.313   0.181  1.00  0.00     0.031 C 
ATOM     47  C   UNL     1      -0.224   8.234   2.865  1.00  0.00     0.029 A 
ATOM     48  N   UNL     1       0.407  10.025   1.695  1.00  0.00    -0.354 N 
ATOM     49  C   UNL     1      -3.704   6.167   2.170  1.00  0.00     0.074 A 
ATOM     50  C   UNL     1      -4.239   6.312   0.842  1.00  0.00     0.031 C 
ATOM     51  C   UNL     1       0.879   8.711   3.460  1.00  0.00     0.029 A 
ATOM     52  C   UNL     1       1.031  10.050   2.962  1.00  0.00     0.049 A 
ATOM     53  H   UNL     1       0.641  10.595   0.927  1.00  0.00     0.167 HD
ATOM     54  C   UNL     1      -3.661   5.168   3.114  1.00  0.00     0.037 A 
ATOM     55  C   UNL     1       0.861  11.137   3.771  1.00  0.00     0.037 A 
ATOM     56  C   UNL     1      -2.924   5.613   4.323  1.00  0.00     0.049 A 
ATOM     57  C   UNL     1      -0.062  10.813   4.937  1.00  0.00     0.074 A 
ATOM     58  C   UNL     1      -1.875   5.099   5.068  1.00  0.00     0.029 A 
ATOM     59  N   UNL     1      -3.127   6.906   4.825  1.00  0.00    -0.354 N 
ATOM     60  N   UNL     1      -0.953   9.847   4.891  1.00  0.00    -0.248 NA
ATOM     61  C   UNL     1       0.048  11.380   6.279  1.00  0.00     0.031 C 
ATOM     62  C   UNL     1      -1.335   6.152   5.864  1.00  0.00     0.029 A 
ATOM     63  C   UNL     1      -2.132   7.276   5.707  1.00  0.00     0.049 A 
ATOM     64  H   UNL     1      -3.888   7.480   4.578  1.00  0.00     0.167 HD
ATOM     65  C   UNL     1      -1.418   9.575   6.144  1.00  0.00     0.074 A 
ATOM     66  C   UNL     1      -0.807  10.601   6.972  1.00  0.00     0.031 C 
ATOM     67  C   UNL     1      -2.228   8.520   6.461  1.00  0.00     0.037 A 
BRANCH  54  68
ATOM     68  C   UNL     1      -4.065   3.689   2.889  1.00  0.00     0.064 A 
ATOM     69  C   UNL     1      -3.994   2.743   3.946  1.00  0.00     0.173 A 
ATOM     70  C   UNL     1      -4.426   3.107   1.651  1.00  0.00     0.173 A 
ATOM     71  F   UNL     1      -3.712   3.123   5.199  1.00  0.00    -0.203 F 
ATOM     72  C   UNL     1      -4.220   1.365   3.770  1.00  0.00     0.198 A 
ATOM     73  C   UNL     1      -4.722   1.742   1.492  1.00  0.00     0.198 A 
ATOM     74  F   UNL     1      -4.463   3.806   0.515  1.00  0.00    -0.203 F 
ATOM     75  F   UNL     1      -4.072   0.524   4.804  1.00  0.00    -0.200 F 
ATOM     76  C   UNL     1      -4.598   0.865   2.544  1.00  0.00     0.200 A 
ATOM     77  F   UNL     1      -5.098   1.282   0.288  1.00  0.00    -0.200 F 
ATOM     78  F   UNL     1      -4.835  -0.443   2.372  1.00  0.00    -0.200 F 
ENDBRANCH  54  68
BRANCH  55  79
ATOM     79  C   UNL     1       1.207  12.385   3.016  1.00  0.00     0.064 A 
ATOM     80  C   UNL     1       2.575  12.434   2.648  1.00  0.00     0.173 A 
ATOM     81  C   UNL     1       0.292  12.939   2.103  1.00  0.00     0.173 A 
ATOM     82  F   UNL     1       3.504  11.954   3.492  1.00  0.00    -0.203 F 
ATOM     83  C   UNL     1       2.965  12.721   1.338  1.00  0.00     0.198 A 
ATOM     84  C   UNL     1       0.698  13.268   0.799  1.00  0.00     0.198 A 
ATOM     85  F   UNL     1      -1.018  12.962   2.389  1.00  0.00    -0.203 F 
ATOM     86  F   UNL     1       4.231  12.501   0.954  1.00  0.00    -0.200 F 
ATOM     87  C   UNL     1       2.016  13.087   0.402  1.00  0.00     0.200 A 
ATOM     88  F   UNL     1      -0.215  13.624  -0.118  1.00  0.00    -0.200 F 
ATOM     89  F   UNL     1       2.355  13.190  -0.892  1.00  0.00    -0.200 F 
ENDBRANCH  55  79
BRANCH  67  90
ATOM     90  C   UNL     1      -3.235   8.567   7.583  1.00  0.00     0.064 A 
ATOM     91  C   UNL     1      -3.806   9.775   8.014  1.00  0.00     0.173 A 
ATOM     92  C   UNL     1      -3.856   7.386   8.061  1.00  0.00     0.173 A 
ATOM     93  F   UNL     1      -3.375  10.956   7.549  1.00  0.00    -0.203 F 
ATOM     94  C   UNL     1      -4.894   9.803   8.883  1.00  0.00     0.198 A 
ATOM     95  C   UNL     1      -4.980   7.420   8.880  1.00  0.00     0.198 A 
ATOM     96  F   UNL     1      -3.428   6.165   7.711  1.00  0.00    -0.203 F 
ATOM     97  F   UNL     1      -5.388  10.983   9.280  1.00  0.00    -0.200 F 
ATOM     98  C   UNL     1      -5.492   8.629   9.300  1.00  0.00     0.200 A 
ATOM     99  F   UNL     1      -5.585   6.275   9.228  1.00  0.00    -0.200 F 
ATOM    100  F   UNL     1      -6.575   8.665  10.086  1.00  0.00    -0.200 F 
ENDBRANCH  67  90
ENDBRANCH  41  42
ENDBRANCH  34  36
ENDBRANCH  33  34
ENDBRANCH  32  33
ENDBRANCH  31  32
ENDBRANCH  30  31
ENDBRANCH  29  30
ENDBRANCH  28  29
ENDBRANCH  27  28
ENDBRANCH   1  27
TORSDOF 24
