REMARK SMILES CC[C@@](C)(C(=O)OCCOCCOCCOCCOC(=O)c1ccc(-c2c3nc(c(-c4c(F)c(F)c(F)c(F)c4F)c4ccc([nH]4)c(-c4c(F)c(F)c(F)c(F)c4F)c4nc(c(-c5c(F)c(F)c(F)c(F)c5F)c5ccc2[nH]5)C=C4)C=C3)cc1)n1nnnc1Cc1cccs1
REMARK SMILES IDX 12 1 11 2 10 3 9 4 8 5 7 6 5 7 6 8 3 9 4 10 2 11 1 12 85 13
REMARK SMILES IDX 86 14 89 15 87 16 88 17 90 18 91 19 92 20 95 21 93 22 94 23
REMARK SMILES IDX 13 24 14 25 15 26 16 27 17 28 18 29 19 30 20 31 21 32 22 33
REMARK SMILES IDX 23 34 84 35 24 36 83 37 25 38 26 39 27 40 77 41 28 42 82 43
REMARK SMILES IDX 76 44 78 45 29 46 81 47 75 48 74 49 30 51 62 52 42 53 61 54
REMARK SMILES IDX 43 55 46 56 60 57 79 58 44 59 45 60 59 62 80 63 47 64 31 65
REMARK SMILES IDX 32 66 40 67 33 68 34 69 38 70 41 71 35 72 36 73 39 74 37 75
REMARK SMILES IDX 63 76 64 77 72 78 65 79 66 80 70 81 73 82 67 83 68 84 71 85
REMARK SMILES IDX 69 86 48 87 49 88 57 89 50 90 51 91 55 92 58 93 52 94 53 95
REMARK SMILES IDX 56 96 54 97
REMARK H PARENT 78 50 46 61
REMARK Flexibility Score: inf
ROOT
ATOM      1  C   UNL     1       1.027   4.405   0.866  1.00  0.00     0.188 C 
ENDROOT
BRANCH   1   2
ATOM      2  C   UNL     1       1.481   5.476  -0.133  1.00  0.00     0.188 C 
BRANCH   2   3
ATOM      3  O   UNL     1       0.565   6.509  -0.423  1.00  0.00    -0.376 OA
BRANCH   3   4
ATOM      4  C   UNL     1      -0.527   6.282  -1.299  1.00  0.00     0.202 C 
BRANCH   4   5
ATOM      5  C   UNL     1      -0.771   5.012  -2.142  1.00  0.00     0.261 C 
BRANCH   5   6
ATOM      6  O   UNL     1      -0.350   3.744  -1.613  1.00  0.00    -0.461 OA
BRANCH   6   7
ATOM      7  C   UNL     1       0.574   3.058  -2.341  1.00  0.00     0.334 C 
ATOM      8  O   UNL     1       1.038   3.483  -3.398  1.00  0.00    -0.249 OA
BRANCH   7   9
ATOM      9  C   UNL     1       0.947   1.654  -1.764  1.00  0.00     0.160 C 
ATOM     10  C   UNL     1       0.534   0.741  -2.933  1.00  0.00     0.050 C 
BRANCH   9  11
ATOM     11  C   UNL     1       0.115   1.270  -0.496  1.00  0.00     0.039 C 
ATOM     12  C   UNL     1       0.195  -0.161   0.025  1.00  0.00     0.007 C 
ENDBRANCH   9  11
BRANCH   9  13
ATOM     13  N   UNL     1       2.397   1.651  -1.511  1.00  0.00    -0.212 N 
ATOM     14  N   UNL     1       3.012   2.829  -1.247  1.00  0.00    -0.044 NA
ATOM     15  C   UNL     1       3.352   0.658  -1.417  1.00  0.00     0.157 A 
ATOM     16  N   UNL     1       4.287   2.562  -1.046  1.00  0.00    -0.024 NA
ATOM     17  N   UNL     1       4.511   1.227  -1.133  1.00  0.00    -0.113 NA
BRANCH  15  18
ATOM     18  C   UNL     1       3.177  -0.812  -1.530  1.00  0.00     0.125 C 
BRANCH  18  19
ATOM     19  C   UNL     1       3.677  -1.367  -2.830  1.00  0.00     0.012 A 
ATOM     20  C   UNL     1       4.982  -1.460  -3.275  1.00  0.00     0.016 A 
ATOM     21  S   UNL     1       2.583  -2.049  -3.959  1.00  0.00    -0.148 S 
ATOM     22  C   UNL     1       5.071  -2.060  -4.563  1.00  0.00     0.012 A 
ATOM     23  C   UNL     1       3.835  -2.406  -5.058  1.00  0.00     0.065 A 
ENDBRANCH  18  19
ENDBRANCH  15  18
ENDBRANCH   9  13
ENDBRANCH   7   9
ENDBRANCH   6   7
ENDBRANCH   5   6
ENDBRANCH   4   5
ENDBRANCH   3   4
ENDBRANCH   2   3
ENDBRANCH   1   2
BRANCH   1  24
ATOM     24  O   UNL     1      -0.370   4.180   0.958  1.00  0.00    -0.377 OA
BRANCH  24  25
ATOM     25  C   UNL     1      -1.164   5.070   1.732  1.00  0.00     0.188 C 
BRANCH  25  26
ATOM     26  C   UNL     1      -0.545   6.326   2.376  1.00  0.00     0.188 C 
BRANCH  26  27
ATOM     27  O   UNL     1       0.775   6.165   2.860  1.00  0.00    -0.376 OA
BRANCH  27  28
ATOM     28  C   UNL     1       0.986   5.777   4.209  1.00  0.00     0.202 C 
BRANCH  28  29
ATOM     29  C   UNL     1       0.342   4.476   4.714  1.00  0.00     0.261 C 
BRANCH  29  30
ATOM     30  O   UNL     1      -1.093   4.401   4.657  1.00  0.00    -0.460 OA
BRANCH  30  31
ATOM     31  C   UNL     1      -1.808   5.378   5.254  1.00  0.00     0.338 C 
ATOM     32  O   UNL     1      -1.392   6.298   5.923  1.00  0.00    -0.246 OA
BRANCH  31  33
ATOM     33  C   UNL     1      -3.206   5.249   4.787  1.00  0.00     0.060 A 
ATOM     34  C   UNL     1      -3.787   6.314   4.087  1.00  0.00     0.016 A 
ATOM     35  C   UNL     1      -3.938   4.090   5.049  1.00  0.00     0.016 A 
ATOM     36  C   UNL     1      -5.120   6.241   3.683  1.00  0.00     0.010 A 
ATOM     37  C   UNL     1      -5.281   4.027   4.666  1.00  0.00     0.010 A 
ATOM     38  C   UNL     1      -5.886   5.118   4.017  1.00  0.00    -0.014 A 
BRANCH  38  39
ATOM     39  C   UNL     1      -7.362   5.177   3.885  1.00  0.00     0.031 A 
ATOM     40  C   UNL     1      -8.170   5.511   5.109  1.00  0.00     0.074 A 
ATOM     41  C   UNL     1      -7.971   4.968   2.706  1.00  0.00     0.049 A 
ATOM     42  N   UNL     1      -9.468   5.568   5.262  1.00  0.00    -0.248 NA
ATOM     43  C   UNL     1      -7.406   5.819   6.329  1.00  0.00     0.031 C 
ATOM     44  C   UNL     1      -7.294   4.693   1.441  1.00  0.00     0.029 A 
ATOM     45  N   UNL     1      -9.306   4.949   2.387  1.00  0.00    -0.354 N 
ATOM     46  C   UNL     1      -9.674   5.906   6.593  1.00  0.00     0.074 A 
ATOM     47  C   UNL     1      -8.372   6.011   7.213  1.00  0.00     0.031 C 
ATOM     48  C   UNL     1      -8.220   4.521   0.482  1.00  0.00     0.029 A 
ATOM     49  C   UNL     1      -9.553   4.636   1.074  1.00  0.00     0.049 A 
ATOM     50  H   UNL     1     -10.019   5.143   3.038  1.00  0.00     0.167 HD
ATOM     51  C   UNL     1     -10.846   6.115   7.239  1.00  0.00     0.037 A 
ATOM     52  C   UNL     1     -10.723   4.439   0.434  1.00  0.00     0.037 A 
ATOM     53  C   UNL     1     -12.139   6.010   6.616  1.00  0.00     0.049 A 
ATOM     54  C   UNL     1     -12.016   4.594   1.197  1.00  0.00     0.074 A 
ATOM     55  C   UNL     1     -13.386   6.222   7.177  1.00  0.00     0.029 A 
ATOM     56  N   UNL     1     -12.351   5.649   5.293  1.00  0.00    -0.354 N 
ATOM     57  N   UNL     1     -12.207   4.935   2.449  1.00  0.00    -0.248 NA
ATOM     58  C   UNL     1     -13.258   4.336   0.454  1.00  0.00     0.031 C 
ATOM     59  C   UNL     1     -14.354   5.923   6.213  1.00  0.00     0.029 A 
ATOM     60  C   UNL     1     -13.710   5.597   5.030  1.00  0.00     0.049 A 
ATOM     61  H   UNL     1     -11.640   5.457   4.639  1.00  0.00     0.167 HD
ATOM     62  C   UNL     1     -13.584   4.969   2.633  1.00  0.00     0.074 A 
ATOM     63  C   UNL     1     -14.181   4.625   1.360  1.00  0.00     0.031 C 
ATOM     64  C   UNL     1     -14.291   5.262   3.753  1.00  0.00     0.037 A 
BRANCH  51  65
ATOM     65  C   UNL     1     -10.783   6.439   8.704  1.00  0.00     0.064 A 
ATOM     66  C   UNL     1     -10.276   7.659   9.176  1.00  0.00     0.173 A 
ATOM     67  C   UNL     1     -11.262   5.519   9.650  1.00  0.00     0.173 A 
ATOM     68  F   UNL     1      -9.790   8.567   8.316  1.00  0.00    -0.203 F 
ATOM     69  C   UNL     1     -10.223   7.934  10.541  1.00  0.00     0.198 A 
ATOM     70  C   UNL     1     -11.240   5.812  11.011  1.00  0.00     0.198 A 
ATOM     71  F   UNL     1     -11.759   4.338   9.254  1.00  0.00    -0.203 F 
ATOM     72  F   UNL     1      -9.684   9.082  10.971  1.00  0.00    -0.200 F 
ATOM     73  C   UNL     1     -10.713   7.014  11.456  1.00  0.00     0.200 A 
ATOM     74  F   UNL     1     -11.727   4.927  11.892  1.00  0.00    -0.200 F 
ATOM     75  F   UNL     1     -10.669   7.283  12.768  1.00  0.00    -0.200 F 
ENDBRANCH  51  65
BRANCH  52  76
ATOM     76  C   UNL     1     -10.733   4.061  -1.004  1.00  0.00     0.064 A 
ATOM     77  C   UNL     1     -11.256   4.925  -1.977  1.00  0.00     0.173 A 
ATOM     78  C   UNL     1     -10.248   2.817  -1.434  1.00  0.00     0.173 A 
ATOM     79  F   UNL     1     -11.757   6.115  -1.615  1.00  0.00    -0.203 F 
ATOM     80  C   UNL     1     -11.311   4.551  -3.319  1.00  0.00     0.198 A 
ATOM     81  C   UNL     1     -10.273   2.457  -2.780  1.00  0.00     0.198 A 
ATOM     82  F   UNL     1      -9.740   1.950  -0.545  1.00  0.00    -0.203 F 
ATOM     83  F   UNL     1     -11.865   5.375  -4.219  1.00  0.00    -0.200 F 
ATOM     84  C   UNL     1     -10.814   3.321  -3.720  1.00  0.00     0.200 A 
ATOM     85  F   UNL     1      -9.779   1.273  -3.164  1.00  0.00    -0.200 F 
ATOM     86  F   UNL     1     -10.864   2.963  -5.010  1.00  0.00    -0.200 F 
ENDBRANCH  52  76
BRANCH  64  87
ATOM     87  C   UNL     1     -15.791   5.273   3.647  1.00  0.00     0.064 A 
ATOM     88  C   UNL     1     -16.532   4.095   3.471  1.00  0.00     0.173 A 
ATOM     89  C   UNL     1     -16.499   6.479   3.768  1.00  0.00     0.173 A 
ATOM     90  F   UNL     1     -15.905   2.916   3.338  1.00  0.00    -0.203 F 
ATOM     91  C   UNL     1     -17.922   4.128   3.390  1.00  0.00     0.198 A 
ATOM     92  C   UNL     1     -17.890   6.504   3.724  1.00  0.00     0.198 A 
ATOM     93  F   UNL     1     -15.842   7.635   3.947  1.00  0.00    -0.203 F 
ATOM     94  F   UNL     1     -18.605   2.997   3.167  1.00  0.00    -0.200 F 
ATOM     95  C   UNL     1     -18.600   5.330   3.526  1.00  0.00     0.200 A 
ATOM     96  F   UNL     1     -18.544   7.665   3.874  1.00  0.00    -0.200 F 
ATOM     97  F   UNL     1     -19.938   5.358   3.458  1.00  0.00    -0.200 F 
ENDBRANCH  64  87
ENDBRANCH  38  39
ENDBRANCH  31  33
ENDBRANCH  30  31
ENDBRANCH  29  30
ENDBRANCH  28  29
ENDBRANCH  27  28
ENDBRANCH  26  27
ENDBRANCH  25  26
ENDBRANCH  24  25
ENDBRANCH   1  24
TORSDOF 24
