REMARK SMILES O=C(CCCCN1C(=O)CCc2cc([N+](=O)[O-])ccc21)OCCOCCOCCOCCOC(=O)c1ccc(-c2c3nc(c(-c4c(F)c(F)c(F)c(F)c4F)c4ccc([nH]4)c(-c4c(F)c(F)c(F)c(F)c4F)c4nc(c(-c5c(F)c(F)c(F)c(F)c5F)c5ccc2[nH]5)C=C4)C=C3)cc1
REMARK SMILES IDX 25 1 24 2 23 3 22 4 21 5 2 6 1 7 3 8 4 9 5 10 6 11 7 12 8 13
REMARK SMILES IDX 20 14 9 15 10 16 12 17 19 18 11 19 13 20 18 21 14 22 15 23
REMARK SMILES IDX 16 24 17 25 26 26 27 27 28 28 29 29 30 30 31 31 32 32 33 33
REMARK SMILES IDX 34 34 35 35 36 36 37 37 98 38 38 39 97 40 39 41 40 42 41 43
REMARK SMILES IDX 91 44 42 45 96 46 90 47 92 48 43 49 95 50 89 51 88 52 44 54
REMARK SMILES IDX 76 55 56 56 75 57 57 58 60 59 74 60 93 61 58 62 59 63 73 65
REMARK SMILES IDX 94 66 61 67 45 68 46 69 54 70 47 71 48 72 52 73 55 74 49 75
REMARK SMILES IDX 50 76 53 77 51 78 77 79 78 80 86 81 79 82 80 83 84 84 87 85
REMARK SMILES IDX 81 86 82 87 85 88 83 89 62 90 63 91 71 92 64 93 65 94 69 95
REMARK SMILES IDX 72 96 66 97 67 98 70 99 68 100
REMARK H PARENT 92 53 60 64
REMARK Flexibility Score: inf
ROOT
ATOM      1  C   UNL     1       2.301  -1.073   1.253  1.00  0.00     0.188 C 
ENDROOT
BRANCH   1   2
ATOM      2  O   UNL     1       3.296  -0.142   0.809  1.00  0.00    -0.376 OA
BRANCH   2   3
ATOM      3  C   UNL     1       3.255   1.117   1.464  1.00  0.00     0.202 C 
BRANCH   3   4
ATOM      4  C   UNL     1       3.573   2.267   0.507  1.00  0.00     0.261 C 
BRANCH   4   5
ATOM      5  O   UNL     1       3.072   2.220  -0.847  1.00  0.00    -0.463 OA
BRANCH   5   6
ATOM      6  C   UNL     1       2.230   1.232  -1.212  1.00  0.00     0.305 C 
ATOM      7  O   UNL     1       1.071   1.163  -0.816  1.00  0.00    -0.252 OA
BRANCH   6   8
ATOM      8  C   UNL     1       2.878   0.175  -2.093  1.00  0.00     0.123 C 
BRANCH   8   9
ATOM      9  C   UNL     1       4.119   0.548  -2.905  1.00  0.00     0.014 C 
BRANCH   9  10
ATOM     10  C   UNL     1       5.417   0.919  -2.176  1.00  0.00     0.023 C 
BRANCH  10  11
ATOM     11  C   UNL     1       6.058  -0.125  -1.245  1.00  0.00     0.125 C 
BRANCH  11  12
ATOM     12  N   UNL     1       6.737  -1.212  -1.954  1.00  0.00    -0.312 N 
ATOM     13  C   UNL     1       7.914  -0.866  -2.631  1.00  0.00     0.227 C 
ATOM     14  C   UNL     1       6.280  -2.567  -1.895  1.00  0.00     0.047 A 
ATOM     15  O   UNL     1       8.449   0.240  -2.546  1.00  0.00    -0.275 OA
ATOM     16  C   UNL     1       8.442  -1.891  -3.599  1.00  0.00     0.105 C 
ATOM     17  C   UNL     1       7.092  -3.590  -2.425  1.00  0.00    -0.017 A 
ATOM     18  C   UNL     1       5.071  -2.938  -1.293  1.00  0.00     0.034 A 
ATOM     19  C   UNL     1       8.453  -3.261  -2.970  1.00  0.00     0.048 C 
ATOM     20  C   UNL     1       6.686  -4.937  -2.367  1.00  0.00     0.091 A 
ATOM     21  C   UNL     1       4.655  -4.274  -1.240  1.00  0.00     0.088 A 
ATOM     22  C   UNL     1       5.463  -5.271  -1.782  1.00  0.00     0.269 A 
BRANCH  22  23
ATOM     23  N   UNL     1       5.029  -6.672  -1.730  1.00  0.00     0.062 N 
ATOM     24  O   UNL     1       5.769  -7.523  -2.245  1.00  0.00    -0.258 OA
ATOM     25  O   UNL     1       3.941  -6.922  -1.192  1.00  0.00    -0.258 OA
ENDBRANCH  22  23
ENDBRANCH  11  12
ENDBRANCH  10  11
ENDBRANCH   9  10
ENDBRANCH   8   9
ENDBRANCH   6   8
ENDBRANCH   5   6
ENDBRANCH   4   5
ENDBRANCH   3   4
ENDBRANCH   2   3
ENDBRANCH   1   2
BRANCH   1  26
ATOM     26  C   UNL     1       2.318  -1.335   2.758  1.00  0.00     0.188 C 
BRANCH  26  27
ATOM     27  O   UNL     1       3.494  -1.875   3.355  1.00  0.00    -0.377 OA
BRANCH  27  28
ATOM     28  C   UNL     1       4.702  -1.990   2.620  1.00  0.00     0.188 C 
BRANCH  28  29
ATOM     29  C   UNL     1       5.259  -3.418   2.601  1.00  0.00     0.188 C 
BRANCH  29  30
ATOM     30  O   UNL     1       4.454  -4.414   1.982  1.00  0.00    -0.376 OA
BRANCH  30  31
ATOM     31  C   UNL     1       3.163  -4.686   2.527  1.00  0.00     0.202 C 
BRANCH  31  32
ATOM     32  C   UNL     1       3.046  -5.075   4.013  1.00  0.00     0.261 C 
BRANCH  32  33
ATOM     33  O   UNL     1       3.318  -3.986   4.919  1.00  0.00    -0.460 OA
BRANCH  33  34
ATOM     34  C   UNL     1       4.421  -4.121   5.690  1.00  0.00     0.338 C 
ATOM     35  O   UNL     1       5.129  -5.109   5.790  1.00  0.00    -0.246 OA
BRANCH  34  36
ATOM     36  C   UNL     1       4.816  -2.828   6.292  1.00  0.00     0.060 A 
ATOM     37  C   UNL     1       6.122  -2.374   6.052  1.00  0.00     0.016 A 
ATOM     38  C   UNL     1       3.998  -2.161   7.205  1.00  0.00     0.016 A 
ATOM     39  C   UNL     1       6.643  -1.306   6.780  1.00  0.00     0.010 A 
ATOM     40  C   UNL     1       4.529  -1.101   7.954  1.00  0.00     0.010 A 
ATOM     41  C   UNL     1       5.874  -0.715   7.788  1.00  0.00    -0.014 A 
BRANCH  41  42
ATOM     42  C   UNL     1       6.574   0.077   8.833  1.00  0.00     0.031 A 
ATOM     43  C   UNL     1       7.017  -0.642  10.083  1.00  0.00     0.074 A 
ATOM     44  C   UNL     1       6.885   1.372   8.658  1.00  0.00     0.049 A 
ATOM     45  N   UNL     1       7.671  -0.189  11.123  1.00  0.00    -0.248 NA
ATOM     46  C   UNL     1       6.678  -2.073  10.166  1.00  0.00     0.031 C 
ATOM     47  C   UNL     1       6.568   2.166   7.474  1.00  0.00     0.029 A 
ATOM     48  N   UNL     1       7.549   2.246   9.484  1.00  0.00    -0.354 N 
ATOM     49  C   UNL     1       7.812  -1.273  11.981  1.00  0.00     0.074 A 
ATOM     50  C   UNL     1       7.150  -2.398  11.358  1.00  0.00     0.031 C 
ATOM     51  C   UNL     1       7.034   3.416   7.652  1.00  0.00     0.029 A 
ATOM     52  C   UNL     1       7.661   3.514   8.970  1.00  0.00     0.049 A 
ATOM     53  H   UNL     1       7.911   1.987  10.363  1.00  0.00     0.167 HD
ATOM     54  C   UNL     1       8.445  -1.332  13.177  1.00  0.00     0.037 A 
ATOM     55  C   UNL     1       8.199   4.625   9.511  1.00  0.00     0.037 A 
ATOM     56  C   UNL     1       9.106  -0.215  13.798  1.00  0.00     0.049 A 
ATOM     57  C   UNL     1       8.837   4.551  10.878  1.00  0.00     0.074 A 
ATOM     58  C   UNL     1       9.786  -0.174  15.002  1.00  0.00     0.029 A 
ATOM     59  N   UNL     1       9.160   1.063  13.264  1.00  0.00    -0.354 N 
ATOM     60  N   UNL     1       8.990   3.517  11.670  1.00  0.00    -0.248 NA
ATOM     61  C   UNL     1       9.387   5.802  11.419  1.00  0.00     0.031 C 
ATOM     62  C   UNL     1      10.200   1.143  15.225  1.00  0.00     0.029 A 
ATOM     63  C   UNL     1       9.840   1.908  14.127  1.00  0.00     0.049 A 
ATOM     64  H   UNL     1       8.773   1.332  12.399  1.00  0.00     0.167 HD
ATOM     65  C   UNL     1       9.691   3.982  12.777  1.00  0.00     0.074 A 
ATOM     66  C   UNL     1       9.939   5.390  12.551  1.00  0.00     0.031 C 
ATOM     67  C   UNL     1      10.096   3.304  13.880  1.00  0.00     0.037 A 
BRANCH  54  68
ATOM     68  C   UNL     1       8.417  -2.643  13.910  1.00  0.00     0.064 A 
ATOM     69  C   UNL     1       9.133  -3.763  13.458  1.00  0.00     0.173 A 
ATOM     70  C   UNL     1       7.673  -2.775  15.092  1.00  0.00     0.173 A 
ATOM     71  F   UNL     1       9.848  -3.695  12.325  1.00  0.00    -0.203 F 
ATOM     72  C   UNL     1       9.079  -4.973  14.146  1.00  0.00     0.198 A 
ATOM     73  C   UNL     1       7.648  -3.977  15.794  1.00  0.00     0.198 A 
ATOM     74  F   UNL     1       6.972  -1.736  15.569  1.00  0.00    -0.203 F 
ATOM     75  F   UNL     1       9.726  -6.044  13.666  1.00  0.00    -0.200 F 
ATOM     76  C   UNL     1       8.343  -5.077  15.316  1.00  0.00     0.200 A 
ATOM     77  F   UNL     1       6.946  -4.071  16.932  1.00  0.00    -0.200 F 
ATOM     78  F   UNL     1       8.296  -6.240  15.980  1.00  0.00    -0.200 F 
ENDBRANCH  54  68
BRANCH  55  79
ATOM     79  C   UNL     1       8.169   5.912   8.764  1.00  0.00     0.064 A 
ATOM     80  C   UNL     1       9.351   6.511   8.304  1.00  0.00     0.173 A 
ATOM     81  C   UNL     1       6.963   6.589   8.531  1.00  0.00     0.173 A 
ATOM     82  F   UNL     1      10.533   5.918   8.526  1.00  0.00    -0.203 F 
ATOM     83  C   UNL     1       9.329   7.748   7.662  1.00  0.00     0.198 A 
ATOM     84  C   UNL     1       6.940   7.811   7.862  1.00  0.00     0.198 A 
ATOM     85  F   UNL     1       5.804   6.063   8.954  1.00  0.00    -0.203 F 
ATOM     86  F   UNL     1      10.478   8.324   7.282  1.00  0.00    -0.200 F 
ATOM     87  C   UNL     1       8.123   8.395   7.436  1.00  0.00     0.200 A 
ATOM     88  F   UNL     1       5.771   8.427   7.636  1.00  0.00    -0.200 F 
ATOM     89  F   UNL     1       8.103   9.584   6.819  1.00  0.00    -0.200 F 
ENDBRANCH  55  79
BRANCH  67  90
ATOM     90  C   UNL     1      10.907   4.056  14.899  1.00  0.00     0.064 A 
ATOM     91  C   UNL     1      10.349   5.062  15.702  1.00  0.00     0.173 A 
ATOM     92  C   UNL     1      12.262   3.742  15.093  1.00  0.00     0.173 A 
ATOM     93  F   UNL     1       9.062   5.409  15.551  1.00  0.00    -0.203 F 
ATOM     94  C   UNL     1      11.125   5.750  16.631  1.00  0.00     0.198 A 
ATOM     95  C   UNL     1      13.025   4.407  16.048  1.00  0.00     0.198 A 
ATOM     96  F   UNL     1      12.845   2.780  14.361  1.00  0.00    -0.203 F 
ATOM     97  F   UNL     1      10.585   6.749  17.344  1.00  0.00    -0.200 F 
ATOM     98  C   UNL     1      12.460   5.418  16.809  1.00  0.00     0.200 A 
ATOM     99  F   UNL     1      14.310   4.071  16.230  1.00  0.00    -0.200 F 
ATOM    100  F   UNL     1      13.203   6.079  17.706  1.00  0.00    -0.200 F 
ENDBRANCH  67  90
ENDBRANCH  41  42
ENDBRANCH  34  36
ENDBRANCH  33  34
ENDBRANCH  32  33
ENDBRANCH  31  32
ENDBRANCH  30  31
ENDBRANCH  29  30
ENDBRANCH  28  29
ENDBRANCH  27  28
ENDBRANCH  26  27
ENDBRANCH   1  26
TORSDOF 25
