REMARK SMILES CCCCCNC(=O)Oc1cccc(-c2ccc([C@@H](C)C(=O)OCCOCCOCCOCCOC(=O)c3ccc(-c4c5nc(c(-c6c(F)c(F)c(F)c(F)c6F)c6ccc([nH]6)c(-c6c(F)c(F)c(F)c(F)c6F)c6nc(c(-c7c(F)c(F)c(F)c(F)c7F)c7ccc4[nH]7)C=C6)C=C5)cc3)cc2F)c1
REMARK SMILES IDX 26 1 25 2 24 3 23 4 21 5 22 6 19 7 20 8 18 9 15 10 16 11
REMARK SMILES IDX 102 12 17 13 101 14 103 15 14 16 10 17 11 18 104 19 12 20
REMARK SMILES IDX 13 21 9 22 7 23 6 24 8 26 5 27 4 28 3 29 2 30 1 31 27 32
REMARK SMILES IDX 28 33 29 34 30 35 31 36 32 37 33 38 34 39 35 40 36 41 37 42
REMARK SMILES IDX 38 43 39 44 100 45 40 46 99 47 41 48 42 49 43 50 93 51 44 52
REMARK SMILES IDX 98 53 92 54 94 55 45 56 97 57 91 58 90 59 46 61 78 62 58 63
REMARK SMILES IDX 77 64 59 65 62 66 76 67 95 68 60 69 61 70 75 72 96 73 63 74
REMARK SMILES IDX 47 75 48 76 56 77 49 78 50 79 54 80 57 81 51 82 52 83 55 84
REMARK SMILES IDX 53 85 79 86 80 87 88 88 81 89 82 90 86 91 89 92 83 93 84 94
REMARK SMILES IDX 87 95 85 96 64 97 65 98 73 99 66 100 67 101 71 102 74 103
REMARK SMILES IDX 68 104 69 105 72 106 70 107
REMARK H PARENT 6 25 94 60 62 71
REMARK Flexibility Score: inf
ROOT
ATOM      1  O   UNL     1      -2.080 -12.302  -6.771  1.00  0.00    -0.376 OA
ENDROOT
BRANCH   1   2
ATOM      2  C   UNL     1      -3.470 -12.524  -6.953  1.00  0.00     0.202 C 
BRANCH   2   3
ATOM      3  C   UNL     1      -4.241 -13.515  -6.061  1.00  0.00     0.261 C 
BRANCH   3   4
ATOM      4  O   UNL     1      -4.099 -13.360  -4.632  1.00  0.00    -0.463 OA
BRANCH   4   5
ATOM      5  C   UNL     1      -3.339 -14.286  -4.001  1.00  0.00     0.313 C 
ATOM      6  O   UNL     1      -2.808 -15.231  -4.582  1.00  0.00    -0.252 OA
BRANCH   5   7
ATOM      7  C   UNL     1      -3.193 -14.119  -2.487  1.00  0.00     0.126 C 
ATOM      8  C   UNL     1      -3.972 -15.239  -1.807  1.00  0.00     0.025 C 
BRANCH   7   9
ATOM      9  C   UNL     1      -3.445 -12.771  -1.807  1.00  0.00    -0.031 A 
ATOM     10  C   UNL     1      -3.775 -10.211  -0.533  1.00  0.00     0.018 A 
ATOM     11  C   UNL     1      -4.821 -10.827  -1.246  1.00  0.00     0.012 A 
ATOM     12  C   UNL     1      -2.567 -10.912  -0.466  1.00  0.00     0.131 A 
ATOM     13  C   UNL     1      -4.663 -12.083  -1.871  1.00  0.00     0.005 A 
ATOM     14  C   UNL     1      -2.404 -12.166  -1.071  1.00  0.00     0.044 A 
ATOM     15  F   UNL     1      -1.521 -10.394   0.197  1.00  0.00    -0.206 F 
BRANCH  10  16
ATOM     16  C   UNL     1      -3.969  -8.911   0.148  1.00  0.00    -0.012 A 
ATOM     17  C   UNL     1      -3.380  -6.578   0.556  1.00  0.00     0.133 A 
ATOM     18  C   UNL     1      -4.384  -6.461   1.514  1.00  0.00     0.047 A 
ATOM     19  C   UNL     1      -3.157  -7.790  -0.114  1.00  0.00     0.056 A 
ATOM     20  C   UNL     1      -5.189  -7.562   1.793  1.00  0.00     0.004 A 
ATOM     21  C   UNL     1      -4.982  -8.770   1.117  1.00  0.00     0.009 A 
BRANCH  17  22
ATOM     22  O   UNL     1      -2.533  -5.465   0.394  1.00  0.00    -0.410 OA
BRANCH  22  23
ATOM     23  C   UNL     1      -2.483  -4.882  -0.863  1.00  0.00     0.412 C 
ATOM     24  N   UNL     1      -1.677  -3.777  -0.934  1.00  0.00    -0.321 N 
ATOM     25  H   UNL     1      -1.510  -3.414  -1.834  1.00  0.00     0.167 HD
ATOM     26  O   UNL     1      -3.093  -5.265  -1.854  1.00  0.00    -0.224 OA
BRANCH  24  27
ATOM     27  C   UNL     1      -1.041  -3.084   0.168  1.00  0.00     0.119 C 
BRANCH  27  28
ATOM     28  C   UNL     1       0.480  -3.037   0.040  1.00  0.00     0.021 C 
BRANCH  28  29
ATOM     29  C   UNL     1       1.017  -2.269  -1.176  1.00  0.00     0.002 C 
BRANCH  29  30
ATOM     30  C   UNL     1       0.591  -0.802  -1.285  1.00  0.00    -0.003 C 
ATOM     31  C   UNL     1       1.039   0.054  -0.110  1.00  0.00     0.004 C 
ENDBRANCH  29  30
ENDBRANCH  28  29
ENDBRANCH  27  28
ENDBRANCH  24  27
ENDBRANCH  22  23
ENDBRANCH  17  22
ENDBRANCH  10  16
ENDBRANCH   7   9
ENDBRANCH   5   7
ENDBRANCH   4   5
ENDBRANCH   3   4
ENDBRANCH   2   3
ENDBRANCH   1   2
BRANCH   1  32
ATOM     32  C   UNL     1      -1.558 -11.966  -5.492  1.00  0.00     0.188 C 
BRANCH  32  33
ATOM     33  C   UNL     1      -2.340 -11.058  -4.532  1.00  0.00     0.188 C 
BRANCH  33  34
ATOM     34  O   UNL     1      -3.655 -10.743  -4.940  1.00  0.00    -0.377 OA
BRANCH  34  35
ATOM     35  C   UNL     1      -3.854  -9.454  -5.496  1.00  0.00     0.188 C 
BRANCH  35  36
ATOM     36  C   UNL     1      -2.758  -8.912  -6.434  1.00  0.00     0.188 C 
BRANCH  36  37
ATOM     37  O   UNL     1      -1.449  -8.929  -5.875  1.00  0.00    -0.376 OA
BRANCH  37  38
ATOM     38  C   UNL     1      -0.961  -7.742  -5.263  1.00  0.00     0.202 C 
BRANCH  38  39
ATOM     39  C   UNL     1      -1.661  -7.258  -3.985  1.00  0.00     0.261 C 
BRANCH  39  40
ATOM     40  O   UNL     1      -3.066  -6.999  -4.102  1.00  0.00    -0.460 OA
BRANCH  40  41
ATOM     41  C   UNL     1      -3.471  -6.027  -4.947  1.00  0.00     0.338 C 
ATOM     42  O   UNL     1      -2.777  -5.318  -5.641  1.00  0.00    -0.246 OA
BRANCH  41  43
ATOM     43  C   UNL     1      -4.947  -6.131  -5.060  1.00  0.00     0.060 A 
ATOM     44  C   UNL     1      -5.507  -6.432  -6.309  1.00  0.00     0.016 A 
ATOM     45  C   UNL     1      -5.771  -5.931  -3.951  1.00  0.00     0.016 A 
ATOM     46  C   UNL     1      -6.893  -6.489  -6.461  1.00  0.00     0.010 A 
ATOM     47  C   UNL     1      -7.161  -5.962  -4.109  1.00  0.00     0.010 A 
ATOM     48  C   UNL     1      -7.729  -6.204  -5.373  1.00  0.00    -0.014 A 
BRANCH  48  49
ATOM     49  C   UNL     1      -9.174  -5.952  -5.603  1.00  0.00     0.031 A 
ATOM     50  C   UNL     1      -9.636  -4.526  -5.740  1.00  0.00     0.074 A 
ATOM     51  C   UNL     1     -10.057  -6.958  -5.722  1.00  0.00     0.049 A 
ATOM     52  N   UNL     1     -10.845  -4.050  -5.899  1.00  0.00    -0.248 NA
ATOM     53  C   UNL     1      -8.585  -3.496  -5.691  1.00  0.00     0.031 C 
ATOM     54  C   UNL     1      -9.731  -8.381  -5.665  1.00  0.00     0.029 A 
ATOM     55  N   UNL     1     -11.418  -6.931  -5.911  1.00  0.00    -0.354 N 
ATOM     56  C   UNL     1     -10.700  -2.670  -5.965  1.00  0.00     0.074 A 
ATOM     57  C   UNL     1      -9.293  -2.381  -5.795  1.00  0.00     0.031 C 
ATOM     58  C   UNL     1     -10.864  -9.092  -5.806  1.00  0.00     0.029 A 
ATOM     59  C   UNL     1     -11.997  -8.175  -5.925  1.00  0.00     0.049 A 
ATOM     60  H   UNL     1     -11.929  -6.097  -6.026  1.00  0.00     0.167 HD
ATOM     61  C   UNL     1     -11.653  -1.727  -6.159  1.00  0.00     0.037 A 
ATOM     62  C   UNL     1     -13.296  -8.528  -6.001  1.00  0.00     0.037 A 
ATOM     63  C   UNL     1     -13.054  -2.015  -6.318  1.00  0.00     0.049 A 
ATOM     64  C   UNL     1     -14.351  -7.454  -6.118  1.00  0.00     0.074 A 
ATOM     65  C   UNL     1     -14.098  -1.131  -6.522  1.00  0.00     0.029 A 
ATOM     66  N   UNL     1     -13.608  -3.286  -6.279  1.00  0.00    -0.354 N 
ATOM     67  N   UNL     1     -14.207  -6.153  -6.196  1.00  0.00    -0.248 NA
ATOM     68  C   UNL     1     -15.751  -7.902  -6.160  1.00  0.00     0.031 C 
ATOM     69  C   UNL     1     -15.291  -1.861  -6.546  1.00  0.00     0.029 A 
ATOM     70  C   UNL     1     -14.984  -3.207  -6.427  1.00  0.00     0.049 A 
ATOM     71  H   UNL     1     -13.099  -4.121  -6.164  1.00  0.00     0.167 HD
ATOM     72  C   UNL     1     -15.489  -5.632  -6.332  1.00  0.00     0.074 A 
ATOM     73  C   UNL     1     -16.397  -6.759  -6.338  1.00  0.00     0.031 C 
ATOM     74  C   UNL     1     -15.877  -4.337  -6.444  1.00  0.00     0.037 A 
BRANCH  61  75
ATOM     75  C   UNL     1     -11.213  -0.291  -6.177  1.00  0.00     0.064 A 
ATOM     76  C   UNL     1     -10.447   0.235  -7.228  1.00  0.00     0.173 A 
ATOM     77  C   UNL     1     -11.587   0.578  -5.140  1.00  0.00     0.173 A 
ATOM     78  F   UNL     1     -10.050  -0.556  -8.237  1.00  0.00    -0.203 F 
ATOM     79  C   UNL     1     -10.047   1.569  -7.226  1.00  0.00     0.198 A 
ATOM     80  C   UNL     1     -11.214   1.919  -5.158  1.00  0.00     0.198 A 
ATOM     81  F   UNL     1     -12.322   0.128  -4.112  1.00  0.00    -0.203 F 
ATOM     82  F   UNL     1      -9.272   2.036  -8.214  1.00  0.00    -0.200 F 
ATOM     83  C   UNL     1     -10.438   2.411  -6.196  1.00  0.00     0.200 A 
ATOM     84  F   UNL     1     -11.605   2.734  -4.169  1.00  0.00    -0.200 F 
ATOM     85  F   UNL     1     -10.060   3.697  -6.199  1.00  0.00    -0.200 F 
ENDBRANCH  61  75
BRANCH  62  86
ATOM     86  C   UNL     1     -13.685  -9.964  -5.955  1.00  0.00     0.064 A 
ATOM     87  C   UNL     1     -14.268 -10.593  -7.064  1.00  0.00     0.173 A 
ATOM     88  C   UNL     1     -13.512 -10.728  -4.791  1.00  0.00     0.173 A 
ATOM     89  F   UNL     1     -14.482  -9.899  -8.191  1.00  0.00    -0.203 F 
ATOM     90  C   UNL     1     -14.681 -11.923  -7.004  1.00  0.00     0.198 A 
ATOM     91  C   UNL     1     -13.896 -12.067  -4.743  1.00  0.00     0.198 A 
ATOM     92  F   UNL     1     -12.966 -10.175  -3.698  1.00  0.00    -0.203 F 
ATOM     93  F   UNL     1     -15.286 -12.482  -8.062  1.00  0.00    -0.200 F 
ATOM     94  C   UNL     1     -14.489 -12.660  -5.846  1.00  0.00     0.200 A 
ATOM     95  F   UNL     1     -13.699 -12.778  -3.625  1.00  0.00    -0.200 F 
ATOM     96  F   UNL     1     -14.886 -13.939  -5.790  1.00  0.00    -0.200 F 
ENDBRANCH  62  86
BRANCH  74  97
ATOM     97  C   UNL     1     -17.344  -4.064  -6.636  1.00  0.00     0.064 A 
ATOM     98  C   UNL     1     -18.277  -4.264  -5.607  1.00  0.00     0.173 A 
ATOM     99  C   UNL     1     -17.814  -3.551  -7.855  1.00  0.00     0.173 A 
ATOM    100  F   UNL     1     -17.883  -4.763  -4.426  1.00  0.00    -0.203 F 
ATOM    101  C   UNL     1     -19.628  -3.988  -5.802  1.00  0.00     0.198 A 
ATOM    102  C   UNL     1     -19.160  -3.242  -8.034  1.00  0.00     0.198 A 
ATOM    103  F   UNL     1     -16.965  -3.331  -8.870  1.00  0.00    -0.203 F 
ATOM    104  F   UNL     1     -20.509  -4.236  -4.822  1.00  0.00    -0.200 F 
ATOM    105  C   UNL     1     -20.067  -3.470  -7.011  1.00  0.00     0.200 A 
ATOM    106  F   UNL     1     -19.578  -2.724  -9.197  1.00  0.00    -0.200 F 
ATOM    107  F   UNL     1     -21.366  -3.196  -7.193  1.00  0.00    -0.200 F 
ENDBRANCH  74  97
ENDBRANCH  48  49
ENDBRANCH  41  43
ENDBRANCH  40  41
ENDBRANCH  39  40
ENDBRANCH  38  39
ENDBRANCH  37  38
ENDBRANCH  36  37
ENDBRANCH  35  36
ENDBRANCH  34  35
ENDBRANCH  33  34
ENDBRANCH  32  33
ENDBRANCH   1  32
TORSDOF 28
