REMARK SMILES CC(C)Cc1ccc([C@@H](C)C(=O)OCCOCCOCCOCCOC(=O)c2ccc(-c3c4nc(c(-c5c(F)c(F)c(F)c(F)c5F)c5ccc([nH]5)c(-c5c(F)c(F)c(F)c(F)c5F)c5nc(c(-c6c(F)c(F)c(F)c(F)c6F)c6ccc3[nH]6)C=C5)C=C4)cc2)cc1
REMARK SMILES IDX 18 1 17 2 16 3 15 4 14 5 13 6 11 7 12 8 9 9 10 10 8 11 5 12
REMARK SMILES IDX 6 13 92 14 7 15 91 16 4 17 2 18 1 19 3 20 19 21 20 22 21 23
REMARK SMILES IDX 22 24 23 25 24 26 25 27 26 28 27 29 28 30 29 31 90 32 30 33
REMARK SMILES IDX 89 34 31 35 32 36 33 37 83 38 34 39 88 40 82 41 84 42 35 43
REMARK SMILES IDX 87 44 81 45 80 46 36 48 68 49 48 50 67 51 49 52 52 53 66 54
REMARK SMILES IDX 85 55 50 56 51 57 65 59 86 60 53 61 37 62 38 63 46 64 39 65
REMARK SMILES IDX 40 66 44 67 47 68 41 69 42 70 45 71 43 72 69 73 70 74 78 75
REMARK SMILES IDX 71 76 72 77 76 78 79 79 73 80 74 81 77 82 75 83 54 84 55 85
REMARK SMILES IDX 63 86 56 87 57 88 61 89 64 90 58 91 59 92 62 93 60 94
REMARK H PARENT 84 47 52 58
REMARK Flexibility Score: inf
ROOT
ATOM      1  C   UNL     1      -4.685  -3.175   1.101  1.00  0.00     0.188 C 
ENDROOT
BRANCH   1   2
ATOM      2  C   UNL     1      -5.138  -4.632   0.922  1.00  0.00     0.188 C 
BRANCH   2   3
ATOM      3  O   UNL     1      -6.324  -5.111   1.541  1.00  0.00    -0.376 OA
BRANCH   3   4
ATOM      4  C   UNL     1      -6.731  -4.606   2.803  1.00  0.00     0.202 C 
BRANCH   4   5
ATOM      5  C   UNL     1      -5.769  -4.635   4.006  1.00  0.00     0.261 C 
BRANCH   5   6
ATOM      6  O   UNL     1      -4.432  -4.128   3.796  1.00  0.00    -0.463 OA
BRANCH   6   7
ATOM      7  C   UNL     1      -3.449  -5.056   3.719  1.00  0.00     0.313 C 
ATOM      8  O   UNL     1      -3.651  -6.264   3.841  1.00  0.00    -0.252 OA
BRANCH   7   9
ATOM      9  C   UNL     1      -2.033  -4.526   3.504  1.00  0.00     0.126 C 
ATOM     10  C   UNL     1      -1.240  -4.700   4.794  1.00  0.00     0.025 C 
BRANCH   9  11
ATOM     11  C   UNL     1      -1.784  -3.152   2.884  1.00  0.00    -0.034 A 
ATOM     12  C   UNL     1      -1.214  -0.653   1.628  1.00  0.00    -0.048 A 
ATOM     13  C   UNL     1      -1.834  -0.709   2.886  1.00  0.00     0.004 A 
ATOM     14  C   UNL     1      -0.928  -1.860   0.987  1.00  0.00     0.004 A 
ATOM     15  C   UNL     1      -2.123  -1.942   3.503  1.00  0.00     0.005 A 
ATOM     16  C   UNL     1      -1.174  -3.085   1.616  1.00  0.00     0.005 A 
BRANCH  12  17
ATOM     17  C   UNL     1      -0.863   0.669   0.976  1.00  0.00     0.038 C 
BRANCH  17  18
ATOM     18  C   UNL     1       0.652   0.995   0.949  1.00  0.00    -0.013 C 
ATOM     19  C   UNL     1       1.442   0.129  -0.039  1.00  0.00     0.008 C 
ATOM     20  C   UNL     1       0.875   2.468   0.583  1.00  0.00     0.008 C 
ENDBRANCH  17  18
ENDBRANCH  12  17
ENDBRANCH   9  11
ENDBRANCH   7   9
ENDBRANCH   6   7
ENDBRANCH   5   6
ENDBRANCH   4   5
ENDBRANCH   3   4
ENDBRANCH   2   3
ENDBRANCH   1   2
BRANCH   1  21
ATOM     21  O   UNL     1      -5.484  -2.386   1.960  1.00  0.00    -0.377 OA
BRANCH  21  22
ATOM     22  C   UNL     1      -6.369  -1.475   1.334  1.00  0.00     0.188 C 
BRANCH  22  23
ATOM     23  C   UNL     1      -7.128  -1.993   0.101  1.00  0.00     0.188 C 
BRANCH  23  24
ATOM     24  O   UNL     1      -6.280  -2.502  -0.923  1.00  0.00    -0.376 OA
BRANCH  24  25
ATOM     25  C   UNL     1      -5.905  -1.640  -1.989  1.00  0.00     0.202 C 
BRANCH  25  26
ATOM     26  C   UNL     1      -4.981  -0.450  -1.667  1.00  0.00     0.261 C 
BRANCH  26  27
ATOM     27  O   UNL     1      -5.476   0.515  -0.721  1.00  0.00    -0.460 OA
BRANCH  27  28
ATOM     28  C   UNL     1      -6.651   1.113  -0.987  1.00  0.00     0.338 C 
ATOM     29  O   UNL     1      -7.319   1.001  -2.005  1.00  0.00    -0.246 OA
BRANCH  28  30
ATOM     30  C   UNL     1      -7.130   1.778   0.243  1.00  0.00     0.060 A 
ATOM     31  C   UNL     1      -8.384   1.411   0.748  1.00  0.00     0.016 A 
ATOM     32  C   UNL     1      -6.374   2.762   0.886  1.00  0.00     0.016 A 
ATOM     33  C   UNL     1      -8.907   2.062   1.862  1.00  0.00     0.010 A 
ATOM     34  C   UNL     1      -6.911   3.432   1.993  1.00  0.00     0.010 A 
ATOM     35  C   UNL     1      -8.199   3.113   2.460  1.00  0.00    -0.014 A 
BRANCH  35  36
ATOM     36  C   UNL     1      -8.907   3.977   3.439  1.00  0.00     0.031 A 
ATOM     37  C   UNL     1      -9.496   5.278   2.961  1.00  0.00     0.074 A 
ATOM     38  C   UNL     1      -9.113   3.569   4.704  1.00  0.00     0.049 A 
ATOM     39  N   UNL     1     -10.207   6.162   3.614  1.00  0.00    -0.248 NA
ATOM     40  C   UNL     1      -9.256   5.627   1.550  1.00  0.00     0.031 C 
ATOM     41  C   UNL     1      -8.628   2.315   5.275  1.00  0.00     0.029 A 
ATOM     42  N   UNL     1      -9.797   4.167   5.734  1.00  0.00    -0.354 N 
ATOM     43  C   UNL     1     -10.512   7.157   2.694  1.00  0.00     0.074 A 
ATOM     44  C   UNL     1      -9.867   6.797   1.450  1.00  0.00     0.031 C 
ATOM     45  C   UNL     1      -9.026   2.238   6.558  1.00  0.00     0.029 A 
ATOM     46  C   UNL     1      -9.772   3.447   6.903  1.00  0.00     0.049 A 
ATOM     47  H   UNL     1     -10.261   5.030   5.642  1.00  0.00     0.167 HD
ATOM     48  C   UNL     1     -11.278   8.261   2.864  1.00  0.00     0.037 A 
ATOM     49  C   UNL     1     -10.280   3.742   8.116  1.00  0.00     0.037 A 
ATOM     50  C   UNL     1     -11.910   8.628   4.104  1.00  0.00     0.049 A 
ATOM     51  C   UNL     1     -11.063   5.019   8.296  1.00  0.00     0.074 A 
ATOM     52  C   UNL     1     -12.694   9.734   4.381  1.00  0.00     0.029 A 
ATOM     53  N   UNL     1     -11.826   7.895   5.279  1.00  0.00    -0.354 N 
ATOM     54  N   UNL     1     -11.364   5.943   7.415  1.00  0.00    -0.248 NA
ATOM     55  C   UNL     1     -11.591   5.287   9.642  1.00  0.00     0.031 C 
ATOM     56  C   UNL     1     -13.040   9.699   5.736  1.00  0.00     0.029 A 
ATOM     57  C   UNL     1     -12.527   8.537   6.288  1.00  0.00     0.049 A 
ATOM     58  H   UNL     1     -11.340   7.045   5.381  1.00  0.00     0.167 HD
ATOM     59  C   UNL     1     -12.134   6.882   8.090  1.00  0.00     0.074 A 
ATOM     60  C   UNL     1     -12.283   6.399   9.447  1.00  0.00     0.031 C 
ATOM     61  C   UNL     1     -12.667   8.044   7.635  1.00  0.00     0.037 A 
BRANCH  48  62
ATOM     62  C   UNL     1     -11.470   9.164   1.679  1.00  0.00     0.064 A 
ATOM     63  C   UNL     1     -12.256   8.779   0.582  1.00  0.00     0.173 A 
ATOM     64  C   UNL     1     -10.907  10.449   1.662  1.00  0.00     0.173 A 
ATOM     65  F   UNL     1     -12.804   7.555   0.539  1.00  0.00    -0.203 F 
ATOM     66  C   UNL     1     -12.457   9.641  -0.494  1.00  0.00     0.198 A 
ATOM     67  C   UNL     1     -11.136  11.319   0.600  1.00  0.00     0.198 A 
ATOM     68  F   UNL     1     -10.148  10.869   2.686  1.00  0.00    -0.203 F 
ATOM     69  F   UNL     1     -13.179   9.237  -1.548  1.00  0.00    -0.200 F 
ATOM     70  C   UNL     1     -11.906  10.913  -0.479  1.00  0.00     0.200 A 
ATOM     71  F   UNL     1     -10.614  12.554   0.622  1.00  0.00    -0.200 F 
ATOM     72  F   UNL     1     -12.114  11.747  -1.508  1.00  0.00    -0.200 F 
ENDBRANCH  48  62
BRANCH  49  73
ATOM     73  C   UNL     1     -10.047   2.830   9.271  1.00  0.00     0.064 A 
ATOM     74  C   UNL     1     -11.106   2.173   9.912  1.00  0.00     0.173 A 
ATOM     75  C   UNL     1      -8.758   2.648   9.794  1.00  0.00     0.173 A 
ATOM     76  F   UNL     1     -12.362   2.334   9.469  1.00  0.00    -0.203 F 
ATOM     77  C   UNL     1     -10.891   1.401  11.053  1.00  0.00     0.198 A 
ATOM     78  C   UNL     1      -8.538   1.845  10.912  1.00  0.00     0.198 A 
ATOM     79  F   UNL     1      -7.707   3.254   9.222  1.00  0.00    -0.203 F 
ATOM     80  F   UNL     1     -11.931   0.845  11.689  1.00  0.00    -0.200 F 
ATOM     81  C   UNL     1      -9.607   1.235  11.550  1.00  0.00     0.200 A 
ATOM     82  F   UNL     1      -7.294   1.677  11.378  1.00  0.00    -0.200 F 
ATOM     83  F   UNL     1      -9.401   0.498  12.650  1.00  0.00    -0.200 F 
ENDBRANCH  49  73
BRANCH  61  84
ATOM     84  C   UNL     1     -13.486   8.851   8.605  1.00  0.00     0.064 A 
ATOM     85  C   UNL     1     -12.906   9.484   9.715  1.00  0.00     0.173 A 
ATOM     86  C   UNL     1     -14.870   8.994   8.421  1.00  0.00     0.173 A 
ATOM     87  F   UNL     1     -11.588   9.372   9.944  1.00  0.00    -0.203 F 
ATOM     88  C   UNL     1     -13.687  10.184  10.631  1.00  0.00     0.198 A 
ATOM     89  C   UNL     1     -15.642   9.728   9.317  1.00  0.00     0.198 A 
ATOM     90  F   UNL     1     -15.477   8.422   7.370  1.00  0.00    -0.203 F 
ATOM     91  F   UNL     1     -13.120  10.714  11.724  1.00  0.00    -0.200 F 
ATOM     92  C   UNL     1     -15.053  10.309  10.429  1.00  0.00     0.200 A 
ATOM     93  F   UNL     1     -16.959   9.865   9.110  1.00  0.00    -0.200 F 
ATOM     94  F   UNL     1     -15.804  10.980  11.314  1.00  0.00    -0.200 F 
ENDBRANCH  61  84
ENDBRANCH  35  36
ENDBRANCH  28  30
ENDBRANCH  27  28
ENDBRANCH  26  27
ENDBRANCH  25  26
ENDBRANCH  24  25
ENDBRANCH  23  24
ENDBRANCH  22  23
ENDBRANCH  21  22
ENDBRANCH   1  21
TORSDOF 23
