REMARK SMILES Cc1ccc(S(=O)(=O)Nc2cc(C(=O)OCCOCCOCCOCCOC(=O)c3ccc(-c4c5nc(c(-c6c(F)c(F)c(F)c(F)c6F)c6ccc([nH]6)c(-c6c(F)c(F)c(F)c(F)c6F)c6nc(c(-c7c(F)c(F)c(F)c(F)c7F)c7ccc4[nH]7)C=C6)C=C5)cc3)ccc2C)c(Br)c1
REMARK SMILES IDX 20 1 19 2 18 3 17 4 16 5 15 6 13 7 14 8 12 9 10 10 11 11
REMARK SMILES IDX 95 12 94 13 96 14 93 15 9 16 6 18 7 19 8 20 5 21 1 22 2 23
REMARK SMILES IDX 3 24 99 25 4 26 97 27 98 28 21 29 22 30 23 31 24 32 25 33
REMARK SMILES IDX 26 34 27 35 28 36 29 37 30 38 31 39 92 40 32 41 91 42 33 43
REMARK SMILES IDX 34 44 35 45 85 46 36 47 90 48 84 49 86 50 37 51 89 52 83 53
REMARK SMILES IDX 82 54 38 56 70 57 50 58 69 59 51 60 54 61 68 62 87 63 52 64
REMARK SMILES IDX 53 65 67 67 88 68 55 69 39 70 40 71 48 72 41 73 42 74 46 75
REMARK SMILES IDX 49 76 43 77 44 78 47 79 45 80 71 81 72 82 80 83 73 84 74 85
REMARK SMILES IDX 78 86 81 87 75 88 76 89 79 90 77 91 56 92 57 93 65 94 58 95
REMARK SMILES IDX 59 96 63 97 66 98 60 99 61 100 64 101 62 102
REMARK H PARENT 9 17 86 55 54 66
REMARK Flexibility Score: inf
ROOT
ATOM      1  C   UNL     1      -4.410   5.372   2.623  1.00  0.00     0.188 C 
ENDROOT
BRANCH   1   2
ATOM      2  C   UNL     1      -5.801   5.037   2.042  1.00  0.00     0.188 C 
BRANCH   2   3
ATOM      3  O   UNL     1      -6.635   4.051   2.617  1.00  0.00    -0.376 OA
BRANCH   3   4
ATOM      4  C   UNL     1      -6.242   2.700   2.453  1.00  0.00     0.202 C 
BRANCH   4   5
ATOM      5  C   UNL     1      -6.186   2.099   1.067  1.00  0.00     0.261 C 
BRANCH   5   6
ATOM      6  O   UNL     1      -4.912   2.411   0.526  1.00  0.00    -0.460 OA
BRANCH   6   7
ATOM      7  C   UNL     1      -5.002   3.010  -0.670  1.00  0.00     0.338 C 
ATOM      8  O   UNL     1      -5.902   2.935  -1.470  1.00  0.00    -0.246 OA
BRANCH   7   9
ATOM      9  C   UNL     1      -3.916   3.998  -0.733  1.00  0.00     0.062 A 
ATOM     10  C   UNL     1      -1.619   4.658  -0.488  1.00  0.00     0.053 A 
ATOM     11  C   UNL     1      -2.668   3.812  -0.140  1.00  0.00     0.042 A 
ATOM     12  C   UNL     1      -1.882   5.781  -1.298  1.00  0.00    -0.027 A 
ATOM     13  C   UNL     1      -3.209   6.078  -1.660  1.00  0.00     0.006 A 
ATOM     14  C   UNL     1      -0.845   6.684  -1.895  1.00  0.00     0.046 C 
ATOM     15  C   UNL     1      -4.218   5.173  -1.408  1.00  0.00     0.016 A 
BRANCH  10  16
ATOM     16  N   UNL     1      -0.349   4.401   0.100  1.00  0.00    -0.279 N 
ATOM     17  H   UNL     1      -0.080   4.991   0.841  1.00  0.00     0.180 HD
BRANCH  16  18
ATOM     18  S   UNL     1       0.750   3.187  -0.339  1.00  0.00     0.263 S 
ATOM     19  O   UNL     1       1.512   3.042   0.887  1.00  0.00    -0.201 OA
ATOM     20  O   UNL     1       1.397   3.643  -1.550  1.00  0.00    -0.201 OA
BRANCH  18  21
ATOM     21  C   UNL     1       0.038   1.599  -0.707  1.00  0.00     0.101 A 
ATOM     22  C   UNL     1      -1.726  -2.309  -1.362  1.00  0.00     0.044 C 
ATOM     23  C   UNL     1      -1.125  -0.947  -1.183  1.00  0.00    -0.050 A 
ATOM     24  C   UNL     1      -1.799   0.222  -1.538  1.00  0.00     0.005 A 
ATOM     25  C   UNL     1       0.155  -0.834  -0.644  1.00  0.00     0.020 A 
ATOM     26  C   UNL     1      -1.194   1.473  -1.353  1.00  0.00     0.024 A 
ATOM     27  C   UNL     1       0.747   0.420  -0.425  1.00  0.00     0.038 A 
ATOM     28  Br  UNL     1       2.583   0.334   0.071  1.00  0.00    -0.049 Br
ENDBRANCH  18  21
ENDBRANCH  16  18
ENDBRANCH  10  16
ENDBRANCH   7   9
ENDBRANCH   6   7
ENDBRANCH   5   6
ENDBRANCH   4   5
ENDBRANCH   3   4
ENDBRANCH   2   3
ENDBRANCH   1   2
BRANCH   1  29
ATOM     29  O   UNL     1      -3.586   4.344   3.138  1.00  0.00    -0.377 OA
BRANCH  29  30
ATOM     30  C   UNL     1      -3.710   4.038   4.524  1.00  0.00     0.188 C 
BRANCH  30  31
ATOM     31  C   UNL     1      -4.217   5.082   5.503  1.00  0.00     0.188 C 
BRANCH  31  32
ATOM     32  O   UNL     1      -5.605   5.277   5.249  1.00  0.00    -0.376 OA
BRANCH  32  33
ATOM     33  C   UNL     1      -6.147   6.487   5.761  1.00  0.00     0.202 C 
BRANCH  33  34
ATOM     34  C   UNL     1      -5.984   6.636   7.280  1.00  0.00     0.261 C 
BRANCH  34  35
ATOM     35  O   UNL     1      -6.744   5.604   7.942  1.00  0.00    -0.460 OA
BRANCH  35  36
ATOM     36  C   UNL     1      -6.014   4.627   8.549  1.00  0.00     0.338 C 
ATOM     37  O   UNL     1      -5.085   4.814   9.316  1.00  0.00    -0.246 OA
BRANCH  36  38
ATOM     38  C   UNL     1      -6.311   3.309   7.915  1.00  0.00     0.060 A 
ATOM     39  C   UNL     1      -5.540   2.173   8.218  1.00  0.00     0.016 A 
ATOM     40  C   UNL     1      -7.112   3.298   6.786  1.00  0.00     0.016 A 
ATOM     41  C   UNL     1      -5.428   1.119   7.291  1.00  0.00     0.010 A 
ATOM     42  C   UNL     1      -6.898   2.324   5.837  1.00  0.00     0.010 A 
ATOM     43  C   UNL     1      -6.025   1.244   6.043  1.00  0.00    -0.014 A 
BRANCH  43  44
ATOM     44  C   UNL     1      -5.758   0.406   4.850  1.00  0.00     0.031 A 
ATOM     45  C   UNL     1      -6.948  -0.122   4.099  1.00  0.00     0.074 A 
ATOM     46  C   UNL     1      -4.524   0.470   4.273  1.00  0.00     0.049 A 
ATOM     47  N   UNL     1      -6.905  -0.675   2.939  1.00  0.00    -0.248 NA
ATOM     48  C   UNL     1      -8.331   0.028   4.555  1.00  0.00     0.031 C 
ATOM     49  C   UNL     1      -4.155   0.248   2.869  1.00  0.00     0.029 A 
ATOM     50  N   UNL     1      -3.297   0.823   4.838  1.00  0.00    -0.354 N 
ATOM     51  C   UNL     1      -8.179  -0.725   2.390  1.00  0.00     0.074 A 
ATOM     52  C   UNL     1      -9.033  -0.269   3.453  1.00  0.00     0.031 C 
ATOM     53  C   UNL     1      -2.830   0.353   2.684  1.00  0.00     0.029 A 
ATOM     54  C   UNL     1      -2.254   0.377   4.002  1.00  0.00     0.049 A 
ATOM     55  H   UNL     1      -3.180   1.308   5.687  1.00  0.00     0.167 HD
ATOM     56  C   UNL     1      -8.295  -1.064   1.066  1.00  0.00     0.037 A 
ATOM     57  C   UNL     1      -1.454  -0.624   4.471  1.00  0.00     0.037 A 
ATOM     58  C   UNL     1      -6.988  -1.520   0.577  1.00  0.00     0.049 A 
ATOM     59  C   UNL     1      -1.866  -1.928   3.786  1.00  0.00     0.074 A 
ATOM     60  C   UNL     1      -6.117  -1.030  -0.371  1.00  0.00     0.029 A 
ATOM     61  N   UNL     1      -6.279  -2.485   1.306  1.00  0.00    -0.354 N 
ATOM     62  N   UNL     1      -3.089  -2.197   3.367  1.00  0.00    -0.248 NA
ATOM     63  C   UNL     1      -0.881  -2.854   3.237  1.00  0.00     0.031 C 
ATOM     64  C   UNL     1      -4.845  -1.575  -0.082  1.00  0.00     0.029 A 
ATOM     65  C   UNL     1      -4.937  -2.473   0.978  1.00  0.00     0.049 A 
ATOM     66  H   UNL     1      -6.685  -3.092   1.966  1.00  0.00     0.167 HD
ATOM     67  C   UNL     1      -3.034  -3.161   2.386  1.00  0.00     0.074 A 
ATOM     68  C   UNL     1      -1.635  -3.574   2.388  1.00  0.00     0.031 C 
ATOM     69  C   UNL     1      -4.027  -3.497   1.493  1.00  0.00     0.037 A 
BRANCH  56  70
ATOM     70  C   UNL     1      -9.476  -0.842   0.106  1.00  0.00     0.064 A 
ATOM     71  C   UNL     1      -9.328  -1.070  -1.291  1.00  0.00     0.173 A 
ATOM     72  C   UNL     1     -10.747  -0.347   0.456  1.00  0.00     0.173 A 
ATOM     73  F   UNL     1      -8.220  -1.619  -1.803  1.00  0.00    -0.203 F 
ATOM     74  C   UNL     1     -10.317  -0.761  -2.237  1.00  0.00     0.198 A 
ATOM     75  C   UNL     1     -11.753  -0.072  -0.489  1.00  0.00     0.198 A 
ATOM     76  F   UNL     1     -11.088  -0.115   1.724  1.00  0.00    -0.203 F 
ATOM     77  F   UNL     1     -10.077  -0.960  -3.542  1.00  0.00    -0.200 F 
ATOM     78  C   UNL     1     -11.533  -0.261  -1.836  1.00  0.00     0.200 A 
ATOM     79  F   UNL     1     -12.945   0.382  -0.074  1.00  0.00    -0.200 F 
ATOM     80  F   UNL     1     -12.488   0.017  -2.734  1.00  0.00    -0.200 F 
ENDBRANCH  56  70
BRANCH  57  81
ATOM     81  C   UNL     1      -0.980  -0.241   5.851  1.00  0.00     0.064 A 
ATOM     82  C   UNL     1      -0.192   0.944   5.849  1.00  0.00     0.173 A 
ATOM     83  C   UNL     1      -1.787  -0.445   6.982  1.00  0.00     0.173 A 
ATOM     84  F   UNL     1       0.643   1.180   4.824  1.00  0.00    -0.203 F 
ATOM     85  C   UNL     1      -0.449   1.994   6.735  1.00  0.00     0.198 A 
ATOM     86  C   UNL     1      -1.988   0.593   7.911  1.00  0.00     0.198 A 
ATOM     87  F   UNL     1      -2.543  -1.546   7.084  1.00  0.00    -0.203 F 
ATOM     88  F   UNL     1       0.107   3.198   6.532  1.00  0.00    -0.200 F 
ATOM     89  C   UNL     1      -1.391   1.834   7.732  1.00  0.00     0.200 A 
ATOM     90  F   UNL     1      -2.873   0.438   8.907  1.00  0.00    -0.200 F 
ATOM     91  F   UNL     1      -1.778   2.888   8.466  1.00  0.00    -0.200 F 
ENDBRANCH  57  81
BRANCH  69  92
ATOM     92  C   UNL     1      -4.164  -4.882   0.879  1.00  0.00     0.064 A 
ATOM     93  C   UNL     1      -3.502  -6.013   1.380  1.00  0.00     0.173 A 
ATOM     94  C   UNL     1      -5.138  -5.152  -0.122  1.00  0.00     0.173 A 
ATOM     95  F   UNL     1      -2.651  -5.934   2.410  1.00  0.00    -0.203 F 
ATOM     96  C   UNL     1      -3.737  -7.292   0.876  1.00  0.00     0.198 A 
ATOM     97  C   UNL     1      -5.426  -6.439  -0.563  1.00  0.00     0.198 A 
ATOM     98  F   UNL     1      -5.880  -4.191  -0.687  1.00  0.00    -0.203 F 
ATOM     99  F   UNL     1      -3.030  -8.325   1.353  1.00  0.00    -0.200 F 
ATOM    100  C   UNL     1      -4.710  -7.508  -0.080  1.00  0.00     0.200 A 
ATOM    101  F   UNL     1      -6.421  -6.631  -1.441  1.00  0.00    -0.200 F 
ATOM    102  F   UNL     1      -4.972  -8.746  -0.516  1.00  0.00    -0.200 F 
ENDBRANCH  69  92
ENDBRANCH  43  44
ENDBRANCH  36  38
ENDBRANCH  35  36
ENDBRANCH  34  35
ENDBRANCH  33  34
ENDBRANCH  32  33
ENDBRANCH  31  32
ENDBRANCH  30  31
ENDBRANCH  29  30
ENDBRANCH   1  29
TORSDOF 23
