REMARK SMILES CC[NH+]1CCC2(CC1)OC[C@H](C(=O)OCCOCCOCCOCCOC(=O)c1ccc(-c3c4nc(c(-c5c(F)c(F)c(F)c(F)c5F)c5ccc([nH]5)c(-c5c(F)c(F)c(F)c(F)c5F)c5nc(c(-c6c(F)c(F)c(F)c(F)c6F)c6ccc3[nH]6)C=C5)C=C4)cc1)N2C(=O)c1ccc(F)cc1
REMARK SMILES IDX 20 1 19 2 18 3 17 4 16 5 15 6 14 7 12 8 13 9 11 10 3 11 4 12
REMARK SMILES IDX 8 13 5 15 7 16 6 17 9 18 92 19 10 20 2 21 1 22 93 23 94 24
REMARK SMILES IDX 95 25 96 26 101 27 97 28 100 29 98 30 99 31 21 32 22 33
REMARK SMILES IDX 23 34 24 35 25 36 26 37 27 38 28 39 29 40 30 41 91 42 31 43
REMARK SMILES IDX 90 44 32 45 33 46 34 47 84 48 35 49 89 50 83 51 85 52 36 53
REMARK SMILES IDX 88 54 82 55 81 56 37 58 69 59 49 60 68 61 50 62 53 63 67 64
REMARK SMILES IDX 86 65 51 66 52 67 66 69 87 70 54 71 38 72 39 73 47 74 40 75
REMARK SMILES IDX 41 76 45 77 48 78 42 79 43 80 46 81 44 82 70 83 71 84 79 85
REMARK SMILES IDX 72 86 73 87 77 88 80 89 74 90 75 91 78 92 76 93 55 94 56 95
REMARK SMILES IDX 64 96 57 97 58 98 62 99 65 100 59 101 60 102 63 103 61 104
REMARK H PARENT 3 14 85 57 53 68
REMARK Flexibility Score: inf
ROOT
ATOM      1  O   UNL     1       1.257  -8.378   0.574  1.00  0.00    -0.377 OA
ENDROOT
BRANCH   1   2
ATOM      2  C   UNL     1       1.321  -7.330  -0.382  1.00  0.00     0.188 C 
BRANCH   2   3
ATOM      3  C   UNL     1       0.116  -6.919  -1.259  1.00  0.00     0.188 C 
BRANCH   3   4
ATOM      4  O   UNL     1      -0.609  -8.017  -1.782  1.00  0.00    -0.376 OA
BRANCH   4   5
ATOM      5  C   UNL     1      -0.370  -8.403  -3.122  1.00  0.00     0.202 C 
BRANCH   5   6
ATOM      6  C   UNL     1       1.065  -8.762  -3.547  1.00  0.00     0.261 C 
BRANCH   6   7
ATOM      7  O   UNL     1       2.130  -7.869  -3.163  1.00  0.00    -0.462 OA
BRANCH   7   8
ATOM      8  C   UNL     1       2.111  -6.589  -3.627  1.00  0.00     0.331 C 
ATOM      9  O   UNL     1       1.256  -6.178  -4.401  1.00  0.00    -0.250 OA
BRANCH   8  10
ATOM     10  C   UNL     1       3.236  -5.739  -2.963  1.00  0.00     0.224 C 
ATOM     11  N   UNL     1       0.941  -1.651  -0.715  1.00  0.00    -0.335 N 
ATOM     12  C   UNL     1       0.320  -2.871  -1.224  1.00  0.00     0.267 C 
ATOM     13  C   UNL     1       2.373  -1.472  -0.960  1.00  0.00     0.267 C 
ATOM     14  H   UNL     1       0.925  -1.807   0.293  1.00  0.00     0.348 HD
ATOM     15  C   UNL     1       0.872  -3.371  -2.537  1.00  0.00     0.120 C 
ATOM     16  C   UNL     1       3.024  -2.206  -2.123  1.00  0.00     0.120 C 
ATOM     17  C   UNL     1       2.393  -3.537  -2.506  1.00  0.00     0.155 C 
ATOM     18  O   UNL     1       2.777  -3.686  -3.917  1.00  0.00    -0.352 OA
ATOM     19  N   UNL     1       2.910  -4.775  -1.880  1.00  0.00    -0.293 N 
ATOM     20  C   UNL     1       3.700  -4.780  -4.027  1.00  0.00     0.200 C 
BRANCH  11  21
ATOM     21  C   UNL     1       0.146  -0.450  -0.975  1.00  0.00     0.258 C 
ATOM     22  C   UNL     1       0.478   0.684  -0.006  1.00  0.00     0.071 C 
ENDBRANCH  11  21
BRANCH  19  23
ATOM     23  C   UNL     1       3.543  -4.978  -0.637  1.00  0.00     0.256 C 
ATOM     24  O   UNL     1       4.306  -5.933  -0.466  1.00  0.00    -0.269 OA
BRANCH  23  25
ATOM     25  C   UNL     1       3.398  -4.103   0.561  1.00  0.00     0.040 A 
ATOM     26  C   UNL     1       4.544  -3.476   1.084  1.00  0.00     0.017 A 
ATOM     27  C   UNL     1       2.207  -4.013   1.293  1.00  0.00     0.017 A 
ATOM     28  C   UNL     1       4.454  -2.662   2.225  1.00  0.00     0.040 A 
ATOM     29  C   UNL     1       2.108  -3.183   2.418  1.00  0.00     0.040 A 
ATOM     30  C   UNL     1       3.228  -2.498   2.862  1.00  0.00     0.123 A 
ATOM     31  F   UNL     1       3.129  -1.682   3.920  1.00  0.00    -0.207 F 
ENDBRANCH  23  25
ENDBRANCH  19  23
ENDBRANCH   8  10
ENDBRANCH   7   8
ENDBRANCH   6   7
ENDBRANCH   5   6
ENDBRANCH   4   5
ENDBRANCH   3   4
ENDBRANCH   2   3
ENDBRANCH   1   2
BRANCH   1  32
ATOM     32  C   UNL     1       0.185  -9.287   0.461  1.00  0.00     0.188 C 
BRANCH  32  33
ATOM     33  C   UNL     1      -1.136  -8.723   1.015  1.00  0.00     0.188 C 
BRANCH  33  34
ATOM     34  O   UNL     1      -1.142  -7.306   1.139  1.00  0.00    -0.376 OA
BRANCH  34  35
ATOM     35  C   UNL     1      -0.929  -6.722   2.415  1.00  0.00     0.202 C 
BRANCH  35  36
ATOM     36  C   UNL     1       0.393  -6.968   3.162  1.00  0.00     0.261 C 
BRANCH  36  37
ATOM     37  O   UNL     1       0.810  -8.328   3.317  1.00  0.00    -0.460 OA
BRANCH  37  38
ATOM     38  C   UNL     1       0.018  -9.165   4.008  1.00  0.00     0.338 C 
ATOM     39  O   UNL     1      -1.020  -8.899   4.589  1.00  0.00    -0.246 OA
BRANCH  38  40
ATOM     40  C   UNL     1       0.518 -10.527   3.738  1.00  0.00     0.060 A 
ATOM     41  C   UNL     1      -0.346 -11.455   3.140  1.00  0.00     0.016 A 
ATOM     42  C   UNL     1       1.851 -10.860   3.998  1.00  0.00     0.016 A 
ATOM     43  C   UNL     1       0.120 -12.720   2.797  1.00  0.00     0.010 A 
ATOM     44  C   UNL     1       2.305 -12.146   3.703  1.00  0.00     0.010 A 
ATOM     45  C   UNL     1       1.431 -13.084   3.127  1.00  0.00    -0.014 A 
BRANCH  45  46
ATOM     46  C   UNL     1       1.788 -14.518   3.122  1.00  0.00     0.031 A 
ATOM     47  C   UNL     1       1.589 -15.279   4.400  1.00  0.00     0.074 A 
ATOM     48  C   UNL     1       2.231 -15.131   2.013  1.00  0.00     0.049 A 
ATOM     49  N   UNL     1       1.841 -16.532   4.674  1.00  0.00    -0.248 NA
ATOM     50  C   UNL     1       1.026 -14.517   5.528  1.00  0.00     0.031 C 
ATOM     51  C   UNL     1       2.408 -14.498   0.708  1.00  0.00     0.029 A 
ATOM     52  N   UNL     1       2.618 -16.432   1.815  1.00  0.00    -0.354 N 
ATOM     53  C   UNL     1       1.472 -16.703   6.001  1.00  0.00     0.074 A 
ATOM     54  C   UNL     1       1.010 -15.425   6.489  1.00  0.00     0.031 C 
ATOM     55  C   UNL     1       2.883 -15.413  -0.156  1.00  0.00     0.029 A 
ATOM     56  C   UNL     1       3.074 -16.682   0.546  1.00  0.00     0.049 A 
ATOM     57  H   UNL     1       2.572 -17.120   2.518  1.00  0.00     0.167 HD
ATOM     58  C   UNL     1       1.512 -17.833   6.744  1.00  0.00     0.037 A 
ATOM     59  C   UNL     1       3.606 -17.806   0.028  1.00  0.00     0.037 A 
ATOM     60  C   UNL     1       1.988 -19.096   6.250  1.00  0.00     0.049 A 
ATOM     61  C   UNL     1       3.724 -19.029   0.903  1.00  0.00     0.074 A 
ATOM     62  C   UNL     1       2.064 -20.307   6.912  1.00  0.00     0.029 A 
ATOM     63  N   UNL     1       2.485 -19.303   4.971  1.00  0.00    -0.354 N 
ATOM     64  N   UNL     1       3.350 -19.199   2.150  1.00  0.00    -0.248 NA
ATOM     65  C   UNL     1       4.336 -20.220   0.297  1.00  0.00     0.031 C 
ATOM     66  C   UNL     1       2.670 -21.231   6.054  1.00  0.00     0.029 A 
ATOM     67  C   UNL     1       2.902 -20.616   4.834  1.00  0.00     0.049 A 
ATOM     68  H   UNL     1       2.534 -18.617   4.266  1.00  0.00     0.167 HD
ATOM     69  C   UNL     1       3.650 -20.518   2.466  1.00  0.00     0.074 A 
ATOM     70  C   UNL     1       4.224 -21.109   1.275  1.00  0.00     0.031 C 
ATOM     71  C   UNL     1       3.465 -21.184   3.634  1.00  0.00     0.037 A 
BRANCH  58  72
ATOM     72  C   UNL     1       1.072 -17.733   8.175  1.00  0.00     0.064 A 
ATOM     73  C   UNL     1      -0.268 -17.505   8.527  1.00  0.00     0.173 A 
ATOM     74  C   UNL     1       2.007 -17.872   9.212  1.00  0.00     0.173 A 
ATOM     75  F   UNL     1      -1.199 -17.342   7.575  1.00  0.00    -0.203 F 
ATOM     76  C   UNL     1      -0.648 -17.389   9.862  1.00  0.00     0.198 A 
ATOM     77  C   UNL     1       1.617 -17.791  10.546  1.00  0.00     0.198 A 
ATOM     78  F   UNL     1       3.301 -18.087   8.932  1.00  0.00    -0.203 F 
ATOM     79  F   UNL     1      -1.923 -17.113  10.173  1.00  0.00    -0.200 F 
ATOM     80  C   UNL     1       0.292 -17.541  10.870  1.00  0.00     0.200 A 
ATOM     81  F   UNL     1       2.526 -17.950  11.518  1.00  0.00    -0.200 F 
ATOM     82  F   UNL     1      -0.076 -17.436  12.154  1.00  0.00    -0.200 F 
ENDBRANCH  58  72
BRANCH  59  83
ATOM     83  C   UNL     1       4.079 -17.827  -1.382  1.00  0.00     0.064 A 
ATOM     84  C   UNL     1       3.447 -18.624  -2.347  1.00  0.00     0.173 A 
ATOM     85  C   UNL     1       5.187 -17.069  -1.789  1.00  0.00     0.173 A 
ATOM     86  F   UNL     1       2.400 -19.387  -2.004  1.00  0.00    -0.203 F 
ATOM     87  C   UNL     1       3.917 -18.676  -3.659  1.00  0.00     0.198 A 
ATOM     88  C   UNL     1       5.636 -17.097  -3.108  1.00  0.00     0.198 A 
ATOM     89  F   UNL     1       5.832 -16.293  -0.906  1.00  0.00    -0.203 F 
ATOM     90  F   UNL     1       3.324 -19.485  -4.548  1.00  0.00    -0.200 F 
ATOM     91  C   UNL     1       5.006 -17.908  -4.040  1.00  0.00     0.200 A 
ATOM     92  F   UNL     1       6.682 -16.343  -3.474  1.00  0.00    -0.200 F 
ATOM     93  F   UNL     1       5.454 -17.955  -5.302  1.00  0.00    -0.200 F 
ENDBRANCH  59  83
BRANCH  71  94
ATOM     94  C   UNL     1       3.843 -22.638   3.669  1.00  0.00     0.064 A 
ATOM     95  C   UNL     1       5.181 -23.057   3.628  1.00  0.00     0.173 A 
ATOM     96  C   UNL     1       2.851 -23.623   3.796  1.00  0.00     0.173 A 
ATOM     97  F   UNL     1       6.167 -22.158   3.496  1.00  0.00    -0.203 F 
ATOM     98  C   UNL     1       5.509 -24.410   3.682  1.00  0.00     0.198 A 
ATOM     99  C   UNL     1       3.184 -24.971   3.888  1.00  0.00     0.198 A 
ATOM    100  F   UNL     1       1.556 -23.276   3.852  1.00  0.00    -0.203 F 
ATOM    101  F   UNL     1       6.790 -24.791   3.586  1.00  0.00    -0.200 F 
ATOM    102  C   UNL     1       4.512 -25.364   3.821  1.00  0.00     0.200 A 
ATOM    103  F   UNL     1       2.220 -25.889   4.043  1.00  0.00    -0.200 F 
ATOM    104  F   UNL     1       4.830 -26.664   3.883  1.00  0.00    -0.200 F 
ENDBRANCH  71  94
ENDBRANCH  45  46
ENDBRANCH  38  40
ENDBRANCH  37  38
ENDBRANCH  36  37
ENDBRANCH  35  36
ENDBRANCH  34  35
ENDBRANCH  33  34
ENDBRANCH  32  33
ENDBRANCH   1  32
TORSDOF 23
