REMARK SMILES O=C(OCCOCCOCCOCCOC(=O)[C@H]1C[NH2+]CCN1c1ncc(C(F)(F)F)cc1Cl)c1ccc(-c2c3nc(c(-c4c(F)c(F)c(F)c(F)c4F)c4ccc([nH]4)c(-c4c(F)c(F)c(F)c(F)c4F)c4nc(c(-c5c(F)c(F)c(F)c(F)c5F)c5ccc2[nH]5)C=C4)C=C3)cc1
REMARK SMILES IDX 9 1 8 2 7 3 6 4 5 5 4 6 3 7 2 8 1 9 35 10 36 11 97 12 37 13
REMARK SMILES IDX 96 14 38 15 39 16 40 17 90 18 41 19 95 20 89 21 91 22 42 23
REMARK SMILES IDX 94 24 88 25 87 26 43 28 75 29 55 30 74 31 56 32 59 33 73 34
REMARK SMILES IDX 92 35 57 36 58 37 72 39 93 40 60 41 44 42 45 43 53 44 46 45
REMARK SMILES IDX 47 46 51 47 54 48 48 49 49 50 52 51 50 52 76 53 77 54 85 55
REMARK SMILES IDX 78 56 79 57 83 58 86 59 80 60 81 61 84 62 82 63 61 64 62 65
REMARK SMILES IDX 70 66 63 67 64 68 68 69 71 70 65 71 66 72 69 73 67 74 10 75
REMARK SMILES IDX 11 76 12 77 13 78 14 79 15 80 16 81 17 82 18 83 19 84 23 85
REMARK SMILES IDX 20 86 22 87 21 88 24 91 25 92 33 93 26 94 32 95 34 96 27 97
REMARK SMILES IDX 28 98 29 99 30 100 31 101
REMARK H PARENT 91 27 59 38 20 89 20 90
REMARK Flexibility Score: inf
ROOT
ATOM      1  O   UNL     1       3.629   0.045   7.646  1.00  0.00    -0.377 OA
ENDROOT
BRANCH   1   2
ATOM      2  C   UNL     1       2.978   0.914   8.579  1.00  0.00     0.188 C 
BRANCH   2   3
ATOM      3  C   UNL     1       1.949   1.822   7.921  1.00  0.00     0.188 C 
BRANCH   3   4
ATOM      4  O   UNL     1       0.856   0.989   7.548  1.00  0.00    -0.376 OA
BRANCH   4   5
ATOM      5  C   UNL     1       0.089   1.443   6.442  1.00  0.00     0.202 C 
BRANCH   5   6
ATOM      6  C   UNL     1      -1.126   2.252   6.883  1.00  0.00     0.261 C 
BRANCH   6   7
ATOM      7  O   UNL     1      -0.874   2.996   8.086  1.00  0.00    -0.460 OA
BRANCH   7   8
ATOM      8  C   UNL     1      -1.146   2.629   9.360  1.00  0.00     0.338 C 
ATOM      9  O   UNL     1      -0.968   3.466  10.257  1.00  0.00    -0.246 OA
BRANCH   8  10
ATOM     10  C   UNL     1      -1.662   1.287   9.778  1.00  0.00     0.060 A 
ATOM     11  C   UNL     1      -1.425   0.083   9.112  1.00  0.00     0.016 A 
ATOM     12  C   UNL     1      -2.349   1.221  11.005  1.00  0.00     0.016 A 
ATOM     13  C   UNL     1      -1.833  -1.140   9.629  1.00  0.00     0.010 A 
ATOM     14  C   UNL     1      -2.774  -0.003  11.534  1.00  0.00     0.010 A 
ATOM     15  C   UNL     1      -2.513  -1.188  10.840  1.00  0.00    -0.014 A 
BRANCH  15  16
ATOM     16  C   UNL     1      -3.067  -2.483  11.265  1.00  0.00     0.031 A 
ATOM     17  C   UNL     1      -4.515  -2.740  10.997  1.00  0.00     0.074 A 
ATOM     18  C   UNL     1      -2.256  -3.439  11.752  1.00  0.00     0.049 A 
ATOM     19  N   UNL     1      -5.264  -3.741  11.367  1.00  0.00    -0.248 NA
ATOM     20  C   UNL     1      -5.214  -1.733  10.178  1.00  0.00     0.031 C 
ATOM     21  C   UNL     1      -0.802  -3.324  11.888  1.00  0.00     0.029 A 
ATOM     22  N   UNL     1      -2.535  -4.701  12.206  1.00  0.00    -0.354 N 
ATOM     23  C   UNL     1      -6.528  -3.463  10.868  1.00  0.00     0.074 A 
ATOM     24  C   UNL     1      -6.446  -2.216  10.143  1.00  0.00     0.031 C 
ATOM     25  C   UNL     1      -0.319  -4.469  12.399  1.00  0.00     0.029 A 
ATOM     26  C   UNL     1      -1.434  -5.361  12.695  1.00  0.00     0.049 A 
ATOM     27  H   UNL     1      -3.436  -5.097  12.183  1.00  0.00     0.167 HD
ATOM     28  C   UNL     1      -7.658  -4.186  11.033  1.00  0.00     0.037 A 
ATOM     29  C   UNL     1      -1.362  -6.529  13.364  1.00  0.00     0.037 A 
ATOM     30  C   UNL     1      -7.693  -5.428  11.751  1.00  0.00     0.049 A 
ATOM     31  C   UNL     1      -2.654  -7.261  13.628  1.00  0.00     0.074 A 
ATOM     32  C   UNL     1      -8.775  -6.240  12.029  1.00  0.00     0.029 A 
ATOM     33  N   UNL     1      -6.574  -6.036  12.306  1.00  0.00    -0.354 N 
ATOM     34  N   UNL     1      -3.868  -6.969  13.222  1.00  0.00    -0.248 NA
ATOM     35  C   UNL     1      -2.577  -8.462  14.470  1.00  0.00     0.031 C 
ATOM     36  C   UNL     1      -8.316  -7.316  12.796  1.00  0.00     0.029 A 
ATOM     37  C   UNL     1      -6.943  -7.196  12.959  1.00  0.00     0.049 A 
ATOM     38  H   UNL     1      -5.654  -5.690  12.244  1.00  0.00     0.167 HD
ATOM     39  C   UNL     1      -4.697  -7.942  13.757  1.00  0.00     0.074 A 
ATOM     40  C   UNL     1      -3.843  -8.855  14.491  1.00  0.00     0.031 C 
ATOM     41  C   UNL     1      -6.045  -8.069  13.672  1.00  0.00     0.037 A 
BRANCH  28  42
ATOM     42  C   UNL     1      -8.932  -3.596  10.515  1.00  0.00     0.064 A 
ATOM     43  C   UNL     1      -9.246  -3.570   9.149  1.00  0.00     0.173 A 
ATOM     44  C   UNL     1      -9.848  -3.025  11.412  1.00  0.00     0.173 A 
ATOM     45  F   UNL     1      -8.388  -4.072   8.249  1.00  0.00    -0.203 F 
ATOM     46  C   UNL     1     -10.425  -2.978   8.699  1.00  0.00     0.198 A 
ATOM     47  C   UNL     1     -11.034  -2.453  10.960  1.00  0.00     0.198 A 
ATOM     48  F   UNL     1      -9.586  -3.012  12.728  1.00  0.00    -0.203 F 
ATOM     49  F   UNL     1     -10.685  -2.922   7.385  1.00  0.00    -0.200 F 
ATOM     50  C   UNL     1     -11.319  -2.425   9.604  1.00  0.00     0.200 A 
ATOM     51  F   UNL     1     -11.894  -1.917  11.837  1.00  0.00    -0.200 F 
ATOM     52  F   UNL     1     -12.449  -1.852   9.168  1.00  0.00    -0.200 F 
ENDBRANCH  28  42
BRANCH  29  53
ATOM     53  C   UNL     1      -0.067  -7.013  13.917  1.00  0.00     0.064 A 
ATOM     54  C   UNL     1       0.496  -8.231  13.513  1.00  0.00     0.173 A 
ATOM     55  C   UNL     1       0.617  -6.282  14.904  1.00  0.00     0.173 A 
ATOM     56  F   UNL     1      -0.128  -8.985  12.596  1.00  0.00    -0.203 F 
ATOM     57  C   UNL     1       1.676  -8.708  14.085  1.00  0.00     0.198 A 
ATOM     58  C   UNL     1       1.814  -6.742  15.450  1.00  0.00     0.198 A 
ATOM     59  F   UNL     1       0.122  -5.116  15.343  1.00  0.00    -0.203 F 
ATOM     60  F   UNL     1       2.160  -9.903  13.721  1.00  0.00    -0.200 F 
ATOM     61  C   UNL     1       2.337  -7.961  15.049  1.00  0.00     0.200 A 
ATOM     62  F   UNL     1       2.452  -6.010  16.373  1.00  0.00    -0.200 F 
ATOM     63  F   UNL     1       3.468  -8.421  15.601  1.00  0.00    -0.200 F 
ENDBRANCH  29  53
BRANCH  41  64
ATOM     64  C   UNL     1      -6.660  -9.230  14.388  1.00  0.00     0.064 A 
ATOM     65  C   UNL     1      -6.809  -9.223  15.782  1.00  0.00     0.173 A 
ATOM     66  C   UNL     1      -7.169 -10.320  13.669  1.00  0.00     0.173 A 
ATOM     67  F   UNL     1      -6.322  -8.207  16.509  1.00  0.00    -0.203 F 
ATOM     68  C   UNL     1      -7.439 -10.278  16.433  1.00  0.00     0.198 A 
ATOM     69  C   UNL     1      -7.822 -11.359  14.321  1.00  0.00     0.198 A 
ATOM     70  F   UNL     1      -7.053 -10.362  12.333  1.00  0.00    -0.203 F 
ATOM     71  F   UNL     1      -7.545 -10.270  17.769  1.00  0.00    -0.200 F 
ATOM     72  C   UNL     1      -7.954 -11.339  15.702  1.00  0.00     0.200 A 
ATOM     73  F   UNL     1      -8.332 -12.376  13.613  1.00  0.00    -0.200 F 
ATOM     74  F   UNL     1      -8.577 -12.345  16.330  1.00  0.00    -0.200 F 
ENDBRANCH  41  64
ENDBRANCH  15  16
ENDBRANCH   8  10
ENDBRANCH   7   8
ENDBRANCH   6   7
ENDBRANCH   5   6
ENDBRANCH   4   5
ENDBRANCH   3   4
ENDBRANCH   2   3
ENDBRANCH   1   2
BRANCH   1  75
ATOM     75  C   UNL     1       2.811  -0.885   6.948  1.00  0.00     0.188 C 
BRANCH  75  76
ATOM     76  C   UNL     1       2.336  -2.139   7.675  1.00  0.00     0.188 C 
BRANCH  76  77
ATOM     77  O   UNL     1       2.638  -2.296   9.047  1.00  0.00    -0.376 OA
BRANCH  77  78
ATOM     78  C   UNL     1       3.991  -2.196   9.487  1.00  0.00     0.202 C 
BRANCH  78  79
ATOM     79  C   UNL     1       5.132  -2.749   8.616  1.00  0.00     0.261 C 
BRANCH  79  80
ATOM     80  O   UNL     1       5.553  -1.848   7.558  1.00  0.00    -0.462 OA
BRANCH  80  81
ATOM     81  C   UNL     1       5.566  -2.341   6.288  1.00  0.00     0.334 C 
ATOM     82  O   UNL     1       5.187  -3.481   6.005  1.00  0.00    -0.250 OA
BRANCH  81  83
ATOM     83  C   UNL     1       6.089  -1.364   5.201  1.00  0.00     0.249 C 
ATOM     84  C   UNL     1       5.443   0.033   5.032  1.00  0.00     0.298 C 
ATOM     85  N   UNL     1       7.545  -1.154   5.291  1.00  0.00    -0.331 N 
ATOM     86  N   UNL     1       5.789   1.028   6.066  1.00  0.00    -0.343 N 
ATOM     87  C   UNL     1       7.999  -0.258   6.349  1.00  0.00     0.180 C 
ATOM     88  C   UNL     1       7.259   1.105   6.206  1.00  0.00     0.282 C 
ATOM     89  H   UNL     1       5.377   0.750   6.957  1.00  0.00     0.346 HD
ATOM     90  H   UNL     1       5.426   1.941   5.793  1.00  0.00     0.346 HD
BRANCH  85  91
ATOM     91  C   UNL     1       8.332  -2.152   4.767  1.00  0.00     0.148 A 
ATOM     92  N   UNL     1       9.003  -2.943   5.633  1.00  0.00    -0.237 NA
ATOM     93  C   UNL     1       8.357  -2.403   3.380  1.00  0.00     0.084 A 
ATOM     94  C   UNL     1       9.641  -4.030   5.131  1.00  0.00     0.126 A 
ATOM     95  C   UNL     1       9.021  -3.522   2.893  1.00  0.00     0.039 A 
ATOM     96  Cl  UNL     1       7.615  -1.351   2.220  1.00  0.00    -0.080 Cl
ATOM     97  C   UNL     1       9.669  -4.371   3.786  1.00  0.00     0.075 A 
BRANCH  97  98
ATOM     98  C   UNL     1      10.368  -5.611   3.332  1.00  0.00     0.417 C 
ATOM     99  F   UNL     1      11.673  -5.644   3.712  1.00  0.00    -0.166 F 
ATOM    100  F   UNL     1       9.800  -6.741   3.831  1.00  0.00    -0.166 F 
ATOM    101  F   UNL     1      10.370  -5.761   1.978  1.00  0.00    -0.166 F 
ENDBRANCH  97  98
ENDBRANCH  85  91
ENDBRANCH  81  83
ENDBRANCH  80  81
ENDBRANCH  79  80
ENDBRANCH  78  79
ENDBRANCH  77  78
ENDBRANCH  76  77
ENDBRANCH  75  76
ENDBRANCH   1  75
TORSDOF 22
