REMARK SMILES CC(C)(C)[C@H](CCC(=O)OCCOCCOCCOCCOC(=O)c1ccc(-c2c3nc(c(-c4c(F)c(F)c(F)c(F)c4F)c4ccc([nH]4)c(-c4c(F)c(F)c(F)c(F)c4F)c4nc(c(-c5c(F)c(F)c(F)c(F)c5F)c5ccc2[nH]5)C=C4)C=C3)cc1)CC[NH+]1CCOCC1
REMARK SMILES IDX 14 1 13 2 12 3 11 4 10 5 8 6 9 7 7 8 6 9 5 10 2 11 1 12 3 13
REMARK SMILES IDX 4 14 88 15 89 16 90 17 91 18 95 19 92 21 94 22 93 23 15 24
REMARK SMILES IDX 16 25 17 26 18 27 19 28 20 29 21 30 22 31 23 32 24 33 25 34
REMARK SMILES IDX 26 35 87 36 27 37 86 38 28 39 29 40 30 41 80 42 31 43 85 44
REMARK SMILES IDX 79 45 81 46 32 47 84 48 78 49 77 50 33 52 65 53 45 54 64 55
REMARK SMILES IDX 46 56 49 57 63 58 82 59 47 60 48 61 62 63 83 64 50 65 34 66
REMARK SMILES IDX 35 67 43 68 36 69 37 70 41 71 44 72 38 73 39 74 42 75 40 76
REMARK SMILES IDX 66 77 67 78 75 79 68 80 69 81 73 82 76 83 70 84 71 85 74 86
REMARK SMILES IDX 72 87 51 88 52 89 60 90 53 91 54 92 58 93 61 94 55 95 56 96
REMARK SMILES IDX 59 97 57 98
REMARK H PARENT 90 20 81 51 49 62
REMARK Flexibility Score: inf
ROOT
ATOM      1  C   UNL     1      -1.090  -1.658   5.208  1.00  0.00     0.188 C 
ENDROOT
BRANCH   1   2
ATOM      2  O   UNL     1      -1.082  -2.958   5.797  1.00  0.00    -0.376 OA
BRANCH   2   3
ATOM      3  C   UNL     1      -0.942  -4.087   4.931  1.00  0.00     0.202 C 
BRANCH   3   4
ATOM      4  C   UNL     1      -1.815  -4.116   3.667  1.00  0.00     0.261 C 
BRANCH   4   5
ATOM      5  O   UNL     1      -1.290  -3.189   2.687  1.00  0.00    -0.463 OA
BRANCH   5   6
ATOM      6  C   UNL     1      -2.145  -2.749   1.737  1.00  0.00     0.305 C 
ATOM      7  O   UNL     1      -3.294  -3.156   1.613  1.00  0.00    -0.252 OA
BRANCH   6   8
ATOM      8  C   UNL     1      -1.600  -1.568   0.948  1.00  0.00     0.123 C 
BRANCH   8   9
ATOM      9  C   UNL     1      -0.098  -1.443   0.605  1.00  0.00     0.016 C 
BRANCH   9  10
ATOM     10  C   UNL     1       0.648  -2.622  -0.080  1.00  0.00     0.000 C 
BRANCH  10  11
ATOM     11  C   UNL     1       0.317  -2.853  -1.628  1.00  0.00    -0.035 C 
ATOM     12  C   UNL     1       1.204  -2.009  -2.574  1.00  0.00     0.011 C 
ATOM     13  C   UNL     1      -1.139  -2.544  -2.013  1.00  0.00     0.011 C 
ATOM     14  C   UNL     1       0.556  -4.345  -1.961  1.00  0.00     0.011 C 
ENDBRANCH  10  11
BRANCH  10  15
ATOM     15  C   UNL     1       2.212  -2.482   0.099  1.00  0.00     0.065 C 
BRANCH  15  16
ATOM     16  C   UNL     1       2.868  -2.361   1.489  1.00  0.00     0.262 C 
BRANCH  16  17
ATOM     17  N   UNL     1       3.022  -3.524   2.349  1.00  0.00    -0.331 N 
ATOM     18  C   UNL     1       4.218  -4.349   2.176  1.00  0.00     0.291 C 
ATOM     19  C   UNL     1       1.850  -4.344   2.601  1.00  0.00     0.291 C 
ATOM     20  H   UNL     1       3.174  -2.996   3.208  1.00  0.00     0.348 HD
ATOM     21  C   UNL     1       4.019  -5.628   1.345  1.00  0.00     0.221 C 
ATOM     22  C   UNL     1       1.712  -5.580   1.711  1.00  0.00     0.221 C 
ATOM     23  O   UNL     1       2.888  -6.387   1.795  1.00  0.00    -0.370 OA
ENDBRANCH  16  17
ENDBRANCH  15  16
ENDBRANCH  10  15
ENDBRANCH   9  10
ENDBRANCH   8   9
ENDBRANCH   6   8
ENDBRANCH   5   6
ENDBRANCH   4   5
ENDBRANCH   3   4
ENDBRANCH   2   3
ENDBRANCH   1   2
BRANCH   1  24
ATOM     24  C   UNL     1       0.111  -1.303   4.327  1.00  0.00     0.188 C 
BRANCH  24  25
ATOM     25  O   UNL     1       1.256  -0.864   5.022  1.00  0.00    -0.377 OA
BRANCH  25  26
ATOM     26  C   UNL     1       1.952  -1.829   5.789  1.00  0.00     0.188 C 
BRANCH  26  27
ATOM     27  C   UNL     1       2.058  -1.401   7.261  1.00  0.00     0.188 C 
BRANCH  27  28
ATOM     28  O   UNL     1       2.392  -0.063   7.635  1.00  0.00    -0.376 OA
BRANCH  28  29
ATOM     29  C   UNL     1       2.149   1.006   6.734  1.00  0.00     0.202 C 
BRANCH  29  30
ATOM     30  C   UNL     1       3.372   1.350   5.868  1.00  0.00     0.261 C 
BRANCH  30  31
ATOM     31  O   UNL     1       4.128   0.216   5.405  1.00  0.00    -0.460 OA
BRANCH  31  32
ATOM     32  C   UNL     1       5.114  -0.182   6.246  1.00  0.00     0.338 C 
ATOM     33  O   UNL     1       5.440   0.318   7.307  1.00  0.00    -0.246 OA
BRANCH  32  34
ATOM     34  C   UNL     1       5.798  -1.375   5.713  1.00  0.00     0.060 A 
ATOM     35  C   UNL     1       5.772  -2.550   6.472  1.00  0.00     0.016 A 
ATOM     36  C   UNL     1       6.625  -1.271   4.591  1.00  0.00     0.016 A 
ATOM     37  C   UNL     1       6.627  -3.604   6.151  1.00  0.00     0.010 A 
ATOM     38  C   UNL     1       7.492  -2.325   4.277  1.00  0.00     0.010 A 
ATOM     39  C   UNL     1       7.534  -3.472   5.090  1.00  0.00    -0.014 A 
BRANCH  39  40
ATOM     40  C   UNL     1       8.666  -4.429   4.989  1.00  0.00     0.031 A 
ATOM     41  C   UNL     1       9.980  -4.059   5.621  1.00  0.00     0.074 A 
ATOM     42  C   UNL     1       8.518  -5.631   4.406  1.00  0.00     0.049 A 
ATOM     43  N   UNL     1      11.097  -4.739   5.680  1.00  0.00    -0.248 NA
ATOM     44  C   UNL     1      10.040  -2.748   6.287  1.00  0.00     0.031 C 
ATOM     45  C   UNL     1       7.279  -6.133   3.824  1.00  0.00     0.029 A 
ATOM     46  N   UNL     1       9.416  -6.651   4.216  1.00  0.00    -0.354 N 
ATOM     47  C   UNL     1      11.986  -3.944   6.391  1.00  0.00     0.074 A 
ATOM     48  C   UNL     1      11.293  -2.715   6.713  1.00  0.00     0.031 C 
ATOM     49  C   UNL     1       7.494  -7.362   3.324  1.00  0.00     0.029 A 
ATOM     50  C   UNL     1       8.892  -7.726   3.541  1.00  0.00     0.049 A 
ATOM     51  H   UNL     1      10.348  -6.615   4.532  1.00  0.00     0.167 HD
ATOM     52  C   UNL     1      13.261  -4.218   6.755  1.00  0.00     0.037 A 
ATOM     53  C   UNL     1       9.478  -8.870   3.142  1.00  0.00     0.037 A 
ATOM     54  C   UNL     1      13.951  -5.439   6.435  1.00  0.00     0.049 A 
ATOM     55  C   UNL     1      10.925  -9.114   3.483  1.00  0.00     0.074 A 
ATOM     56  C   UNL     1      15.241  -5.816   6.765  1.00  0.00     0.029 A 
ATOM     57  N   UNL     1      13.404  -6.482   5.701  1.00  0.00    -0.354 N 
ATOM     58  N   UNL     1      11.751  -8.366   4.173  1.00  0.00    -0.248 NA
ATOM     59  C   UNL     1      11.517 -10.368   2.996  1.00  0.00     0.031 C 
ATOM     60  C   UNL     1      15.491  -7.067   6.190  1.00  0.00     0.029 A 
ATOM     61  C   UNL     1      14.341  -7.491   5.544  1.00  0.00     0.049 A 
ATOM     62  H   UNL     1      12.487  -6.502   5.345  1.00  0.00     0.167 HD
ATOM     63  C   UNL     1      12.946  -9.070   4.233  1.00  0.00     0.074 A 
ATOM     64  C   UNL     1      12.736 -10.310   3.515  1.00  0.00     0.031 C 
ATOM     65  C   UNL     1      14.111  -8.723   4.833  1.00  0.00     0.037 A 
BRANCH  52  66
ATOM     66  C   UNL     1      14.001  -3.158   7.517  1.00  0.00     0.064 A 
ATOM     67  C   UNL     1      13.698  -2.864   8.855  1.00  0.00     0.173 A 
ATOM     68  C   UNL     1      15.035  -2.436   6.903  1.00  0.00     0.173 A 
ATOM     69  F   UNL     1      12.707  -3.515   9.482  1.00  0.00    -0.203 F 
ATOM     70  C   UNL     1      14.387  -1.867   9.542  1.00  0.00     0.198 A 
ATOM     71  C   UNL     1      15.739  -1.459   7.601  1.00  0.00     0.198 A 
ATOM     72  F   UNL     1      15.365  -2.681   5.626  1.00  0.00    -0.203 F 
ATOM     73  F   UNL     1      14.049  -1.569  10.805  1.00  0.00    -0.200 F 
ATOM     74  C   UNL     1      15.409  -1.169   8.916  1.00  0.00     0.200 A 
ATOM     75  F   UNL     1      16.733  -0.792   6.998  1.00  0.00    -0.200 F 
ATOM     76  F   UNL     1      16.072  -0.211   9.579  1.00  0.00    -0.200 F 
ENDBRANCH  52  66
BRANCH  53  77
ATOM     77  C   UNL     1       8.698  -9.878   2.377  1.00  0.00     0.064 A 
ATOM     78  C   UNL     1       8.369 -11.119   2.939  1.00  0.00     0.173 A 
ATOM     79  C   UNL     1       8.283  -9.627   1.061  1.00  0.00     0.173 A 
ATOM     80  F   UNL     1       8.766 -11.415   4.186  1.00  0.00    -0.203 F 
ATOM     81  C   UNL     1       7.671 -12.078   2.208  1.00  0.00     0.198 A 
ATOM     82  C   UNL     1       7.564 -10.576   0.339  1.00  0.00     0.198 A 
ATOM     83  F   UNL     1       8.575  -8.455   0.477  1.00  0.00    -0.203 F 
ATOM     84  F   UNL     1       7.411 -13.274   2.752  1.00  0.00    -0.200 F 
ATOM     85  C   UNL     1       7.265 -11.804   0.910  1.00  0.00     0.200 A 
ATOM     86  F   UNL     1       7.168 -10.304  -0.912  1.00  0.00    -0.200 F 
ATOM     87  F   UNL     1       6.597 -12.727   0.206  1.00  0.00    -0.200 F 
ENDBRANCH  53  77
BRANCH  65  88
ATOM     88  C   UNL     1      15.237  -9.714   4.773  1.00  0.00     0.064 A 
ATOM     89  C   UNL     1      15.943  -9.955   3.586  1.00  0.00     0.173 A 
ATOM     90  C   UNL     1      15.634 -10.406   5.927  1.00  0.00     0.173 A 
ATOM     91  F   UNL     1      15.592  -9.330   2.452  1.00  0.00    -0.203 F 
ATOM     92  C   UNL     1      16.990 -10.873   3.550  1.00  0.00     0.198 A 
ATOM     93  C   UNL     1      16.700 -11.301   5.895  1.00  0.00     0.198 A 
ATOM     94  F   UNL     1      14.995 -10.206   7.090  1.00  0.00    -0.203 F 
ATOM     95  F   UNL     1      17.620 -11.124   2.394  1.00  0.00    -0.200 F 
ATOM     96  C   UNL     1      17.371 -11.540   4.705  1.00  0.00     0.200 A 
ATOM     97  F   UNL     1      17.075 -11.935   7.014  1.00  0.00    -0.200 F 
ATOM     98  F   UNL     1      18.382 -12.419   4.670  1.00  0.00    -0.200 F 
ENDBRANCH  65  88
ENDBRANCH  39  40
ENDBRANCH  32  34
ENDBRANCH  31  32
ENDBRANCH  30  31
ENDBRANCH  29  30
ENDBRANCH  28  29
ENDBRANCH  27  28
ENDBRANCH  26  27
ENDBRANCH  25  26
ENDBRANCH  24  25
ENDBRANCH   1  24
TORSDOF 26
