REMARK SMILES Cc1nc(Oc2ccc(F)cc2)c(C(=O)OCCOCCOCCOCCOC(=O)c2ccc(-c3c4nc(c(-c5c(F)c(F)c(F)c(F)c5F)c5ccc([nH]5)c(-c5c(F)c(F)c(F)c(F)c5F)c5nc(c(-c6c(F)c(F)c(F)c(F)c6F)c6ccc3[nH]6)C=C5)C=C4)cc2)c(C)c1Cl
REMARK SMILES IDX 22 1 21 2 20 3 19 4 18 5 17 6 16 7 14 8 15 9 13 10 1 11 2 12
REMARK SMILES IDX 3 13 96 14 4 15 94 16 97 17 95 18 5 19 6 20 7 21 12 22 8 23
REMARK SMILES IDX 11 24 9 25 10 26 23 27 24 28 25 29 26 30 27 31 28 32 29 33
REMARK SMILES IDX 30 34 31 35 32 36 93 37 33 38 92 39 34 40 35 41 36 42 86 43
REMARK SMILES IDX 37 44 91 45 85 46 87 47 38 48 90 49 84 50 83 51 39 53 71 54
REMARK SMILES IDX 51 55 70 56 52 57 55 58 69 59 88 60 53 61 54 62 68 64 89 65
REMARK SMILES IDX 56 66 40 67 41 68 49 69 42 70 43 71 47 72 50 73 44 74 45 75
REMARK SMILES IDX 48 76 46 77 72 78 73 79 81 80 74 81 75 82 79 83 82 84 76 85
REMARK SMILES IDX 77 86 80 87 78 88 57 89 58 90 66 91 59 92 60 93 64 94 67 95
REMARK SMILES IDX 61 96 62 97 65 98 63 99
REMARK H PARENT 87 52 55 63
REMARK Flexibility Score: inf
ROOT
ATOM      1  O   UNL     1       1.485   0.097  -7.541  1.00  0.00    -0.377 OA
ENDROOT
BRANCH   1   2
ATOM      2  C   UNL     1       1.463  -0.698  -6.364  1.00  0.00     0.188 C 
BRANCH   2   3
ATOM      3  C   UNL     1       0.751  -2.067  -6.328  1.00  0.00     0.188 C 
BRANCH   3   4
ATOM      4  O   UNL     1       0.039  -2.439  -7.494  1.00  0.00    -0.376 OA
BRANCH   4   5
ATOM      5  C   UNL     1      -1.351  -2.684  -7.512  1.00  0.00     0.202 C 
BRANCH   5   6
ATOM      6  C   UNL     1      -2.251  -1.590  -6.965  1.00  0.00     0.261 C 
BRANCH   6   7
ATOM      7  O   UNL     1      -1.771  -1.163  -5.693  1.00  0.00    -0.459 OA
BRANCH   7   8
ATOM      8  C   UNL     1      -2.188  -1.804  -4.577  1.00  0.00     0.344 C 
ATOM      9  O   UNL     1      -3.128  -2.550  -4.471  1.00  0.00    -0.246 OA
BRANCH   8  10
ATOM     10  C   UNL     1      -1.231  -1.417  -3.510  1.00  0.00     0.127 A 
ATOM     11  C   UNL     1       1.132  -0.364  -0.145  1.00  0.00     0.068 C 
ATOM     12  C   UNL     1       0.364  -0.672  -1.400  1.00  0.00     0.060 A 
ATOM     13  N   UNL     1       0.203  -1.994  -1.679  1.00  0.00    -0.216 NA
ATOM     14  C   UNL     1      -0.147   0.336  -2.216  1.00  0.00     0.066 A 
ATOM     15  C   UNL     1      -0.563  -2.377  -2.735  1.00  0.00     0.234 A 
ATOM     16  C   UNL     1      -0.980  -0.024  -3.285  1.00  0.00    -0.011 A 
ATOM     17  Cl  UNL     1       0.242   1.995  -1.895  1.00  0.00    -0.082 Cl
ATOM     18  C   UNL     1      -1.535   1.040  -4.213  1.00  0.00     0.047 C 
BRANCH  15  19
ATOM     19  O   UNL     1      -0.645  -3.752  -2.792  1.00  0.00    -0.438 OA
BRANCH  19  20
ATOM     20  C   UNL     1      -0.615  -4.454  -3.972  1.00  0.00     0.129 A 
ATOM     21  C   UNL     1      -1.801  -5.082  -4.359  1.00  0.00     0.050 A 
ATOM     22  C   UNL     1       0.558  -4.730  -4.682  1.00  0.00     0.050 A 
ATOM     23  C   UNL     1      -1.863  -5.838  -5.530  1.00  0.00     0.043 A 
ATOM     24  C   UNL     1       0.499  -5.484  -5.870  1.00  0.00     0.043 A 
ATOM     25  C   UNL     1      -0.716  -6.014  -6.291  1.00  0.00     0.123 A 
ATOM     26  F   UNL     1      -0.795  -6.664  -7.460  1.00  0.00    -0.207 F 
ENDBRANCH  19  20
ENDBRANCH  15  19
ENDBRANCH   8  10
ENDBRANCH   7   8
ENDBRANCH   6   7
ENDBRANCH   5   6
ENDBRANCH   4   5
ENDBRANCH   3   4
ENDBRANCH   2   3
ENDBRANCH   1   2
BRANCH   1  27
ATOM     27  C   UNL     1       1.197  -0.527  -8.781  1.00  0.00     0.188 C 
BRANCH  27  28
ATOM     28  C   UNL     1       2.025  -1.771  -9.215  1.00  0.00     0.188 C 
BRANCH  28  29
ATOM     29  O   UNL     1       2.612  -2.500  -8.156  1.00  0.00    -0.376 OA
BRANCH  29  30
ATOM     30  C   UNL     1       3.994  -2.477  -7.877  1.00  0.00     0.202 C 
BRANCH  30  31
ATOM     31  C   UNL     1       4.844  -1.200  -7.928  1.00  0.00     0.261 C 
BRANCH  31  32
ATOM     32  O   UNL     1       4.316  -0.100  -8.661  1.00  0.00    -0.460 OA
BRANCH  32  33
ATOM     33  C   UNL     1       4.570  -0.090  -9.988  1.00  0.00     0.338 C 
ATOM     34  O   UNL     1       5.177  -0.920 -10.638  1.00  0.00    -0.246 OA
BRANCH  33  35
ATOM     35  C   UNL     1       3.778   1.013 -10.559  1.00  0.00     0.060 A 
ATOM     36  C   UNL     1       2.779   0.719 -11.500  1.00  0.00     0.016 A 
ATOM     37  C   UNL     1       3.993   2.319 -10.121  1.00  0.00     0.016 A 
ATOM     38  C   UNL     1       1.973   1.738 -11.995  1.00  0.00     0.010 A 
ATOM     39  C   UNL     1       3.242   3.349 -10.676  1.00  0.00     0.010 A 
ATOM     40  C   UNL     1       2.254   3.060 -11.633  1.00  0.00    -0.014 A 
BRANCH  40  41
ATOM     41  C   UNL     1       1.753   4.158 -12.478  1.00  0.00     0.031 A 
ATOM     42  C   UNL     1       2.560   4.494 -13.698  1.00  0.00     0.074 A 
ATOM     43  C   UNL     1       0.657   4.857 -12.149  1.00  0.00     0.049 A 
ATOM     44  N   UNL     1       2.438   5.495 -14.526  1.00  0.00    -0.248 NA
ATOM     45  C   UNL     1       3.664   3.572 -14.024  1.00  0.00     0.031 C 
ATOM     46  C   UNL     1      -0.226   4.570 -11.022  1.00  0.00     0.029 A 
ATOM     47  N   UNL     1       0.120   5.975 -12.731  1.00  0.00    -0.354 N 
ATOM     48  C   UNL     1       3.444   5.321 -15.466  1.00  0.00     0.074 A 
ATOM     49  C   UNL     1       4.183   4.136 -15.101  1.00  0.00     0.031 C 
ATOM     50  C   UNL     1      -1.185   5.511 -10.976  1.00  0.00     0.029 A 
ATOM     51  C   UNL     1      -0.953   6.484 -12.044  1.00  0.00     0.049 A 
ATOM     52  H   UNL     1       0.469   6.374 -13.560  1.00  0.00     0.167 HD
ATOM     53  C   UNL     1       3.724   6.090 -16.541  1.00  0.00     0.037 A 
ATOM     54  C   UNL     1      -1.637   7.626 -12.246  1.00  0.00     0.037 A 
ATOM     55  C   UNL     1       3.008   7.291 -16.867  1.00  0.00     0.049 A 
ATOM     56  C   UNL     1      -1.237   8.526 -13.388  1.00  0.00     0.074 A 
ATOM     57  C   UNL     1       3.220   8.161 -17.919  1.00  0.00     0.029 A 
ATOM     58  N   UNL     1       1.945   7.796 -16.131  1.00  0.00    -0.354 N 
ATOM     59  N   UNL     1      -0.286   8.366 -14.278  1.00  0.00    -0.248 NA
ATOM     60  C   UNL     1      -2.007   9.766 -13.554  1.00  0.00     0.031 C 
ATOM     61  C   UNL     1       2.323   9.225 -17.787  1.00  0.00     0.029 A 
ATOM     62  C   UNL     1       1.503   8.979 -16.696  1.00  0.00     0.049 A 
ATOM     63  H   UNL     1       1.562   7.375 -15.328  1.00  0.00     0.167 HD
ATOM     64  C   UNL     1      -0.365   9.462 -15.129  1.00  0.00     0.074 A 
ATOM     65  C   UNL     1      -1.466  10.275 -14.652  1.00  0.00     0.031 C 
ATOM     66  C   UNL     1       0.398   9.768 -16.208  1.00  0.00     0.037 A 
BRANCH  53  67
ATOM     67  C   UNL     1       4.871   5.672 -17.411  1.00  0.00     0.064 A 
ATOM     68  C   UNL     1       4.798   4.530 -18.225  1.00  0.00     0.173 A 
ATOM     69  C   UNL     1       6.043   6.439 -17.459  1.00  0.00     0.173 A 
ATOM     70  F   UNL     1       3.710   3.746 -18.193  1.00  0.00    -0.203 F 
ATOM     71  C   UNL     1       5.861   4.170 -19.048  1.00  0.00     0.198 A 
ATOM     72  C   UNL     1       7.091   6.093 -18.308  1.00  0.00     0.198 A 
ATOM     73  F   UNL     1       6.169   7.532 -16.691  1.00  0.00    -0.203 F 
ATOM     74  F   UNL     1       5.785   3.054 -19.787  1.00  0.00    -0.200 F 
ATOM     75  C   UNL     1       7.000   4.958 -19.099  1.00  0.00     0.200 A 
ATOM     76  F   UNL     1       8.188   6.862 -18.361  1.00  0.00    -0.200 F 
ATOM     77  F   UNL     1       8.015   4.621 -19.906  1.00  0.00    -0.200 F 
ENDBRANCH  53  67
BRANCH  54  78
ATOM     78  C   UNL     1      -2.769   7.977 -11.350  1.00  0.00     0.064 A 
ATOM     79  C   UNL     1      -4.087   7.973 -11.826  1.00  0.00     0.173 A 
ATOM     80  C   UNL     1      -2.564   8.306 -10.002  1.00  0.00     0.173 A 
ATOM     81  F   UNL     1      -4.332   7.691 -13.114  1.00  0.00    -0.203 F 
ATOM     82  C   UNL     1      -5.156   8.292 -10.991  1.00  0.00     0.198 A 
ATOM     83  C   UNL     1      -3.636   8.596  -9.160  1.00  0.00     0.198 A 
ATOM     84  F   UNL     1      -1.322   8.329  -9.496  1.00  0.00    -0.203 F 
ATOM     85  F   UNL     1      -6.402   8.315 -11.482  1.00  0.00    -0.200 F 
ATOM     86  C   UNL     1      -4.931   8.593  -9.656  1.00  0.00     0.200 A 
ATOM     87  F   UNL     1      -3.416   8.874  -7.868  1.00  0.00    -0.200 F 
ATOM     88  F   UNL     1      -5.961   8.884  -8.850  1.00  0.00    -0.200 F 
ENDBRANCH  54  78
BRANCH  66  89
ATOM     89  C   UNL     1       0.046  11.007 -16.981  1.00  0.00     0.064 A 
ATOM     90  C   UNL     1       0.255  12.291 -16.459  1.00  0.00     0.173 A 
ATOM     91  C   UNL     1      -0.450  10.905 -18.291  1.00  0.00     0.173 A 
ATOM     92  F   UNL     1       0.721  12.445 -15.210  1.00  0.00    -0.203 F 
ATOM     93  C   UNL     1      -0.050  13.426 -17.206  1.00  0.00     0.198 A 
ATOM     94  C   UNL     1      -0.717  12.040 -19.049  1.00  0.00     0.198 A 
ATOM     95  F   UNL     1      -0.654   9.700 -18.845  1.00  0.00    -0.203 F 
ATOM     96  F   UNL     1       0.108  14.643 -16.667  1.00  0.00    -0.200 F 
ATOM     97  C   UNL     1      -0.526  13.300 -18.503  1.00  0.00     0.200 A 
ATOM     98  F   UNL     1      -1.155  11.916 -20.309  1.00  0.00    -0.200 F 
ATOM     99  F   UNL     1      -0.805  14.394 -19.225  1.00  0.00    -0.200 F 
ENDBRANCH  66  89
ENDBRANCH  40  41
ENDBRANCH  33  35
ENDBRANCH  32  33
ENDBRANCH  31  32
ENDBRANCH  30  31
ENDBRANCH  29  30
ENDBRANCH  28  29
ENDBRANCH  27  28
ENDBRANCH   1  27
TORSDOF 22
