REMARK SMILES CCc1ccc(C(=O)NC[C@@H](CC(C)C)C(=O)OCCOCCOCCOCCOC(=O)c2ccc(-c3c4nc(c(-c5c(F)c(F)c(F)c(F)c5F)c5ccc([nH]5)c(-c5c(F)c(F)c(F)c(F)c5F)c5nc(c(-c6c(F)c(F)c(F)c(F)c6F)c6ccc3[nH]6)C=C5)C=C4)cc2)s1
REMARK SMILES IDX 23 1 22 2 21 3 20 4 19 5 18 6 16 7 17 8 11 9 10 10 9 11 7 12
REMARK SMILES IDX 8 13 6 15 3 16 4 17 96 18 5 19 2 20 1 21 12 22 13 23 14 24
REMARK SMILES IDX 15 25 24 26 25 27 26 28 27 29 28 30 29 31 30 32 31 33 32 34
REMARK SMILES IDX 33 35 34 36 95 37 35 38 94 39 36 40 37 41 38 42 88 43 39 44
REMARK SMILES IDX 93 45 87 46 89 47 40 48 92 49 86 50 85 51 41 53 73 54 53 55
REMARK SMILES IDX 72 56 54 57 57 58 71 59 90 60 55 61 56 62 70 64 91 65 58 66
REMARK SMILES IDX 42 67 43 68 51 69 44 70 45 71 49 72 52 73 46 74 47 75 50 76
REMARK SMILES IDX 48 77 74 78 75 79 83 80 76 81 77 82 81 83 84 84 78 85 79 86
REMARK SMILES IDX 82 87 80 88 59 89 60 90 68 91 61 92 62 93 66 94 69 95 63 96
REMARK SMILES IDX 64 97 67 98 65 99
REMARK H PARENT 9 14 89 52 57 63
REMARK Flexibility Score: inf
ROOT
ATOM      1  C   UNL     1       1.922   0.070   5.646  1.00  0.00     0.188 C 
ENDROOT
BRANCH   1   2
ATOM      2  C   UNL     1       1.108   0.956   6.588  1.00  0.00     0.188 C 
BRANCH   2   3
ATOM      3  O   UNL     1       1.779   1.927   7.360  1.00  0.00    -0.376 OA
BRANCH   3   4
ATOM      4  C   UNL     1       2.735   1.523   8.329  1.00  0.00     0.202 C 
BRANCH   4   5
ATOM      5  C   UNL     1       2.672   0.166   9.050  1.00  0.00     0.261 C 
BRANCH   5   6
ATOM      6  O   UNL     1       2.690  -1.028   8.233  1.00  0.00    -0.463 OA
BRANCH   6   7
ATOM      7  C   UNL     1       1.616  -1.846   8.332  1.00  0.00     0.310 C 
ATOM      8  O   UNL     1       0.595  -1.546   8.946  1.00  0.00    -0.252 OA
BRANCH   7   9
ATOM      9  C   UNL     1       1.788  -3.246   7.739  1.00  0.00     0.118 C 
BRANCH   9  10
ATOM     10  C   UNL     1       2.587  -3.454   6.442  1.00  0.00     0.131 C 
BRANCH  10  11
ATOM     11  N   UNL     1       2.091  -4.606   5.658  1.00  0.00    -0.350 N 
ATOM     12  C   UNL     1       1.583  -4.815   4.386  1.00  0.00     0.261 C 
ATOM     13  O   UNL     1       1.289  -5.992   4.151  1.00  0.00    -0.268 OA
ATOM     14  H   UNL     1       2.132  -5.442   6.175  1.00  0.00     0.163 HD
BRANCH  12  15
ATOM     15  C   UNL     1       1.379  -3.746   3.411  1.00  0.00     0.092 A 
ATOM     16  C   UNL     1       0.601  -2.451   1.401  1.00  0.00     0.005 A 
ATOM     17  C   UNL     1       1.159  -1.667   2.380  1.00  0.00     0.016 A 
ATOM     18  S   UNL     1       0.516  -4.080   1.935  1.00  0.00    -0.135 S 
ATOM     19  C   UNL     1       1.803  -2.438   3.378  1.00  0.00     0.026 A 
BRANCH  16  20
ATOM     20  C   UNL     1       0.116  -2.015   0.043  1.00  0.00     0.043 C 
ATOM     21  C   UNL     1       0.628  -0.622  -0.342  1.00  0.00     0.010 C 
ENDBRANCH  16  20
ENDBRANCH  12  15
ENDBRANCH  10  11
ENDBRANCH   9  10
BRANCH   9  22
ATOM     22  C   UNL     1       2.184  -4.203   8.879  1.00  0.00     0.020 C 
BRANCH  22  23
ATOM     23  C   UNL     1       3.676  -4.318   9.270  1.00  0.00    -0.017 C 
ATOM     24  C   UNL     1       4.371  -2.997   9.593  1.00  0.00     0.007 C 
ATOM     25  C   UNL     1       3.789  -5.243  10.484  1.00  0.00     0.007 C 
ENDBRANCH  22  23
ENDBRANCH   9  22
ENDBRANCH   7   9
ENDBRANCH   6   7
ENDBRANCH   5   6
ENDBRANCH   4   5
ENDBRANCH   3   4
ENDBRANCH   2   3
ENDBRANCH   1   2
BRANCH   1  26
ATOM     26  O   UNL     1       3.299  -0.110   5.934  1.00  0.00    -0.377 OA
BRANCH  26  27
ATOM     27  C   UNL     1       4.252   0.843   5.473  1.00  0.00     0.188 C 
BRANCH  27  28
ATOM     28  C   UNL     1       3.782   2.208   4.945  1.00  0.00     0.188 C 
BRANCH  28  29
ATOM     29  O   UNL     1       2.647   2.141   4.098  1.00  0.00    -0.376 OA
BRANCH  29  30
ATOM     30  C   UNL     1       2.838   2.045   2.694  1.00  0.00     0.202 C 
BRANCH  30  31
ATOM     31  C   UNL     1       3.660   0.864   2.158  1.00  0.00     0.261 C 
BRANCH  31  32
ATOM     32  O   UNL     1       5.033   0.803   2.548  1.00  0.00    -0.460 OA
BRANCH  32  33
ATOM     33  C   UNL     1       5.808   1.869   2.283  1.00  0.00     0.338 C 
ATOM     34  O   UNL     1       5.514   2.882   1.690  1.00  0.00    -0.246 OA
BRANCH  33  35
ATOM     35  C   UNL     1       7.054   1.652   3.035  1.00  0.00     0.060 A 
ATOM     36  C   UNL     1       7.398   2.569   4.033  1.00  0.00     0.016 A 
ATOM     37  C   UNL     1       7.864   0.550   2.753  1.00  0.00     0.016 A 
ATOM     38  C   UNL     1       8.600   2.420   4.715  1.00  0.00     0.010 A 
ATOM     39  C   UNL     1       9.076   0.411   3.424  1.00  0.00     0.010 A 
ATOM     40  C   UNL     1       9.465   1.374   4.371  1.00  0.00    -0.014 A 
BRANCH  40  41
ATOM     41  C   UNL     1      10.867   1.423   4.836  1.00  0.00     0.031 A 
ATOM     42  C   UNL     1      11.898   1.983   3.896  1.00  0.00     0.074 A 
ATOM     43  C   UNL     1      11.200   1.016   6.072  1.00  0.00     0.049 A 
ATOM     44  N   UNL     1      13.191   2.091   4.051  1.00  0.00    -0.248 NA
ATOM     45  C   UNL     1      11.403   2.490   2.603  1.00  0.00     0.031 C 
ATOM     46  C   UNL     1      10.267   0.505   7.074  1.00  0.00     0.029 A 
ATOM     47  N   UNL     1      12.423   0.966   6.689  1.00  0.00    -0.354 N 
ATOM     48  C   UNL     1      13.662   2.662   2.876  1.00  0.00     0.074 A 
ATOM     49  C   UNL     1      12.525   2.859   2.006  1.00  0.00     0.031 C 
ATOM     50  C   UNL     1      10.956   0.176   8.180  1.00  0.00     0.029 A 
ATOM     51  C   UNL     1      12.379   0.418   7.947  1.00  0.00     0.049 A 
ATOM     52  H   UNL     1      13.253   1.290   6.271  1.00  0.00     0.167 HD
ATOM     53  C   UNL     1      14.933   2.997   2.558  1.00  0.00     0.037 A 
ATOM     54  C   UNL     1      13.384   0.122   8.794  1.00  0.00     0.037 A 
ATOM     55  C   UNL     1      16.054   2.807   3.439  1.00  0.00     0.049 A 
ATOM     56  C   UNL     1      14.800   0.444   8.381  1.00  0.00     0.074 A 
ATOM     57  C   UNL     1      17.380   3.136   3.229  1.00  0.00     0.029 A 
ATOM     58  N   UNL     1      15.976   2.227   4.697  1.00  0.00    -0.354 N 
ATOM     59  N   UNL     1      15.237   1.016   7.283  1.00  0.00    -0.248 NA
ATOM     60  C   UNL     1      15.864   0.082   9.327  1.00  0.00     0.031 C 
ATOM     61  C   UNL     1      18.116   2.694   4.331  1.00  0.00     0.029 A 
ATOM     62  C   UNL     1      17.239   2.158   5.260  1.00  0.00     0.049 A 
ATOM     63  H   UNL     1      15.148   1.911   5.124  1.00  0.00     0.167 HD
ATOM     64  C   UNL     1      16.615   1.117   7.426  1.00  0.00     0.074 A 
ATOM     65  C   UNL     1      16.940   0.562   8.722  1.00  0.00     0.031 C 
ATOM     66  C   UNL     1      17.533   1.620   6.563  1.00  0.00     0.037 A 
BRANCH  53  67
ATOM     67  C   UNL     1      15.194   3.572   1.198  1.00  0.00     0.064 A 
ATOM     68  C   UNL     1      14.790   4.870   0.850  1.00  0.00     0.173 A 
ATOM     69  C   UNL     1      15.921   2.835   0.251  1.00  0.00     0.173 A 
ATOM     70  F   UNL     1      14.076   5.609   1.712  1.00  0.00    -0.203 F 
ATOM     71  C   UNL     1      15.099   5.404  -0.399  1.00  0.00     0.198 A 
ATOM     72  C   UNL     1      16.254   3.383  -0.984  1.00  0.00     0.198 A 
ATOM     73  F   UNL     1      16.328   1.588   0.533  1.00  0.00    -0.203 F 
ATOM     74  F   UNL     1      14.677   6.634  -0.722  1.00  0.00    -0.200 F 
ATOM     75  C   UNL     1      15.841   4.666  -1.309  1.00  0.00     0.200 A 
ATOM     76  F   UNL     1      16.982   2.672  -1.856  1.00  0.00    -0.200 F 
ATOM     77  F   UNL     1      16.157   5.191  -2.501  1.00  0.00    -0.200 F 
ENDBRANCH  53  67
BRANCH  54  78
ATOM     78  C   UNL     1      13.107  -0.540  10.097  1.00  0.00     0.064 A 
ATOM     79  C   UNL     1      13.396   0.095  11.313  1.00  0.00     0.173 A 
ATOM     80  C   UNL     1      12.602  -1.849  10.153  1.00  0.00     0.173 A 
ATOM     81  F   UNL     1      13.900   1.339  11.315  1.00  0.00    -0.203 F 
ATOM     82  C   UNL     1      13.234  -0.566  12.529  1.00  0.00     0.198 A 
ATOM     83  C   UNL     1      12.404  -2.495  11.372  1.00  0.00     0.198 A 
ATOM     84  F   UNL     1      12.305  -2.505   9.022  1.00  0.00    -0.203 F 
ATOM     85  F   UNL     1      13.589   0.040  13.670  1.00  0.00    -0.200 F 
ATOM     86  C   UNL     1      12.735  -1.859  12.558  1.00  0.00     0.200 A 
ATOM     87  F   UNL     1      11.906  -3.738  11.395  1.00  0.00    -0.200 F 
ATOM     88  F   UNL     1      12.586  -2.497  13.727  1.00  0.00    -0.200 F 
ENDBRANCH  54  78
BRANCH  66  89
ATOM     89  C   UNL     1      18.965   1.649   7.016  1.00  0.00     0.064 A 
ATOM     90  C   UNL     1      19.722   0.477   7.159  1.00  0.00     0.173 A 
ATOM     91  C   UNL     1      19.601   2.876   7.266  1.00  0.00     0.173 A 
ATOM     92  F   UNL     1      19.158  -0.721   6.943  1.00  0.00    -0.203 F 
ATOM     93  C   UNL     1      21.052   0.530   7.567  1.00  0.00     0.198 A 
ATOM     94  C   UNL     1      20.941   2.927   7.636  1.00  0.00     0.198 A 
ATOM     95  F   UNL     1      18.926   4.028   7.133  1.00  0.00    -0.203 F 
ATOM     96  F   UNL     1      21.739  -0.605   7.753  1.00  0.00    -0.200 F 
ATOM     97  C   UNL     1      21.663   1.754   7.796  1.00  0.00     0.200 A 
ATOM     98  F   UNL     1      21.534   4.112   7.836  1.00  0.00    -0.200 F 
ATOM     99  F   UNL     1      22.946   1.803   8.179  1.00  0.00    -0.200 F 
ENDBRANCH  66  89
ENDBRANCH  40  41
ENDBRANCH  33  35
ENDBRANCH  32  33
ENDBRANCH  31  32
ENDBRANCH  30  31
ENDBRANCH  29  30
ENDBRANCH  28  29
ENDBRANCH  27  28
ENDBRANCH  26  27
ENDBRANCH   1  26
TORSDOF 26
