REMARK SMILES COc1ccc(-c2ccc(CCC(=O)OCCOCCOCCOCCOC(=O)c3ccc(-c4c5nc(c(-c6c(F)c(F)c(F)c(F)c6F)c6ccc([nH]6)c(-c6c(F)c(F)c(F)c(F)c6F)c6nc(c(-c7c(F)c(F)c(F)c(F)c7F)c7ccc4[nH]7)C=C6)C=C5)cc3)n2-c2ccc(C(C)=O)cc2)cc1
REMARK SMILES IDX 20 1 19 2 18 3 17 4 16 5 15 6 13 7 14 8 12 9 11 10 10 11
REMARK SMILES IDX 7 12 8 13 93 14 9 15 6 16 3 17 4 18 104 19 5 20 103 21 2 22
REMARK SMILES IDX 1 23 94 24 95 25 102 26 96 27 101 28 97 29 98 30 99 31
REMARK SMILES IDX 100 32 21 33 22 34 23 35 24 36 25 37 26 38 27 39 28 40 29 41
REMARK SMILES IDX 30 42 31 43 92 44 32 45 91 46 33 47 34 48 35 49 85 50 36 51
REMARK SMILES IDX 90 52 84 53 86 54 37 55 89 56 83 57 82 58 38 60 70 61 50 62
REMARK SMILES IDX 69 63 51 64 54 65 68 66 87 67 52 68 53 69 67 71 88 72 55 73
REMARK SMILES IDX 39 74 40 75 48 76 41 77 42 78 46 79 49 80 43 81 44 82 47 83
REMARK SMILES IDX 45 84 71 85 72 86 80 87 73 88 74 89 78 90 81 91 75 92 76 93
REMARK SMILES IDX 79 94 77 95 56 96 57 97 65 98 58 99 59 100 63 101 66 102
REMARK SMILES IDX 60 103 61 104 64 105 62 106
REMARK H PARENT 86 59 54 70
REMARK Flexibility Score: inf
ROOT
ATOM      1  C   UNL     1       2.997   9.971   5.601  1.00  0.00     0.188 C 
ENDROOT
BRANCH   1   2
ATOM      2  C   UNL     1       4.239  10.633   6.210  1.00  0.00     0.188 C 
BRANCH   2   3
ATOM      3  O   UNL     1       5.379  10.435   5.382  1.00  0.00    -0.376 OA
BRANCH   3   4
ATOM      4  C   UNL     1       6.460   9.716   5.939  1.00  0.00     0.202 C 
BRANCH   4   5
ATOM      5  C   UNL     1       6.287   8.195   5.990  1.00  0.00     0.261 C 
BRANCH   5   6
ATOM      6  O   UNL     1       4.962   7.719   6.275  1.00  0.00    -0.463 OA
BRANCH   6   7
ATOM      7  C   UNL     1       4.627   7.396   7.535  1.00  0.00     0.306 C 
ATOM      8  O   UNL     1       5.331   7.647   8.507  1.00  0.00    -0.252 OA
BRANCH   7   9
ATOM      9  C   UNL     1       3.347   6.578   7.633  1.00  0.00     0.129 C 
BRANCH   9  10
ATOM     10  C   UNL     1       2.167   6.736   6.662  1.00  0.00     0.066 C 
BRANCH  10  11
ATOM     11  C   UNL     1       2.337   6.230   5.241  1.00  0.00     0.024 A 
ATOM     12  C   UNL     1       2.030   4.903   3.419  1.00  0.00     0.053 A 
ATOM     13  C   UNL     1       3.050   5.787   3.133  1.00  0.00     0.029 A 
ATOM     14  N   UNL     1       1.516   5.256   4.663  1.00  0.00    -0.314 N 
ATOM     15  C   UNL     1       3.217   6.622   4.246  1.00  0.00     0.024 A 
BRANCH  12  16
ATOM     16  C   UNL     1       1.534   3.857   2.530  1.00  0.00    -0.001 A 
ATOM     17  C   UNL     1       0.712   1.873   0.725  1.00  0.00     0.118 A 
ATOM     18  C   UNL     1      -0.163   2.896   1.099  1.00  0.00     0.047 A 
ATOM     19  C   UNL     1       2.011   1.861   1.230  1.00  0.00     0.047 A 
ATOM     20  C   UNL     1       0.242   3.884   2.001  1.00  0.00     0.014 A 
ATOM     21  C   UNL     1       2.418   2.849   2.127  1.00  0.00     0.014 A 
BRANCH  17  22
ATOM     22  O   UNL     1       0.208   0.963  -0.163  1.00  0.00    -0.497 OA
ATOM     23  C   UNL     1       0.835  -0.316  -0.147  1.00  0.00     0.278 C 
ENDBRANCH  17  22
ENDBRANCH  12  16
BRANCH  14  24
ATOM     24  C   UNL     1       0.357   4.718   5.265  1.00  0.00     0.046 A 
ATOM     25  C   UNL     1      -0.715   5.567   5.561  1.00  0.00     0.027 A 
ATOM     26  C   UNL     1       0.329   3.373   5.621  1.00  0.00     0.027 A 
ATOM     27  C   UNL     1      -1.824   5.067   6.248  1.00  0.00     0.014 A 
ATOM     28  C   UNL     1      -0.769   2.889   6.333  1.00  0.00     0.014 A 
ATOM     29  C   UNL     1      -1.850   3.728   6.660  1.00  0.00     0.017 A 
BRANCH  29  30
ATOM     30  C   UNL     1      -2.961   3.136   7.469  1.00  0.00     0.159 C 
ATOM     31  C   UNL     1      -4.235   3.898   7.727  1.00  0.00     0.093 C 
ATOM     32  O   UNL     1      -2.829   1.997   7.921  1.00  0.00    -0.295 OA
ENDBRANCH  29  30
ENDBRANCH  14  24
ENDBRANCH  10  11
ENDBRANCH   9  10
ENDBRANCH   7   9
ENDBRANCH   6   7
ENDBRANCH   5   6
ENDBRANCH   4   5
ENDBRANCH   3   4
ENDBRANCH   2   3
ENDBRANCH   1   2
BRANCH   1  33
ATOM     33  O   UNL     1       2.628  10.155   4.241  1.00  0.00    -0.377 OA
BRANCH  33  34
ATOM     34  C   UNL     1       3.671  10.255   3.283  1.00  0.00     0.188 C 
BRANCH  34  35
ATOM     35  C   UNL     1       4.161  11.701   3.116  1.00  0.00     0.188 C 
BRANCH  35  36
ATOM     36  O   UNL     1       3.758  12.578   4.157  1.00  0.00    -0.376 OA
BRANCH  36  37
ATOM     37  C   UNL     1       2.450  13.134   4.229  1.00  0.00     0.202 C 
BRANCH  37  38
ATOM     38  C   UNL     1       1.170  12.440   3.729  1.00  0.00     0.261 C 
BRANCH  38  39
ATOM     39  O   UNL     1       1.241  11.758   2.486  1.00  0.00    -0.460 OA
BRANCH  39  40
ATOM     40  C   UNL     1       1.647  12.493   1.459  1.00  0.00     0.338 C 
ATOM     41  O   UNL     1       2.075  13.659   1.467  1.00  0.00    -0.246 OA
BRANCH  40  42
ATOM     42  C   UNL     1       1.462  11.746   0.237  1.00  0.00     0.060 A 
ATOM     43  C   UNL     1       2.393  11.945  -0.784  1.00  0.00     0.016 A 
ATOM     44  C   UNL     1       0.200  11.175   0.025  1.00  0.00     0.016 A 
ATOM     45  C   UNL     1       1.977  11.750  -2.077  1.00  0.00     0.010 A 
ATOM     46  C   UNL     1      -0.229  11.023  -1.271  1.00  0.00     0.010 A 
ATOM     47  C   UNL     1       0.645  11.377  -2.304  1.00  0.00    -0.014 A 
BRANCH  47  48
ATOM     48  C   UNL     1       0.199  11.327  -3.694  1.00  0.00     0.031 A 
ATOM     49  C   UNL     1       0.507   9.970  -4.308  1.00  0.00     0.074 A 
ATOM     50  C   UNL     1      -0.313  12.498  -4.182  1.00  0.00     0.049 A 
ATOM     51  N   UNL     1       0.767   9.664  -5.538  1.00  0.00    -0.248 NA
ATOM     52  C   UNL     1       0.624   8.782  -3.414  1.00  0.00     0.031 C 
ATOM     53  C   UNL     1      -0.546  13.719  -3.375  1.00  0.00     0.029 A 
ATOM     54  N   UNL     1      -0.721  12.917  -5.430  1.00  0.00    -0.354 N 
ATOM     55  C   UNL     1       0.850   8.261  -5.600  1.00  0.00     0.074 A 
ATOM     56  C   UNL     1       0.904   7.786  -4.253  1.00  0.00     0.031 C 
ATOM     57  C   UNL     1      -0.970  14.739  -4.152  1.00  0.00     0.029 A 
ATOM     58  C   UNL     1      -1.071  14.292  -5.526  1.00  0.00     0.049 A 
ATOM     59  H   UNL     1      -0.768  12.307  -6.201  1.00  0.00     0.167 HD
ATOM     60  C   UNL     1       0.687   7.566  -6.760  1.00  0.00     0.037 A 
ATOM     61  C   UNL     1      -1.384  15.021  -6.643  1.00  0.00     0.037 A 
ATOM     62  C   UNL     1       0.526   8.462  -7.855  1.00  0.00     0.049 A 
ATOM     63  C   UNL     1      -1.463  14.031  -7.725  1.00  0.00     0.074 A 
ATOM     64  C   UNL     1       1.400   9.315  -8.477  1.00  0.00     0.029 A 
ATOM     65  N   UNL     1      -0.760   8.825  -8.174  1.00  0.00    -0.354 N 
ATOM     66  N   UNL     1      -2.428  13.174  -7.860  1.00  0.00    -0.248 NA
ATOM     67  C   UNL     1      -0.361  13.940  -8.689  1.00  0.00     0.031 C 
ATOM     68  C   UNL     1       0.605  10.436  -8.792  1.00  0.00     0.029 A 
ATOM     69  C   UNL     1      -0.740  10.152  -8.525  1.00  0.00     0.049 A 
ATOM     70  H   UNL     1      -1.552   8.240  -8.155  1.00  0.00     0.167 HD
ATOM     71  C   UNL     1      -1.871  12.239  -8.697  1.00  0.00     0.074 A 
ATOM     72  C   UNL     1      -0.793  12.901  -9.400  1.00  0.00     0.031 C 
ATOM     73  C   UNL     1      -1.947  10.928  -8.355  1.00  0.00     0.037 A 
BRANCH  60  74
ATOM     74  C   UNL     1       0.390   6.118  -6.992  1.00  0.00     0.064 A 
ATOM     75  C   UNL     1       0.645   5.586  -8.277  1.00  0.00     0.173 A 
ATOM     76  C   UNL     1      -0.433   5.356  -6.152  1.00  0.00     0.173 A 
ATOM     77  F   UNL     1       1.442   6.235  -9.142  1.00  0.00    -0.203 F 
ATOM     78  C   UNL     1       0.017   4.430  -8.732  1.00  0.00     0.198 A 
ATOM     79  C   UNL     1      -1.021   4.170  -6.595  1.00  0.00     0.198 A 
ATOM     80  F   UNL     1      -0.777   5.790  -4.933  1.00  0.00    -0.203 F 
ATOM     81  F   UNL     1       0.179   4.038 -10.003  1.00  0.00    -0.200 F 
ATOM     82  C   UNL     1      -0.828   3.730  -7.894  1.00  0.00     0.200 A 
ATOM     83  F   UNL     1      -1.844   3.495  -5.780  1.00  0.00    -0.200 F 
ATOM     84  F   UNL     1      -1.489   2.656  -8.347  1.00  0.00    -0.200 F 
ENDBRANCH  60  74
BRANCH  61  85
ATOM     85  C   UNL     1      -1.605  16.461  -7.059  1.00  0.00     0.064 A 
ATOM     86  C   UNL     1      -1.534  17.586  -6.230  1.00  0.00     0.173 A 
ATOM     87  C   UNL     1      -1.800  16.771  -8.440  1.00  0.00     0.173 A 
ATOM     88  F   UNL     1      -1.449  17.465  -4.902  1.00  0.00    -0.203 F 
ATOM     89  C   UNL     1      -1.545  18.897  -6.747  1.00  0.00     0.198 A 
ATOM     90  C   UNL     1      -1.753  18.064  -8.958  1.00  0.00     0.198 A 
ATOM     91  F   UNL     1      -2.029  15.816  -9.352  1.00  0.00    -0.203 F 
ATOM     92  F   UNL     1      -1.467  19.941  -5.911  1.00  0.00    -0.200 F 
ATOM     93  C   UNL     1      -1.610  19.133  -8.110  1.00  0.00     0.200 A 
ATOM     94  F   UNL     1      -1.821  18.251 -10.285  1.00  0.00    -0.200 F 
ATOM     95  F   UNL     1      -1.542  20.377  -8.601  1.00  0.00    -0.200 F 
ENDBRANCH  61  85
BRANCH  73  96
ATOM     96  C   UNL     1      -3.119  10.612  -7.436  1.00  0.00     0.064 A 
ATOM     97  C   UNL     1      -4.433  10.899  -7.846  1.00  0.00     0.173 A 
ATOM     98  C   UNL     1      -2.978  10.184  -6.106  1.00  0.00     0.173 A 
ATOM     99  F   UNL     1      -4.669  11.284  -9.109  1.00  0.00    -0.203 F 
ATOM    100  C   UNL     1      -5.517  10.808  -6.966  1.00  0.00     0.198 A 
ATOM    101  C   UNL     1      -4.056  10.092  -5.224  1.00  0.00     0.198 A 
ATOM    102  F   UNL     1      -1.786   9.837  -5.631  1.00  0.00    -0.203 F 
ATOM    103  F   UNL     1      -6.751  11.106  -7.396  1.00  0.00    -0.200 F 
ATOM    104  C   UNL     1      -5.327  10.415  -5.652  1.00  0.00     0.200 A 
ATOM    105  F   UNL     1      -3.856   9.686  -3.960  1.00  0.00    -0.200 F 
ATOM    106  F   UNL     1      -6.366  10.327  -4.810  1.00  0.00    -0.200 F 
ENDBRANCH  73  96
ENDBRANCH  47  48
ENDBRANCH  40  42
ENDBRANCH  39  40
ENDBRANCH  38  39
ENDBRANCH  37  38
ENDBRANCH  36  37
ENDBRANCH  35  36
ENDBRANCH  34  35
ENDBRANCH  33  34
ENDBRANCH   1  33
TORSDOF 26
