REMARK SMILES Cc1cc(C)c(NC(=O)C[C@H](C(=O)OCCOCCOCCOCCOC(=O)c2ccc(-c3c4nc(c(-c5c(F)c(F)c(F)c(F)c5F)c5ccc([nH]5)c(-c5c(F)c(F)c(F)c(F)c5F)c5nc(c(-c6c(F)c(F)c(F)c(F)c6F)c6ccc3[nH]6)C=C5)C=C4)cc2)[NH+]2CC[NH+](C)CC2)c(C)c1
REMARK SMILES IDX 19 1 18 2 17 3 16 4 15 5 14 6 12 7 13 8 11 9 10 10 8 11 7 12
REMARK SMILES IDX 9 14 6 15 1 16 2 17 3 18 101 19 4 20 99 21 5 22 100 23 92 24
REMARK SMILES IDX 93 25 98 26 94 28 97 29 95 30 96 31 20 33 21 34 22 35 23 36
REMARK SMILES IDX 24 37 25 38 26 39 27 40 28 41 29 42 30 43 91 44 31 45 90 46
REMARK SMILES IDX 32 47 33 48 34 49 84 50 35 51 89 52 83 53 85 54 36 55 88 56
REMARK SMILES IDX 82 57 81 58 37 60 69 61 49 62 68 63 50 64 53 65 67 66 86 67
REMARK SMILES IDX 51 68 52 69 66 71 87 72 54 73 38 74 39 75 47 76 40 77 41 78
REMARK SMILES IDX 45 79 48 80 42 81 43 82 46 83 44 84 70 85 71 86 79 87 72 88
REMARK SMILES IDX 73 89 77 90 80 91 74 92 75 93 78 94 76 95 55 96 56 97 64 98
REMARK SMILES IDX 57 99 58 100 62 101 65 102 59 103 60 104 63 105 61 106
REMARK H PARENT 7 13 92 27 95 32 85 59 53 70
REMARK Flexibility Score: inf
ROOT
ATOM      1  C   UNL     1      -4.487  -2.019   1.088  1.00  0.00     0.188 C 
ENDROOT
BRANCH   1   2
ATOM      2  C   UNL     1      -5.582  -1.319   0.252  1.00  0.00     0.188 C 
BRANCH   2   3
ATOM      3  O   UNL     1      -5.652  -1.781  -1.090  1.00  0.00    -0.376 OA
BRANCH   3   4
ATOM      4  C   UNL     1      -5.088  -0.992  -2.124  1.00  0.00     0.202 C 
BRANCH   4   5
ATOM      5  C   UNL     1      -3.624  -0.539  -2.019  1.00  0.00     0.261 C 
BRANCH   5   6
ATOM      6  O   UNL     1      -3.223  -0.096  -0.717  1.00  0.00    -0.459 OA
BRANCH   6   7
ATOM      7  C   UNL     1      -3.616   1.154  -0.343  1.00  0.00     0.365 C 
ATOM      8  O   UNL     1      -4.242   1.883  -1.101  1.00  0.00    -0.245 OA
BRANCH   7   9
ATOM      9  C   UNL     1      -3.326   1.371   1.189  1.00  0.00     0.304 C 
BRANCH   9  10
ATOM     10  C   UNL     1      -1.888   0.890   1.536  1.00  0.00     0.177 C 
BRANCH  10  11
ATOM     11  C   UNL     1      -0.773   1.782   2.062  1.00  0.00     0.231 C 
ATOM     12  N   UNL     1      -0.376   2.964   1.518  1.00  0.00    -0.325 N 
ATOM     13  H   UNL     1       0.403   3.384   1.950  1.00  0.00     0.169 HD
ATOM     14  O   UNL     1      -0.161   1.418   3.078  1.00  0.00    -0.274 OA
BRANCH  12  15
ATOM     15  C   UNL     1      -0.910   3.671   0.435  1.00  0.00     0.047 A 
ATOM     16  C   UNL     1      -3.752   5.472  -2.187  1.00  0.00     0.044 C 
ATOM     17  C   UNL     1      -2.609   4.943  -1.374  1.00  0.00    -0.050 A 
ATOM     18  C   UNL     1      -2.032   3.710  -1.692  1.00  0.00     0.009 A 
ATOM     19  C   UNL     1      -2.156   5.625  -0.244  1.00  0.00     0.009 A 
ATOM     20  C   UNL     1      -1.146   3.077  -0.809  1.00  0.00    -0.027 A 
ATOM     21  C   UNL     1      -1.254   5.021   0.643  1.00  0.00    -0.027 A 
ATOM     22  C   UNL     1      -0.426   1.842  -1.270  1.00  0.00     0.046 C 
ATOM     23  C   UNL     1      -0.737   5.812   1.814  1.00  0.00     0.046 C 
ENDBRANCH  12  15
ENDBRANCH  10  11
ENDBRANCH   9  10
BRANCH   9  24
ATOM     24  N   UNL     1      -3.834   2.672   1.661  1.00  0.00    -0.313 N 
ATOM     25  C   UNL     1      -3.613   2.987   3.080  1.00  0.00     0.325 C 
ATOM     26  C   UNL     1      -5.289   2.868   1.437  1.00  0.00     0.325 C 
ATOM     27  H   UNL     1      -3.269   3.297   1.085  1.00  0.00     0.349 HD
ATOM     28  C   UNL     1      -3.922   4.489   3.306  1.00  0.00     0.324 C 
ATOM     29  C   UNL     1      -5.612   4.369   1.565  1.00  0.00     0.324 C 
ATOM     30  N   UNL     1      -5.244   4.973   2.860  1.00  0.00    -0.328 N 
ATOM     31  C   UNL     1      -6.265   4.761   3.872  1.00  0.00     0.333 C 
ATOM     32  H   UNL     1      -5.178   5.982   2.722  1.00  0.00     0.348 HD
ENDBRANCH   9  24
ENDBRANCH   7   9
ENDBRANCH   6   7
ENDBRANCH   5   6
ENDBRANCH   4   5
ENDBRANCH   3   4
ENDBRANCH   2   3
ENDBRANCH   1   2
BRANCH   1  33
ATOM     33  O   UNL     1      -3.461  -2.671   0.362  1.00  0.00    -0.377 OA
BRANCH  33  34
ATOM     34  C   UNL     1      -3.794  -3.794  -0.449  1.00  0.00     0.188 C 
BRANCH  34  35
ATOM     35  C   UNL     1      -5.210  -4.426  -0.481  1.00  0.00     0.188 C 
BRANCH  35  36
ATOM     36  O   UNL     1      -6.065  -4.075   0.593  1.00  0.00    -0.376 OA
BRANCH  36  37
ATOM     37  C   UNL     1      -6.333  -5.042   1.591  1.00  0.00     0.202 C 
BRANCH  37  38
ATOM     38  C   UNL     1      -5.154  -5.463   2.478  1.00  0.00     0.261 C 
BRANCH  38  39
ATOM     39  O   UNL     1      -3.984  -5.911   1.782  1.00  0.00    -0.460 OA
BRANCH  39  40
ATOM     40  C   UNL     1      -4.097  -7.044   1.056  1.00  0.00     0.338 C 
ATOM     41  O   UNL     1      -5.084  -7.747   0.927  1.00  0.00    -0.246 OA
BRANCH  40  42
ATOM     42  C   UNL     1      -2.854  -7.189   0.277  1.00  0.00     0.060 A 
ATOM     43  C   UNL     1      -2.917  -7.187  -1.124  1.00  0.00     0.016 A 
ATOM     44  C   UNL     1      -1.627  -7.290   0.936  1.00  0.00     0.016 A 
ATOM     45  C   UNL     1      -1.749  -7.313  -1.874  1.00  0.00     0.010 A 
ATOM     46  C   UNL     1      -0.464  -7.451   0.186  1.00  0.00     0.010 A 
ATOM     47  C   UNL     1      -0.526  -7.497  -1.218  1.00  0.00    -0.014 A 
BRANCH  47  48
ATOM     48  C   UNL     1       0.648  -7.995  -1.968  1.00  0.00     0.031 A 
ATOM     49  C   UNL     1       0.889  -9.477  -1.971  1.00  0.00     0.074 A 
ATOM     50  C   UNL     1       1.495  -7.162  -2.593  1.00  0.00     0.049 A 
ATOM     51  N   UNL     1       1.912 -10.155  -2.418  1.00  0.00    -0.248 NA
ATOM     52  C   UNL     1      -0.169 -10.304  -1.369  1.00  0.00     0.031 C 
ATOM     53  C   UNL     1       1.338  -5.714  -2.692  1.00  0.00     0.029 A 
ATOM     54  N   UNL     1       2.679  -7.423  -3.236  1.00  0.00    -0.354 N 
ATOM     55  C   UNL     1       1.633 -11.484  -2.127  1.00  0.00     0.074 A 
ATOM     56  C   UNL     1       0.356 -11.515  -1.450  1.00  0.00     0.031 C 
ATOM     57  C   UNL     1       2.409  -5.206  -3.326  1.00  0.00     0.029 A 
ATOM     58  C   UNL     1       3.342  -6.290  -3.636  1.00  0.00     0.049 A 
ATOM     59  H   UNL     1       3.019  -8.333  -3.396  1.00  0.00     0.167 HD
ATOM     60  C   UNL     1       2.381 -12.578  -2.397  1.00  0.00     0.037 A 
ATOM     61  C   UNL     1       4.580  -6.147  -4.149  1.00  0.00     0.037 A 
ATOM     62  C   UNL     1       3.652 -12.532  -3.067  1.00  0.00     0.049 A 
ATOM     63  C   UNL     1       5.428  -7.372  -4.386  1.00  0.00     0.074 A 
ATOM     64  C   UNL     1       4.474 -13.583  -3.428  1.00  0.00     0.029 A 
ATOM     65  N   UNL     1       4.294 -11.365  -3.458  1.00  0.00    -0.354 N 
ATOM     66  N   UNL     1       5.150  -8.631  -4.145  1.00  0.00    -0.248 NA
ATOM     67  C   UNL     1       6.762  -7.158  -4.966  1.00  0.00     0.031 C 
ATOM     68  C   UNL     1       5.646 -13.049  -3.972  1.00  0.00     0.029 A 
ATOM     69  C   UNL     1       5.522 -11.668  -4.021  1.00  0.00     0.049 A 
ATOM     70  H   UNL     1       3.930 -10.456  -3.350  1.00  0.00     0.167 HD
ATOM     71  C   UNL     1       6.255  -9.359  -4.569  1.00  0.00     0.074 A 
ATOM     72  C   UNL     1       7.210  -8.401  -5.086  1.00  0.00     0.031 C 
ATOM     73  C   UNL     1       6.456 -10.700  -4.540  1.00  0.00     0.037 A 
BRANCH  60  74
ATOM     74  C   UNL     1       1.867 -13.902  -1.912  1.00  0.00     0.064 A 
ATOM     75  C   UNL     1       0.718 -14.500  -2.451  1.00  0.00     0.173 A 
ATOM     76  C   UNL     1       2.537 -14.581  -0.883  1.00  0.00     0.173 A 
ATOM     77  F   UNL     1       0.029 -13.886  -3.424  1.00  0.00    -0.203 F 
ATOM     78  C   UNL     1       0.236 -15.707  -1.949  1.00  0.00     0.198 A 
ATOM     79  C   UNL     1       2.074 -15.805  -0.410  1.00  0.00     0.198 A 
ATOM     80  F   UNL     1       3.642 -14.056  -0.332  1.00  0.00    -0.203 F 
ATOM     81  F   UNL     1      -0.902 -16.225  -2.433  1.00  0.00    -0.200 F 
ATOM     82  C   UNL     1       0.918 -16.361  -0.934  1.00  0.00     0.200 A 
ATOM     83  F   UNL     1       2.742 -16.442   0.562  1.00  0.00    -0.200 F 
ATOM     84  F   UNL     1       0.453 -17.522  -0.453  1.00  0.00    -0.200 F 
ENDBRANCH  60  74
BRANCH  61  85
ATOM     85  C   UNL     1       5.098  -4.785  -4.440  1.00  0.00     0.064 A 
ATOM     86  C   UNL     1       5.301  -4.350  -5.756  1.00  0.00     0.173 A 
ATOM     87  C   UNL     1       5.384  -3.882  -3.404  1.00  0.00     0.173 A 
ATOM     88  F   UNL     1       5.067  -5.183  -6.780  1.00  0.00    -0.203 F 
ATOM     89  C   UNL     1       5.775  -3.066  -6.025  1.00  0.00     0.198 A 
ATOM     90  C   UNL     1       5.830  -2.591  -3.674  1.00  0.00     0.198 A 
ATOM     91  F   UNL     1       5.210  -4.250  -2.126  1.00  0.00    -0.203 F 
ATOM     92  F   UNL     1       5.992  -2.687  -7.291  1.00  0.00    -0.200 F 
ATOM     93  C   UNL     1       6.029  -2.185  -4.985  1.00  0.00     0.200 A 
ATOM     94  F   UNL     1       6.061  -1.738  -2.666  1.00  0.00    -0.200 F 
ATOM     95  F   UNL     1       6.470  -0.947  -5.245  1.00  0.00    -0.200 F 
ENDBRANCH  61  85
BRANCH  73  96
ATOM     96  C   UNL     1       7.735 -11.232  -5.123  1.00  0.00     0.064 A 
ATOM     97  C   UNL     1       8.966 -11.079  -4.471  1.00  0.00     0.173 A 
ATOM     98  C   UNL     1       7.706 -11.990  -6.305  1.00  0.00     0.173 A 
ATOM     99  F   UNL     1       9.050 -10.355  -3.345  1.00  0.00    -0.203 F 
ATOM    100  C   UNL     1      10.124 -11.658  -4.986  1.00  0.00     0.198 A 
ATOM    101  C   UNL     1       8.859 -12.593  -6.799  1.00  0.00     0.198 A 
ATOM    102  F   UNL     1       6.551 -12.173  -6.963  1.00  0.00    -0.203 F 
ATOM    103  F   UNL     1      11.297 -11.475  -4.364  1.00  0.00    -0.200 F 
ATOM    104  C   UNL     1      10.067 -12.424  -6.142  1.00  0.00     0.200 A 
ATOM    105  F   UNL     1       8.796 -13.349  -7.904  1.00  0.00    -0.200 F 
ATOM    106  F   UNL     1      11.178 -13.001  -6.622  1.00  0.00    -0.200 F 
ENDBRANCH  73  96
ENDBRANCH  47  48
ENDBRANCH  40  42
ENDBRANCH  39  40
ENDBRANCH  38  39
ENDBRANCH  37  38
ENDBRANCH  36  37
ENDBRANCH  35  36
ENDBRANCH  34  35
ENDBRANCH  33  34
ENDBRANCH   1  33
TORSDOF 24
