REMARK SMILES Cc1ccc2c(c1)c(-c1ccnc3c(C)cccc13)c(C)n2CC(=O)OCCOCCOCCOCCOC(=O)c1ccc(-c2c3nc(c(-c4c(F)c(F)c(F)c(F)c4F)c4ccc([nH]4)c(-c4c(F)c(F)c(F)c(F)c4F)c4nc(c(-c5c(F)c(F)c(F)c(F)c5F)c5ccc2[nH]5)C=C4)C=C3)cc1
REMARK SMILES IDX 32 1 31 2 30 3 29 4 28 5 27 6 26 7 24 8 25 9 23 10 22 11
REMARK SMILES IDX 1 12 2 13 3 14 7 15 4 16 6 17 5 18 8 19 20 20 21 21 9 22
REMARK SMILES IDX 10 23 19 24 11 25 13 26 18 27 12 28 14 29 17 30 15 31 16 32
REMARK SMILES IDX 33 33 34 34 35 35 36 36 37 37 38 38 39 39 40 40 41 41 42 42
REMARK SMILES IDX 103 43 43 44 102 45 44 46 45 47 46 48 96 49 47 50 101 51
REMARK SMILES IDX 95 52 97 53 48 54 100 55 94 56 93 57 49 59 81 60 61 61 80 62
REMARK SMILES IDX 62 63 65 64 79 65 98 66 63 67 64 68 78 70 99 71 66 72 50 73
REMARK SMILES IDX 51 74 59 75 52 76 53 77 57 78 60 79 54 80 55 81 58 82 56 83
REMARK SMILES IDX 82 84 83 85 91 86 84 87 85 88 89 89 92 90 86 91 87 92 90 93
REMARK SMILES IDX 88 94 67 95 68 96 76 97 69 98 70 99 74 100 77 101 71 102
REMARK SMILES IDX 72 103 75 104 73 105
REMARK H PARENT 97 58 65 69
REMARK Flexibility Score: inf
ROOT
ATOM      1  O   UNL     1      -2.591   5.578  -4.630  1.00  0.00    -0.377 OA
ENDROOT
BRANCH   1   2
ATOM      2  C   UNL     1      -1.722   5.809  -5.711  1.00  0.00     0.188 C 
BRANCH   2   3
ATOM      3  C   UNL     1      -2.357   5.757  -7.104  1.00  0.00     0.188 C 
BRANCH   3   4
ATOM      4  O   UNL     1      -3.765   5.633  -7.217  1.00  0.00    -0.376 OA
BRANCH   4   5
ATOM      5  C   UNL     1      -4.433   4.624  -6.456  1.00  0.00     0.202 C 
BRANCH   5   6
ATOM      6  C   UNL     1      -3.845   3.200  -6.446  1.00  0.00     0.261 C 
BRANCH   6   7
ATOM      7  O   UNL     1      -2.532   3.098  -5.837  1.00  0.00    -0.462 OA
BRANCH   7   8
ATOM      8  C   UNL     1      -1.682   2.195  -6.386  1.00  0.00     0.326 C 
ATOM      9  O   UNL     1      -2.007   1.428  -7.292  1.00  0.00    -0.250 OA
BRANCH   8  10
ATOM     10  C   UNL     1      -0.235   2.288  -5.949  1.00  0.00     0.244 C 
BRANCH  10  11
ATOM     11  N   UNL     1       0.095   2.736  -4.590  1.00  0.00    -0.333 N 
ATOM     12  C   UNL     1       0.717  -0.208   0.192  1.00  0.00     0.044 C 
ATOM     13  C   UNL     1       0.387   0.545  -1.063  1.00  0.00    -0.050 A 
ATOM     14  C   UNL     1      -0.234  -0.088  -2.142  1.00  0.00     0.005 A 
ATOM     15  C   UNL     1       0.771   1.888  -1.181  1.00  0.00     0.014 A 
ATOM     16  C   UNL     1      -0.443   0.575  -3.358  1.00  0.00     0.027 A 
ATOM     17  C   UNL     1       0.613   2.565  -2.409  1.00  0.00     0.008 A 
ATOM     18  C   UNL     1       0.030   1.892  -3.486  1.00  0.00     0.049 A 
ATOM     19  C   UNL     1       0.974   3.865  -2.861  1.00  0.00     0.011 A 
ATOM     20  C   UNL     1       0.845   3.862  -4.248  1.00  0.00     0.024 A 
ATOM     21  C   UNL     1       1.413   4.851  -5.218  1.00  0.00     0.065 C 
BRANCH  19  22
ATOM     22  C   UNL     1       1.562   4.974  -2.104  1.00  0.00    -0.005 A 
ATOM     23  C   UNL     1       2.892   5.314  -2.342  1.00  0.00     0.029 A 
ATOM     24  C   UNL     1       0.800   5.738  -1.178  1.00  0.00     0.008 A 
ATOM     25  C   UNL     1       3.391   6.446  -1.736  1.00  0.00     0.112 A 
ATOM     26  C   UNL     1       1.400   6.903  -0.634  1.00  0.00     0.074 A 
ATOM     27  C   UNL     1      -0.510   5.397  -0.771  1.00  0.00     0.011 A 
ATOM     28  N   UNL     1       2.665   7.251  -0.936  1.00  0.00    -0.256 NA
ATOM     29  C   UNL     1       0.654   7.711   0.239  1.00  0.00    -0.025 A 
ATOM     30  C   UNL     1      -1.199   6.160   0.164  1.00  0.00     0.001 A 
ATOM     31  C   UNL     1       1.179   9.043   0.715  1.00  0.00     0.047 C 
ATOM     32  C   UNL     1      -0.636   7.333   0.642  1.00  0.00     0.005 A 
ENDBRANCH  19  22
ENDBRANCH  10  11
ENDBRANCH   8  10
ENDBRANCH   7   8
ENDBRANCH   6   7
ENDBRANCH   5   6
ENDBRANCH   4   5
ENDBRANCH   3   4
ENDBRANCH   2   3
ENDBRANCH   1   2
BRANCH   1  33
ATOM     33  C   UNL     1      -2.991   6.685  -3.849  1.00  0.00     0.188 C 
BRANCH  33  34
ATOM     34  C   UNL     1      -3.077   8.050  -4.539  1.00  0.00     0.188 C 
BRANCH  34  35
ATOM     35  O   UNL     1      -1.834   8.706  -4.816  1.00  0.00    -0.376 OA
BRANCH  35  36
ATOM     36  C   UNL     1      -0.857   8.740  -3.767  1.00  0.00     0.202 C 
BRANCH  36  37
ATOM     37  C   UNL     1      -1.255   9.570  -2.544  1.00  0.00     0.261 C 
BRANCH  37  38
ATOM     38  O   UNL     1      -2.261   8.867  -1.805  1.00  0.00    -0.460 OA
BRANCH  38  39
ATOM     39  C   UNL     1      -3.118   9.642  -1.091  1.00  0.00     0.338 C 
ATOM     40  O   UNL     1      -2.959  10.777  -0.713  1.00  0.00    -0.246 OA
BRANCH  39  41
ATOM     41  C   UNL     1      -4.416   8.949  -1.221  1.00  0.00     0.060 A 
ATOM     42  C   UNL     1      -4.544   7.597  -0.895  1.00  0.00     0.016 A 
ATOM     43  C   UNL     1      -5.397   9.605  -1.969  1.00  0.00     0.016 A 
ATOM     44  C   UNL     1      -5.590   6.862  -1.436  1.00  0.00     0.010 A 
ATOM     45  C   UNL     1      -6.443   8.867  -2.510  1.00  0.00     0.010 A 
ATOM     46  C   UNL     1      -6.497   7.482  -2.305  1.00  0.00    -0.014 A 
BRANCH  46  47
ATOM     47  C   UNL     1      -7.531   6.649  -2.933  1.00  0.00     0.031 A 
ATOM     48  C   UNL     1      -8.510   6.006  -2.001  1.00  0.00     0.074 A 
ATOM     49  C   UNL     1      -7.737   6.612  -4.267  1.00  0.00     0.049 A 
ATOM     50  N   UNL     1      -9.002   4.805  -2.021  1.00  0.00    -0.248 NA
ATOM     51  C   UNL     1      -8.983   6.828  -0.874  1.00  0.00     0.031 C 
ATOM     52  C   UNL     1      -7.078   7.419  -5.297  1.00  0.00     0.029 A 
ATOM     53  N   UNL     1      -8.717   5.961  -4.965  1.00  0.00    -0.354 N 
ATOM     54  C   UNL     1      -9.938   4.759  -0.988  1.00  0.00     0.074 A 
ATOM     55  C   UNL     1      -9.829   6.001  -0.266  1.00  0.00     0.031 C 
ATOM     56  C   UNL     1      -7.848   7.426  -6.406  1.00  0.00     0.029 A 
ATOM     57  C   UNL     1      -8.990   6.552  -6.191  1.00  0.00     0.049 A 
ATOM     58  H   UNL     1      -9.181   5.158  -4.633  1.00  0.00     0.167 HD
ATOM     59  C   UNL     1     -10.869   3.776  -0.851  1.00  0.00     0.037 A 
ATOM     60  C   UNL     1     -10.142   6.458  -6.900  1.00  0.00     0.037 A 
ATOM     61  C   UNL     1     -10.537   2.574  -1.551  1.00  0.00     0.049 A 
ATOM     62  C   UNL     1     -10.903   5.281  -6.413  1.00  0.00     0.074 A 
ATOM     63  C   UNL     1      -9.480   1.685  -1.492  1.00  0.00     0.029 A 
ATOM     64  N   UNL     1     -11.217   2.246  -2.697  1.00  0.00    -0.354 N 
ATOM     65  N   UNL     1     -10.564   4.037  -6.605  1.00  0.00    -0.248 NA
ATOM     66  C   UNL     1     -11.869   5.507  -5.347  1.00  0.00     0.031 C 
ATOM     67  C   UNL     1      -9.288   1.249  -2.834  1.00  0.00     0.029 A 
ATOM     68  C   UNL     1     -10.254   1.890  -3.607  1.00  0.00     0.049 A 
ATOM     69  H   UNL     1     -12.191   2.262  -2.836  1.00  0.00     0.167 HD
ATOM     70  C   UNL     1     -10.940   3.385  -5.441  1.00  0.00     0.074 A 
ATOM     71  C   UNL     1     -11.822   4.317  -4.747  1.00  0.00     0.031 C 
ATOM     72  C   UNL     1     -10.292   2.266  -4.999  1.00  0.00     0.037 A 
BRANCH  59  73
ATOM     73  C   UNL     1     -12.218   4.021  -0.243  1.00  0.00     0.064 A 
ATOM     74  C   UNL     1     -12.975   2.962   0.286  1.00  0.00     0.173 A 
ATOM     75  C   UNL     1     -12.889   5.254  -0.390  1.00  0.00     0.173 A 
ATOM     76  F   UNL     1     -12.441   1.738   0.408  1.00  0.00    -0.203 F 
ATOM     77  C   UNL     1     -14.316   3.130   0.640  1.00  0.00     0.198 A 
ATOM     78  C   UNL     1     -14.210   5.431   0.012  1.00  0.00     0.198 A 
ATOM     79  F   UNL     1     -12.310   6.292  -1.011  1.00  0.00    -0.203 F 
ATOM     80  F   UNL     1     -15.030   2.078   1.064  1.00  0.00    -0.200 F 
ATOM     81  C   UNL     1     -14.930   4.365   0.510  1.00  0.00     0.200 A 
ATOM     82  F   UNL     1     -14.794   6.628  -0.146  1.00  0.00    -0.200 F 
ATOM     83  F   UNL     1     -16.224   4.518   0.820  1.00  0.00    -0.200 F 
ENDBRANCH  59  73
BRANCH  60  84
ATOM     84  C   UNL     1     -10.772   7.542  -7.696  1.00  0.00     0.064 A 
ATOM     85  C   UNL     1     -11.740   7.264  -8.672  1.00  0.00     0.173 A 
ATOM     86  C   UNL     1     -10.603   8.900  -7.355  1.00  0.00     0.173 A 
ATOM     87  F   UNL     1     -12.019   5.995  -9.003  1.00  0.00    -0.203 F 
ATOM     88  C   UNL     1     -12.479   8.285  -9.282  1.00  0.00     0.198 A 
ATOM     89  C   UNL     1     -11.323   9.918  -7.978  1.00  0.00     0.198 A 
ATOM     90  F   UNL     1      -9.801   9.265  -6.344  1.00  0.00    -0.203 F 
ATOM     91  F   UNL     1     -13.431   7.980 -10.175  1.00  0.00    -0.200 F 
ATOM     92  C   UNL     1     -12.267   9.611  -8.937  1.00  0.00     0.200 A 
ATOM     93  F   UNL     1     -11.135  11.191  -7.601  1.00  0.00    -0.200 F 
ATOM     94  F   UNL     1     -12.999  10.585  -9.495  1.00  0.00    -0.200 F 
ENDBRANCH  60  84
BRANCH  72  95
ATOM     95  C   UNL     1      -9.327   1.566  -5.913  1.00  0.00     0.064 A 
ATOM     96  C   UNL     1      -8.209   2.187  -6.495  1.00  0.00     0.173 A 
ATOM     97  C   UNL     1      -9.437   0.173  -6.061  1.00  0.00     0.173 A 
ATOM     98  F   UNL     1      -7.953   3.486  -6.294  1.00  0.00    -0.203 F 
ATOM     99  C   UNL     1      -7.282   1.456  -7.234  1.00  0.00     0.198 A 
ATOM    100  C   UNL     1      -8.477  -0.561  -6.754  1.00  0.00     0.198 A 
ATOM    101  F   UNL     1     -10.450  -0.488  -5.480  1.00  0.00    -0.203 F 
ATOM    102  F   UNL     1      -6.239   2.079  -7.800  1.00  0.00    -0.200 F 
ATOM    103  C   UNL     1      -7.407   0.082  -7.350  1.00  0.00     0.200 A 
ATOM    104  F   UNL     1      -8.574  -1.896  -6.815  1.00  0.00    -0.200 F 
ATOM    105  F   UNL     1      -6.477  -0.625  -8.007  1.00  0.00    -0.200 F 
ENDBRANCH  72  95
ENDBRANCH  46  47
ENDBRANCH  39  41
ENDBRANCH  38  39
ENDBRANCH  37  38
ENDBRANCH  36  37
ENDBRANCH  35  36
ENDBRANCH  34  35
ENDBRANCH  33  34
ENDBRANCH   1  33
TORSDOF 22
