REMARK SMILES Cc1ccc(S(=O)(=O)N2CCN(C(=O)[C@H]3CCCC[C@H]3C(=O)OCCOCCOCCOCCOC(=O)c3ccc(-c4c5nc(c(-c6c(F)c(F)c(F)c(F)c6F)c6ccc([nH]6)c(-c6c(F)c(F)c(F)c(F)c6F)c6nc(c(-c7c(F)c(F)c(F)c(F)c7F)c7ccc4[nH]7)C=C6)C=C5)cc3)CC2)cc1C
REMARK SMILES IDX 28 1 27 2 26 3 25 4 24 5 23 6 21 7 22 8 20 9 15 10 16 11
REMARK SMILES IDX 17 12 19 13 18 14 13 15 9 16 10 17 102 18 11 19 101 20 12 21
REMARK SMILES IDX 14 22 6 23 7 24 8 25 5 26 1 27 2 28 3 29 104 30 4 31 103 32
REMARK SMILES IDX 105 33 29 34 30 35 31 36 32 37 33 38 34 39 35 40 36 41 37 42
REMARK SMILES IDX 38 43 39 44 100 45 40 46 99 47 41 48 42 49 43 50 93 51 44 52
REMARK SMILES IDX 98 53 92 54 94 55 45 56 97 57 91 58 90 59 46 61 78 62 58 63
REMARK SMILES IDX 77 64 59 65 62 66 76 67 95 68 60 69 61 70 75 72 96 73 63 74
REMARK SMILES IDX 47 75 48 76 56 77 49 78 50 79 54 80 57 81 51 82 52 83 55 84
REMARK SMILES IDX 53 85 79 86 80 87 88 88 81 89 82 90 86 91 89 92 83 93 84 94
REMARK SMILES IDX 87 95 85 96 64 97 65 98 73 99 66 100 67 101 71 102 74 103
REMARK SMILES IDX 68 104 69 105 72 106 70 107
REMARK H PARENT 94 60 62 71
REMARK Flexibility Score: inf
ROOT
ATOM      1  C   UNL     1      -2.950   4.182   1.683  1.00  0.00     0.188 C 
ENDROOT
BRANCH   1   2
ATOM      2  C   UNL     1      -1.791   4.844   0.922  1.00  0.00     0.188 C 
BRANCH   2   3
ATOM      3  O   UNL     1      -1.117   5.888   1.580  1.00  0.00    -0.376 OA
BRANCH   3   4
ATOM      4  C   UNL     1      -1.541   7.237   1.483  1.00  0.00     0.202 C 
BRANCH   4   5
ATOM      5  C   UNL     1      -2.821   7.745   0.796  1.00  0.00     0.261 C 
BRANCH   5   6
ATOM      6  O   UNL     1      -3.917   6.840   0.635  1.00  0.00    -0.463 OA
BRANCH   6   7
ATOM      7  C   UNL     1      -4.131   6.450  -0.639  1.00  0.00     0.309 C 
ATOM      8  O   UNL     1      -3.352   6.694  -1.561  1.00  0.00    -0.252 OA
BRANCH   7   9
ATOM      9  C   UNL     1      -5.388   5.636  -0.892  1.00  0.00     0.111 C 
ATOM     10  C   UNL     1      -6.292   5.127   0.265  1.00  0.00     0.093 C 
ATOM     11  C   UNL     1      -7.470   4.328  -0.342  1.00  0.00     0.014 C 
ATOM     12  C   UNL     1      -8.228   5.081  -1.431  1.00  0.00     0.001 C 
ATOM     13  C   UNL     1      -6.168   6.379  -1.989  1.00  0.00     0.016 C 
ATOM     14  C   UNL     1      -7.303   5.539  -2.543  1.00  0.00     0.001 C 
BRANCH  10  15
ATOM     15  C   UNL     1      -6.776   6.207   1.243  1.00  0.00     0.226 C 
ATOM     16  N   UNL     1      -9.433   5.451   4.292  1.00  0.00    -0.194 NA
ATOM     17  C   UNL     1      -9.029   6.820   3.890  1.00  0.00     0.124 C 
ATOM     18  C   UNL     1      -9.066   4.372   3.345  1.00  0.00     0.124 C 
ATOM     19  C   UNL     1      -7.547   6.850   3.495  1.00  0.00     0.136 C 
ATOM     20  C   UNL     1      -7.569   4.463   2.963  1.00  0.00     0.136 C 
ATOM     21  N   UNL     1      -7.238   5.819   2.498  1.00  0.00    -0.340 N 
ATOM     22  O   UNL     1      -6.756   7.395   0.916  1.00  0.00    -0.275 OA
BRANCH  16  23
ATOM     23  S   UNL     1     -10.254   5.160   5.723  1.00  0.00     0.243 S 
ATOM     24  O   UNL     1     -11.041   3.948   5.556  1.00  0.00    -0.207 OA
ATOM     25  O   UNL     1     -10.853   6.396   6.154  1.00  0.00    -0.207 OA
BRANCH  23  26
ATOM     26  C   UNL     1      -8.970   4.753   6.893  1.00  0.00     0.082 A 
ATOM     27  C   UNL     1      -5.907   3.645   9.723  1.00  0.00     0.044 C 
ATOM     28  C   UNL     1      -7.013   4.038   8.780  1.00  0.00    -0.048 A 
ATOM     29  C   UNL     1      -7.108   3.369   7.549  1.00  0.00     0.005 A 
ATOM     30  C   UNL     1      -7.943   5.053   9.085  1.00  0.00    -0.047 A 
ATOM     31  C   UNL     1      -8.085   3.714   6.617  1.00  0.00     0.022 A 
ATOM     32  C   UNL     1      -8.911   5.414   8.126  1.00  0.00     0.025 A 
ATOM     33  C   UNL     1      -7.989   5.743  10.423  1.00  0.00     0.044 C 
ENDBRANCH  23  26
ENDBRANCH  16  23
ENDBRANCH  10  15
ENDBRANCH   7   9
ENDBRANCH   6   7
ENDBRANCH   5   6
ENDBRANCH   4   5
ENDBRANCH   3   4
ENDBRANCH   2   3
ENDBRANCH   1   2
BRANCH   1  34
ATOM     34  O   UNL     1      -3.734   4.982   2.550  1.00  0.00    -0.377 OA
BRANCH  34  35
ATOM     35  C   UNL     1      -3.172   5.494   3.757  1.00  0.00     0.188 C 
BRANCH  35  36
ATOM     36  C   UNL     1      -1.811   4.994   4.285  1.00  0.00     0.188 C 
BRANCH  36  37
ATOM     37  O   UNL     1      -1.548   3.627   4.010  1.00  0.00    -0.376 OA
BRANCH  37  38
ATOM     38  C   UNL     1      -1.818   2.673   5.026  1.00  0.00     0.202 C 
BRANCH  38  39
ATOM     39  C   UNL     1      -3.274   2.600   5.498  1.00  0.00     0.261 C 
BRANCH  39  40
ATOM     40  O   UNL     1      -3.739   3.775   6.184  1.00  0.00    -0.460 OA
BRANCH  40  41
ATOM     41  C   UNL     1      -3.024   4.204   7.245  1.00  0.00     0.338 C 
ATOM     42  O   UNL     1      -2.112   3.616   7.798  1.00  0.00    -0.246 OA
BRANCH  41  43
ATOM     43  C   UNL     1      -3.442   5.582   7.593  1.00  0.00     0.060 A 
ATOM     44  C   UNL     1      -2.523   6.416   8.237  1.00  0.00     0.016 A 
ATOM     45  C   UNL     1      -4.745   6.028   7.357  1.00  0.00     0.016 A 
ATOM     46  C   UNL     1      -2.947   7.633   8.767  1.00  0.00     0.010 A 
ATOM     47  C   UNL     1      -5.186   7.215   7.930  1.00  0.00     0.010 A 
ATOM     48  C   UNL     1      -4.299   7.990   8.685  1.00  0.00    -0.014 A 
BRANCH  48  49
ATOM     49  C   UNL     1      -4.818   9.100   9.506  1.00  0.00     0.031 A 
ATOM     50  C   UNL     1      -5.088   8.865  10.965  1.00  0.00     0.074 A 
ATOM     51  C   UNL     1      -5.111  10.275   8.930  1.00  0.00     0.049 A 
ATOM     52  N   UNL     1      -5.463   9.708  11.891  1.00  0.00    -0.248 NA
ATOM     53  C   UNL     1      -4.947   7.479  11.439  1.00  0.00     0.031 C 
ATOM     54  C   UNL     1      -4.978  10.570   7.505  1.00  0.00     0.029 A 
ATOM     55  N   UNL     1      -5.590  11.433   9.477  1.00  0.00    -0.354 N 
ATOM     56  C   UNL     1      -5.599   8.959  13.054  1.00  0.00     0.074 A 
ATOM     57  C   UNL     1      -5.316   7.584  12.707  1.00  0.00     0.031 C 
ATOM     58  C   UNL     1      -5.369  11.836   7.287  1.00  0.00     0.029 A 
ATOM     59  C   UNL     1      -5.750  12.440   8.562  1.00  0.00     0.049 A 
ATOM     60  H   UNL     1      -5.800  11.533  10.434  1.00  0.00     0.167 HD
ATOM     61  C   UNL     1      -5.915   9.393  14.298  1.00  0.00     0.037 A 
ATOM     62  C   UNL     1      -6.121  13.719   8.748  1.00  0.00     0.037 A 
ATOM     63  C   UNL     1      -6.178  10.775  14.612  1.00  0.00     0.049 A 
ATOM     64  C   UNL     1      -6.346  14.207  10.153  1.00  0.00     0.074 A 
ATOM     65  C   UNL     1      -6.410  11.357  15.845  1.00  0.00     0.029 A 
ATOM     66  N   UNL     1      -6.247  11.793  13.671  1.00  0.00    -0.354 N 
ATOM     67  N   UNL     1      -6.341  13.529  11.276  1.00  0.00    -0.248 NA
ATOM     68  C   UNL     1      -6.577  15.646  10.319  1.00  0.00     0.031 C 
ATOM     69  C   UNL     1      -6.656  12.720  15.646  1.00  0.00     0.029 A 
ATOM     70  C   UNL     1      -6.522  12.998  14.295  1.00  0.00     0.049 A 
ATOM     71  H   UNL     1      -6.120  11.676  12.701  1.00  0.00     0.167 HD
ATOM     72  C   UNL     1      -6.533  14.463  12.286  1.00  0.00     0.074 A 
ATOM     73  C   UNL     1      -6.630  15.756  11.638  1.00  0.00     0.031 C 
ATOM     74  C   UNL     1      -6.618  14.271  13.626  1.00  0.00     0.037 A 
BRANCH  61  75
ATOM     75  C   UNL     1      -5.978   8.382  15.411  1.00  0.00     0.064 A 
ATOM     76  C   UNL     1      -4.830   7.714  15.867  1.00  0.00     0.173 A 
ATOM     77  C   UNL     1      -7.186   8.126  16.078  1.00  0.00     0.173 A 
ATOM     78  F   UNL     1      -3.648   7.913  15.265  1.00  0.00    -0.203 F 
ATOM     79  C   UNL     1      -4.894   6.814  16.929  1.00  0.00     0.198 A 
ATOM     80  C   UNL     1      -7.240   7.251  17.161  1.00  0.00     0.198 A 
ATOM     81  F   UNL     1      -8.316   8.736  15.690  1.00  0.00    -0.203 F 
ATOM     82  F   UNL     1      -3.791   6.157  17.315  1.00  0.00    -0.200 F 
ATOM     83  C   UNL     1      -6.096   6.591  17.582  1.00  0.00     0.200 A 
ATOM     84  F   UNL     1      -8.401   7.049  17.802  1.00  0.00    -0.200 F 
ATOM     85  F   UNL     1      -6.152   5.738  18.614  1.00  0.00    -0.200 F 
ENDBRANCH  61  75
BRANCH  62  86
ATOM     86  C   UNL     1      -6.168  14.636   7.585  1.00  0.00     0.064 A 
ATOM     87  C   UNL     1      -5.167  15.597   7.392  1.00  0.00     0.173 A 
ATOM     88  C   UNL     1      -7.176  14.535   6.616  1.00  0.00     0.173 A 
ATOM     89  F   UNL     1      -4.184  15.730   8.295  1.00  0.00    -0.203 F 
ATOM     90  C   UNL     1      -5.183  16.440   6.284  1.00  0.00     0.198 A 
ATOM     91  C   UNL     1      -7.177  15.362   5.495  1.00  0.00     0.198 A 
ATOM     92  F   UNL     1      -8.142  13.615   6.746  1.00  0.00    -0.203 F 
ATOM     93  F   UNL     1      -4.230  17.371   6.141  1.00  0.00    -0.200 F 
ATOM     94  C   UNL     1      -6.184  16.317   5.333  1.00  0.00     0.200 A 
ATOM     95  F   UNL     1      -8.134  15.227   4.567  1.00  0.00    -0.200 F 
ATOM     96  F   UNL     1      -6.191  17.119   4.260  1.00  0.00    -0.200 F 
ENDBRANCH  62  86
BRANCH  74  97
ATOM     97  C   UNL     1      -6.795  15.496  14.476  1.00  0.00     0.064 A 
ATOM     98  C   UNL     1      -7.990  16.230  14.473  1.00  0.00     0.173 A 
ATOM     99  C   UNL     1      -5.754  15.937  15.308  1.00  0.00     0.173 A 
ATOM    100  F   UNL     1      -9.011  15.855  13.687  1.00  0.00    -0.203 F 
ATOM    101  C   UNL     1      -8.120  17.387  15.236  1.00  0.00     0.198 A 
ATOM    102  C   UNL     1      -5.900  17.075  16.096  1.00  0.00     0.198 A 
ATOM    103  F   UNL     1      -4.595  15.264  15.357  1.00  0.00    -0.203 F 
ATOM    104  F   UNL     1      -9.246  18.110  15.166  1.00  0.00    -0.200 F 
ATOM    105  C   UNL     1      -7.077  17.806  16.049  1.00  0.00     0.200 A 
ATOM    106  F   UNL     1      -4.897  17.470  16.891  1.00  0.00    -0.200 F 
ATOM    107  F   UNL     1      -7.203  18.923  16.779  1.00  0.00    -0.200 F 
ENDBRANCH  74  97
ENDBRANCH  48  49
ENDBRANCH  41  43
ENDBRANCH  40  41
ENDBRANCH  39  40
ENDBRANCH  38  39
ENDBRANCH  37  38
ENDBRANCH  36  37
ENDBRANCH  35  36
ENDBRANCH  34  35
ENDBRANCH   1  34
TORSDOF 23
