REMARK SMILES O=C(OCCOCCOCCOCCOC(=O)c1cccc(OCC(F)F)c1)c1ccc(-c2c3nc(c(-c4c(F)c(F)c(F)c(F)c4F)c4ccc([nH]4)c(-c4c(F)c(F)c(F)c(F)c4F)c4nc(c(-c5c(F)c(F)c(F)c(F)c5F)c5ccc2[nH]5)C=C4)C=C3)cc1
REMARK SMILES IDX 10 1 9 2 8 3 7 4 6 5 5 6 4 7 3 8 2 9 1 10 29 11 30 12 91 13
REMARK SMILES IDX 31 14 90 15 32 16 33 17 34 18 84 19 35 20 89 21 83 22 85 23
REMARK SMILES IDX 36 24 88 25 82 26 81 27 37 29 69 30 49 31 68 32 50 33 53 34
REMARK SMILES IDX 67 35 86 36 51 37 52 38 66 40 87 41 54 42 38 43 39 44 47 45
REMARK SMILES IDX 40 46 41 47 45 48 48 49 42 50 43 51 46 52 44 53 70 54 71 55
REMARK SMILES IDX 79 56 72 57 73 58 77 59 80 60 74 61 75 62 78 63 76 64 55 65
REMARK SMILES IDX 56 66 64 67 57 68 58 69 62 70 65 71 59 72 60 73 63 74 61 75
REMARK SMILES IDX 11 76 12 77 13 78 14 79 15 80 16 81 17 82 18 83 19 84 28 85
REMARK SMILES IDX 20 86 22 87 21 88 23 89 24 90 25 91 26 92 27 93
REMARK H PARENT 85 28 53 39
REMARK Flexibility Score: inf
ROOT
ATOM      1  C   UNL     1       4.141  -1.061   3.748  1.00  0.00     0.188 C 
ENDROOT
BRANCH   1   2
ATOM      2  O   UNL     1       2.721  -1.096   3.846  1.00  0.00    -0.377 OA
BRANCH   2   3
ATOM      3  C   UNL     1       1.983  -0.983   2.630  1.00  0.00     0.188 C 
BRANCH   3   4
ATOM      4  C   UNL     1       2.439   0.133   1.688  1.00  0.00     0.188 C 
BRANCH   4   5
ATOM      5  O   UNL     1       3.735  -0.162   1.173  1.00  0.00    -0.376 OA
BRANCH   5   6
ATOM      6  C   UNL     1       4.600   0.944   0.944  1.00  0.00     0.202 C 
BRANCH   6   7
ATOM      7  C   UNL     1       4.288   1.749  -0.317  1.00  0.00     0.261 C 
BRANCH   7   8
ATOM      8  O   UNL     1       2.928   1.622  -0.754  1.00  0.00    -0.460 OA
BRANCH   8   9
ATOM      9  C   UNL     1       2.407   0.717  -1.617  1.00  0.00     0.338 C 
ATOM     10  O   UNL     1       1.228   0.838  -1.948  1.00  0.00    -0.246 OA
BRANCH   9  11
ATOM     11  C   UNL     1       3.172  -0.421  -2.212  1.00  0.00     0.060 A 
ATOM     12  C   UNL     1       4.208  -1.112  -1.585  1.00  0.00     0.016 A 
ATOM     13  C   UNL     1       2.720  -0.908  -3.450  1.00  0.00     0.016 A 
ATOM     14  C   UNL     1       4.807  -2.221  -2.161  1.00  0.00     0.010 A 
ATOM     15  C   UNL     1       3.294  -2.044  -4.029  1.00  0.00     0.010 A 
ATOM     16  C   UNL     1       4.348  -2.698  -3.381  1.00  0.00    -0.014 A 
BRANCH  16  17
ATOM     17  C   UNL     1       5.074  -3.817  -4.000  1.00  0.00     0.031 A 
ATOM     18  C   UNL     1       5.978  -3.507  -5.149  1.00  0.00     0.074 A 
ATOM     19  C   UNL     1       4.999  -5.046  -3.459  1.00  0.00     0.049 A 
ATOM     20  N   UNL     1       6.623  -4.320  -5.937  1.00  0.00    -0.248 NA
ATOM     21  C   UNL     1       6.195  -2.079  -5.444  1.00  0.00     0.031 C 
ATOM     22  C   UNL     1       4.253  -5.391  -2.244  1.00  0.00     0.029 A 
ATOM     23  N   UNL     1       5.564  -6.230  -3.848  1.00  0.00    -0.354 N 
ATOM     24  C   UNL     1       7.279  -3.506  -6.850  1.00  0.00     0.074 A 
ATOM     25  C   UNL     1       6.977  -2.136  -6.511  1.00  0.00     0.031 C 
ATOM     26  C   UNL     1       4.405  -6.701  -1.993  1.00  0.00     0.029 A 
ATOM     27  C   UNL     1       5.181  -7.298  -3.072  1.00  0.00     0.049 A 
ATOM     28  H   UNL     1       6.185  -6.309  -4.609  1.00  0.00     0.167 HD
ATOM     29  C   UNL     1       8.046  -3.894  -7.892  1.00  0.00     0.037 A 
ATOM     30  C   UNL     1       5.385  -8.614  -3.268  1.00  0.00     0.037 A 
ATOM     31  C   UNL     1       8.335  -5.271  -8.177  1.00  0.00     0.049 A 
ATOM     32  C   UNL     1       6.158  -9.021  -4.497  1.00  0.00     0.074 A 
ATOM     33  C   UNL     1       9.082  -5.804  -9.209  1.00  0.00     0.029 A 
ATOM     34  N   UNL     1       7.877  -6.338  -7.412  1.00  0.00    -0.354 N 
ATOM     35  N   UNL     1       6.742  -8.261  -5.394  1.00  0.00    -0.248 NA
ATOM     36  C   UNL     1       6.277 -10.460  -4.761  1.00  0.00     0.031 C 
ATOM     37  C   UNL     1       9.024  -7.197  -9.103  1.00  0.00     0.029 A 
ATOM     38  C   UNL     1       8.290  -7.531  -7.974  1.00  0.00     0.049 A 
ATOM     39  H   UNL     1       7.338  -6.255  -6.592  1.00  0.00     0.167 HD
ATOM     40  C   UNL     1       7.302  -9.124  -6.323  1.00  0.00     0.074 A 
ATOM     41  C   UNL     1       7.016 -10.468  -5.862  1.00  0.00     0.031 C 
ATOM     42  C   UNL     1       7.980  -8.843  -7.464  1.00  0.00     0.037 A 
BRANCH  29  43
ATOM     43  C   UNL     1       8.534  -2.834  -8.830  1.00  0.00     0.064 A 
ATOM     44  C   UNL     1       9.556  -1.938  -8.488  1.00  0.00     0.173 A 
ATOM     45  C   UNL     1       7.960  -2.719 -10.106  1.00  0.00     0.173 A 
ATOM     46  F   UNL     1      10.114  -1.984  -7.269  1.00  0.00    -0.203 F 
ATOM     47  C   UNL     1       9.978  -0.959  -9.385  1.00  0.00     0.198 A 
ATOM     48  C   UNL     1       8.400  -1.756 -11.008  1.00  0.00     0.198 A 
ATOM     49  F   UNL     1       6.968  -3.543 -10.477  1.00  0.00    -0.203 F 
ATOM     50  F   UNL     1      10.927  -0.084  -9.023  1.00  0.00    -0.200 F 
ATOM     51  C   UNL     1       9.406  -0.874 -10.646  1.00  0.00     0.200 A 
ATOM     52  F   UNL     1       7.846  -1.678 -12.226  1.00  0.00    -0.200 F 
ATOM     53  F   UNL     1       9.817   0.066 -11.509  1.00  0.00    -0.200 F 
ENDBRANCH  29  43
BRANCH  30  54
ATOM     54  C   UNL     1       4.769  -9.628  -2.365  1.00  0.00     0.064 A 
ATOM     55  C   UNL     1       5.552 -10.537  -1.641  1.00  0.00     0.173 A 
ATOM     56  C   UNL     1       3.374  -9.745  -2.249  1.00  0.00     0.173 A 
ATOM     57  F   UNL     1       6.890 -10.490  -1.731  1.00  0.00    -0.203 F 
ATOM     58  C   UNL     1       4.967 -11.539  -0.866  1.00  0.00     0.198 A 
ATOM     59  C   UNL     1       2.790 -10.721  -1.444  1.00  0.00     0.198 A 
ATOM     60  F   UNL     1       2.569  -8.910  -2.922  1.00  0.00    -0.203 F 
ATOM     61  F   UNL     1       5.741 -12.437  -0.240  1.00  0.00    -0.200 F 
ATOM     62  C   UNL     1       3.587 -11.628  -0.765  1.00  0.00     0.200 A 
ATOM     63  F   UNL     1       1.456 -10.792  -1.340  1.00  0.00    -0.200 F 
ATOM     64  F   UNL     1       3.026 -12.595  -0.027  1.00  0.00    -0.200 F 
ENDBRANCH  30  54
BRANCH  42  65
ATOM     65  C   UNL     1       8.458 -10.010  -8.270  1.00  0.00     0.064 A 
ATOM     66  C   UNL     1       7.568 -10.786  -9.025  1.00  0.00     0.173 A 
ATOM     67  C   UNL     1       9.827 -10.304  -8.346  1.00  0.00     0.173 A 
ATOM     68  F   UNL     1       6.249 -10.550  -8.968  1.00  0.00    -0.203 F 
ATOM     69  C   UNL     1       8.033 -11.829  -9.819  1.00  0.00     0.198 A 
ATOM     70  C   UNL     1      10.290 -11.325  -9.167  1.00  0.00     0.198 A 
ATOM     71  F   UNL     1      10.715  -9.581  -7.647  1.00  0.00    -0.203 F 
ATOM     72  F   UNL     1       7.164 -12.585 -10.503  1.00  0.00    -0.200 F 
ATOM     73  C   UNL     1       9.393 -12.090  -9.898  1.00  0.00     0.200 A 
ATOM     74  F   UNL     1      11.606 -11.564  -9.258  1.00  0.00    -0.200 F 
ATOM     75  F   UNL     1       9.841 -13.082 -10.680  1.00  0.00    -0.200 F 
ENDBRANCH  42  65
ENDBRANCH  16  17
ENDBRANCH   9  11
ENDBRANCH   8   9
ENDBRANCH   7   8
ENDBRANCH   6   7
ENDBRANCH   5   6
ENDBRANCH   4   5
ENDBRANCH   3   4
ENDBRANCH   2   3
ENDBRANCH   1   2
BRANCH   1  76
ATOM     76  C   UNL     1       4.853  -2.137   2.896  1.00  0.00     0.188 C 
BRANCH  76  77
ATOM     77  O   UNL     1       3.982  -2.997   2.176  1.00  0.00    -0.376 OA
BRANCH  77  78
ATOM     78  C   UNL     1       3.860  -4.322   2.683  1.00  0.00     0.202 C 
BRANCH  78  79
ATOM     79  C   UNL     1       3.205  -4.481   4.063  1.00  0.00     0.261 C 
BRANCH  79  80
ATOM     80  O   UNL     1       3.790  -3.726   5.136  1.00  0.00    -0.460 OA
BRANCH  80  81
ATOM     81  C   UNL     1       5.054  -4.012   5.541  1.00  0.00     0.338 C 
ATOM     82  O   UNL     1       5.782  -4.868   5.117  1.00  0.00    -0.246 OA
BRANCH  81  83
ATOM     83  C   UNL     1       5.449  -2.899   6.452  1.00  0.00     0.063 A 
ATOM     84  C   UNL     1       6.620  -2.182   6.182  1.00  0.00     0.016 A 
ATOM     85  C   UNL     1       4.571  -2.473   7.459  1.00  0.00     0.062 A 
ATOM     86  C   UNL     1       6.886  -1.011   6.891  1.00  0.00     0.005 A 
ATOM     87  C   UNL     1       4.856  -1.325   8.197  1.00  0.00     0.120 A 
ATOM     88  C   UNL     1       6.008  -0.590   7.894  1.00  0.00     0.046 A 
BRANCH  87  89
ATOM     89  O   UNL     1       4.094  -0.803   9.205  1.00  0.00    -0.488 OA
BRANCH  89  90
ATOM     90  C   UNL     1       2.920  -1.516   9.607  1.00  0.00     0.302 C 
BRANCH  90  91
ATOM     91  C   UNL     1       1.683  -1.037   8.863  1.00  0.00     0.379 C 
ATOM     92  F   UNL     1       1.728  -1.422   7.564  1.00  0.00    -0.207 F 
ATOM     93  F   UNL     1       0.582  -1.631   9.395  1.00  0.00    -0.207 F 
ENDBRANCH  90  91
ENDBRANCH  89  90
ENDBRANCH  87  89
ENDBRANCH  81  83
ENDBRANCH  80  81
ENDBRANCH  79  80
ENDBRANCH  78  79
ENDBRANCH  77  78
ENDBRANCH  76  77
ENDBRANCH   1  76
TORSDOF 23
