REMARK SMILES O=C(Nc1cccc(C(=O)OCCOCCOCCOCCOC(=O)c2ccc(-c3c4nc(c(-c5c(F)c(F)c(F)c(F)c5F)c5ccc([nH]5)c(-c5c(F)c(F)c(F)c(F)c5F)c5nc(c(-c6c(F)c(F)c(F)c(F)c6F)c6ccc3[nH]6)C=C5)C=C4)cc2)c1)Nc1cc(Cl)c(Cl)cc1Cl
REMARK SMILES IDX 17 1 16 2 15 3 14 4 13 5 12 6 11 7 9 8 10 9 8 10 4 11 5 12
REMARK SMILES IDX 89 13 6 14 7 15 3 16 1 17 2 18 90 19 91 22 92 23 98 24 93 25
REMARK SMILES IDX 97 26 99 27 94 28 95 29 96 30 18 31 19 32 20 33 21 34 22 35
REMARK SMILES IDX 23 36 24 37 25 38 26 39 27 40 88 41 28 42 87 43 29 44 30 45
REMARK SMILES IDX 31 46 81 47 32 48 86 49 80 50 82 51 33 52 85 53 79 54 78 55
REMARK SMILES IDX 34 57 66 58 46 59 65 60 47 61 50 62 64 63 83 64 48 65 49 66
REMARK SMILES IDX 63 68 84 69 51 70 35 71 36 72 44 73 37 74 38 75 42 76 45 77
REMARK SMILES IDX 39 78 40 79 43 80 41 81 67 82 68 83 76 84 69 85 70 86 74 87
REMARK SMILES IDX 77 88 71 89 72 90 75 91 73 92 52 93 53 94 61 95 54 96 55 97
REMARK SMILES IDX 59 98 62 99 56 100 57 101 60 102 58 103
REMARK H PARENT 3 20 90 21 82 56 50 67
REMARK Flexibility Score: inf
ROOT
ATOM      1  O   UNL     1       6.425  -1.246   4.095  1.00  0.00    -0.377 OA
ENDROOT
BRANCH   1   2
ATOM      2  C   UNL     1       7.247  -1.833   3.100  1.00  0.00     0.188 C 
BRANCH   2   3
ATOM      3  C   UNL     1       8.647  -1.204   2.995  1.00  0.00     0.188 C 
BRANCH   3   4
ATOM      4  O   UNL     1       8.917  -0.260   4.030  1.00  0.00    -0.376 OA
BRANCH   4   5
ATOM      5  C   UNL     1       8.919   1.111   3.654  1.00  0.00     0.202 C 
BRANCH   5   6
ATOM      6  C   UNL     1       7.543   1.720   3.357  1.00  0.00     0.261 C 
BRANCH   6   7
ATOM      7  O   UNL     1       6.827   1.104   2.277  1.00  0.00    -0.460 OA
BRANCH   7   8
ATOM      8  C   UNL     1       7.373   1.140   1.044  1.00  0.00     0.338 C 
ATOM      9  O   UNL     1       8.391   1.717   0.704  1.00  0.00    -0.246 OA
BRANCH   8  10
ATOM     10  C   UNL     1       6.614   0.193   0.194  1.00  0.00     0.062 A 
ATOM     11  C   UNL     1       4.510  -0.832  -0.454  1.00  0.00     0.043 A 
ATOM     12  C   UNL     1       5.216  -1.735  -1.254  1.00  0.00     0.026 A 
ATOM     13  C   UNL     1       5.224   0.088   0.316  1.00  0.00     0.041 A 
ATOM     14  C   UNL     1       6.609  -1.646  -1.366  1.00  0.00     0.003 A 
ATOM     15  C   UNL     1       7.307  -0.662  -0.666  1.00  0.00     0.016 A 
BRANCH  11  16
ATOM     16  N   UNL     1       3.104  -0.903  -0.457  1.00  0.00    -0.308 N 
ATOM     17  O   UNL     1       0.982  -0.300  -0.049  1.00  0.00    -0.248 OA
ATOM     18  C   UNL     1       2.160   0.034  -0.101  1.00  0.00     0.323 C 
ATOM     19  N   UNL     1       2.625   1.315   0.011  1.00  0.00    -0.306 N 
ATOM     20  H   UNL     1       2.735  -1.764  -0.763  1.00  0.00     0.171 HD
ATOM     21  H   UNL     1       3.510   1.472  -0.392  1.00  0.00     0.171 HD
BRANCH  19  22
ATOM     22  C   UNL     1       2.038   2.446   0.614  1.00  0.00     0.063 A 
ATOM     23  C   UNL     1       2.567   3.676   0.180  1.00  0.00     0.049 A 
ATOM     24  C   UNL     1       1.056   2.461   1.619  1.00  0.00     0.066 A 
ATOM     25  C   UNL     1       2.089   4.892   0.677  1.00  0.00     0.061 A 
ATOM     26  C   UNL     1       0.560   3.684   2.097  1.00  0.00     0.044 A 
ATOM     27  Cl  UNL     1       0.514   1.060   2.472  1.00  0.00    -0.082 Cl
ATOM     28  Cl  UNL     1       2.818   6.341   0.084  1.00  0.00    -0.083 Cl
ATOM     29  C   UNL     1       1.067   4.896   1.624  1.00  0.00     0.061 A 
ATOM     30  Cl  UNL     1       0.418   6.355   2.279  1.00  0.00    -0.083 Cl
ENDBRANCH  19  22
ENDBRANCH  11  16
ENDBRANCH   8  10
ENDBRANCH   7   8
ENDBRANCH   6   7
ENDBRANCH   5   6
ENDBRANCH   4   5
ENDBRANCH   3   4
ENDBRANCH   2   3
ENDBRANCH   1   2
BRANCH   1  31
ATOM     31  C   UNL     1       6.695  -1.550   5.462  1.00  0.00     0.188 C 
BRANCH  31  32
ATOM     32  C   UNL     1       7.991  -2.261   5.915  1.00  0.00     0.188 C 
BRANCH  32  33
ATOM     33  O   UNL     1       8.414  -3.325   5.067  1.00  0.00    -0.376 OA
BRANCH  33  34
ATOM     34  C   UNL     1       8.258  -4.645   5.569  1.00  0.00     0.202 C 
BRANCH  34  35
ATOM     35  C   UNL     1       6.820  -5.165   5.470  1.00  0.00     0.261 C 
BRANCH  35  36
ATOM     36  O   UNL     1       5.877  -4.460   6.293  1.00  0.00    -0.460 OA
BRANCH  36  37
ATOM     37  C   UNL     1       6.097  -4.485   7.625  1.00  0.00     0.338 C 
ATOM     38  O   UNL     1       6.966  -5.094   8.221  1.00  0.00    -0.246 OA
BRANCH  37  39
ATOM     39  C   UNL     1       5.207  -3.491   8.250  1.00  0.00     0.060 A 
ATOM     40  C   UNL     1       5.774  -2.493   9.050  1.00  0.00     0.016 A 
ATOM     41  C   UNL     1       3.824  -3.553   8.057  1.00  0.00     0.016 A 
ATOM     42  C   UNL     1       4.950  -1.577   9.701  1.00  0.00     0.010 A 
ATOM     43  C   UNL     1       2.999  -2.644   8.721  1.00  0.00     0.010 A 
ATOM     44  C   UNL     1       3.557  -1.677   9.574  1.00  0.00    -0.014 A 
BRANCH  44  45
ATOM     45  C   UNL     1       2.686  -0.894  10.479  1.00  0.00     0.031 A 
ATOM     46  C   UNL     1       2.200  -1.545  11.744  1.00  0.00     0.074 A 
ATOM     47  C   UNL     1       2.354   0.378  10.199  1.00  0.00     0.049 A 
ATOM     48  N   UNL     1       1.443  -1.058  12.694  1.00  0.00    -0.248 NA
ATOM     49  C   UNL     1       2.626  -2.936  11.966  1.00  0.00     0.031 C 
ATOM     50  C   UNL     1       2.779   1.120   9.015  1.00  0.00     0.029 A 
ATOM     51  N   UNL     1       1.576   1.266  10.897  1.00  0.00    -0.354 N 
ATOM     52  C   UNL     1       1.309  -2.078  13.626  1.00  0.00     0.074 A 
ATOM     53  C   UNL     1       2.029  -3.223  13.113  1.00  0.00     0.031 C 
ATOM     54  C   UNL     1       2.247   2.354   9.064  1.00  0.00     0.029 A 
ATOM     55  C   UNL     1       1.432   2.479  10.271  1.00  0.00     0.049 A 
ATOM     56  H   UNL     1       1.161   1.054  11.764  1.00  0.00     0.167 HD
ATOM     57  C   UNL     1       0.656  -2.057  14.812  1.00  0.00     0.037 A 
ATOM     58  C   UNL     1       0.711   3.558  10.632  1.00  0.00     0.037 A 
ATOM     59  C   UNL     1      -0.071  -0.923  15.316  1.00  0.00     0.049 A 
ATOM     60  C   UNL     1      -0.058   3.535  11.928  1.00  0.00     0.074 A 
ATOM     61  C   UNL     1      -0.755  -0.797  16.513  1.00  0.00     0.029 A 
ATOM     62  N   UNL     1      -0.218   0.281  14.643  1.00  0.00    -0.354 N 
ATOM     63  N   UNL     1      -0.143   2.584  12.827  1.00  0.00    -0.248 NA
ATOM     64  C   UNL     1      -0.825   4.744  12.264  1.00  0.00     0.031 C 
ATOM     65  C   UNL     1      -1.356   0.466  16.542  1.00  0.00     0.029 A 
ATOM     66  C   UNL     1      -1.003   1.147  15.387  1.00  0.00     0.049 A 
ATOM     67  H   UNL     1       0.176   0.489  13.765  1.00  0.00     0.167 HD
ATOM     68  C   UNL     1      -0.949   3.086  13.842  1.00  0.00     0.074 A 
ATOM     69  C   UNL     1      -1.311   4.434  13.457  1.00  0.00     0.031 C 
ATOM     70  C   UNL     1      -1.354   2.486  14.989  1.00  0.00     0.037 A 
BRANCH  57  71
ATOM     71  C   UNL     1       0.683  -3.311  15.633  1.00  0.00     0.064 A 
ATOM     72  C   UNL     1       1.850  -3.737  16.285  1.00  0.00     0.173 A 
ATOM     73  C   UNL     1      -0.476  -4.086  15.787  1.00  0.00     0.173 A 
ATOM     74  F   UNL     1       2.990  -3.041  16.155  1.00  0.00    -0.203 F 
ATOM     75  C   UNL     1       1.862  -4.907  17.041  1.00  0.00     0.198 A 
ATOM     76  C   UNL     1      -0.468  -5.240  16.566  1.00  0.00     0.198 A 
ATOM     77  F   UNL     1      -1.617  -3.723  15.184  1.00  0.00    -0.203 F 
ATOM     78  F   UNL     1       3.000  -5.320  17.617  1.00  0.00    -0.200 F 
ATOM     79  C   UNL     1       0.702  -5.653  17.186  1.00  0.00     0.200 A 
ATOM     80  F   UNL     1      -1.591  -5.955  16.713  1.00  0.00    -0.200 F 
ATOM     81  F   UNL     1       0.713  -6.776  17.918  1.00  0.00    -0.200 F 
ENDBRANCH  57  71
BRANCH  58  82
ATOM     82  C   UNL     1       0.680   4.758   9.755  1.00  0.00     0.064 A 
ATOM     83  C   UNL     1       1.280   5.961  10.151  1.00  0.00     0.173 A 
ATOM     84  C   UNL     1       0.027   4.732   8.513  1.00  0.00     0.173 A 
ATOM     85  F   UNL     1       1.893   6.043  11.341  1.00  0.00    -0.203 F 
ATOM     86  C   UNL     1       1.210   7.098   9.349  1.00  0.00     0.198 A 
ATOM     87  C   UNL     1      -0.017   5.862   7.699  1.00  0.00     0.198 A 
ATOM     88  F   UNL     1      -0.566   3.607   8.089  1.00  0.00    -0.203 F 
ATOM     89  F   UNL     1       1.749   8.249   9.775  1.00  0.00    -0.200 F 
ATOM     90  C   UNL     1       0.567   7.047   8.122  1.00  0.00     0.200 A 
ATOM     91  F   UNL     1      -0.630   5.803   6.509  1.00  0.00    -0.200 F 
ATOM     92  F   UNL     1       0.500   8.141   7.351  1.00  0.00    -0.200 F 
ENDBRANCH  58  82
BRANCH  70  93
ATOM     93  C   UNL     1      -2.211   3.293  15.921  1.00  0.00     0.064 A 
ATOM     94  C   UNL     1      -3.543   3.609  15.612  1.00  0.00     0.173 A 
ATOM     95  C   UNL     1      -1.702   3.735  17.152  1.00  0.00     0.173 A 
ATOM     96  F   UNL     1      -4.074   3.221  14.442  1.00  0.00    -0.203 F 
ATOM     97  C   UNL     1      -4.321   4.365  16.484  1.00  0.00     0.198 A 
ATOM     98  C   UNL     1      -2.493   4.464  18.036  1.00  0.00     0.198 A 
ATOM     99  F   UNL     1      -0.438   3.452  17.502  1.00  0.00    -0.203 F 
ATOM    100  F   UNL     1      -5.573   4.701  16.143  1.00  0.00    -0.200 F 
ATOM    101  C   UNL     1      -3.798   4.787  17.698  1.00  0.00     0.200 A 
ATOM    102  F   UNL     1      -1.990   4.858  19.215  1.00  0.00    -0.200 F 
ATOM    103  F   UNL     1      -4.549   5.513  18.537  1.00  0.00    -0.200 F 
ENDBRANCH  70  93
ENDBRANCH  44  45
ENDBRANCH  37  39
ENDBRANCH  36  37
ENDBRANCH  35  36
ENDBRANCH  34  35
ENDBRANCH  33  34
ENDBRANCH  32  33
ENDBRANCH  31  32
ENDBRANCH   1  31
TORSDOF 22
