REMARK SMILES N#C[C@H]1CN(c2cc(C(=O)OCCOCCOCCOCCOC(=O)c3ccc(-c4c5nc(c(-c6c(F)c(F)c(F)c(F)c6F)c6ccc([nH]6)c(-c6c(F)c(F)c(F)c(F)c6F)c6nc(c(-c7c(F)c(F)c(F)c(F)c7F)c7ccc4[nH]7)C=C6)C=C5)cc3)c(N)cc2F)CCO1
REMARK SMILES IDX 17 1 16 2 15 3 14 4 13 5 12 6 11 7 9 8 10 9 8 10 6 11 7 12
REMARK SMILES IDX 92 13 91 14 93 15 89 16 5 17 3 18 4 19 96 20 95 21 94 22
REMARK SMILES IDX 2 23 1 24 90 25 18 28 19 29 20 30 21 31 22 32 23 33 24 34
REMARK SMILES IDX 25 35 26 36 27 37 88 38 28 39 87 40 29 41 30 42 31 43 81 44
REMARK SMILES IDX 32 45 86 46 80 47 82 48 33 49 85 50 79 51 78 52 34 54 66 55
REMARK SMILES IDX 46 56 65 57 47 58 50 59 64 60 83 61 48 62 49 63 63 65 84 66
REMARK SMILES IDX 51 67 35 68 36 69 44 70 37 71 38 72 42 73 45 74 39 75 40 76
REMARK SMILES IDX 43 77 41 78 67 79 68 80 76 81 69 82 70 83 74 84 77 85 71 86
REMARK SMILES IDX 72 87 75 88 73 89 52 90 53 91 61 92 54 93 55 94 59 95 62 96
REMARK SMILES IDX 56 97 57 98 60 99 58 100
REMARK H PARENT 90 26 90 27 82 53 50 64
REMARK Flexibility Score: inf
ROOT
ATOM      1  O   UNL     1       1.642   6.579  -4.088  1.00  0.00    -0.377 OA
ENDROOT
BRANCH   1   2
ATOM      2  C   UNL     1       2.534   5.810  -3.295  1.00  0.00     0.188 C 
BRANCH   2   3
ATOM      3  C   UNL     1       4.059   5.988  -3.482  1.00  0.00     0.188 C 
BRANCH   3   4
ATOM      4  O   UNL     1       4.431   7.162  -4.173  1.00  0.00    -0.376 OA
BRANCH   4   5
ATOM      5  C   UNL     1       4.784   7.149  -5.539  1.00  0.00     0.202 C 
BRANCH   5   6
ATOM      6  C   UNL     1       4.052   6.299  -6.589  1.00  0.00     0.261 C 
BRANCH   6   7
ATOM      7  O   UNL     1       3.346   5.153  -6.114  1.00  0.00    -0.460 OA
BRANCH   7   8
ATOM      8  C   UNL     1       4.066   4.016  -5.968  1.00  0.00     0.340 C 
ATOM      9  O   UNL     1       5.253   3.882  -6.212  1.00  0.00    -0.246 OA
BRANCH   8  10
ATOM     10  C   UNL     1       3.246   3.012  -5.238  1.00  0.00     0.085 A 
ATOM     11  C   UNL     1       3.241   1.333  -3.464  1.00  0.00     0.074 A 
ATOM     12  C   UNL     1       3.904   2.307  -4.210  1.00  0.00     0.047 A 
ATOM     13  C   UNL     1       1.909   1.058  -3.806  1.00  0.00     0.148 A 
ATOM     14  C   UNL     1       1.235   1.773  -4.795  1.00  0.00     0.067 A 
ATOM     15  F   UNL     1       1.249   0.082  -3.160  1.00  0.00    -0.205 F 
ATOM     16  C   UNL     1       1.872   2.811  -5.480  1.00  0.00     0.049 A 
BRANCH  11  17
ATOM     17  N   UNL     1       3.900   0.620  -2.493  1.00  0.00    -0.363 N 
ATOM     18  C   UNL     1       3.789   0.130  -0.071  1.00  0.00     0.240 C 
ATOM     19  C   UNL     1       4.216   1.150  -1.160  1.00  0.00     0.164 C 
ATOM     20  O   UNL     1       4.309  -1.192  -0.358  1.00  0.00    -0.360 OA
ATOM     21  C   UNL     1       3.832  -1.662  -1.630  1.00  0.00     0.183 C 
ATOM     22  C   UNL     1       4.309  -0.755  -2.770  1.00  0.00     0.145 C 
BRANCH  18  23
ATOM     23  C   UNL     1       4.265   0.576   1.255  1.00  0.00     0.096 C 
ATOM     24  N   UNL     1       4.625   0.943   2.292  1.00  0.00    -0.195 NA
ENDBRANCH  18  23
ENDBRANCH  11  17
BRANCH  16  25
ATOM     25  N   UNL     1       1.158   3.506  -6.457  1.00  0.00    -0.398 N 
ATOM     26  H   UNL     1       1.588   4.240  -6.952  1.00  0.00     0.156 HD
ATOM     27  H   UNL     1       0.225   3.261  -6.652  1.00  0.00     0.156 HD
ENDBRANCH  16  25
ENDBRANCH   8  10
ENDBRANCH   7   8
ENDBRANCH   6   7
ENDBRANCH   5   6
ENDBRANCH   4   5
ENDBRANCH   3   4
ENDBRANCH   2   3
ENDBRANCH   1   2
BRANCH   1  28
ATOM     28  C   UNL     1       1.792   7.994  -4.167  1.00  0.00     0.188 C 
BRANCH  28  29
ATOM     29  C   UNL     1       2.565   8.812  -3.101  1.00  0.00     0.188 C 
BRANCH  29  30
ATOM     30  O   UNL     1       2.991   8.071  -1.978  1.00  0.00    -0.376 OA
BRANCH  30  31
ATOM     31  C   UNL     1       2.293   8.174  -0.755  1.00  0.00     0.202 C 
BRANCH  31  32
ATOM     32  C   UNL     1       0.766   8.008  -0.721  1.00  0.00     0.261 C 
BRANCH  32  33
ATOM     33  O   UNL     1       0.017   8.606  -1.787  1.00  0.00    -0.460 OA
BRANCH  33  34
ATOM     34  C   UNL     1      -0.125   9.950  -1.770  1.00  0.00     0.338 C 
ATOM     35  O   UNL     1       0.333  10.732  -0.960  1.00  0.00    -0.246 OA
BRANCH  34  36
ATOM     36  C   UNL     1      -0.793  10.332  -3.034  1.00  0.00     0.060 A 
ATOM     37  C   UNL     1      -0.088  11.075  -3.993  1.00  0.00     0.016 A 
ATOM     38  C   UNL     1      -2.103   9.921  -3.281  1.00  0.00     0.016 A 
ATOM     39  C   UNL     1      -0.697  11.414  -5.202  1.00  0.00     0.010 A 
ATOM     40  C   UNL     1      -2.721  10.286  -4.479  1.00  0.00     0.010 A 
ATOM     41  C   UNL     1      -2.029  11.050  -5.436  1.00  0.00    -0.014 A 
BRANCH  41  42
ATOM     42  C   UNL     1      -2.763  11.593  -6.603  1.00  0.00     0.031 A 
ATOM     43  C   UNL     1      -3.685  12.759  -6.391  1.00  0.00     0.074 A 
ATOM     44  C   UNL     1      -2.630  11.052  -7.825  1.00  0.00     0.049 A 
ATOM     45  N   UNL     1      -4.506  13.339  -7.228  1.00  0.00    -0.248 NA
ATOM     46  C   UNL     1      -3.685  13.341  -5.041  1.00  0.00     0.031 C 
ATOM     47  C   UNL     1      -1.726   9.958  -8.170  1.00  0.00     0.029 A 
ATOM     48  N   UNL     1      -3.272  11.347  -9.002  1.00  0.00    -0.354 N 
ATOM     49  C   UNL     1      -5.128  14.347  -6.504  1.00  0.00     0.074 A 
ATOM     50  C   UNL     1      -4.621  14.270  -5.150  1.00  0.00     0.031 C 
ATOM     51  C   UNL     1      -1.875   9.668  -9.474  1.00  0.00     0.029 A 
ATOM     52  C   UNL     1      -2.917  10.524 -10.041  1.00  0.00     0.049 A 
ATOM     53  H   UNL     1      -3.924  12.079  -9.091  1.00  0.00     0.167 HD
ATOM     54  C   UNL     1      -6.036  15.258  -6.931  1.00  0.00     0.037 A 
ATOM     55  C   UNL     1      -3.400  10.456 -11.297  1.00  0.00     0.037 A 
ATOM     56  C   UNL     1      -6.553  15.310  -8.275  1.00  0.00     0.049 A 
ATOM     57  C   UNL     1      -4.500  11.398 -11.718  1.00  0.00     0.074 A 
ATOM     58  C   UNL     1      -7.467  16.196  -8.815  1.00  0.00     0.029 A 
ATOM     59  N   UNL     1      -6.215  14.420  -9.286  1.00  0.00    -0.354 N 
ATOM     60  N   UNL     1      -5.069  12.366 -11.042  1.00  0.00    -0.248 NA
ATOM     61  C   UNL     1      -5.027  11.230 -13.080  1.00  0.00     0.031 C 
ATOM     62  C   UNL     1      -7.741  15.796 -10.127  1.00  0.00     0.029 A 
ATOM     63  C   UNL     1      -6.937  14.709 -10.434  1.00  0.00     0.049 A 
ATOM     64  H   UNL     1      -5.559  13.690  -9.200  1.00  0.00     0.167 HD
ATOM     65  C   UNL     1      -5.993  12.946 -11.904  1.00  0.00     0.074 A 
ATOM     66  C   UNL     1      -5.900  12.225 -13.157  1.00  0.00     0.031 C 
ATOM     67  C   UNL     1      -6.837  13.984 -11.678  1.00  0.00     0.037 A 
BRANCH  54  68
ATOM     68  C   UNL     1      -6.562  16.230  -5.911  1.00  0.00     0.064 A 
ATOM     69  C   UNL     1      -5.739  17.194  -5.308  1.00  0.00     0.173 A 
ATOM     70  C   UNL     1      -7.908  16.183  -5.513  1.00  0.00     0.173 A 
ATOM     71  F   UNL     1      -4.442  17.281  -5.642  1.00  0.00    -0.203 F 
ATOM     72  C   UNL     1      -6.225  18.028  -4.304  1.00  0.00     0.198 A 
ATOM     73  C   UNL     1      -8.402  17.048  -4.541  1.00  0.00     0.198 A 
ATOM     74  F   UNL     1      -8.745  15.290  -6.062  1.00  0.00    -0.203 F 
ATOM     75  F   UNL     1      -5.397  18.879  -3.682  1.00  0.00    -0.200 F 
ATOM     76  C   UNL     1      -7.557  17.957  -3.924  1.00  0.00     0.200 A 
ATOM     77  F   UNL     1      -9.694  16.991  -4.190  1.00  0.00    -0.200 F 
ATOM     78  F   UNL     1      -8.022  18.754  -2.953  1.00  0.00    -0.200 F 
ENDBRANCH  54  68
BRANCH  55  79
ATOM     79  C   UNL     1      -2.839   9.466 -12.253  1.00  0.00     0.064 A 
ATOM     80  C   UNL     1      -2.099   9.890 -13.366  1.00  0.00     0.173 A 
ATOM     81  C   UNL     1      -3.021   8.086 -12.078  1.00  0.00     0.173 A 
ATOM     82  F   UNL     1      -1.919  11.200 -13.590  1.00  0.00    -0.203 F 
ATOM     83  C   UNL     1      -1.569   8.973 -14.271  1.00  0.00     0.198 A 
ATOM     84  C   UNL     1      -2.465   7.169 -12.967  1.00  0.00     0.198 A 
ATOM     85  F   UNL     1      -3.724   7.628 -11.032  1.00  0.00    -0.203 F 
ATOM     86  F   UNL     1      -0.899   9.408 -15.347  1.00  0.00    -0.200 F 
ATOM     87  C   UNL     1      -1.745   7.612 -14.066  1.00  0.00     0.200 A 
ATOM     88  F   UNL     1      -2.624   5.855 -12.758  1.00  0.00    -0.200 F 
ATOM     89  F   UNL     1      -1.225   6.730 -14.930  1.00  0.00    -0.200 F 
ENDBRANCH  55  79
BRANCH  67  90
ATOM     90  C   UNL     1      -7.707  14.436 -12.820  1.00  0.00     0.064 A 
ATOM     91  C   UNL     1      -8.767  13.653 -13.302  1.00  0.00     0.173 A 
ATOM     92  C   UNL     1      -7.509  15.697 -13.406  1.00  0.00     0.173 A 
ATOM     93  F   UNL     1      -8.994  12.435 -12.789  1.00  0.00    -0.203 F 
ATOM     94  C   UNL     1      -9.578  14.104 -14.342  1.00  0.00     0.198 A 
ATOM     95  C   UNL     1      -8.345  16.161 -14.419  1.00  0.00     0.198 A 
ATOM     96  F   UNL     1      -6.515  16.492 -12.981  1.00  0.00    -0.203 F 
ATOM     97  F   UNL     1     -10.551  13.316 -14.819  1.00  0.00    -0.200 F 
ATOM     98  C   UNL     1      -9.373  15.361 -14.892  1.00  0.00     0.200 A 
ATOM     99  F   UNL     1      -8.156  17.383 -14.934  1.00  0.00    -0.200 F 
ATOM    100  F   UNL     1     -10.163  15.798 -15.882  1.00  0.00    -0.200 F 
ENDBRANCH  67  90
ENDBRANCH  41  42
ENDBRANCH  34  36
ENDBRANCH  33  34
ENDBRANCH  32  33
ENDBRANCH  31  32
ENDBRANCH  30  31
ENDBRANCH  29  30
ENDBRANCH  28  29
ENDBRANCH   1  28
TORSDOF 23
