REMARK SMILES O=C(OCCOCCOCCOCCOC(=O)c1ccc(-c2c3nc(c(-c4c(F)c(F)c(F)c(F)c4F)c4ccc([nH]4)c(-c4c(F)c(F)c(F)c(F)c4F)c4nc(c(-c5c(F)c(F)c(F)c(F)c5F)c5ccc2[nH]5)C=C4)C=C3)cc1)C1=Cc2cc(Cl)cc(-c3ccc(Cl)cc3)c2O[C@@H]1C(F)(F)F
REMARK SMILES IDX 10 1 9 2 8 3 7 4 6 5 5 6 4 7 3 8 2 9 1 10 81 11 82 12 98 13
REMARK SMILES IDX 83 14 97 15 84 16 96 17 85 18 88 19 86 20 87 21 99 22 100 23
REMARK SMILES IDX 101 24 102 25 89 26 90 27 95 28 91 29 94 30 92 31 93 32
REMARK SMILES IDX 11 33 12 34 13 35 14 36 15 37 16 38 17 39 18 40 19 41 80 42
REMARK SMILES IDX 20 43 79 44 21 45 22 46 23 47 73 48 24 49 78 50 72 51 74 52
REMARK SMILES IDX 25 53 77 54 71 55 70 56 26 58 58 59 38 60 57 61 39 62 42 63
REMARK SMILES IDX 56 64 75 65 40 66 41 67 55 69 76 70 43 71 27 72 28 73 36 74
REMARK SMILES IDX 29 75 30 76 34 77 37 78 31 79 32 80 35 81 33 82 59 83 60 84
REMARK SMILES IDX 68 85 61 86 62 87 66 88 69 89 63 90 64 91 67 92 65 93 44 94
REMARK SMILES IDX 45 95 53 96 46 97 47 98 51 99 54 100 48 101 49 102 52 103
REMARK SMILES IDX 50 104
REMARK H PARENT 74 57 42 68
REMARK Flexibility Score: inf
ROOT
ATOM      1  C   UNL     1       3.950   2.555   2.733  1.00  0.00     0.188 C 
ENDROOT
BRANCH   1   2
ATOM      2  O   UNL     1       2.649   2.462   3.260  1.00  0.00    -0.377 OA
BRANCH   2   3
ATOM      3  C   UNL     1       1.796   1.805   2.361  1.00  0.00     0.188 C 
BRANCH   3   4
ATOM      4  C   UNL     1       2.122   0.321   2.323  1.00  0.00     0.188 C 
BRANCH   4   5
ATOM      5  O   UNL     1       3.451  -0.213   2.014  1.00  0.00    -0.376 OA
BRANCH   5   6
ATOM      6  C   UNL     1       4.261  -0.586   0.625  1.00  0.00     0.202 C 
BRANCH   6   7
ATOM      7  C   UNL     1       3.564  -0.400  -1.434  1.00  0.00     0.261 C 
BRANCH   7   8
ATOM      8  O   UNL     1       2.739  -1.425  -2.210  1.00  0.00    -0.460 OA
BRANCH   8   9
ATOM      9  C   UNL     1       2.985  -2.684  -1.829  1.00  0.00     0.338 C 
ATOM     10  O   UNL     1       2.414  -3.697  -2.144  1.00  0.00    -0.246 OA
BRANCH   9  11
ATOM     11  C   UNL     1       3.778  -2.342  -0.667  1.00  0.00     0.087 C 
ATOM     12  C   UNL     1       5.152  -1.958  -0.996  1.00  0.00     0.027 C 
ATOM     13  C   UNL     1       2.452  -1.171   0.091  1.00  0.00     0.316 C 
ATOM     14  C   UNL     1       5.755  -0.263  -0.961  1.00  0.00     0.019 A 
ATOM     15  O   UNL     1       3.045   0.692   0.040  1.00  0.00    -0.475 OA
ATOM     16  C   UNL     1       7.024  -0.043  -1.434  1.00  0.00     0.032 A 
ATOM     17  C   UNL     1       4.732   1.092  -0.589  1.00  0.00     0.135 A 
ATOM     18  C   UNL     1       7.389   1.299  -1.577  1.00  0.00     0.042 A 
ATOM     19  C   UNL     1       5.171   2.390  -0.840  1.00  0.00     0.026 A 
ATOM     20  Cl  UNL     1       8.978   1.631  -2.185  1.00  0.00    -0.084 Cl
ATOM     21  C   UNL     1       6.527   2.427  -1.305  1.00  0.00     0.033 A 
BRANCH  13  22
ATOM     22  C   UNL     1       2.133  -2.259   1.320  1.00  0.00     0.430 C 
ATOM     23  F   UNL     1       1.208  -1.942   2.243  1.00  0.00    -0.167 F 
ATOM     24  F   UNL     1       1.618  -3.378   0.720  1.00  0.00    -0.167 F 
ATOM     25  F   UNL     1       3.233  -2.709   1.976  1.00  0.00    -0.167 F 
ENDBRANCH  13  22
BRANCH  19  26
ATOM     26  C   UNL     1       4.476   3.664  -0.740  1.00  0.00    -0.015 A 
ATOM     27  C   UNL     1       3.824   4.268  -1.822  1.00  0.00     0.010 A 
ATOM     28  C   UNL     1       4.593   4.420   0.415  1.00  0.00     0.010 A 
ATOM     29  C   UNL     1       3.141   5.485  -1.667  1.00  0.00     0.021 A 
ATOM     30  C   UNL     1       3.767   5.518   0.633  1.00  0.00     0.021 A 
ATOM     31  C   UNL     1       3.047   6.064  -0.410  1.00  0.00     0.041 A 
ATOM     32  Cl  UNL     1       2.125   7.488  -0.147  1.00  0.00    -0.084 Cl
ENDBRANCH  19  26
ENDBRANCH   9  11
ENDBRANCH   8   9
ENDBRANCH   7   8
ENDBRANCH   6   7
ENDBRANCH   5   6
ENDBRANCH   4   5
ENDBRANCH   3   4
ENDBRANCH   2   3
ENDBRANCH   1   2
BRANCH   1  33
ATOM     33  C   UNL     1       5.145   2.116   3.573  1.00  0.00     0.188 C 
BRANCH  33  34
ATOM     34  O   UNL     1       4.991   1.513   4.840  1.00  0.00    -0.376 OA
BRANCH  34  35
ATOM     35  C   UNL     1       3.783   1.722   5.544  1.00  0.00     0.202 C 
BRANCH  35  36
ATOM     36  C   UNL     1       3.380   3.161   5.936  1.00  0.00     0.261 C 
BRANCH  36  37
ATOM     37  O   UNL     1       3.818   4.243   5.091  1.00  0.00    -0.460 OA
BRANCH  37  38
ATOM     38  C   UNL     1       5.060   4.741   5.307  1.00  0.00     0.338 C 
ATOM     39  O   UNL     1       5.870   4.371   6.135  1.00  0.00    -0.246 OA
BRANCH  38  40
ATOM     40  C   UNL     1       5.349   5.746   4.248  1.00  0.00     0.060 A 
ATOM     41  C   UNL     1       6.505   5.628   3.456  1.00  0.00     0.016 A 
ATOM     42  C   UNL     1       4.468   6.803   4.028  1.00  0.00     0.016 A 
ATOM     43  C   UNL     1       6.774   6.551   2.427  1.00  0.00     0.010 A 
ATOM     44  C   UNL     1       4.744   7.733   3.016  1.00  0.00     0.010 A 
ATOM     45  C   UNL     1       5.901   7.623   2.206  1.00  0.00    -0.014 A 
BRANCH  45  46
ATOM     46  C   UNL     1       6.269   8.809   1.377  1.00  0.00     0.031 A 
ATOM     47  C   UNL     1       6.670  10.033   2.148  1.00  0.00     0.074 A 
ATOM     48  C   UNL     1       6.173   8.889   0.034  1.00  0.00     0.049 A 
ATOM     49  N   UNL     1       6.812  11.269   1.752  1.00  0.00    -0.248 NA
ATOM     50  C   UNL     1       6.919   9.821   3.585  1.00  0.00     0.031 C 
ATOM     51  C   UNL     1       5.917   7.787  -0.881  1.00  0.00     0.029 A 
ATOM     52  N   UNL     1       6.230   9.992  -0.795  1.00  0.00    -0.354 N 
ATOM     53  C   UNL     1       7.162  11.975   2.891  1.00  0.00     0.074 A 
ATOM     54  C   UNL     1       7.103  11.058   4.005  1.00  0.00     0.031 C 
ATOM     55  C   UNL     1       5.718   8.272  -2.121  1.00  0.00     0.029 A 
ATOM     56  C   UNL     1       5.857   9.726  -2.095  1.00  0.00     0.049 A 
ATOM     57  H   UNL     1       6.510  10.884  -0.487  1.00  0.00     0.167 HD
ATOM     58  C   UNL     1       7.546  13.266   3.000  1.00  0.00     0.037 A 
ATOM     59  C   UNL     1       5.639  10.558  -3.136  1.00  0.00     0.037 A 
ATOM     60  C   UNL     1       7.592  14.184   1.900  1.00  0.00     0.049 A 
ATOM     61  C   UNL     1       5.923  12.034  -2.978  1.00  0.00     0.074 A 
ATOM     62  C   UNL     1       7.991  15.507   1.901  1.00  0.00     0.029 A 
ATOM     63  N   UNL     1       7.199  13.879   0.605  1.00  0.00    -0.354 N 
ATOM     64  N   UNL     1       6.317  12.689  -1.914  1.00  0.00    -0.248 NA
ATOM     65  C   UNL     1       5.778  12.879  -4.175  1.00  0.00     0.031 C 
ATOM     66  C   UNL     1       7.762  16.026   0.624  1.00  0.00     0.029 A 
ATOM     67  C   UNL     1       7.310  15.003  -0.195  1.00  0.00     0.049 A 
ATOM     68  H   UNL     1       6.888  12.996   0.301  1.00  0.00     0.167 HD
ATOM     69  C   UNL     1       6.539  13.998  -2.326  1.00  0.00     0.074 A 
ATOM     70  C   UNL     1       6.210  14.053  -3.734  1.00  0.00     0.031 C 
ATOM     71  C   UNL     1       7.005  15.047  -1.604  1.00  0.00     0.037 A 
BRANCH  58  72
ATOM     72  C   UNL     1       7.910  13.737   4.377  1.00  0.00     0.064 A 
ATOM     73  C   UNL     1       9.013  13.210   5.070  1.00  0.00     0.173 A 
ATOM     74  C   UNL     1       7.101  14.669   5.040  1.00  0.00     0.173 A 
ATOM     75  F   UNL     1       9.805  12.296   4.487  1.00  0.00    -0.203 F 
ATOM     76  C   UNL     1       9.247  13.544   6.400  1.00  0.00     0.198 A 
ATOM     77  C   UNL     1       7.368  15.037   6.354  1.00  0.00     0.198 A 
ATOM     78  F   UNL     1       6.036  15.203   4.423  1.00  0.00    -0.203 F 
ATOM     79  F   UNL     1      10.238  12.945   7.074  1.00  0.00    -0.200 F 
ATOM     80  C   UNL     1       8.426  14.459   7.039  1.00  0.00     0.200 A 
ATOM     81  F   UNL     1       6.582  15.933   6.968  1.00  0.00    -0.200 F 
ATOM     82  F   UNL     1       8.642  14.770   8.325  1.00  0.00    -0.200 F 
ENDBRANCH  58  72
BRANCH  59  83
ATOM     83  C   UNL     1       5.160  10.024  -4.444  1.00  0.00     0.064 A 
ATOM     84  C   UNL     1       6.002   9.988  -5.566  1.00  0.00     0.173 A 
ATOM     85  C   UNL     1       3.841   9.575  -4.610  1.00  0.00     0.173 A 
ATOM     86  F   UNL     1       7.263  10.433  -5.469  1.00  0.00    -0.203 F 
ATOM     87  C   UNL     1       5.539   9.543  -6.804  1.00  0.00     0.198 A 
ATOM     88  C   UNL     1       3.386   9.109  -5.845  1.00  0.00     0.198 A 
ATOM     89  F   UNL     1       2.989   9.592  -3.575  1.00  0.00    -0.203 F 
ATOM     90  F   UNL     1       6.355   9.563  -7.868  1.00  0.00    -0.200 F 
ATOM     91  C   UNL     1       4.233   9.100  -6.942  1.00  0.00     0.200 A 
ATOM     92  F   UNL     1       2.124   8.675  -5.973  1.00  0.00    -0.200 F 
ATOM     93  F   UNL     1       3.790   8.672  -8.133  1.00  0.00    -0.200 F 
ENDBRANCH  59  83
BRANCH  71  94
ATOM     94  C   UNL     1       7.280  16.340  -2.319  1.00  0.00     0.064 A 
ATOM     95  C   UNL     1       6.255  17.166  -2.800  1.00  0.00     0.173 A 
ATOM     96  C   UNL     1       8.601  16.808  -2.424  1.00  0.00     0.173 A 
ATOM     97  F   UNL     1       4.977  16.765  -2.736  1.00  0.00    -0.203 F 
ATOM     98  C   UNL     1       6.543  18.406  -3.368  1.00  0.00     0.198 A 
ATOM     99  C   UNL     1       8.882  18.062  -2.955  1.00  0.00     0.198 A 
ATOM    100  F   UNL     1       9.621  16.060  -1.972  1.00  0.00    -0.203 F 
ATOM    101  F   UNL     1       5.551  19.165  -3.852  1.00  0.00    -0.200 F 
ATOM    102  C   UNL     1       7.853  18.859  -3.430  1.00  0.00     0.200 A 
ATOM    103  F   UNL     1      10.146  18.505  -2.991  1.00  0.00    -0.200 F 
ATOM    104  F   UNL     1       8.124  20.065  -3.949  1.00  0.00    -0.200 F 
ENDBRANCH  71  94
ENDBRANCH  45  46
ENDBRANCH  38  40
ENDBRANCH  37  38
ENDBRANCH  36  37
ENDBRANCH  35  36
ENDBRANCH  34  35
ENDBRANCH  33  34
ENDBRANCH   1  33
TORSDOF 22
