REMARK SMILES O=C(Cn1c2ccccc2c(=O)c2cc(F)ccc21)OCCOCCOCCOCCOC(=O)c1ccc(-c2c3nc(c(-c4c(F)c(F)c(F)c(F)c4F)c4ccc([nH]4)c(-c4c(F)c(F)c(F)c(F)c4F)c4nc(c(-c5c(F)c(F)c(F)c(F)c5F)c5ccc2[nH]5)C=C4)C=C3)cc1
REMARK SMILES IDX 27 1 26 2 25 3 24 4 23 5 22 6 21 7 20 8 2 9 1 10 3 11 4 12
REMARK SMILES IDX 5 13 19 14 6 15 10 16 13 17 18 18 7 19 9 20 11 21 14 22
REMARK SMILES IDX 17 23 8 24 12 25 15 26 16 27 28 28 29 29 30 30 31 31 32 32
REMARK SMILES IDX 33 33 34 34 35 35 36 36 97 37 37 38 96 39 38 40 39 41 40 42
REMARK SMILES IDX 90 43 41 44 95 45 89 46 91 47 42 48 94 49 88 50 87 51 43 53
REMARK SMILES IDX 75 54 55 55 74 56 56 57 59 58 73 59 92 60 57 61 58 62 72 64
REMARK SMILES IDX 93 65 60 66 44 67 45 68 53 69 46 70 47 71 51 72 54 73 48 74
REMARK SMILES IDX 49 75 52 76 50 77 76 78 77 79 85 80 78 81 79 82 83 83 86 84
REMARK SMILES IDX 80 85 81 86 84 87 82 88 61 89 62 90 70 91 63 92 64 93 68 94
REMARK SMILES IDX 71 95 65 96 66 97 69 98 67 99
REMARK H PARENT 91 52 59 63
REMARK Flexibility Score: inf
ROOT
ATOM      1  C   UNL     1       4.213  -1.246   3.318  1.00  0.00     0.188 C 
ENDROOT
BRANCH   1   2
ATOM      2  O   UNL     1       2.868  -1.673   3.214  1.00  0.00    -0.377 OA
BRANCH   2   3
ATOM      3  C   UNL     1       2.257  -1.367   1.968  1.00  0.00     0.188 C 
BRANCH   3   4
ATOM      4  C   UNL     1       2.916  -2.022   0.745  1.00  0.00     0.188 C 
BRANCH   4   5
ATOM      5  O   UNL     1       4.278  -1.731   0.499  1.00  0.00    -0.376 OA
BRANCH   5   6
ATOM      6  C   UNL     1       4.803  -0.498   0.055  1.00  0.00     0.202 C 
BRANCH   6   7
ATOM      7  C   UNL     1       4.051   0.827   0.086  1.00  0.00     0.261 C 
BRANCH   7   8
ATOM      8  O   UNL     1       2.622   0.815  -0.025  1.00  0.00    -0.462 OA
BRANCH   8   9
ATOM      9  C   UNL     1       1.805   0.310  -0.960  1.00  0.00     0.326 C 
ATOM     10  O   UNL     1       0.605   0.218  -0.687  1.00  0.00    -0.250 OA
BRANCH   9  11
ATOM     11  C   UNL     1       2.304  -0.210  -2.295  1.00  0.00     0.245 C 
BRANCH  11  12
ATOM     12  N   UNL     1       3.496   0.425  -2.888  1.00  0.00    -0.329 N 
ATOM     13  C   UNL     1       3.489   1.837  -3.053  1.00  0.00     0.053 A 
ATOM     14  C   UNL     1       4.509  -0.407  -3.442  1.00  0.00     0.053 A 
ATOM     15  C   UNL     1       2.481   2.687  -2.559  1.00  0.00     0.027 A 
ATOM     16  C   UNL     1       4.587   2.466  -3.660  1.00  0.00     0.046 A 
ATOM     17  C   UNL     1       5.537   0.174  -4.213  1.00  0.00     0.049 A 
ATOM     18  C   UNL     1       4.606  -1.801  -3.235  1.00  0.00     0.030 A 
ATOM     19  C   UNL     1       2.648   4.074  -2.498  1.00  0.00     0.002 A 
ATOM     20  C   UNL     1       4.749   3.859  -3.630  1.00  0.00     0.014 A 
ATOM     21  C   UNL     1       5.601   1.643  -4.343  1.00  0.00     0.197 A 
ATOM     22  C   UNL     1       6.545  -0.591  -4.819  1.00  0.00     0.053 A 
ATOM     23  C   UNL     1       5.634  -2.566  -3.804  1.00  0.00     0.041 A 
ATOM     24  C   UNL     1       3.797   4.659  -3.009  1.00  0.00     0.001 A 
ATOM     25  O   UNL     1       6.495   2.171  -4.996  1.00  0.00    -0.288 OA
ATOM     26  C   UNL     1       6.579  -1.958  -4.611  1.00  0.00     0.124 A 
ATOM     27  F   UNL     1       7.548  -2.694  -5.167  1.00  0.00    -0.207 F 
ENDBRANCH  11  12
ENDBRANCH   9  11
ENDBRANCH   8   9
ENDBRANCH   7   8
ENDBRANCH   6   7
ENDBRANCH   5   6
ENDBRANCH   4   5
ENDBRANCH   3   4
ENDBRANCH   2   3
ENDBRANCH   1   2
BRANCH   1  28
ATOM     28  C   UNL     1       5.254  -2.375   3.205  1.00  0.00     0.188 C 
BRANCH  28  29
ATOM     29  O   UNL     1       4.897  -3.700   2.846  1.00  0.00    -0.376 OA
BRANCH  29  30
ATOM     30  C   UNL     1       3.714  -4.328   3.309  1.00  0.00     0.202 C 
BRANCH  30  31
ATOM     31  C   UNL     1       3.248  -4.297   4.772  1.00  0.00     0.261 C 
BRANCH  31  32
ATOM     32  O   UNL     1       3.537  -3.116   5.511  1.00  0.00    -0.460 OA
BRANCH  32  33
ATOM     33  C   UNL     1       4.684  -3.136   6.221  1.00  0.00     0.338 C 
ATOM     34  O   UNL     1       5.490  -4.045   6.311  1.00  0.00    -0.246 OA
BRANCH  33  35
ATOM     35  C   UNL     1       4.907  -1.771   6.736  1.00  0.00     0.060 A 
ATOM     36  C   UNL     1       3.869  -1.060   7.341  1.00  0.00     0.016 A 
ATOM     37  C   UNL     1       6.170  -1.187   6.562  1.00  0.00     0.016 A 
ATOM     38  C   UNL     1       4.112   0.222   7.824  1.00  0.00     0.010 A 
ATOM     39  C   UNL     1       6.410   0.101   7.035  1.00  0.00     0.010 A 
ATOM     40  C   UNL     1       5.394   0.791   7.708  1.00  0.00    -0.014 A 
BRANCH  40  41
ATOM     41  C   UNL     1       5.720   1.979   8.524  1.00  0.00     0.031 A 
ATOM     42  C   UNL     1       5.794   3.353   7.952  1.00  0.00     0.074 A 
ATOM     43  C   UNL     1       5.937   1.764   9.835  1.00  0.00     0.049 A 
ATOM     44  N   UNL     1       5.896   4.494   8.584  1.00  0.00    -0.248 NA
ATOM     45  C   UNL     1       5.765   3.470   6.488  1.00  0.00     0.031 C 
ATOM     46  C   UNL     1       5.946   0.444  10.471  1.00  0.00     0.029 A 
ATOM     47  N   UNL     1       6.162   2.635  10.867  1.00  0.00    -0.354 N 
ATOM     48  C   UNL     1       5.910   5.471   7.601  1.00  0.00     0.074 A 
ATOM     49  C   UNL     1       5.869   4.784   6.325  1.00  0.00     0.031 C 
ATOM     50  C   UNL     1       6.110   0.595  11.791  1.00  0.00     0.029 A 
ATOM     51  C   UNL     1       6.238   2.017  12.090  1.00  0.00     0.049 A 
ATOM     52  H   UNL     1       6.261   3.607  10.743  1.00  0.00     0.167 HD
ATOM     53  C   UNL     1       5.933   6.815   7.765  1.00  0.00     0.037 A 
ATOM     54  C   UNL     1       6.370   2.542  13.321  1.00  0.00     0.037 A 
ATOM     55  C   UNL     1       5.999   7.471   9.048  1.00  0.00     0.049 A 
ATOM     56  C   UNL     1       6.418   4.034  13.470  1.00  0.00     0.074 A 
ATOM     57  C   UNL     1       5.974   8.827   9.325  1.00  0.00     0.029 A 
ATOM     58  N   UNL     1       6.123   6.818  10.267  1.00  0.00    -0.354 N 
ATOM     59  N   UNL     1       6.314   4.957  12.546  1.00  0.00    -0.248 NA
ATOM     60  C   UNL     1       6.595   4.558  14.829  1.00  0.00     0.031 C 
ATOM     61  C   UNL     1       6.144   8.996  10.703  1.00  0.00     0.029 A 
ATOM     62  C   UNL     1       6.217   7.745  11.295  1.00  0.00     0.049 A 
ATOM     63  H   UNL     1       6.142   5.841  10.385  1.00  0.00     0.167 HD
ATOM     64  C   UNL     1       6.399   6.172  13.209  1.00  0.00     0.074 A 
ATOM     65  C   UNL     1       6.541   5.866  14.619  1.00  0.00     0.031 C 
ATOM     66  C   UNL     1       6.367   7.425  12.694  1.00  0.00     0.037 A 
BRANCH  53  67
ATOM     67  C   UNL     1       5.870   7.674   6.535  1.00  0.00     0.064 A 
ATOM     68  C   UNL     1       4.699   7.760   5.766  1.00  0.00     0.173 A 
ATOM     69  C   UNL     1       6.957   8.480   6.164  1.00  0.00     0.173 A 
ATOM     70  F   UNL     1       3.631   7.009   6.074  1.00  0.00    -0.203 F 
ATOM     71  C   UNL     1       4.626   8.604   4.661  1.00  0.00     0.198 A 
ATOM     72  C   UNL     1       6.870   9.345   5.075  1.00  0.00     0.198 A 
ATOM     73  F   UNL     1       8.097   8.446   6.870  1.00  0.00    -0.203 F 
ATOM     74  F   UNL     1       3.509   8.642   3.921  1.00  0.00    -0.200 F 
ATOM     75  C   UNL     1       5.708   9.403   4.322  1.00  0.00     0.200 A 
ATOM     76  F   UNL     1       7.911  10.128   4.758  1.00  0.00    -0.200 F 
ATOM     77  F   UNL     1       5.630  10.225   3.267  1.00  0.00    -0.200 F 
ENDBRANCH  53  67
BRANCH  54  78
ATOM     78  C   UNL     1       6.396   1.635  14.495  1.00  0.00     0.064 A 
ATOM     79  C   UNL     1       5.313   1.579  15.382  1.00  0.00     0.173 A 
ATOM     80  C   UNL     1       7.470   0.760  14.717  1.00  0.00     0.173 A 
ATOM     81  F   UNL     1       4.267   2.401  15.214  1.00  0.00    -0.203 F 
ATOM     82  C   UNL     1       5.306   0.688  16.452  1.00  0.00     0.198 A 
ATOM     83  C   UNL     1       7.450  -0.150  15.771  1.00  0.00     0.198 A 
ATOM     84  F   UNL     1       8.523   0.765  13.886  1.00  0.00    -0.203 F 
ATOM     85  F   UNL     1       4.270   0.671  17.301  1.00  0.00    -0.200 F 
ATOM     86  C   UNL     1       6.370  -0.183  16.640  1.00  0.00     0.200 A 
ATOM     87  F   UNL     1       8.469  -1.004  15.935  1.00  0.00    -0.200 F 
ATOM     88  F   UNL     1       6.354  -1.053  17.658  1.00  0.00    -0.200 F 
ENDBRANCH  54  78
BRANCH  66  89
ATOM     89  C   UNL     1       6.498   8.571  13.654  1.00  0.00     0.064 A 
ATOM     90  C   UNL     1       7.723   8.872  14.267  1.00  0.00     0.173 A 
ATOM     91  C   UNL     1       5.414   9.428  13.896  1.00  0.00     0.173 A 
ATOM     92  F   UNL     1       8.786   8.073  14.080  1.00  0.00    -0.203 F 
ATOM     93  C   UNL     1       7.857   9.985  15.091  1.00  0.00     0.198 A 
ATOM     94  C   UNL     1       5.559  10.557  14.697  1.00  0.00     0.198 A 
ATOM     95  F   UNL     1       4.221   9.186  13.330  1.00  0.00    -0.203 F 
ATOM     96  F   UNL     1       9.029  10.238  15.689  1.00  0.00    -0.200 F 
ATOM     97  C   UNL     1       6.779  10.834  15.295  1.00  0.00     0.200 A 
ATOM     98  F   UNL     1       4.521  11.385  14.879  1.00  0.00    -0.200 F 
ATOM     99  F   UNL     1       6.916  11.919  16.068  1.00  0.00    -0.200 F 
ENDBRANCH  66  89
ENDBRANCH  40  41
ENDBRANCH  33  35
ENDBRANCH  32  33
ENDBRANCH  31  32
ENDBRANCH  30  31
ENDBRANCH  29  30
ENDBRANCH  28  29
ENDBRANCH   1  28
TORSDOF 21
