REMARK SMILES CC1C[NH+]([C@@H](C(=O)OCCOCCOCCOCCOC(=O)c2ccc(-c3c4nc(c(-c5c(F)c(F)c(F)c(F)c5F)c5ccc([nH]5)c(-c5c(F)c(F)c(F)c(F)c5F)c5nc(c(-c6c(F)c(F)c(F)c(F)c6F)c6ccc3[nH]6)C=C5)C=C4)cc2)C2CCCCC2)C1
REMARK SMILES IDX 15 1 14 2 13 3 12 4 11 5 10 6 9 7 8 8 6 9 7 10 5 11 4 12
REMARK SMILES IDX 1 13 2 14 3 15 92 16 86 18 87 19 91 20 88 21 90 22 89 23
REMARK SMILES IDX 16 24 17 25 18 26 19 27 20 28 21 29 22 30 23 31 24 32 85 33
REMARK SMILES IDX 25 34 84 35 26 36 27 37 28 38 78 39 29 40 83 41 77 42 79 43
REMARK SMILES IDX 30 44 82 45 76 46 75 47 31 49 63 50 43 51 62 52 44 53 47 54
REMARK SMILES IDX 61 55 80 56 45 57 46 58 60 60 81 61 48 62 32 63 33 64 41 65
REMARK SMILES IDX 34 66 35 67 39 68 42 69 36 70 37 71 40 72 38 73 64 74 65 75
REMARK SMILES IDX 73 76 66 77 67 78 71 79 74 80 68 81 69 82 72 83 70 84 49 85
REMARK SMILES IDX 50 86 58 87 51 88 52 89 56 90 59 91 53 92 54 93 57 94 55 95
REMARK H PARENT 4 17 79 48 47 59
REMARK Flexibility Score: inf
ROOT
ATOM      1  C   UNL     1      -1.596   0.926  -0.225  1.00  0.00     0.188 C 
ENDROOT
BRANCH   1   2
ATOM      2  O   UNL     1      -1.862   0.329   1.031  1.00  0.00    -0.377 OA
BRANCH   2   3
ATOM      3  C   UNL     1      -2.514  -0.922   1.115  1.00  0.00     0.188 C 
BRANCH   3   4
ATOM      4  C   UNL     1      -3.486  -0.983   2.302  1.00  0.00     0.188 C 
BRANCH   4   5
ATOM      5  O   UNL     1      -4.154   0.221   2.651  1.00  0.00    -0.376 OA
BRANCH   5   6
ATOM      6  C   UNL     1      -3.339   1.346   2.982  1.00  0.00     0.202 C 
BRANCH   6   7
ATOM      7  C   UNL     1      -2.152   1.174   3.962  1.00  0.00     0.261 C 
BRANCH   7   8
ATOM      8  O   UNL     1      -1.131   0.188   3.630  1.00  0.00    -0.459 OA
BRANCH   8   9
ATOM      9  C   UNL     1      -0.981  -0.832   4.512  1.00  0.00     0.365 C 
ATOM     10  O   UNL     1      -1.742  -0.979   5.471  1.00  0.00    -0.245 OA
BRANCH   9  11
ATOM     11  C   UNL     1       0.171  -1.840   4.302  1.00  0.00     0.298 C 
BRANCH  11  12
ATOM     12  N   UNL     1       1.357  -1.600   3.446  1.00  0.00    -0.322 N 
ATOM     13  C   UNL     1       2.274   0.166   0.665  1.00  0.00     0.020 C 
ATOM     14  C   UNL     1       1.383  -0.252   1.817  1.00  0.00     0.096 C 
ATOM     15  C   UNL     1       1.259  -1.768   2.005  1.00  0.00     0.272 C 
ATOM     16  C   UNL     1       1.843  -0.221   3.295  1.00  0.00     0.272 C 
ATOM     17  H   UNL     1       1.907  -2.277   3.975  1.00  0.00     0.348 HD
ENDBRANCH  11  12
BRANCH  11  18
ATOM     18  C   UNL     1      -0.377  -3.322   4.323  1.00  0.00     0.059 C 
ATOM     19  C   UNL     1      -1.123  -3.815   3.069  1.00  0.00     0.010 C 
ATOM     20  C   UNL     1       0.735  -4.324   4.689  1.00  0.00     0.010 C 
ATOM     21  C   UNL     1      -1.648  -5.244   3.206  1.00  0.00     0.001 C 
ATOM     22  C   UNL     1       0.191  -5.745   4.835  1.00  0.00     0.001 C 
ATOM     23  C   UNL     1      -0.526  -6.205   3.572  1.00  0.00     0.000 C 
ENDBRANCH  11  18
ENDBRANCH   9  11
ENDBRANCH   8   9
ENDBRANCH   7   8
ENDBRANCH   6   7
ENDBRANCH   5   6
ENDBRANCH   4   5
ENDBRANCH   3   4
ENDBRANCH   2   3
ENDBRANCH   1   2
BRANCH   1  24
ATOM     24  C   UNL     1      -2.510   0.534  -1.383  1.00  0.00     0.188 C 
BRANCH  24  25
ATOM     25  O   UNL     1      -2.357  -0.787  -1.910  1.00  0.00    -0.376 OA
BRANCH  25  26
ATOM     26  C   UNL     1      -1.074  -1.410  -1.870  1.00  0.00     0.202 C 
BRANCH  26  27
ATOM     27  C   UNL     1      -0.131  -0.995  -2.996  1.00  0.00     0.261 C 
BRANCH  27  28
ATOM     28  O   UNL     1       0.459   0.287  -2.724  1.00  0.00    -0.460 OA
BRANCH  28  29
ATOM     29  C   UNL     1      -0.077   1.328  -3.393  1.00  0.00     0.338 C 
ATOM     30  O   UNL     1      -0.952   1.298  -4.246  1.00  0.00    -0.246 OA
BRANCH  29  31
ATOM     31  C   UNL     1       0.438   2.583  -2.824  1.00  0.00     0.060 A 
ATOM     32  C   UNL     1      -0.485   3.581  -2.484  1.00  0.00     0.016 A 
ATOM     33  C   UNL     1       1.811   2.807  -2.702  1.00  0.00     0.016 A 
ATOM     34  C   UNL     1      -0.035   4.833  -2.081  1.00  0.00     0.010 A 
ATOM     35  C   UNL     1       2.262   4.069  -2.312  1.00  0.00     0.010 A 
ATOM     36  C   UNL     1       1.339   5.098  -2.050  1.00  0.00    -0.014 A 
BRANCH  36  37
ATOM     37  C   UNL     1       1.799   6.501  -1.969  1.00  0.00     0.031 A 
ATOM     38  C   UNL     1       2.161   7.206  -3.247  1.00  0.00     0.074 A 
ATOM     39  C   UNL     1       1.850   7.146  -0.792  1.00  0.00     0.049 A 
ATOM     40  N   UNL     1       2.622   8.416  -3.429  1.00  0.00    -0.248 NA
ATOM     41  C   UNL     1       1.980   6.438  -4.490  1.00  0.00     0.031 C 
ATOM     42  C   UNL     1       1.469   6.577   0.499  1.00  0.00     0.029 A 
ATOM     43  N   UNL     1       2.250   8.424  -0.496  1.00  0.00    -0.354 N 
ATOM     44  C   UNL     1       2.790   8.551  -4.801  1.00  0.00     0.074 A 
ATOM     45  C   UNL     1       2.417   7.290  -5.403  1.00  0.00     0.031 C 
ATOM     46  C   UNL     1       1.666   7.502   1.454  1.00  0.00     0.029 A 
ATOM     47  C   UNL     1       2.220   8.710   0.845  1.00  0.00     0.049 A 
ATOM     48  H   UNL     1       2.531   9.073  -1.181  1.00  0.00     0.167 HD
ATOM     49  C   UNL     1       3.210   9.634  -5.496  1.00  0.00     0.037 A 
ATOM     50  C   UNL     1       2.623   9.815   1.501  1.00  0.00     0.037 A 
ATOM     51  C   UNL     1       3.582  10.883  -4.886  1.00  0.00     0.049 A 
ATOM     52  C   UNL     1       3.170  10.977   0.711  1.00  0.00     0.074 A 
ATOM     53  C   UNL     1       4.009  12.048  -5.497  1.00  0.00     0.029 A 
ATOM     54  N   UNL     1       3.580  11.124  -3.519  1.00  0.00    -0.354 N 
ATOM     55  N   UNL     1       3.307  11.109  -0.587  1.00  0.00    -0.248 NA
ATOM     56  C   UNL     1       3.617  12.147   1.480  1.00  0.00     0.031 C 
ATOM     57  C   UNL     1       4.329  12.972  -4.496  1.00  0.00     0.029 A 
ATOM     58  C   UNL     1       4.032  12.408  -3.265  1.00  0.00     0.049 A 
ATOM     59  H   UNL     1       3.299  10.477  -2.832  1.00  0.00     0.167 HD
ATOM     60  C   UNL     1       3.823  12.383  -0.791  1.00  0.00     0.074 A 
ATOM     61  C   UNL     1       3.960  12.990   0.516  1.00  0.00     0.031 C 
ATOM     62  C   UNL     1       4.155  12.997  -1.955  1.00  0.00     0.037 A 
BRANCH  49  63
ATOM     63  C   UNL     1       3.325   9.503  -6.987  1.00  0.00     0.064 A 
ATOM     64  C   UNL     1       2.195   9.382  -7.812  1.00  0.00     0.173 A 
ATOM     65  C   UNL     1       4.585   9.523  -7.604  1.00  0.00     0.173 A 
ATOM     66  F   UNL     1       0.967   9.339  -7.273  1.00  0.00    -0.203 F 
ATOM     67  C   UNL     1       2.326   9.259  -9.193  1.00  0.00     0.198 A 
ATOM     68  C   UNL     1       4.710   9.434  -8.988  1.00  0.00     0.198 A 
ATOM     69  F   UNL     1       5.699   9.637  -6.864  1.00  0.00    -0.203 F 
ATOM     70  F   UNL     1       1.236   9.091  -9.955  1.00  0.00    -0.200 F 
ATOM     71  C   UNL     1       3.582   9.293  -9.780  1.00  0.00     0.200 A 
ATOM     72  F   UNL     1       5.924   9.482  -9.553  1.00  0.00    -0.200 F 
ATOM     73  F   UNL     1       3.705   9.183 -11.110  1.00  0.00    -0.200 F 
ENDBRANCH  49  63
BRANCH  50  74
ATOM     74  C   UNL     1       2.542   9.872   2.985  1.00  0.00     0.064 A 
ATOM     75  C   UNL     1       1.681  10.769   3.632  1.00  0.00     0.173 A 
ATOM     76  C   UNL     1       3.344   9.046   3.788  1.00  0.00     0.173 A 
ATOM     77  F   UNL     1       0.911  11.596   2.909  1.00  0.00    -0.203 F 
ATOM     78  C   UNL     1       1.643  10.856   5.022  1.00  0.00     0.198 A 
ATOM     79  C   UNL     1       3.280   9.110   5.178  1.00  0.00     0.198 A 
ATOM     80  F   UNL     1       4.186   8.170   3.221  1.00  0.00    -0.203 F 
ATOM     81  F   UNL     1       0.851  11.761   5.613  1.00  0.00    -0.200 F 
ATOM     82  C   UNL     1       2.438  10.022   5.794  1.00  0.00     0.200 A 
ATOM     83  F   UNL     1       4.040   8.292   5.919  1.00  0.00    -0.200 F 
ATOM     84  F   UNL     1       2.399  10.104   7.131  1.00  0.00    -0.200 F 
ENDBRANCH  50  74
BRANCH  62  85
ATOM     85  C   UNL     1       4.658  14.411  -1.872  1.00  0.00     0.064 A 
ATOM     86  C   UNL     1       5.915  14.719  -1.332  1.00  0.00     0.173 A 
ATOM     87  C   UNL     1       3.887  15.468  -2.383  1.00  0.00     0.173 A 
ATOM     88  F   UNL     1       6.686  13.749  -0.819  1.00  0.00    -0.203 F 
ATOM     89  C   UNL     1       6.367  16.035  -1.276  1.00  0.00     0.198 A 
ATOM     90  C   UNL     1       4.359  16.777  -2.361  1.00  0.00     0.198 A 
ATOM     91  F   UNL     1       2.682  15.228  -2.921  1.00  0.00    -0.203 F 
ATOM     92  F   UNL     1       7.547  16.312  -0.704  1.00  0.00    -0.200 F 
ATOM     93  C   UNL     1       5.594  17.061  -1.799  1.00  0.00     0.200 A 
ATOM     94  F   UNL     1       3.618  17.764  -2.884  1.00  0.00    -0.200 F 
ATOM     95  F   UNL     1       6.036  18.325  -1.754  1.00  0.00    -0.200 F 
ENDBRANCH  62  85
ENDBRANCH  36  37
ENDBRANCH  29  31
ENDBRANCH  28  29
ENDBRANCH  27  28
ENDBRANCH  26  27
ENDBRANCH  25  26
ENDBRANCH  24  25
ENDBRANCH   1  24
TORSDOF 22
