REMARK SMILES C[C@H](CCC(=O)OCCOCCOCCOCCOC(=O)c1ccc(-c2c3nc(c(-c4c(F)c(F)c(F)c(F)c4F)c4ccc([nH]4)c(-c4c(F)c(F)c(F)c(F)c4F)c4nc(c(-c5c(F)c(F)c(F)c(F)c5F)c5ccc2[nH]5)C=C4)C=C3)cc1)NC(=O)c1ccc(C[NH3+])o1
REMARK SMILES IDX 11 1 10 2 9 3 8 4 7 5 5 6 6 7 4 8 3 9 2 10 1 11 85 12 86 13
REMARK SMILES IDX 87 15 88 16 89 17 94 18 90 19 91 20 92 21 93 22 12 26 13 27
REMARK SMILES IDX 14 28 15 29 16 30 17 31 18 32 19 33 20 34 21 35 22 36 23 37
REMARK SMILES IDX 84 38 24 39 83 40 25 41 26 42 27 43 77 44 28 45 82 46 76 47
REMARK SMILES IDX 78 48 29 49 81 50 75 51 74 52 30 54 62 55 42 56 61 57 43 58
REMARK SMILES IDX 46 59 60 60 79 61 44 62 45 63 59 65 80 66 47 67 31 68 32 69
REMARK SMILES IDX 40 70 33 71 34 72 38 73 41 74 35 75 36 76 39 77 37 78 63 79
REMARK SMILES IDX 64 80 72 81 65 82 66 83 70 84 73 85 67 86 68 87 71 88 69 89
REMARK SMILES IDX 48 90 49 91 57 92 50 93 51 94 55 95 58 96 52 97 53 98 56 99
REMARK SMILES IDX 54 100
REMARK H PARENT 85 14 93 23 93 24 93 25 78 53 46 64
REMARK Flexibility Score: inf
ROOT
ATOM      1  C   UNL     1       2.495  -0.058   3.383  1.00  0.00     0.188 C 
ENDROOT
BRANCH   1   2
ATOM      2  O   UNL     1       2.892   0.971   4.279  1.00  0.00    -0.376 OA
BRANCH   2   3
ATOM      3  C   UNL     1       2.443   2.302   4.068  1.00  0.00     0.202 C 
BRANCH   3   4
ATOM      4  C   UNL     1       2.647   2.973   2.703  1.00  0.00     0.261 C 
BRANCH   4   5
ATOM      5  O   UNL     1       2.277   2.168   1.570  1.00  0.00    -0.463 OA
BRANCH   5   6
ATOM      6  C   UNL     1       3.251   1.871   0.683  1.00  0.00     0.305 C 
ATOM      7  O   UNL     1       4.415   2.242   0.771  1.00  0.00    -0.252 OA
BRANCH   6   8
ATOM      8  C   UNL     1       2.795   0.939  -0.426  1.00  0.00     0.125 C 
BRANCH   8   9
ATOM      9  C   UNL     1       1.302   0.781  -0.739  1.00  0.00     0.036 C 
BRANCH   9  10
ATOM     10  C   UNL     1       0.519   2.084  -0.953  1.00  0.00     0.080 C 
ATOM     11  C   UNL     1       0.541   2.482  -2.424  1.00  0.00     0.031 C 
BRANCH  10  12
ATOM     12  N   UNL     1      -0.869   1.907  -0.520  1.00  0.00    -0.347 N 
ATOM     13  C   UNL     1      -1.595   2.531   0.474  1.00  0.00     0.287 C 
ATOM     14  H   UNL     1      -1.370   1.225  -1.024  1.00  0.00     0.164 HD
ATOM     15  O   UNL     1      -2.683   2.022   0.757  1.00  0.00    -0.266 OA
BRANCH  13  16
ATOM     16  C   UNL     1      -1.088   3.718   1.133  1.00  0.00     0.191 A 
ATOM     17  C   UNL     1      -0.293   4.779   0.734  1.00  0.00     0.057 A 
ATOM     18  O   UNL     1      -1.465   3.924   2.439  1.00  0.00    -0.450 OA
ATOM     19  C   UNL     1      -0.104   5.609   1.865  1.00  0.00     0.052 A 
ATOM     20  C   UNL     1      -0.823   5.037   2.892  1.00  0.00     0.159 A 
BRANCH  20  21
ATOM     21  C   UNL     1      -1.004   5.382   4.324  1.00  0.00     0.335 C 
BRANCH  21  22
ATOM     22  N   UNL     1       0.268   5.298   5.040  1.00  0.00    -0.351 N 
ATOM     23  H   UNL     1       0.629   4.346   4.981  1.00  0.00     0.344 HD
ATOM     24  H   UNL     1       0.125   5.548   6.019  1.00  0.00     0.344 HD
ATOM     25  H   UNL     1       0.938   5.942   4.620  1.00  0.00     0.344 HD
ENDBRANCH  21  22
ENDBRANCH  20  21
ENDBRANCH  13  16
ENDBRANCH  10  12
ENDBRANCH   9  10
ENDBRANCH   8   9
ENDBRANCH   6   8
ENDBRANCH   5   6
ENDBRANCH   4   5
ENDBRANCH   3   4
ENDBRANCH   2   3
ENDBRANCH   1   2
BRANCH   1  26
ATOM     26  C   UNL     1       1.058  -0.144   2.839  1.00  0.00     0.188 C 
BRANCH  26  27
ATOM     27  O   UNL     1       0.281   1.034   2.968  1.00  0.00    -0.377 OA
BRANCH  27  28
ATOM     28  C   UNL     1      -0.856   0.915   3.820  1.00  0.00     0.188 C 
BRANCH  28  29
ATOM     29  C   UNL     1      -0.537   0.466   5.256  1.00  0.00     0.188 C 
BRANCH  29  30
ATOM     30  O   UNL     1       0.174  -0.764   5.305  1.00  0.00    -0.376 OA
BRANCH  30  31
ATOM     31  C   UNL     1      -0.559  -1.961   5.528  1.00  0.00     0.202 C 
BRANCH  31  32
ATOM     32  C   UNL     1      -1.625  -2.383   4.497  1.00  0.00     0.261 C 
BRANCH  32  33
ATOM     33  O   UNL     1      -2.667  -1.438   4.203  1.00  0.00    -0.460 OA
BRANCH  33  34
ATOM     34  C   UNL     1      -3.441  -1.014   5.217  1.00  0.00     0.338 C 
ATOM     35  O   UNL     1      -3.393  -1.388   6.383  1.00  0.00    -0.246 OA
BRANCH  34  36
ATOM     36  C   UNL     1      -4.259   0.124   4.751  1.00  0.00     0.060 A 
ATOM     37  C   UNL     1      -4.185   1.335   5.452  1.00  0.00     0.016 A 
ATOM     38  C   UNL     1      -5.141  -0.015   3.676  1.00  0.00     0.016 A 
ATOM     39  C   UNL     1      -5.047   2.382   5.131  1.00  0.00     0.010 A 
ATOM     40  C   UNL     1      -6.016   1.031   3.365  1.00  0.00     0.010 A 
ATOM     41  C   UNL     1      -6.011   2.213   4.128  1.00  0.00    -0.014 A 
BRANCH  41  42
ATOM     42  C   UNL     1      -7.143   3.170   4.046  1.00  0.00     0.031 A 
ATOM     43  C   UNL     1      -8.445   2.795   4.706  1.00  0.00     0.074 A 
ATOM     44  C   UNL     1      -7.009   4.370   3.457  1.00  0.00     0.049 A 
ATOM     45  N   UNL     1      -9.571   3.460   4.778  1.00  0.00    -0.248 NA
ATOM     46  C   UNL     1      -8.479   1.486   5.380  1.00  0.00     0.031 C 
ATOM     47  C   UNL     1      -5.792   4.871   2.825  1.00  0.00     0.029 A 
ATOM     48  N   UNL     1      -7.918   5.388   3.300  1.00  0.00    -0.354 N 
ATOM     49  C   UNL     1     -10.444   2.648   5.493  1.00  0.00     0.074 A 
ATOM     50  C   UNL     1      -9.732   1.429   5.804  1.00  0.00     0.031 C 
ATOM     51  C   UNL     1      -6.027   6.106   2.349  1.00  0.00     0.029 A 
ATOM     52  C   UNL     1      -7.421   6.466   2.611  1.00  0.00     0.049 A 
ATOM     53  H   UNL     1      -8.837   5.349   3.650  1.00  0.00     0.167 HD
ATOM     54  C   UNL     1     -11.722   2.900   5.867  1.00  0.00     0.037 A 
ATOM     55  C   UNL     1      -8.032   7.603   2.223  1.00  0.00     0.037 A 
ATOM     56  C   UNL     1     -12.431   4.113   5.555  1.00  0.00     0.049 A 
ATOM     57  C   UNL     1      -9.483   7.824   2.579  1.00  0.00     0.074 A 
ATOM     58  C   UNL     1     -13.722   4.473   5.901  1.00  0.00     0.029 A 
ATOM     59  N   UNL     1     -11.909   5.162   4.812  1.00  0.00    -0.354 N 
ATOM     60  N   UNL     1     -10.294   7.068   3.279  1.00  0.00    -0.248 NA
ATOM     61  C   UNL     1     -10.100   9.066   2.090  1.00  0.00     0.031 C 
ATOM     62  C   UNL     1     -14.003   5.711   5.313  1.00  0.00     0.029 A 
ATOM     63  C   UNL     1     -12.864   6.156   4.662  1.00  0.00     0.049 A 
ATOM     64  H   UNL     1     -10.996   5.196   4.446  1.00  0.00     0.167 HD
ATOM     65  C   UNL     1     -11.500   7.756   3.347  1.00  0.00     0.074 A 
ATOM     66  C   UNL     1     -11.310   8.998   2.627  1.00  0.00     0.031 C 
ATOM     67  C   UNL     1     -12.659   7.394   3.953  1.00  0.00     0.037 A 
BRANCH  54  68
ATOM     68  C   UNL     1     -12.448   1.821   6.621  1.00  0.00     0.064 A 
ATOM     69  C   UNL     1     -12.101   1.470   7.935  1.00  0.00     0.173 A 
ATOM     70  C   UNL     1     -13.519   1.138   6.024  1.00  0.00     0.173 A 
ATOM     71  F   UNL     1     -11.077   2.081   8.549  1.00  0.00    -0.203 F 
ATOM     72  C   UNL     1     -12.774   0.452   8.607  1.00  0.00     0.198 A 
ATOM     73  C   UNL     1     -14.213   0.146   6.711  1.00  0.00     0.198 A 
ATOM     74  F   UNL     1     -13.898   1.437   4.772  1.00  0.00    -0.203 F 
ATOM     75  F   UNL     1     -12.386   0.094   9.839  1.00  0.00    -0.200 F 
ATOM     76  C   UNL     1     -13.833  -0.204   7.998  1.00  0.00     0.200 A 
ATOM     77  F   UNL     1     -15.245  -0.476   6.126  1.00  0.00    -0.200 F 
ATOM     78  F   UNL     1     -14.482  -1.180   8.647  1.00  0.00    -0.200 F 
ENDBRANCH  54  68
BRANCH  55  79
ATOM     79  C   UNL     1      -7.281   8.628   1.449  1.00  0.00     0.064 A 
ATOM     80  C   UNL     1      -7.007   9.889   1.995  1.00  0.00     0.173 A 
ATOM     81  C   UNL     1      -6.852   8.380   0.137  1.00  0.00     0.173 A 
ATOM     82  F   UNL     1      -7.423  10.187   3.235  1.00  0.00    -0.203 F 
ATOM     83  C   UNL     1      -6.350  10.869   1.253  1.00  0.00     0.198 A 
ATOM     84  C   UNL     1      -6.167   9.349  -0.593  1.00  0.00     0.198 A 
ATOM     85  F   UNL     1      -7.097   7.193  -0.438  1.00  0.00    -0.203 F 
ATOM     86  F   UNL     1      -6.150  12.085   1.781  1.00  0.00    -0.200 F 
ATOM     87  C   UNL     1      -5.925  10.596  -0.038  1.00  0.00     0.200 A 
ATOM     88  F   UNL     1      -5.749   9.078  -1.837  1.00  0.00    -0.200 F 
ATOM     89  F   UNL     1      -5.293  11.538  -0.751  1.00  0.00    -0.200 F 
ENDBRANCH  55  79
BRANCH  67  90
ATOM     90  C   UNL     1     -13.798   8.376   3.913  1.00  0.00     0.064 A 
ATOM     91  C   UNL     1     -14.487   8.669   2.726  1.00  0.00     0.173 A 
ATOM     92  C   UNL     1     -14.227   9.008   5.091  1.00  0.00     0.173 A 
ATOM     93  F   UNL     1     -14.111   8.102   1.570  1.00  0.00    -0.203 F 
ATOM     94  C   UNL     1     -15.536   9.585   2.714  1.00  0.00     0.198 A 
ATOM     95  C   UNL     1     -15.301   9.895   5.081  1.00  0.00     0.198 A 
ATOM     96  F   UNL     1     -13.613   8.757   6.257  1.00  0.00    -0.203 F 
ATOM     97  F   UNL     1     -16.139   9.894   1.558  1.00  0.00    -0.200 F 
ATOM     98  C   UNL     1     -15.947  10.191   3.892  1.00  0.00     0.200 A 
ATOM     99  F   UNL     1     -15.707  10.465   6.224  1.00  0.00    -0.200 F 
ATOM    100  F   UNL     1     -16.961  11.068   3.878  1.00  0.00    -0.200 F 
ENDBRANCH  67  90
ENDBRANCH  41  42
ENDBRANCH  34  36
ENDBRANCH  33  34
ENDBRANCH  32  33
ENDBRANCH  31  32
ENDBRANCH  30  31
ENDBRANCH  29  30
ENDBRANCH  28  29
ENDBRANCH  27  28
ENDBRANCH  26  27
ENDBRANCH   1  26
TORSDOF 26
