REMARK SMILES C=C[C@@H]1[C@@H](O)C[C@H]2[C@]3(CC[C@]4(C)[C@@H]([C@H](C)CCC=C(C)C)CC[C@]24C)C[C@]13CCC(=O)OCCOCCOCCOCCOC(=O)c1ccc(-c2c3nc(c(-c4c(F)c(F)c(F)c(F)c4F)c4ccc([nH]4)c(-c4c(F)c(F)c(F)c(F)c4F)c4nc(c(-c5c(F)c(F)c(F)c(F)c5F)c5ccc2[nH]5)C=C4)C=C3)cc1
REMARK SMILES IDX 36 1 35 2 34 3 33 4 32 5 30 6 31 7 29 8 28 9 27 10 3 11 4 12
REMARK SMILES IDX 6 13 8 14 26 15 7 16 9 17 24 18 10 19 11 20 23 21 25 22
REMARK SMILES IDX 13 23 12 24 22 25 2 26 1 27 5 28 14 30 15 31 16 32 17 33
REMARK SMILES IDX 18 34 19 35 20 36 21 37 37 38 38 39 39 40 40 41 41 42 42 43
REMARK SMILES IDX 43 44 44 45 45 46 46 47 47 48 48 49 109 50 49 51 108 52
REMARK SMILES IDX 50 53 51 54 52 55 102 56 53 57 107 58 101 59 103 60 54 61
REMARK SMILES IDX 106 62 100 63 99 64 55 66 87 67 67 68 86 69 68 70 71 71
REMARK SMILES IDX 85 72 104 73 69 74 70 75 84 77 105 78 72 79 56 80 57 81
REMARK SMILES IDX 65 82 58 83 59 84 63 85 66 86 60 87 61 88 64 89 62 90 88 91
REMARK SMILES IDX 89 92 97 93 90 94 91 95 95 96 98 97 92 98 93 99 96 100
REMARK SMILES IDX 94 101 73 102 74 103 82 104 75 105 76 106 80 107 83 108
REMARK SMILES IDX 77 109 78 110 81 111 79 112
REMARK H PARENT 5 29 103 65 71 76
REMARK Flexibility Score: inf
ROOT
ATOM      1  C   UNL     1       2.344  -1.363   5.450  1.00  0.00     0.188 C 
ENDROOT
BRANCH   1   2
ATOM      2  O   UNL     1       3.210  -0.242   5.344  1.00  0.00    -0.376 OA
BRANCH   2   3
ATOM      3  C   UNL     1       3.104   0.565   4.171  1.00  0.00     0.202 C 
BRANCH   3   4
ATOM      4  C   UNL     1       3.186  -0.139   2.815  1.00  0.00     0.261 C 
BRANCH   4   5
ATOM      5  O   UNL     1       2.048  -0.973   2.477  1.00  0.00    -0.463 OA
BRANCH   5   6
ATOM      6  C   UNL     1       2.377  -2.133   1.853  1.00  0.00     0.305 C 
ATOM      7  O   UNL     1       3.527  -2.564   1.790  1.00  0.00    -0.252 OA
BRANCH   6   8
ATOM      8  C   UNL     1       1.252  -2.926   1.216  1.00  0.00     0.123 C 
BRANCH   8   9
ATOM      9  C   UNL     1      -0.207  -2.494   1.262  1.00  0.00     0.020 C 
BRANCH   9  10
ATOM     10  C   UNL     1      -0.678  -1.447   0.236  1.00  0.00    -0.014 C 
ATOM     11  C   UNL     1      -0.813  -1.986  -1.210  1.00  0.00     0.047 C 
ATOM     12  C   UNL     1      -2.084  -1.495  -1.960  1.00  0.00     0.122 C 
ATOM     13  C   UNL     1      -2.545  -0.088  -1.601  1.00  0.00     0.037 C 
ATOM     14  C   UNL     1      -1.650  -0.352   0.749  1.00  0.00    -0.019 C 
ATOM     15  C   UNL     1      -0.228  -0.008   0.363  1.00  0.00     0.016 C 
ATOM     16  C   UNL     1      -2.858   0.100  -0.095  1.00  0.00     0.005 C 
ATOM     17  C   UNL     1      -1.917  -0.163   2.212  1.00  0.00     0.008 C 
ATOM     18  C   UNL     1      -3.363   1.585   0.276  1.00  0.00    -0.023 C 
ATOM     19  C   UNL     1      -1.989   1.323   2.421  1.00  0.00     0.008 C 
ATOM     20  C   UNL     1      -3.266   1.964   1.859  1.00  0.00    -0.024 C 
ATOM     21  C   UNL     1      -4.868   1.813   0.012  1.00  0.00     0.008 C 
ATOM     22  C   UNL     1      -2.624   2.576  -0.703  1.00  0.00     0.012 C 
ATOM     23  C   UNL     1      -4.760   1.496   2.545  1.00  0.00    -0.002 C 
ATOM     24  C   UNL     1      -2.948   3.453   1.855  1.00  0.00     0.012 C 
ATOM     25  C   UNL     1      -5.652   1.850   1.328  1.00  0.00     0.005 C 
BRANCH  11  26
ATOM     26  C   UNL     1       0.483  -1.867  -2.013  1.00  0.00    -0.028 C 
ATOM     27  C   UNL     1       1.001  -0.786  -2.612  1.00  0.00     0.004 C 
ENDBRANCH  11  26
BRANCH  12  28
ATOM     28  O   UNL     1      -3.169  -2.402  -1.722  1.00  0.00    -0.392 OA
ATOM     29  H   UNL     1      -3.393  -2.397  -0.779  1.00  0.00     0.210 HD
ENDBRANCH  12  28
BRANCH  23  30
ATOM     30  C   UNL     1      -5.790   1.622   4.054  1.00  0.00    -0.010 C 
ATOM     31  C   UNL     1      -7.257   1.953   3.665  1.00  0.00     0.008 C 
BRANCH  30  32
ATOM     32  C   UNL     1      -5.787   2.022   5.777  1.00  0.00     0.008 C 
BRANCH  32  33
ATOM     33  C   UNL     1      -5.113   3.056   6.856  1.00  0.00     0.027 C 
BRANCH  33  34
ATOM     34  C   UNL     1      -5.258   4.560   6.757  1.00  0.00    -0.028 C 
ATOM     35  C   UNL     1      -4.375   5.544   7.078  1.00  0.00    -0.080 C 
ATOM     36  C   UNL     1      -4.717   6.979   6.742  1.00  0.00     0.039 C 
ATOM     37  C   UNL     1      -2.987   5.422   7.682  1.00  0.00     0.039 C 
ENDBRANCH  33  34
ENDBRANCH  32  33
ENDBRANCH  30  32
ENDBRANCH  23  30
ENDBRANCH   9  10
ENDBRANCH   8   9
ENDBRANCH   6   8
ENDBRANCH   5   6
ENDBRANCH   4   5
ENDBRANCH   3   4
ENDBRANCH   2   3
ENDBRANCH   1   2
BRANCH   1  38
ATOM     38  C   UNL     1       0.841  -1.090   5.456  1.00  0.00     0.188 C 
BRANCH  38  39
ATOM     39  O   UNL     1       0.465   0.231   5.085  1.00  0.00    -0.377 OA
BRANCH  39  40
ATOM     40  C   UNL     1       0.520   1.198   6.132  1.00  0.00     0.188 C 
BRANCH  40  41
ATOM     41  C   UNL     1      -0.546   1.081   7.229  1.00  0.00     0.188 C 
BRANCH  41  42
ATOM     42  O   UNL     1      -1.482   0.024   7.087  1.00  0.00    -0.376 OA
BRANCH  42  43
ATOM     43  C   UNL     1      -2.170   0.010   5.849  1.00  0.00     0.202 C 
BRANCH  43  44
ATOM     44  C   UNL     1      -2.872   1.304   5.504  1.00  0.00     0.261 C 
BRANCH  44  45
ATOM     45  O   UNL     1      -2.199   2.620   5.409  1.00  0.00    -0.460 OA
BRANCH  45  46
ATOM     46  C   UNL     1      -3.051   3.542   4.856  1.00  0.00     0.338 C 
ATOM     47  O   UNL     1      -4.131   3.191   4.442  1.00  0.00    -0.246 OA
BRANCH  46  48
ATOM     48  C   UNL     1      -2.822   4.959   4.466  1.00  0.00     0.060 A 
ATOM     49  C   UNL     1      -1.594   5.587   4.378  1.00  0.00     0.016 A 
ATOM     50  C   UNL     1      -3.943   5.516   3.777  1.00  0.00     0.016 A 
ATOM     51  C   UNL     1      -1.487   6.723   3.556  1.00  0.00     0.010 A 
ATOM     52  C   UNL     1      -3.773   6.479   2.816  1.00  0.00     0.010 A 
ATOM     53  C   UNL     1      -2.555   7.131   2.723  1.00  0.00    -0.014 A 
BRANCH  53  54
ATOM     54  C   UNL     1      -2.469   8.203   1.705  1.00  0.00     0.031 A 
ATOM     55  C   UNL     1      -3.542   9.271   1.668  1.00  0.00     0.074 A 
ATOM     56  C   UNL     1      -1.563   8.091   0.716  1.00  0.00     0.049 A 
ATOM     57  N   UNL     1      -3.761  10.197   0.771  1.00  0.00    -0.248 NA
ATOM     58  C   UNL     1      -4.578   9.225   2.720  1.00  0.00     0.031 C 
ATOM     59  C   UNL     1      -0.631   6.972   0.531  1.00  0.00     0.029 A 
ATOM     60  N   UNL     1      -1.283   8.922  -0.334  1.00  0.00    -0.354 N 
ATOM     61  C   UNL     1      -4.977  10.775   1.121  1.00  0.00     0.074 A 
ATOM     62  C   UNL     1      -5.513  10.017   2.222  1.00  0.00     0.031 C 
ATOM     63  C   UNL     1       0.166   7.226  -0.520  1.00  0.00     0.029 A 
ATOM     64  C   UNL     1      -0.218   8.506  -1.097  1.00  0.00     0.049 A 
ATOM     65  H   UNL     1      -1.795   9.741  -0.525  1.00  0.00     0.167 HD
ATOM     66  C   UNL     1      -5.553  11.892   0.621  1.00  0.00     0.037 A 
ATOM     67  C   UNL     1       0.385   9.125  -2.128  1.00  0.00     0.037 A 
ATOM     68  C   UNL     1      -4.908  12.702  -0.373  1.00  0.00     0.049 A 
ATOM     69  C   UNL     1      -0.146  10.476  -2.530  1.00  0.00     0.074 A 
ATOM     70  C   UNL     1      -5.268  13.945  -0.852  1.00  0.00     0.029 A 
ATOM     71  N   UNL     1      -3.727  12.344  -1.010  1.00  0.00    -0.354 N 
ATOM     72  N   UNL     1      -1.211  11.107  -2.092  1.00  0.00    -0.248 NA
ATOM     73  C   UNL     1       0.618  11.216  -3.540  1.00  0.00     0.031 C 
ATOM     74  C   UNL     1      -4.305  14.336  -1.789  1.00  0.00     0.029 A 
ATOM     75  C   UNL     1      -3.332  13.349  -1.868  1.00  0.00     0.049 A 
ATOM     76  H   UNL     1      -3.244  11.497  -0.870  1.00  0.00     0.167 HD
ATOM     77  C   UNL     1      -1.229  12.329  -2.745  1.00  0.00     0.074 A 
ATOM     78  C   UNL     1      -0.054  12.358  -3.595  1.00  0.00     0.031 C 
ATOM     79  C   UNL     1      -2.132  13.337  -2.664  1.00  0.00     0.037 A 
BRANCH  66  80
ATOM     80  C   UNL     1      -6.872  12.331   1.197  1.00  0.00     0.064 A 
ATOM     81  C   UNL     1      -6.999  12.723   2.542  1.00  0.00     0.173 A 
ATOM     82  C   UNL     1      -8.028  12.363   0.403  1.00  0.00     0.173 A 
ATOM     83  F   UNL     1      -5.930  12.710   3.353  1.00  0.00    -0.203 F 
ATOM     84  C   UNL     1      -8.235  13.070   3.081  1.00  0.00     0.198 A 
ATOM     85  C   UNL     1      -9.258  12.750   0.936  1.00  0.00     0.198 A 
ATOM     86  F   UNL     1      -7.972  12.011  -0.890  1.00  0.00    -0.203 F 
ATOM     87  F   UNL     1      -8.336  13.360   4.386  1.00  0.00    -0.200 F 
ATOM     88  C   UNL     1      -9.363  13.089   2.277  1.00  0.00     0.200 A 
ATOM     89  F   UNL     1     -10.346  12.784   0.154  1.00  0.00    -0.200 F 
ATOM     90  F   UNL     1     -10.552  13.425   2.796  1.00  0.00    -0.200 F 
ENDBRANCH  66  80
BRANCH  67  91
ATOM     91  C   UNL     1       1.592   8.536  -2.767  1.00  0.00     0.064 A 
ATOM     92  C   UNL     1       2.855   9.121  -2.591  1.00  0.00     0.173 A 
ATOM     93  C   UNL     1       1.518   7.384  -3.562  1.00  0.00     0.173 A 
ATOM     94  F   UNL     1       2.982  10.222  -1.835  1.00  0.00    -0.203 F 
ATOM     95  C   UNL     1       3.986   8.609  -3.224  1.00  0.00     0.198 A 
ATOM     96  C   UNL     1       2.656   6.854  -4.172  1.00  0.00     0.198 A 
ATOM     97  F   UNL     1       0.342   6.765  -3.741  1.00  0.00    -0.203 F 
ATOM     98  F   UNL     1       5.167   9.226  -3.082  1.00  0.00    -0.200 F 
ATOM     99  C   UNL     1       3.886   7.475  -4.014  1.00  0.00     0.200 A 
ATOM    100  F   UNL     1       2.559   5.745  -4.917  1.00  0.00    -0.200 F 
ATOM    101  F   UNL     1       4.971   6.986  -4.628  1.00  0.00    -0.200 F 
ENDBRANCH  67  91
BRANCH  79 102
ATOM    102  C   UNL     1      -1.854  14.560  -3.477  1.00  0.00     0.064 A 
ATOM    103  C   UNL     1      -2.029  14.566  -4.867  1.00  0.00     0.173 A 
ATOM    104  C   UNL     1      -1.482  15.756  -2.845  1.00  0.00     0.173 A 
ATOM    105  F   UNL     1      -2.371  13.439  -5.509  1.00  0.00    -0.203 F 
ATOM    106  C   UNL     1      -1.822  15.727  -5.602  1.00  0.00     0.198 A 
ATOM    107  C   UNL     1      -1.307  16.922  -3.580  1.00  0.00     0.198 A 
ATOM    108  F   UNL     1      -1.314  15.795  -1.515  1.00  0.00    -0.203 F 
ATOM    109  F   UNL     1      -1.955  15.704  -6.935  1.00  0.00    -0.200 F 
ATOM    110  C   UNL     1      -1.472  16.905  -4.957  1.00  0.00     0.200 A 
ATOM    111  F   UNL     1      -0.986  18.063  -2.956  1.00  0.00    -0.200 F 
ATOM    112  F   UNL     1      -1.290  18.027  -5.667  1.00  0.00    -0.200 F 
ENDBRANCH  79 102
ENDBRANCH  53  54
ENDBRANCH  46  48
ENDBRANCH  45  46
ENDBRANCH  44  45
ENDBRANCH  43  44
ENDBRANCH  42  43
ENDBRANCH  41  42
ENDBRANCH  40  41
ENDBRANCH  39  40
ENDBRANCH  38  39
ENDBRANCH   1  38
TORSDOF 28
