REMARK SMILES C[C@@H]1[C@H](C)CCC[C@@H]1NC(=O)COc1csc(C(=O)OCCOCCOCCOCCOC(=O)c2ccc(-c3c4nc(c(-c5c(F)c(F)c(F)c(F)c5F)c5ccc([nH]5)c(-c5c(F)c(F)c(F)c(F)c5F)c5nc(c(-c6c(F)c(F)c(F)c(F)c6F)c6ccc3[nH]6)C=C5)C=C4)cc2)c1
REMARK SMILES IDX 25 1 24 2 23 3 22 4 21 5 20 6 18 7 19 8 17 9 14 10 15 11
REMARK SMILES IDX 98 12 16 13 13 14 12 15 10 16 9 17 11 19 8 20 1 21 2 22 3 23
REMARK SMILES IDX 4 24 5 25 7 26 6 27 26 28 27 29 28 30 29 31 30 32 31 33
REMARK SMILES IDX 32 34 33 35 34 36 35 37 36 38 97 39 37 40 96 41 38 42 39 43
REMARK SMILES IDX 40 44 90 45 41 46 95 47 89 48 91 49 42 50 94 51 88 52 87 53
REMARK SMILES IDX 43 55 75 56 55 57 74 58 56 59 59 60 73 61 92 62 57 63 58 64
REMARK SMILES IDX 72 66 93 67 60 68 44 69 45 70 53 71 46 72 47 73 51 74 54 75
REMARK SMILES IDX 48 76 49 77 52 78 50 79 76 80 77 81 85 82 78 83 79 84 83 85
REMARK SMILES IDX 86 86 80 87 81 88 84 89 82 90 61 91 62 92 70 93 63 94 64 95
REMARK SMILES IDX 68 96 71 97 65 98 66 99 69 100 67 101
REMARK H PARENT 9 18 91 54 59 65
REMARK Flexibility Score: inf
ROOT
ATOM      1  C   UNL     1      -0.936   2.239   7.647  1.00  0.00     0.188 C 
ENDROOT
BRANCH   1   2
ATOM      2  C   UNL     1      -2.009   3.249   8.085  1.00  0.00     0.188 C 
BRANCH   2   3
ATOM      3  O   UNL     1      -3.098   2.642   8.784  1.00  0.00    -0.376 OA
BRANCH   3   4
ATOM      4  C   UNL     1      -4.325   2.543   8.068  1.00  0.00     0.202 C 
BRANCH   4   5
ATOM      5  C   UNL     1      -4.377   1.423   7.019  1.00  0.00     0.261 C 
BRANCH   5   6
ATOM      6  O   UNL     1      -3.468   1.594   5.921  1.00  0.00    -0.459 OA
BRANCH   6   7
ATOM      7  C   UNL     1      -3.630   2.691   5.134  1.00  0.00     0.348 C 
ATOM      8  O   UNL     1      -4.595   3.444   5.185  1.00  0.00    -0.245 OA
BRANCH   7   9
ATOM      9  C   UNL     1      -2.418   2.877   4.367  1.00  0.00     0.116 A 
ATOM     10  C   UNL     1      -0.320   2.503   3.418  1.00  0.00     0.131 A 
ATOM     11  C   UNL     1      -0.383   3.876   3.387  1.00  0.00     0.112 A 
ATOM     12  C   UNL     1      -1.500   1.928   3.962  1.00  0.00     0.074 A 
ATOM     13  S   UNL     1      -1.895   4.455   3.961  1.00  0.00    -0.133 S 
BRANCH  10  14
ATOM     14  O   UNL     1       0.682   1.702   2.993  1.00  0.00    -0.483 OA
BRANCH  14  15
ATOM     15  C   UNL     1       1.934   2.283   2.746  1.00  0.00     0.329 C 
BRANCH  15  16
ATOM     16  C   UNL     1       2.198   3.316   1.646  1.00  0.00     0.258 C 
ATOM     17  N   UNL     1       1.763   3.198   0.368  1.00  0.00    -0.350 N 
ATOM     18  H   UNL     1       2.318   3.710  -0.264  1.00  0.00     0.163 HD
ATOM     19  O   UNL     1       2.931   4.284   1.888  1.00  0.00    -0.271 OA
BRANCH  17  20
ATOM     20  C   UNL     1       0.661   2.491  -0.303  1.00  0.00     0.085 C 
ATOM     21  C   UNL     1       1.729   0.157  -0.155  1.00  0.00     0.010 C 
ATOM     22  C   UNL     1       0.456   0.992   0.013  1.00  0.00     0.011 C 
ATOM     23  C   UNL     1      -0.756   0.452  -0.796  1.00  0.00    -0.009 C 
ATOM     24  C   UNL     1      -1.089  -1.001  -0.461  1.00  0.00     0.008 C 
ATOM     25  C   UNL     1      -0.569   0.641  -2.305  1.00  0.00     0.004 C 
ATOM     26  C   UNL     1       0.839   2.693  -1.823  1.00  0.00     0.025 C 
ATOM     27  C   UNL     1      -0.300   2.102  -2.646  1.00  0.00     0.002 C 
ENDBRANCH  17  20
ENDBRANCH  15  16
ENDBRANCH  14  15
ENDBRANCH  10  14
ENDBRANCH   7   9
ENDBRANCH   6   7
ENDBRANCH   5   6
ENDBRANCH   4   5
ENDBRANCH   3   4
ENDBRANCH   2   3
ENDBRANCH   1   2
BRANCH   1  28
ATOM     28  O   UNL     1      -1.323   0.892   7.864  1.00  0.00    -0.377 OA
BRANCH  28  29
ATOM     29  C   UNL     1      -1.121   0.351   9.168  1.00  0.00     0.188 C 
BRANCH  29  30
ATOM     30  C   UNL     1      -1.013   1.259  10.412  1.00  0.00     0.188 C 
BRANCH  30  31
ATOM     31  O   UNL     1      -0.061   2.314  10.281  1.00  0.00    -0.376 OA
BRANCH  31  32
ATOM     32  C   UNL     1       1.140   2.182  11.036  1.00  0.00     0.202 C 
BRANCH  32  33
ATOM     33  C   UNL     1       2.178   1.279  10.360  1.00  0.00     0.261 C 
BRANCH  33  34
ATOM     34  O   UNL     1       1.790  -0.101  10.268  1.00  0.00    -0.460 OA
BRANCH  34  35
ATOM     35  C   UNL     1       1.563  -0.748  11.431  1.00  0.00     0.338 C 
ATOM     36  O   UNL     1       1.719  -0.322  12.560  1.00  0.00    -0.246 OA
BRANCH  35  37
ATOM     37  C   UNL     1       0.915  -2.033  11.114  1.00  0.00     0.060 A 
ATOM     38  C   UNL     1      -0.294  -2.349  11.745  1.00  0.00     0.016 A 
ATOM     39  C   UNL     1       1.507  -2.925  10.216  1.00  0.00     0.016 A 
ATOM     40  C   UNL     1      -0.893  -3.587  11.513  1.00  0.00     0.010 A 
ATOM     41  C   UNL     1       0.916  -4.168   9.996  1.00  0.00     0.010 A 
ATOM     42  C   UNL     1      -0.265  -4.517  10.673  1.00  0.00    -0.014 A 
BRANCH  42  43
ATOM     43  C   UNL     1      -0.720  -5.926  10.663  1.00  0.00     0.031 A 
ATOM     44  C   UNL     1      -0.056  -6.892  11.602  1.00  0.00     0.074 A 
ATOM     45  C   UNL     1      -1.698  -6.339   9.840  1.00  0.00     0.049 A 
ATOM     46  N   UNL     1      -0.255  -8.176  11.756  1.00  0.00    -0.248 NA
ATOM     47  C   UNL     1       0.978  -6.332  12.488  1.00  0.00     0.031 C 
ATOM     48  C   UNL     1      -2.438  -5.490   8.911  1.00  0.00     0.029 A 
ATOM     49  N   UNL     1      -2.230  -7.590   9.655  1.00  0.00    -0.354 N 
ATOM     50  C   UNL     1       0.620  -8.573  12.757  1.00  0.00     0.074 A 
ATOM     51  C   UNL     1       1.379  -7.405  13.150  1.00  0.00     0.031 C 
ATOM     52  C   UNL     1      -3.330  -6.247   8.248  1.00  0.00     0.029 A 
ATOM     53  C   UNL     1      -3.201  -7.636   8.688  1.00  0.00     0.049 A 
ATOM     54  H   UNL     1      -1.941  -8.379  10.168  1.00  0.00     0.167 HD
ATOM     55  C   UNL     1       0.771  -9.799  13.309  1.00  0.00     0.037 A 
ATOM     56  C   UNL     1      -3.894  -8.687   8.209  1.00  0.00     0.037 A 
ATOM     57  C   UNL     1       0.033 -10.965  12.906  1.00  0.00     0.049 A 
ATOM     58  C   UNL     1      -3.638 -10.062   8.772  1.00  0.00     0.074 A 
ATOM     59  C   UNL     1       0.108 -12.252  13.405  1.00  0.00     0.029 A 
ATOM     60  N   UNL     1      -0.911 -10.982  11.890  1.00  0.00    -0.354 N 
ATOM     61  N   UNL     1      -2.834 -10.426   9.742  1.00  0.00    -0.248 NA
ATOM     62  C   UNL     1      -4.389 -11.173   8.170  1.00  0.00     0.031 C 
ATOM     63  C   UNL     1      -0.760 -13.059  12.660  1.00  0.00     0.029 A 
ATOM     64  C   UNL     1      -1.408 -12.264  11.729  1.00  0.00     0.049 A 
ATOM     65  H   UNL     1      -1.187 -10.198  11.362  1.00  0.00     0.167 HD
ATOM     66  C   UNL     1      -3.006 -11.796   9.888  1.00  0.00     0.074 A 
ATOM     67  C   UNL     1      -3.995 -12.200   8.911  1.00  0.00     0.031 C 
ATOM     68  C   UNL     1      -2.402 -12.645  10.757  1.00  0.00     0.037 A 
BRANCH  55  69
ATOM     69  C   UNL     1       1.797  -9.936  14.394  1.00  0.00     0.064 A 
ATOM     70  C   UNL     1       1.592  -9.389  15.670  1.00  0.00     0.173 A 
ATOM     71  C   UNL     1       2.999 -10.617  14.155  1.00  0.00     0.173 A 
ATOM     72  F   UNL     1       0.466  -8.711  15.941  1.00  0.00    -0.203 F 
ATOM     73  C   UNL     1       2.568  -9.492  16.657  1.00  0.00     0.198 A 
ATOM     74  C   UNL     1       3.962 -10.741  15.153  1.00  0.00     0.198 A 
ATOM     75  F   UNL     1       3.244 -11.156  12.951  1.00  0.00    -0.203 F 
ATOM     76  F   UNL     1       2.374  -8.915  17.852  1.00  0.00    -0.200 F 
ATOM     77  C   UNL     1       3.749 -10.171  16.400  1.00  0.00     0.200 A 
ATOM     78  F   UNL     1       5.101 -11.402  14.905  1.00  0.00    -0.200 F 
ATOM     79  F   UNL     1       4.689 -10.267  17.350  1.00  0.00    -0.200 F 
ENDBRANCH  55  69
BRANCH  56  80
ATOM     80  C   UNL     1      -4.904  -8.487   7.138  1.00  0.00     0.064 A 
ATOM     81  C   UNL     1      -6.272  -8.636   7.406  1.00  0.00     0.173 A 
ATOM     82  C   UNL     1      -4.525  -8.168   5.827  1.00  0.00     0.173 A 
ATOM     83  F   UNL     1      -6.679  -8.970   8.640  1.00  0.00    -0.203 F 
ATOM     84  C   UNL     1      -7.222  -8.487   6.399  1.00  0.00     0.198 A 
ATOM     85  C   UNL     1      -5.479  -7.995   4.825  1.00  0.00     0.198 A 
ATOM     86  F   UNL     1      -3.228  -8.021   5.519  1.00  0.00    -0.203 F 
ATOM     87  F   UNL     1      -8.520  -8.677   6.672  1.00  0.00    -0.200 F 
ATOM     88  C   UNL     1      -6.826  -8.161   5.111  1.00  0.00     0.200 A 
ATOM     89  F   UNL     1      -5.092  -7.675   3.583  1.00  0.00    -0.200 F 
ATOM     90  F   UNL     1      -7.740  -8.018   4.142  1.00  0.00    -0.200 F 
ENDBRANCH  56  80
BRANCH  68  91
ATOM     91  C   UNL     1      -2.822 -14.085  10.720  1.00  0.00     0.064 A 
ATOM     92  C   UNL     1      -2.429 -14.940   9.682  1.00  0.00     0.173 A 
ATOM     93  C   UNL     1      -3.589 -14.625  11.764  1.00  0.00     0.173 A 
ATOM     94  F   UNL     1      -1.708 -14.467   8.654  1.00  0.00    -0.203 F 
ATOM     95  C   UNL     1      -2.806 -16.281   9.679  1.00  0.00     0.198 A 
ATOM     96  C   UNL     1      -3.941 -15.972  11.771  1.00  0.00     0.198 A 
ATOM     97  F   UNL     1      -3.984 -13.849  12.785  1.00  0.00    -0.203 F 
ATOM     98  F   UNL     1      -2.454 -17.072   8.655  1.00  0.00    -0.200 F 
ATOM     99  C   UNL     1      -3.555 -16.797  10.726  1.00  0.00     0.200 A 
ATOM    100  F   UNL     1      -4.654 -16.471  12.790  1.00  0.00    -0.200 F 
ATOM    101  F   UNL     1      -3.910 -18.089  10.725  1.00  0.00    -0.200 F 
ENDBRANCH  68  91
ENDBRANCH  42  43
ENDBRANCH  35  37
ENDBRANCH  34  35
ENDBRANCH  33  34
ENDBRANCH  32  33
ENDBRANCH  31  32
ENDBRANCH  30  31
ENDBRANCH  29  30
ENDBRANCH  28  29
ENDBRANCH   1  28
TORSDOF 24
