REMARK SMILES C[C@@H](Sc1nc2ccccc2c(=O)n1N)C(=O)OCCOCCOCCOCCOC(=O)c1ccc(-c2c3nc(c(-c4c(F)c(F)c(F)c(F)c4F)c4ccc([nH]4)c(-c4c(F)c(F)c(F)c(F)c4F)c4nc(c(-c5c(F)c(F)c(F)c(F)c5F)c5ccc2[nH]5)C=C4)C=C3)cc1
REMARK SMILES IDX 23 1 22 2 21 3 20 4 19 5 18 6 16 7 17 8 2 9 1 10 3 11 4 12
REMARK SMILES IDX 5 13 14 14 6 15 12 16 7 17 11 18 13 19 8 20 10 21 9 22 15 23
REMARK SMILES IDX 24 26 25 27 26 28 27 29 28 30 29 31 30 32 31 33 32 34 33 35
REMARK SMILES IDX 34 36 95 37 35 38 94 39 36 40 37 41 38 42 88 43 39 44 93 45
REMARK SMILES IDX 87 46 89 47 40 48 92 49 86 50 85 51 41 53 73 54 53 55 72 56
REMARK SMILES IDX 54 57 57 58 71 59 90 60 55 61 56 62 70 64 91 65 58 66 42 67
REMARK SMILES IDX 43 68 51 69 44 70 45 71 49 72 52 73 46 74 47 75 50 76 48 77
REMARK SMILES IDX 74 78 75 79 83 80 76 81 77 82 81 83 84 84 78 85 79 86 82 87
REMARK SMILES IDX 80 88 59 89 60 90 68 91 61 92 62 93 66 94 69 95 63 96 64 97
REMARK SMILES IDX 67 98 65 99
REMARK H PARENT 15 24 15 25 89 52 57 63
REMARK Flexibility Score: inf
ROOT
ATOM      1  C   UNL     1      -1.301   0.381   1.313  1.00  0.00     0.188 C 
ENDROOT
BRANCH   1   2
ATOM      2  C   UNL     1      -1.997   1.740   1.147  1.00  0.00     0.188 C 
BRANCH   2   3
ATOM      3  O   UNL     1      -3.329   1.832   0.672  1.00  0.00    -0.376 OA
BRANCH   3   4
ATOM      4  C   UNL     1      -3.777   1.213  -0.523  1.00  0.00     0.202 C 
BRANCH   4   5
ATOM      5  C   UNL     1      -2.947   1.060  -1.806  1.00  0.00     0.261 C 
BRANCH   5   6
ATOM      6  O   UNL     1      -1.577   0.688  -1.656  1.00  0.00    -0.462 OA
BRANCH   6   7
ATOM      7  C   UNL     1      -0.690   1.705  -1.745  1.00  0.00     0.319 C 
ATOM      8  O   UNL     1      -1.013   2.879  -1.915  1.00  0.00    -0.251 OA
BRANCH   7   9
ATOM      9  C   UNL     1       0.765   1.268  -1.590  1.00  0.00     0.161 C 
ATOM     10  C   UNL     1       1.057  -0.192  -1.230  1.00  0.00     0.032 C 
BRANCH   9  11
ATOM     11  S   UNL     1       1.560   1.751  -3.162  1.00  0.00    -0.071 SA
BRANCH  11  12
ATOM     12  C   UNL     1       3.231   1.562  -2.724  1.00  0.00     0.191 A 
ATOM     13  N   UNL     1       3.858   0.590  -3.296  1.00  0.00    -0.222 NA
ATOM     14  N   UNL     1       3.820   2.475  -1.857  1.00  0.00    -0.202 N 
ATOM     15  C   UNL     1       5.229   0.470  -3.069  1.00  0.00     0.079 A 
ATOM     16  C   UNL     1       5.196   2.460  -1.622  1.00  0.00     0.280 A 
ATOM     17  C   UNL     1       5.908  -0.577  -3.693  1.00  0.00     0.029 A 
ATOM     18  C   UNL     1       5.948   1.389  -2.304  1.00  0.00     0.068 A 
ATOM     19  O   UNL     1       5.772   3.282  -0.911  1.00  0.00    -0.267 OA
ATOM     20  C   UNL     1       7.295  -0.678  -3.589  1.00  0.00     0.002 A 
ATOM     21  C   UNL     1       7.339   1.301  -2.200  1.00  0.00     0.016 A 
ATOM     22  C   UNL     1       8.011   0.269  -2.855  1.00  0.00     0.001 A 
BRANCH  14  23
ATOM     23  N   UNL     1       3.055   3.465  -1.155  1.00  0.00    -0.334 N 
ATOM     24  H   UNL     1       2.080   3.518  -1.285  1.00  0.00     0.178 HD
ATOM     25  H   UNL     1       3.504   4.091  -0.542  1.00  0.00     0.178 HD
ENDBRANCH  14  23
ENDBRANCH  11  12
ENDBRANCH   9  11
ENDBRANCH   7   9
ENDBRANCH   6   7
ENDBRANCH   5   6
ENDBRANCH   4   5
ENDBRANCH   3   4
ENDBRANCH   2   3
ENDBRANCH   1   2
BRANCH   1  26
ATOM     26  O   UNL     1      -1.859  -0.664   0.544  1.00  0.00    -0.377 OA
BRANCH  26  27
ATOM     27  C   UNL     1      -2.841  -1.488   1.161  1.00  0.00     0.188 C 
BRANCH  27  28
ATOM     28  C   UNL     1      -3.738  -0.904   2.274  1.00  0.00     0.188 C 
BRANCH  28  29
ATOM     29  O   UNL     1      -3.032  -0.173   3.266  1.00  0.00    -0.376 OA
BRANCH  29  30
ATOM     30  C   UNL     1      -2.716  -0.817   4.490  1.00  0.00     0.202 C 
BRANCH  30  31
ATOM     31  C   UNL     1      -1.730  -1.994   4.434  1.00  0.00     0.261 C 
BRANCH  31  32
ATOM     32  O   UNL     1      -2.103  -3.105   3.605  1.00  0.00    -0.460 OA
BRANCH  32  33
ATOM     33  C   UNL     1      -3.272  -3.727   3.853  1.00  0.00     0.338 C 
ATOM     34  O   UNL     1      -4.064  -3.493   4.751  1.00  0.00    -0.246 OA
BRANCH  33  35
ATOM     35  C   UNL     1      -3.528  -4.643   2.724  1.00  0.00     0.060 A 
ATOM     36  C   UNL     1      -4.683  -4.477   1.946  1.00  0.00     0.016 A 
ATOM     37  C   UNL     1      -2.618  -5.660   2.435  1.00  0.00     0.016 A 
ATOM     38  C   UNL     1      -4.951  -5.359   0.896  1.00  0.00     0.010 A 
ATOM     39  C   UNL     1      -2.896  -6.552   1.401  1.00  0.00     0.010 A 
ATOM     40  C   UNL     1      -4.081  -6.428   0.653  1.00  0.00    -0.014 A 
BRANCH  40  41
ATOM     41  C   UNL     1      -4.492  -7.561  -0.210  1.00  0.00     0.031 A 
ATOM     42  C   UNL     1      -5.025  -8.793   0.463  1.00  0.00     0.074 A 
ATOM     43  C   UNL     1      -4.338  -7.528  -1.543  1.00  0.00     0.049 A 
ATOM     44  N   UNL     1      -5.266  -9.979  -0.030  1.00  0.00    -0.248 NA
ATOM     45  C   UNL     1      -5.305  -8.668   1.902  1.00  0.00     0.031 C 
ATOM     46  C   UNL     1      -3.877  -6.377  -2.313  1.00  0.00     0.029 A 
ATOM     47  N   UNL     1      -4.523  -8.515  -2.479  1.00  0.00    -0.354 N 
ATOM     48  C   UNL     1      -5.696 -10.749   1.042  1.00  0.00     0.074 A 
ATOM     49  C   UNL     1      -5.660  -9.903   2.215  1.00  0.00     0.031 C 
ATOM     50  C   UNL     1      -3.779  -6.733  -3.605  1.00  0.00     0.029 A 
ATOM     51  C   UNL     1      -4.123  -8.149  -3.740  1.00  0.00     0.049 A 
ATOM     52  H   UNL     1      -4.904  -9.397  -2.268  1.00  0.00     0.167 HD
ATOM     53  C   UNL     1      -6.081 -12.047   1.047  1.00  0.00     0.037 A 
ATOM     54  C   UNL     1      -4.003  -8.889  -4.861  1.00  0.00     0.037 A 
ATOM     55  C   UNL     1      -6.102 -12.879  -0.126  1.00  0.00     0.049 A 
ATOM     56  C   UNL     1      -4.367 -10.352  -4.826  1.00  0.00     0.074 A 
ATOM     57  C   UNL     1      -6.498 -14.199  -0.240  1.00  0.00     0.029 A 
ATOM     58  N   UNL     1      -5.691 -12.473  -1.388  1.00  0.00    -0.354 N 
ATOM     59  N   UNL     1      -4.789 -11.077  -3.818  1.00  0.00    -0.248 NA
ATOM     60  C   UNL     1      -4.239 -11.100  -6.085  1.00  0.00     0.031 C 
ATOM     61  C   UNL     1      -6.258 -14.612  -1.555  1.00  0.00     0.029 A 
ATOM     62  C   UNL     1      -5.792 -13.527  -2.281  1.00  0.00     0.049 A 
ATOM     63  H   UNL     1      -5.374 -11.569  -1.615  1.00  0.00     0.167 HD
ATOM     64  C   UNL     1      -5.011 -12.352  -4.325  1.00  0.00     0.074 A 
ATOM     65  C   UNL     1      -4.674 -12.302  -5.733  1.00  0.00     0.031 C 
ATOM     66  C   UNL     1      -5.465 -13.459  -3.684  1.00  0.00     0.037 A 
BRANCH  53  67
ATOM     67  C   UNL     1      -6.450 -12.650   2.373  1.00  0.00     0.064 A 
ATOM     68  C   UNL     1      -7.584 -12.239   3.091  1.00  0.00     0.173 A 
ATOM     69  C   UNL     1      -5.642 -13.646   2.943  1.00  0.00     0.173 A 
ATOM     70  F   UNL     1      -8.384 -11.280   2.600  1.00  0.00    -0.203 F 
ATOM     71  C   UNL     1      -7.866 -12.766   4.349  1.00  0.00     0.198 A 
ATOM     72  C   UNL     1      -5.949 -14.199   4.183  1.00  0.00     0.198 A 
ATOM     73  F   UNL     1      -4.547 -14.081   2.300  1.00  0.00    -0.203 F 
ATOM     74  F   UNL     1      -8.910 -12.301   5.049  1.00  0.00    -0.200 F 
ATOM     75  C   UNL     1      -7.051 -13.748   4.892  1.00  0.00     0.200 A 
ATOM     76  F   UNL     1      -5.169 -15.159   4.698  1.00  0.00    -0.200 F 
ATOM     77  F   UNL     1      -7.321 -14.250   6.105  1.00  0.00    -0.200 F 
ENDBRANCH  53  67
BRANCH  54  78
ATOM     78  C   UNL     1      -3.496  -8.252  -6.105  1.00  0.00     0.064 A 
ATOM     79  C   UNL     1      -4.339  -8.035  -7.202  1.00  0.00     0.173 A 
ATOM     80  C   UNL     1      -2.163  -7.825  -6.211  1.00  0.00     0.173 A 
ATOM     81  F   UNL     1      -5.614  -8.450  -7.159  1.00  0.00    -0.203 F 
ATOM     82  C   UNL     1      -3.870  -7.417  -8.359  1.00  0.00     0.198 A 
ATOM     83  C   UNL     1      -1.702  -7.181  -7.357  1.00  0.00     0.198 A 
ATOM     84  F   UNL     1      -1.314  -8.012  -5.190  1.00  0.00    -0.203 F 
ATOM     85  F   UNL     1      -4.689  -7.250  -9.406  1.00  0.00    -0.200 F 
ATOM     86  C   UNL     1      -2.555  -6.981  -8.432  1.00  0.00     0.200 A 
ATOM     87  F   UNL     1      -0.435  -6.750  -7.418  1.00  0.00    -0.200 F 
ATOM     88  F   UNL     1      -2.109  -6.372  -9.539  1.00  0.00    -0.200 F 
ENDBRANCH  54  78
BRANCH  66  89
ATOM     89  C   UNL     1      -5.689 -14.701  -4.501  1.00  0.00     0.064 A 
ATOM     90  C   UNL     1      -4.627 -15.465  -5.004  1.00  0.00     0.173 A 
ATOM     91  C   UNL     1      -6.995 -15.175  -4.711  1.00  0.00     0.173 A 
ATOM     92  F   UNL     1      -3.361 -15.053  -4.842  1.00  0.00    -0.203 F 
ATOM     93  C   UNL     1      -4.864 -16.649  -5.699  1.00  0.00     0.198 A 
ATOM     94  C   UNL     1      -7.226 -16.375  -5.376  1.00  0.00     0.198 A 
ATOM     95  F   UNL     1      -8.047 -14.486  -4.243  1.00  0.00    -0.203 F 
ATOM     96  F   UNL     1      -3.836 -17.346  -6.204  1.00  0.00    -0.200 F 
ATOM     97  C   UNL     1      -6.162 -17.109  -5.874  1.00  0.00     0.200 A 
ATOM     98  F   UNL     1      -8.480 -16.825  -5.526  1.00  0.00    -0.200 F 
ATOM     99  F   UNL     1      -6.386 -18.259  -6.525  1.00  0.00    -0.200 F 
ENDBRANCH  66  89
ENDBRANCH  40  41
ENDBRANCH  33  35
ENDBRANCH  32  33
ENDBRANCH  31  32
ENDBRANCH  30  31
ENDBRANCH  29  30
ENDBRANCH  28  29
ENDBRANCH  27  28
ENDBRANCH  26  27
ENDBRANCH   1  26
TORSDOF 23
