REMARK SMILES Cc1ccc(F)cc1NC(=O)c1nn(C)cc1C(=O)OCCOCCOCCOCCOC(=O)c1ccc(-c2c3nc(c(-c4c(F)c(F)c(F)c(F)c4F)c4ccc([nH]4)c(-c4c(F)c(F)c(F)c(F)c4F)c4nc(c(-c5c(F)c(F)c(F)c(F)c5F)c5ccc2[nH]5)C=C4)C=C3)cc1
REMARK SMILES IDX 26 1 25 2 24 3 23 4 22 5 21 6 20 7 18 8 19 9 17 10 12 11
REMARK SMILES IDX 13 12 14 13 16 14 15 15 10 16 9 17 11 19 8 20 1 21 2 22 3 23
REMARK SMILES IDX 4 24 7 25 5 26 6 27 27 28 28 29 29 30 30 31 31 32 32 33
REMARK SMILES IDX 33 34 34 35 35 36 36 37 97 38 37 39 96 40 38 41 39 42 40 43
REMARK SMILES IDX 90 44 41 45 95 46 89 47 91 48 42 49 94 50 88 51 87 52 43 54
REMARK SMILES IDX 75 55 55 56 74 57 56 58 59 59 73 60 92 61 57 62 58 63 72 65
REMARK SMILES IDX 93 66 60 67 44 68 45 69 53 70 46 71 47 72 51 73 54 74 48 75
REMARK SMILES IDX 49 76 52 77 50 78 76 79 77 80 85 81 78 82 79 83 83 84 86 85
REMARK SMILES IDX 80 86 81 87 84 88 82 89 61 90 62 91 70 92 63 93 64 94 68 95
REMARK SMILES IDX 71 96 65 97 66 98 69 99 67 100
REMARK H PARENT 9 18 91 53 59 64
REMARK Flexibility Score: inf
ROOT
ATOM      1  O   UNL     1      -0.688   0.493  -2.371  1.00  0.00    -0.377 OA
ENDROOT
BRANCH   1   2
ATOM      2  C   UNL     1       0.358  -0.297  -1.857  1.00  0.00     0.188 C 
BRANCH   2   3
ATOM      3  C   UNL     1       1.139  -0.970  -2.985  1.00  0.00     0.188 C 
BRANCH   3   4
ATOM      4  O   UNL     1       0.956  -0.484  -4.310  1.00  0.00    -0.376 OA
BRANCH   4   5
ATOM      5  C   UNL     1      -0.371  -0.350  -4.818  1.00  0.00     0.202 C 
BRANCH   5   6
ATOM      6  C   UNL     1      -1.346  -1.539  -4.702  1.00  0.00     0.261 C 
BRANCH   6   7
ATOM      7  O   UNL     1      -1.678  -2.004  -3.373  1.00  0.00    -0.460 OA
BRANCH   7   8
ATOM      8  C   UNL     1      -1.163  -3.209  -3.005  1.00  0.00     0.342 C 
ATOM      9  O   UNL     1      -0.370  -3.863  -3.707  1.00  0.00    -0.246 OA
BRANCH   8  10
ATOM     10  C   UNL     1      -1.595  -3.692  -1.716  1.00  0.00     0.111 A 
ATOM     11  C   UNL     1      -0.830  -4.377  -0.716  1.00  0.00     0.165 A 
ATOM     12  N   UNL     1      -1.643  -4.886   0.231  1.00  0.00    -0.167 NA
ATOM     13  N   UNL     1      -2.844  -4.347  -0.030  1.00  0.00    -0.274 N 
ATOM     14  C   UNL     1      -2.874  -3.620  -1.182  1.00  0.00     0.125 A 
ATOM     15  C   UNL     1      -3.924  -4.580   0.899  1.00  0.00     0.173 C 
BRANCH  11  16
ATOM     16  C   UNL     1       0.636  -4.552  -0.636  1.00  0.00     0.277 C 
ATOM     17  N   UNL     1       1.406  -3.714   0.180  1.00  0.00    -0.320 N 
ATOM     18  H   UNL     1       2.372  -3.901   0.185  1.00  0.00     0.170 HD
ATOM     19  O   UNL     1       1.234  -5.363  -1.343  1.00  0.00    -0.267 OA
BRANCH  17  20
ATOM     20  C   UNL     1       0.996  -2.643   0.995  1.00  0.00     0.047 A 
ATOM     21  C   UNL     1       3.181  -1.329   0.550  1.00  0.00     0.046 C 
ATOM     22  C   UNL     1       1.783  -1.483   1.080  1.00  0.00    -0.027 A 
ATOM     23  C   UNL     1       1.155  -0.314   1.517  1.00  0.00     0.008 A 
ATOM     24  C   UNL     1      -0.206  -0.310   1.813  1.00  0.00     0.039 A 
ATOM     25  C   UNL     1      -0.253  -2.661   1.618  1.00  0.00     0.065 A 
ATOM     26  C   UNL     1      -0.891  -1.487   1.927  1.00  0.00     0.125 A 
ATOM     27  F   UNL     1      -2.188  -1.480   2.262  1.00  0.00    -0.207 F 
ENDBRANCH  17  20
ENDBRANCH  11  16
ENDBRANCH   8  10
ENDBRANCH   7   8
ENDBRANCH   6   7
ENDBRANCH   5   6
ENDBRANCH   4   5
ENDBRANCH   3   4
ENDBRANCH   2   3
ENDBRANCH   1   2
BRANCH   1  28
ATOM     28  C   UNL     1      -0.976   1.696  -1.697  1.00  0.00     0.188 C 
BRANCH  28  29
ATOM     29  C   UNL     1       0.249   2.511  -1.276  1.00  0.00     0.188 C 
BRANCH  29  30
ATOM     30  O   UNL     1       0.620   2.090   0.047  1.00  0.00    -0.376 OA
BRANCH  30  31
ATOM     31  C   UNL     1       0.485   3.058   1.078  1.00  0.00     0.202 C 
BRANCH  31  32
ATOM     32  C   UNL     1      -0.830   3.027   1.907  1.00  0.00     0.261 C 
BRANCH  32  33
ATOM     33  O   UNL     1      -2.028   2.628   1.225  1.00  0.00    -0.460 OA
BRANCH  33  34
ATOM     34  C   UNL     1      -2.347   3.402   0.174  1.00  0.00     0.338 C 
ATOM     35  O   UNL     1      -1.626   4.275  -0.308  1.00  0.00    -0.246 OA
BRANCH  34  36
ATOM     36  C   UNL     1      -3.744   3.196  -0.340  1.00  0.00     0.060 A 
ATOM     37  C   UNL     1      -3.942   4.189  -1.320  1.00  0.00     0.016 A 
ATOM     38  C   UNL     1      -4.584   3.181   0.766  1.00  0.00     0.016 A 
ATOM     39  C   UNL     1      -4.230   5.454  -0.847  1.00  0.00     0.010 A 
ATOM     40  C   UNL     1      -4.873   4.419   1.279  1.00  0.00     0.010 A 
ATOM     41  C   UNL     1      -4.580   5.554   0.496  1.00  0.00    -0.014 A 
BRANCH  41  42
ATOM     42  C   UNL     1      -5.002   6.796   1.073  1.00  0.00     0.031 A 
ATOM     43  C   UNL     1      -6.382   7.150   0.700  1.00  0.00     0.074 A 
ATOM     44  C   UNL     1      -4.240   7.392   2.012  1.00  0.00     0.049 A 
ATOM     45  N   UNL     1      -6.860   8.339   0.714  1.00  0.00    -0.248 NA
ATOM     46  C   UNL     1      -7.315   6.166   0.124  1.00  0.00     0.031 C 
ATOM     47  C   UNL     1      -4.718   8.218   3.108  1.00  0.00     0.029 A 
ATOM     48  N   UNL     1      -2.839   7.405   2.147  1.00  0.00    -0.354 N 
ATOM     49  C   UNL     1      -8.220   8.197   0.554  1.00  0.00     0.074 A 
ATOM     50  C   UNL     1      -8.427   6.888  -0.003  1.00  0.00     0.031 C 
ATOM     51  C   UNL     1      -3.670   8.818   3.696  1.00  0.00     0.029 A 
ATOM     52  C   UNL     1      -2.492   8.565   2.879  1.00  0.00     0.049 A 
ATOM     53  H   UNL     1      -2.214   6.730   1.797  1.00  0.00     0.167 HD
ATOM     54  C   UNL     1      -9.042   9.091   1.163  1.00  0.00     0.037 A 
ATOM     55  C   UNL     1      -1.743   9.584   2.345  1.00  0.00     0.037 A 
ATOM     56  C   UNL     1      -8.244  10.074   1.887  1.00  0.00     0.049 A 
ATOM     57  C   UNL     1      -2.521  10.829   2.084  1.00  0.00     0.074 A 
ATOM     58  C   UNL     1      -7.813  10.114   3.204  1.00  0.00     0.029 A 
ATOM     59  N   UNL     1      -7.400  10.918   1.175  1.00  0.00    -0.354 N 
ATOM     60  N   UNL     1      -3.816  10.868   1.988  1.00  0.00    -0.248 NA
ATOM     61  C   UNL     1      -1.879  12.115   1.875  1.00  0.00     0.031 C 
ATOM     62  C   UNL     1      -6.706  10.994   3.279  1.00  0.00     0.029 A 
ATOM     63  C   UNL     1      -6.463  11.494   2.011  1.00  0.00     0.049 A 
ATOM     64  H   UNL     1      -7.461  11.083   0.206  1.00  0.00     0.167 HD
ATOM     65  C   UNL     1      -4.197  12.148   1.704  1.00  0.00     0.074 A 
ATOM     66  C   UNL     1      -2.952  12.895   1.679  1.00  0.00     0.031 C 
ATOM     67  C   UNL     1      -5.507  12.466   1.502  1.00  0.00     0.037 A 
BRANCH  54  68
ATOM     68  C   UNL     1     -10.501   8.814   1.404  1.00  0.00     0.064 A 
ATOM     69  C   UNL     1     -11.118   9.212   2.607  1.00  0.00     0.173 A 
ATOM     70  C   UNL     1     -11.337   8.135   0.497  1.00  0.00     0.173 A 
ATOM     71  F   UNL     1     -10.456   9.909   3.538  1.00  0.00    -0.203 F 
ATOM     72  C   UNL     1     -12.443   8.897   2.908  1.00  0.00     0.198 A 
ATOM     73  C   UNL     1     -12.651   7.777   0.819  1.00  0.00     0.198 A 
ATOM     74  F   UNL     1     -10.914   7.825  -0.737  1.00  0.00    -0.203 F 
ATOM     75  F   UNL     1     -12.973   9.308   4.069  1.00  0.00    -0.200 F 
ATOM     76  C   UNL     1     -13.204   8.160   2.025  1.00  0.00     0.200 A 
ATOM     77  F   UNL     1     -13.379   7.060  -0.049  1.00  0.00    -0.200 F 
ATOM     78  F   UNL     1     -14.468   7.838   2.328  1.00  0.00    -0.200 F 
ENDBRANCH  54  68
BRANCH  55  79
ATOM     79  C   UNL     1      -0.565   9.227   1.504  1.00  0.00     0.064 A 
ATOM     80  C   UNL     1       0.461   8.620   2.241  1.00  0.00     0.173 A 
ATOM     81  C   UNL     1      -0.856   8.766   0.211  1.00  0.00     0.173 A 
ATOM     82  F   UNL     1       0.851   9.132   3.417  1.00  0.00    -0.203 F 
ATOM     83  C   UNL     1       0.776   7.320   1.950  1.00  0.00     0.198 A 
ATOM     84  C   UNL     1      -0.540   7.464  -0.088  1.00  0.00     0.198 A 
ATOM     85  F   UNL     1      -1.701   9.434  -0.584  1.00  0.00    -0.203 F 
ATOM     86  F   UNL     1       1.408   6.551   2.849  1.00  0.00    -0.200 F 
ATOM     87  C   UNL     1       0.118   6.738   0.888  1.00  0.00     0.200 A 
ATOM     88  F   UNL     1      -1.100   6.855  -1.142  1.00  0.00    -0.200 F 
ATOM     89  F   UNL     1      -0.267   5.494   1.095  1.00  0.00    -0.200 F 
ENDBRANCH  55  79
BRANCH  67  90
ATOM     90  C   UNL     1      -6.020  13.755   0.911  1.00  0.00     0.064 A 
ATOM     91  C   UNL     1      -5.243  14.645   0.153  1.00  0.00     0.173 A 
ATOM     92  C   UNL     1      -7.396  14.083   0.998  1.00  0.00     0.173 A 
ATOM     93  F   UNL     1      -3.971  14.382  -0.165  1.00  0.00    -0.203 F 
ATOM     94  C   UNL     1      -5.772  15.824  -0.373  1.00  0.00     0.198 A 
ATOM     95  C   UNL     1      -7.939  15.207   0.385  1.00  0.00     0.198 A 
ATOM     96  F   UNL     1      -8.274  13.315   1.659  1.00  0.00    -0.203 F 
ATOM     97  F   UNL     1      -4.962  16.682  -1.008  1.00  0.00    -0.200 F 
ATOM     98  C   UNL     1      -7.121  16.097  -0.271  1.00  0.00     0.200 A 
ATOM     99  F   UNL     1      -9.264  15.408   0.427  1.00  0.00    -0.200 F 
ATOM    100  F   UNL     1      -7.634  17.202  -0.825  1.00  0.00    -0.200 F 
ENDBRANCH  67  90
ENDBRANCH  41  42
ENDBRANCH  34  36
ENDBRANCH  33  34
ENDBRANCH  32  33
ENDBRANCH  31  32
ENDBRANCH  30  31
ENDBRANCH  29  30
ENDBRANCH  28  29
ENDBRANCH   1  28
TORSDOF 22
