REMARK SMILES O=C(COc1ccc(N2C[C@@H](C(=O)OCCOCCOCCOCCOC(=O)c3ccc(-c4c5nc(c(-c6c(F)c(F)c(F)c(F)c6F)c6ccc([nH]6)c(-c6c(F)c(F)c(F)c(F)c6F)c6nc(c(-c7c(F)c(F)c(F)c(F)c7F)c7ccc4[nH]7)C=C6)C=C5)cc3)CC2=O)cc1)Nc1ccc(Cl)cc1Cl
REMARK SMILES IDX 18 1 17 2 16 3 15 4 14 5 12 6 13 7 11 8 9 9 10 10 93 11
REMARK SMILES IDX 92 12 94 13 8 14 5 15 6 16 96 17 7 18 95 19 4 20 3 21 2 22
REMARK SMILES IDX 1 23 97 24 98 26 99 27 104 28 100 29 103 30 105 31 101 32
REMARK SMILES IDX 102 33 19 34 20 35 21 36 22 37 23 38 24 39 25 40 26 41 27 42
REMARK SMILES IDX 28 43 29 44 30 45 91 46 31 47 90 48 32 49 33 50 34 51 84 52
REMARK SMILES IDX 35 53 89 54 83 55 85 56 36 57 88 58 82 59 81 60 37 62 69 63
REMARK SMILES IDX 49 64 68 65 50 66 53 67 67 68 86 69 51 70 52 71 66 73 87 74
REMARK SMILES IDX 54 75 38 76 39 77 47 78 40 79 41 80 45 81 48 82 42 83 43 84
REMARK SMILES IDX 46 85 44 86 70 87 71 88 79 89 72 90 73 91 77 92 80 93 74 94
REMARK SMILES IDX 75 95 78 96 76 97 55 98 56 99 64 100 57 101 58 102 62 103
REMARK SMILES IDX 65 104 59 105 60 106 63 107 61 108
REMARK H PARENT 97 25 85 61 53 72
REMARK Flexibility Score: inf
ROOT
ATOM      1  C   UNL     1      -0.602  -7.138   8.767  1.00  0.00     0.188 C 
ENDROOT
BRANCH   1   2
ATOM      2  O   UNL     1      -1.707  -6.632   9.499  1.00  0.00    -0.376 OA
BRANCH   2   3
ATOM      3  C   UNL     1      -2.659  -5.752   8.921  1.00  0.00     0.202 C 
BRANCH   3   4
ATOM      4  C   UNL     1      -2.262  -4.540   8.062  1.00  0.00     0.261 C 
BRANCH   4   5
ATOM      5  O   UNL     1      -1.207  -4.768   7.119  1.00  0.00    -0.463 OA
BRANCH   5   6
ATOM      6  C   UNL     1      -0.003  -4.262   7.452  1.00  0.00     0.311 C 
ATOM      7  O   UNL     1       0.211  -3.553   8.429  1.00  0.00    -0.252 OA
BRANCH   6   8
ATOM      8  C   UNL     1       1.108  -4.665   6.517  1.00  0.00     0.128 C 
ATOM      9  N   UNL     1       2.171  -3.740   4.667  1.00  0.00    -0.312 N 
ATOM     10  C   UNL     1       1.630  -3.372   5.941  1.00  0.00     0.141 C 
ATOM     11  C   UNL     1       1.700  -4.969   4.223  1.00  0.00     0.227 C 
ATOM     12  C   UNL     1       0.822  -5.529   5.289  1.00  0.00     0.117 C 
ATOM     13  O   UNL     1       1.926  -5.537   3.165  1.00  0.00    -0.274 OA
BRANCH   9  14
ATOM     14  C   UNL     1       2.697  -2.762   3.824  1.00  0.00     0.044 A 
ATOM     15  C   UNL     1       3.574  -0.744   2.121  1.00  0.00     0.120 A 
ATOM     16  C   UNL     1       4.093  -0.835   3.412  1.00  0.00     0.048 A 
ATOM     17  C   UNL     1       2.624  -1.667   1.695  1.00  0.00     0.048 A 
ATOM     18  C   UNL     1       3.629  -1.827   4.279  1.00  0.00     0.030 A 
ATOM     19  C   UNL     1       2.201  -2.680   2.530  1.00  0.00     0.030 A 
BRANCH  15  20
ATOM     20  O   UNL     1       4.117   0.184   1.274  1.00  0.00    -0.484 OA
BRANCH  20  21
ATOM     21  C   UNL     1       3.163   1.076   0.698  1.00  0.00     0.329 C 
BRANCH  21  22
ATOM     22  C   UNL     1       2.238   0.497  -0.381  1.00  0.00     0.262 C 
ATOM     23  O   UNL     1       1.036   0.745  -0.372  1.00  0.00    -0.271 OA
ATOM     24  N   UNL     1       2.884  -0.406  -1.224  1.00  0.00    -0.322 N 
ATOM     25  H   UNL     1       3.865  -0.466  -1.173  1.00  0.00     0.170 HD
BRANCH  24  26
ATOM     26  C   UNL     1       2.210  -1.242  -2.149  1.00  0.00     0.060 A 
ATOM     27  C   UNL     1       2.622  -2.586  -2.181  1.00  0.00     0.029 A 
ATOM     28  C   UNL     1       1.158  -0.839  -2.991  1.00  0.00     0.066 A 
ATOM     29  C   UNL     1       1.944  -3.523  -2.968  1.00  0.00     0.023 A 
ATOM     30  C   UNL     1       0.476  -1.781  -3.769  1.00  0.00     0.043 A 
ATOM     31  Cl  UNL     1       0.763   0.822  -3.280  1.00  0.00    -0.082 Cl
ATOM     32  C   UNL     1       0.863  -3.118  -3.745  1.00  0.00     0.042 A 
ATOM     33  Cl  UNL     1       0.021  -4.269  -4.707  1.00  0.00    -0.084 Cl
ENDBRANCH  24  26
ENDBRANCH  21  22
ENDBRANCH  20  21
ENDBRANCH  15  20
ENDBRANCH   9  14
ENDBRANCH   6   8
ENDBRANCH   5   6
ENDBRANCH   4   5
ENDBRANCH   3   4
ENDBRANCH   2   3
ENDBRANCH   1   2
BRANCH   1  34
ATOM     34  C   UNL     1      -0.759  -7.643   7.327  1.00  0.00     0.188 C 
BRANCH  34  35
ATOM     35  O   UNL     1      -1.937  -7.238   6.665  1.00  0.00    -0.377 OA
BRANCH  35  36
ATOM     36  C   UNL     1      -3.001  -8.180   6.625  1.00  0.00     0.188 C 
BRANCH  36  37
ATOM     37  C   UNL     1      -3.162  -9.144   7.819  1.00  0.00     0.188 C 
BRANCH  37  38
ATOM     38  O   UNL     1      -1.968  -9.809   8.203  1.00  0.00    -0.376 OA
BRANCH  38  39
ATOM     39  C   UNL     1      -1.686 -11.099   7.678  1.00  0.00     0.202 C 
BRANCH  39  40
ATOM     40  C   UNL     1      -1.510 -11.259   6.157  1.00  0.00     0.261 C 
BRANCH  40  41
ATOM     41  O   UNL     1      -2.611 -10.850   5.330  1.00  0.00    -0.460 OA
BRANCH  41  42
ATOM     42  C   UNL     1      -3.815 -11.413   5.544  1.00  0.00     0.338 C 
ATOM     43  O   UNL     1      -4.083 -12.305   6.333  1.00  0.00    -0.246 OA
BRANCH  42  44
ATOM     44  C   UNL     1      -4.821 -10.620   4.806  1.00  0.00     0.060 A 
ATOM     45  C   UNL     1      -5.857 -10.005   5.522  1.00  0.00     0.016 A 
ATOM     46  C   UNL     1      -4.740 -10.477   3.419  1.00  0.00     0.016 A 
ATOM     47  C   UNL     1      -6.838  -9.276   4.849  1.00  0.00     0.010 A 
ATOM     48  C   UNL     1      -5.738  -9.769   2.743  1.00  0.00     0.010 A 
ATOM     49  C   UNL     1      -6.810  -9.196   3.451  1.00  0.00    -0.014 A 
BRANCH  49  50
ATOM     50  C   UNL     1      -8.000  -8.698   2.720  1.00  0.00     0.031 A 
ATOM     51  C   UNL     1      -8.969  -9.708   2.169  1.00  0.00     0.074 A 
ATOM     52  C   UNL     1      -8.233  -7.384   2.565  1.00  0.00     0.049 A 
ATOM     53  N   UNL     1     -10.040  -9.527   1.440  1.00  0.00    -0.248 NA
ATOM     54  C   UNL     1      -8.686 -11.118   2.483  1.00  0.00     0.031 C 
ATOM     55  C   UNL     1      -7.399  -6.309   3.097  1.00  0.00     0.029 A 
ATOM     56  N   UNL     1      -9.241  -6.732   1.899  1.00  0.00    -0.354 N 
ATOM     57  C   UNL     1     -10.550 -10.796   1.200  1.00  0.00     0.074 A 
ATOM     58  C   UNL     1      -9.657 -11.741   1.834  1.00  0.00     0.031 C 
ATOM     59  C   UNL     1      -7.921  -5.128   2.721  1.00  0.00     0.029 A 
ATOM     60  C   UNL     1      -9.101  -5.366   1.890  1.00  0.00     0.049 A 
ATOM     61  H   UNL     1      -9.993  -7.200   1.468  1.00  0.00     0.167 HD
ATOM     62  C   UNL     1     -11.668 -11.141   0.518  1.00  0.00     0.037 A 
ATOM     63  C   UNL     1      -9.827  -4.423   1.256  1.00  0.00     0.037 A 
ATOM     64  C   UNL     1     -12.550 -10.197  -0.116  1.00  0.00     0.049 A 
ATOM     65  C   UNL     1     -11.016  -4.840   0.425  1.00  0.00     0.074 A 
ATOM     66  C   UNL     1     -13.716 -10.444  -0.818  1.00  0.00     0.029 A 
ATOM     67  N   UNL     1     -12.355  -8.824  -0.134  1.00  0.00    -0.354 N 
ATOM     68  N   UNL     1     -11.509  -6.038   0.222  1.00  0.00    -0.248 NA
ATOM     69  C   UNL     1     -11.750  -3.769  -0.265  1.00  0.00     0.031 C 
ATOM     70  C   UNL     1     -14.191  -9.228  -1.317  1.00  0.00     0.029 A 
ATOM     71  C   UNL     1     -13.361  -8.214  -0.865  1.00  0.00     0.049 A 
ATOM     72  H   UNL     1     -11.611  -8.353   0.306  1.00  0.00     0.167 HD
ATOM     73  C   UNL     1     -12.626  -5.862  -0.587  1.00  0.00     0.074 A 
ATOM     74  C   UNL     1     -12.746  -4.440  -0.827  1.00  0.00     0.031 C 
ATOM     75  C   UNL     1     -13.475  -6.794  -1.087  1.00  0.00     0.037 A 
BRANCH  62  76
ATOM     76  C   UNL     1     -11.979 -12.605   0.390  1.00  0.00     0.064 A 
ATOM     77  C   UNL     1     -12.382 -13.377   1.490  1.00  0.00     0.173 A 
ATOM     78  C   UNL     1     -11.900 -13.238  -0.860  1.00  0.00     0.173 A 
ATOM     79  F   UNL     1     -12.459 -12.825   2.711  1.00  0.00    -0.203 F 
ATOM     80  C   UNL     1     -12.667 -14.733   1.349  1.00  0.00     0.198 A 
ATOM     81  C   UNL     1     -12.219 -14.585  -1.004  1.00  0.00     0.198 A 
ATOM     82  F   UNL     1     -11.521 -12.547  -1.946  1.00  0.00    -0.203 F 
ATOM     83  F   UNL     1     -12.998 -15.461   2.424  1.00  0.00    -0.200 F 
ATOM     84  C   UNL     1     -12.593 -15.334   0.101  1.00  0.00     0.200 A 
ATOM     85  F   UNL     1     -12.161 -15.160  -2.213  1.00  0.00    -0.200 F 
ATOM     86  F   UNL     1     -12.876 -16.636  -0.035  1.00  0.00    -0.200 F 
ENDBRANCH  62  76
BRANCH  63  87
ATOM     87  C   UNL     1      -9.441  -2.990   1.360  1.00  0.00     0.064 A 
ATOM     88  C   UNL     1     -10.271  -2.061   2.003  1.00  0.00     0.173 A 
ATOM     89  C   UNL     1      -8.251  -2.513   0.790  1.00  0.00     0.173 A 
ATOM     90  F   UNL     1     -11.433  -2.460   2.540  1.00  0.00    -0.203 F 
ATOM     91  C   UNL     1      -9.936  -0.709   2.054  1.00  0.00     0.198 A 
ATOM     92  C   UNL     1      -7.901  -1.167   0.870  1.00  0.00     0.198 A 
ATOM     93  F   UNL     1      -7.423  -3.358   0.159  1.00  0.00    -0.203 F 
ATOM     94  F   UNL     1     -10.775   0.166   2.627  1.00  0.00    -0.200 F 
ATOM     95  C   UNL     1      -8.749  -0.264   1.493  1.00  0.00     0.200 A 
ATOM     96  F   UNL     1      -6.746  -0.744   0.338  1.00  0.00    -0.200 F 
ATOM     97  F   UNL     1      -8.427   1.036   1.544  1.00  0.00    -0.200 F 
ENDBRANCH  63  87
BRANCH  75  98
ATOM     98  C   UNL     1     -14.640  -6.308  -1.904  1.00  0.00     0.064 A 
ATOM     99  C   UNL     1     -14.473  -5.762  -3.185  1.00  0.00     0.173 A 
ATOM    100  C   UNL     1     -15.951  -6.439  -1.415  1.00  0.00     0.173 A 
ATOM    101  F   UNL     1     -13.242  -5.604  -3.695  1.00  0.00    -0.203 F 
ATOM    102  C   UNL     1     -15.569  -5.340  -3.933  1.00  0.00     0.198 A 
ATOM    103  C   UNL     1     -17.046  -6.049  -2.180  1.00  0.00     0.198 A 
ATOM    104  F   UNL     1     -16.170  -6.963  -0.200  1.00  0.00    -0.203 F 
ATOM    105  F   UNL     1     -15.380  -4.773  -5.133  1.00  0.00    -0.200 F 
ATOM    106  C   UNL     1     -16.854  -5.492  -3.435  1.00  0.00     0.200 A 
ATOM    107  F   UNL     1     -18.288  -6.215  -1.704  1.00  0.00    -0.200 F 
ATOM    108  F   UNL     1     -17.908  -5.095  -4.162  1.00  0.00    -0.200 F 
ENDBRANCH  75  98
ENDBRANCH  49  50
ENDBRANCH  42  44
ENDBRANCH  41  42
ENDBRANCH  40  41
ENDBRANCH  39  40
ENDBRANCH  38  39
ENDBRANCH  37  38
ENDBRANCH  36  37
ENDBRANCH  35  36
ENDBRANCH  34  35
ENDBRANCH   1  34
TORSDOF 25
