REMARK SMILES COc1c(C(=O)OCCOCCOCCOCCOC(=O)c2ccc(-c3c4nc(c(-c5c(F)c(F)c(F)c(F)c5F)c5ccc([nH]5)c(-c5c(F)c(F)c(F)c(F)c5F)c5nc(c(-c6c(F)c(F)c(F)c(F)c6F)c6ccc3[nH]6)C=C5)C=C4)cc2)cccc1-c1cc(C)ccc1C
REMARK SMILES IDX 14 1 13 2 12 3 11 4 10 5 9 6 8 7 7 8 5 9 6 10 4 11 3 12
REMARK SMILES IDX 88 13 85 14 87 15 86 16 2 17 1 18 89 19 90 20 95 21 91 22
REMARK SMILES IDX 94 23 96 24 92 25 93 26 15 27 16 28 17 29 18 30 19 31 20 32
REMARK SMILES IDX 21 33 22 34 23 35 84 36 24 37 83 38 25 39 26 40 27 41 77 42
REMARK SMILES IDX 28 43 82 44 76 45 78 46 29 47 81 48 75 49 74 50 30 52 62 53
REMARK SMILES IDX 42 54 61 55 43 56 46 57 60 58 79 59 44 60 45 61 59 63 80 64
REMARK SMILES IDX 47 65 31 66 32 67 40 68 33 69 34 70 38 71 41 72 35 73 36 74
REMARK SMILES IDX 39 75 37 76 63 77 64 78 72 79 65 80 66 81 70 82 73 83 67 84
REMARK SMILES IDX 68 85 71 86 69 87 48 88 49 89 57 90 50 91 51 92 55 93 58 94
REMARK SMILES IDX 52 95 53 96 56 97 54 98
REMARK H PARENT 78 51 46 62
REMARK Flexibility Score: inf
ROOT
ATOM      1  C   UNL     1      -3.317   2.303   0.952  1.00  0.00     0.188 C 
ENDROOT
BRANCH   1   2
ATOM      2  O   UNL     1      -1.981   2.435   0.478  1.00  0.00    -0.377 OA
BRANCH   2   3
ATOM      3  C   UNL     1      -1.675   3.426  -0.496  1.00  0.00     0.188 C 
BRANCH   3   4
ATOM      4  C   UNL     1      -2.623   3.657  -1.696  1.00  0.00     0.188 C 
BRANCH   4   5
ATOM      5  O   UNL     1      -3.877   3.009  -1.576  1.00  0.00    -0.376 OA
BRANCH   5   6
ATOM      6  C   UNL     1      -4.180   1.923  -2.430  1.00  0.00     0.202 C 
BRANCH   6   7
ATOM      7  C   UNL     1      -3.246   0.703  -2.466  1.00  0.00     0.261 C 
BRANCH   7   8
ATOM      8  O   UNL     1      -1.860   0.991  -2.275  1.00  0.00    -0.460 OA
BRANCH   8   9
ATOM      9  C   UNL     1      -1.139   1.296  -3.375  1.00  0.00     0.342 C 
ATOM     10  O   UNL     1      -1.559   1.353  -4.520  1.00  0.00    -0.246 OA
BRANCH   9  11
ATOM     11  C   UNL     1       0.183   1.818  -2.957  1.00  0.00     0.102 A 
ATOM     12  C   UNL     1       1.010   1.166  -2.025  1.00  0.00     0.141 A 
ATOM     13  C   UNL     1       2.307   1.671  -1.770  1.00  0.00     0.025 A 
ATOM     14  C   UNL     1       0.566   3.052  -3.506  1.00  0.00     0.019 A 
ATOM     15  C   UNL     1       2.639   2.940  -2.296  1.00  0.00     0.012 A 
ATOM     16  C   UNL     1       1.770   3.637  -3.134  1.00  0.00     0.002 A 
BRANCH  12  17
ATOM     17  O   UNL     1       0.555  -0.013  -1.480  1.00  0.00    -0.495 OA
ATOM     18  C   UNL     1       0.533   0.001  -0.049  1.00  0.00     0.278 C 
ENDBRANCH  12  17
BRANCH  13  19
ATOM     19  C   UNL     1       3.372   0.889  -1.094  1.00  0.00    -0.011 A 
ATOM     20  C   UNL     1       4.113   1.477  -0.044  1.00  0.00     0.012 A 
ATOM     21  C   UNL     1       3.728  -0.420  -1.505  1.00  0.00    -0.043 A 
ATOM     22  C   UNL     1       5.165   0.800   0.592  1.00  0.00    -0.050 A 
ATOM     23  C   UNL     1       4.737  -1.114  -0.817  1.00  0.00     0.004 A 
ATOM     24  C   UNL     1       3.056  -1.151  -2.641  1.00  0.00     0.045 C 
ATOM     25  C   UNL     1       5.976   1.488   1.649  1.00  0.00     0.044 C 
ATOM     26  C   UNL     1       5.454  -0.509   0.212  1.00  0.00     0.004 A 
ENDBRANCH  13  19
ENDBRANCH   9  11
ENDBRANCH   8   9
ENDBRANCH   7   8
ENDBRANCH   6   7
ENDBRANCH   5   6
ENDBRANCH   4   5
ENDBRANCH   3   4
ENDBRANCH   2   3
ENDBRANCH   1   2
BRANCH   1  27
ATOM     27  C   UNL     1      -4.234   3.542   1.082  1.00  0.00     0.188 C 
BRANCH  27  28
ATOM     28  O   UNL     1      -3.623   4.773   0.734  1.00  0.00    -0.376 OA
BRANCH  28  29
ATOM     29  C   UNL     1      -3.262   5.650   1.787  1.00  0.00     0.202 C 
BRANCH  29  30
ATOM     30  C   UNL     1      -2.227   5.148   2.806  1.00  0.00     0.261 C 
BRANCH  30  31
ATOM     31  O   UNL     1      -2.512   3.884   3.425  1.00  0.00    -0.460 OA
BRANCH  31  32
ATOM     32  C   UNL     1      -3.587   3.831   4.235  1.00  0.00     0.338 C 
ATOM     33  O   UNL     1      -4.342   4.750   4.524  1.00  0.00    -0.246 OA
BRANCH  32  34
ATOM     34  C   UNL     1      -3.834   2.418   4.579  1.00  0.00     0.060 A 
ATOM     35  C   UNL     1      -5.064   1.845   4.232  1.00  0.00     0.016 A 
ATOM     36  C   UNL     1      -2.868   1.671   5.258  1.00  0.00     0.016 A 
ATOM     37  C   UNL     1      -5.358   0.541   4.621  1.00  0.00     0.010 A 
ATOM     38  C   UNL     1      -3.172   0.369   5.667  1.00  0.00     0.010 A 
ATOM     39  C   UNL     1      -4.439  -0.178   5.397  1.00  0.00    -0.014 A 
BRANCH  39  40
ATOM     40  C   UNL     1      -4.918  -1.373   6.134  1.00  0.00     0.031 A 
ATOM     41  C   UNL     1      -5.343  -1.194   7.567  1.00  0.00     0.074 A 
ATOM     42  C   UNL     1      -5.053  -2.566   5.532  1.00  0.00     0.049 A 
ATOM     43  N   UNL     1      -5.847  -2.064   8.406  1.00  0.00    -0.248 NA
ATOM     44  C   UNL     1      -5.176   0.155   8.132  1.00  0.00     0.031 C 
ATOM     45  C   UNL     1      -4.723  -2.852   4.138  1.00  0.00     0.029 A 
ATOM     46  N   UNL     1      -5.517  -3.760   6.024  1.00  0.00    -0.354 N 
ATOM     47  C   UNL     1      -6.046  -1.370   9.593  1.00  0.00     0.074 A 
ATOM     48  C   UNL     1      -5.573  -0.020   9.381  1.00  0.00     0.031 C 
ATOM     49  C   UNL     1      -5.007  -4.141   3.882  1.00  0.00     0.029 A 
ATOM     50  C   UNL     1      -5.511  -4.774   5.100  1.00  0.00     0.049 A 
ATOM     51  H   UNL     1      -5.825  -3.877   6.951  1.00  0.00     0.167 HD
ATOM     52  C   UNL     1      -6.586  -1.813  10.753  1.00  0.00     0.037 A 
ATOM     53  C   UNL     1      -5.870  -6.066   5.230  1.00  0.00     0.037 A 
ATOM     54  C   UNL     1      -7.056  -3.158  10.960  1.00  0.00     0.049 A 
ATOM     55  C   UNL     1      -6.403  -6.555   6.554  1.00  0.00     0.074 A 
ATOM     56  C   UNL     1      -7.638  -3.705  12.089  1.00  0.00     0.029 A 
ATOM     57  N   UNL     1      -6.984  -4.172  10.016  1.00  0.00    -0.354 N 
ATOM     58  N   UNL     1      -6.620  -5.888   7.663  1.00  0.00    -0.248 NA
ATOM     59  C   UNL     1      -6.754  -7.980   6.637  1.00  0.00     0.031 C 
ATOM     60  C   UNL     1      -7.852  -5.067  11.854  1.00  0.00     0.029 A 
ATOM     61  C   UNL     1      -7.482  -5.351  10.549  1.00  0.00     0.049 A 
ATOM     62  H   UNL     1      -6.631  -4.070   9.102  1.00  0.00     0.167 HD
ATOM     63  C   UNL     1      -7.174  -6.798   8.557  1.00  0.00     0.074 A 
ATOM     64  C   UNL     1      -7.266  -8.062   7.856  1.00  0.00     0.031 C 
ATOM     65  C   UNL     1      -7.579  -6.602   9.837  1.00  0.00     0.037 A 
BRANCH  52  66
ATOM     66  C   UNL     1      -6.647  -0.843  11.899  1.00  0.00     0.064 A 
ATOM     67  C   UNL     1      -7.482   0.285  11.881  1.00  0.00     0.173 A 
ATOM     68  C   UNL     1      -5.848  -1.045  13.035  1.00  0.00     0.173 A 
ATOM     69  F   UNL     1      -8.255   0.537  10.814  1.00  0.00    -0.203 F 
ATOM     70  C   UNL     1      -7.483   1.195  12.936  1.00  0.00     0.198 A 
ATOM     71  C   UNL     1      -5.880  -0.154  14.105  1.00  0.00     0.198 A 
ATOM     72  F   UNL     1      -5.032  -2.107  13.109  1.00  0.00    -0.203 F 
ATOM     73  F   UNL     1      -8.236   2.302  12.865  1.00  0.00    -0.200 F 
ATOM     74  C   UNL     1      -6.686   0.972  14.049  1.00  0.00     0.200 A 
ATOM     75  F   UNL     1      -5.120  -0.381  15.185  1.00  0.00    -0.200 F 
ATOM     76  F   UNL     1      -6.688   1.847  15.063  1.00  0.00    -0.200 F 
ENDBRANCH  52  66
BRANCH  53  77
ATOM     77  C   UNL     1      -5.762  -6.991   4.070  1.00  0.00     0.064 A 
ATOM     78  C   UNL     1      -6.907  -7.532   3.468  1.00  0.00     0.173 A 
ATOM     79  C   UNL     1      -4.514  -7.370   3.555  1.00  0.00     0.173 A 
ATOM     80  F   UNL     1      -8.123  -7.221   3.941  1.00  0.00    -0.203 F 
ATOM     81  C   UNL     1      -6.807  -8.431   2.409  1.00  0.00     0.198 A 
ATOM     82  C   UNL     1      -4.417  -8.246   2.475  1.00  0.00     0.198 A 
ATOM     83  F   UNL     1      -3.387  -6.886   4.097  1.00  0.00    -0.203 F 
ATOM     84  F   UNL     1      -7.916  -8.973   1.886  1.00  0.00    -0.200 F 
ATOM     85  C   UNL     1      -5.563  -8.783   1.909  1.00  0.00     0.200 A 
ATOM     86  F   UNL     1      -3.212  -8.574   1.988  1.00  0.00    -0.200 F 
ATOM     87  F   UNL     1      -5.468  -9.646   0.888  1.00  0.00    -0.200 F 
ENDBRANCH  53  77
BRANCH  65  88
ATOM     88  C   UNL     1      -8.226  -7.763  10.544  1.00  0.00     0.064 A 
ATOM     89  C   UNL     1      -7.511  -8.915  10.901  1.00  0.00     0.173 A 
ATOM     90  C   UNL     1      -9.588  -7.709  10.884  1.00  0.00     0.173 A 
ATOM     91  F   UNL     1      -6.209  -9.025  10.594  1.00  0.00    -0.203 F 
ATOM     92  C   UNL     1      -8.144  -9.988  11.525  1.00  0.00     0.198 A 
ATOM     93  C   UNL     1     -10.207  -8.765  11.545  1.00  0.00     0.198 A 
ATOM     94  F   UNL     1     -10.320  -6.626  10.580  1.00  0.00    -0.203 F 
ATOM     95  F   UNL     1      -7.456 -11.107  11.790  1.00  0.00    -0.200 F 
ATOM     96  C   UNL     1      -9.489  -9.910  11.852  1.00  0.00     0.200 A 
ATOM     97  F   UNL     1     -11.503  -8.678  11.878  1.00  0.00    -0.200 F 
ATOM     98  F   UNL     1     -10.096 -10.942  12.454  1.00  0.00    -0.200 F 
ENDBRANCH  65  88
ENDBRANCH  39  40
ENDBRANCH  32  34
ENDBRANCH  31  32
ENDBRANCH  30  31
ENDBRANCH  29  30
ENDBRANCH  28  29
ENDBRANCH  27  28
ENDBRANCH   1  27
TORSDOF 22
