REMARK SMILES Cc1cccc(CC(=O)N2CCC3(CCC(=O)N([C@H](C)C(=O)OCCOCCOCCOCCOC(=O)c4ccc(-c5c6nc(c(-c7c(F)c(F)c(F)c(F)c7F)c7ccc([nH]7)c(-c7c(F)c(F)c(F)c(F)c7F)c7nc(c(-c8c(F)c(F)c(F)c(F)c8F)c8ccc5[nH]8)C=C7)C=C6)cc4)C3)CC2)c1
REMARK SMILES IDX 28 1 27 2 26 3 25 4 24 5 23 6 21 7 22 8 19 9 20 10 18 11
REMARK SMILES IDX 8 12 9 13 10 14 11 15 103 16 12 17 102 18 13 19 14 20 101 21
REMARK SMILES IDX 15 22 16 23 17 24 7 25 6 26 1 27 2 28 3 29 104 30 4 31 5 32
REMARK SMILES IDX 29 33 30 34 31 35 32 36 33 37 34 38 35 39 36 40 37 41 38 42
REMARK SMILES IDX 39 43 100 44 40 45 99 46 41 47 42 48 43 49 93 50 44 51 98 52
REMARK SMILES IDX 92 53 94 54 45 55 97 56 91 57 90 58 46 60 78 61 58 62 77 63
REMARK SMILES IDX 59 64 62 65 76 66 95 67 60 68 61 69 75 71 96 72 63 73 47 74
REMARK SMILES IDX 48 75 56 76 49 77 50 78 54 79 57 80 51 81 52 82 55 83 53 84
REMARK SMILES IDX 79 85 80 86 88 87 81 88 82 89 86 90 89 91 83 92 84 93 87 94
REMARK SMILES IDX 85 95 64 96 65 97 73 98 66 99 67 100 71 101 74 102 68 103
REMARK SMILES IDX 69 104 72 105 70 106
REMARK H PARENT 94 59 62 70
REMARK Flexibility Score: inf
ROOT
ATOM      1  C   UNL     1      -0.742   4.261  -4.394  1.00  0.00     0.188 C 
ENDROOT
BRANCH   1   2
ATOM      2  C   UNL     1      -0.520   5.604  -3.672  1.00  0.00     0.188 C 
BRANCH   2   3
ATOM      3  O   UNL     1      -1.586   6.528  -3.533  1.00  0.00    -0.376 OA
BRANCH   3   4
ATOM      4  C   UNL     1      -1.780   7.439  -4.606  1.00  0.00     0.202 C 
BRANCH   4   5
ATOM      5  C   UNL     1      -0.713   8.504  -4.836  1.00  0.00     0.261 C 
BRANCH   5   6
ATOM      6  O   UNL     1       0.260   8.005  -5.747  1.00  0.00    -0.462 OA
BRANCH   6   7
ATOM      7  C   UNL     1       1.496   7.772  -5.260  1.00  0.00     0.328 C 
ATOM      8  O   UNL     1       1.921   8.133  -4.181  1.00  0.00    -0.250 OA
BRANCH   7   9
ATOM      9  C   UNL     1       2.242   6.849  -6.216  1.00  0.00     0.192 C 
ATOM     10  C   UNL     1       1.456   5.584  -6.513  1.00  0.00     0.044 C 
BRANCH   9  11
ATOM     11  N   UNL     1       2.685   7.600  -7.388  1.00  0.00    -0.329 N 
ATOM     12  C   UNL     1       8.313   5.151  -6.979  1.00  0.00     0.226 C 
ATOM     13  O   UNL     1       8.445   3.982  -6.594  1.00  0.00    -0.275 OA
ATOM     14  N   UNL     1       7.327   5.471  -7.899  1.00  0.00    -0.342 N 
ATOM     15  C   UNL     1       6.079   4.732  -7.833  1.00  0.00     0.120 C 
ATOM     16  C   UNL     1       7.274   6.629  -8.782  1.00  0.00     0.120 C 
ATOM     17  C   UNL     1       5.009   5.683  -7.295  1.00  0.00     0.030 C 
ATOM     18  C   UNL     1       6.303   7.644  -8.223  1.00  0.00     0.030 C 
ATOM     19  C   UNL     1       4.911   7.018  -8.106  1.00  0.00    -0.008 C 
ATOM     20  C   UNL     1       4.317   6.762  -9.528  1.00  0.00     0.019 C 
ATOM     21  C   UNL     1       4.039   8.060  -7.375  1.00  0.00     0.127 C 
ATOM     22  C   UNL     1       2.839   6.404  -9.477  1.00  0.00     0.101 C 
ATOM     23  C   UNL     1       2.175   7.488  -8.669  1.00  0.00     0.223 C 
ATOM     24  O   UNL     1       1.571   8.387  -9.241  1.00  0.00    -0.275 OA
BRANCH  12  25
ATOM     25  C   UNL     1       9.051   6.251  -6.215  1.00  0.00     0.135 C 
BRANCH  25  26
ATOM     26  C   UNL     1       9.573   7.440  -6.974  1.00  0.00    -0.038 A 
ATOM     27  C   UNL     1       8.767  11.158  -7.252  1.00  0.00     0.044 C 
ATOM     28  C   UNL     1       9.371   9.809  -7.513  1.00  0.00    -0.051 A 
ATOM     29  C   UNL     1      10.187   9.606  -8.631  1.00  0.00     0.003 A 
ATOM     30  C   UNL     1       9.094   8.727  -6.672  1.00  0.00     0.007 A 
ATOM     31  C   UNL     1      10.739   8.349  -8.887  1.00  0.00     0.001 A 
ATOM     32  C   UNL     1      10.453   7.271  -8.050  1.00  0.00     0.004 A 
ENDBRANCH  25  26
ENDBRANCH  12  25
ENDBRANCH   9  11
ENDBRANCH   7   9
ENDBRANCH   6   7
ENDBRANCH   5   6
ENDBRANCH   4   5
ENDBRANCH   3   4
ENDBRANCH   2   3
ENDBRANCH   1   2
BRANCH   1  33
ATOM     33  O   UNL     1      -1.043   4.253  -5.783  1.00  0.00    -0.377 OA
BRANCH  33  34
ATOM     34  C   UNL     1      -2.404   4.202  -6.197  1.00  0.00     0.188 C 
BRANCH  34  35
ATOM     35  C   UNL     1      -3.381   3.518  -5.257  1.00  0.00     0.188 C 
BRANCH  35  36
ATOM     36  O   UNL     1      -3.616   4.411  -4.171  1.00  0.00    -0.376 OA
BRANCH  36  37
ATOM     37  C   UNL     1      -3.878   3.821  -2.902  1.00  0.00     0.202 C 
BRANCH  37  38
ATOM     38  C   UNL     1      -5.072   2.865  -2.905  1.00  0.00     0.261 C 
BRANCH  38  39
ATOM     39  O   UNL     1      -6.274   3.608  -3.198  1.00  0.00    -0.460 OA
BRANCH  39  40
ATOM     40  C   UNL     1      -6.703   3.532  -4.487  1.00  0.00     0.338 C 
ATOM     41  O   UNL     1      -6.880   2.493  -5.107  1.00  0.00    -0.246 OA
BRANCH  40  42
ATOM     42  C   UNL     1      -6.627   4.877  -5.138  1.00  0.00     0.060 A 
ATOM     43  C   UNL     1      -6.775   4.997  -6.531  1.00  0.00     0.016 A 
ATOM     44  C   UNL     1      -6.038   5.914  -4.431  1.00  0.00     0.016 A 
ATOM     45  C   UNL     1      -6.163   6.058  -7.227  1.00  0.00     0.010 A 
ATOM     46  C   UNL     1      -5.338   6.874  -5.134  1.00  0.00     0.010 A 
ATOM     47  C   UNL     1      -5.352   6.957  -6.537  1.00  0.00    -0.014 A 
BRANCH  47  48
ATOM     48  C   UNL     1      -4.355   7.890  -7.127  1.00  0.00     0.031 A 
ATOM     49  C   UNL     1      -4.161   9.253  -6.501  1.00  0.00     0.074 A 
ATOM     50  C   UNL     1      -3.381   7.381  -7.926  1.00  0.00     0.049 A 
ATOM     51  N   UNL     1      -3.175  10.058  -6.714  1.00  0.00    -0.248 NA
ATOM     52  C   UNL     1      -5.100   9.822  -5.534  1.00  0.00     0.031 C 
ATOM     53  C   UNL     1      -1.985   7.816  -7.931  1.00  0.00     0.029 A 
ATOM     54  N   UNL     1      -3.369   6.282  -8.802  1.00  0.00    -0.354 N 
ATOM     55  C   UNL     1      -3.178  11.064  -5.758  1.00  0.00     0.074 A 
ATOM     56  C   UNL     1      -4.439  10.898  -5.088  1.00  0.00     0.031 C 
ATOM     57  C   UNL     1      -1.268   7.051  -8.756  1.00  0.00     0.029 A 
ATOM     58  C   UNL     1      -2.195   6.353  -9.581  1.00  0.00     0.049 A 
ATOM     59  H   UNL     1      -4.061   5.583  -8.861  1.00  0.00     0.167 HD
ATOM     60  C   UNL     1      -2.057  11.841  -5.597  1.00  0.00     0.037 A 
ATOM     61  C   UNL     1      -2.215   6.592 -10.927  1.00  0.00     0.037 A 
ATOM     62  C   UNL     1      -1.086  11.581  -6.673  1.00  0.00     0.049 A 
ATOM     63  C   UNL     1      -1.684   7.979 -11.291  1.00  0.00     0.074 A 
ATOM     64  C   UNL     1       0.246  11.205  -6.714  1.00  0.00     0.029 A 
ATOM     65  N   UNL     1      -1.534  11.549  -7.995  1.00  0.00    -0.354 N 
ATOM     66  N   UNL     1      -1.751   9.008 -10.472  1.00  0.00    -0.248 NA
ATOM     67  C   UNL     1      -0.919   8.293 -12.498  1.00  0.00     0.031 C 
ATOM     68  C   UNL     1       0.573  10.909  -8.062  1.00  0.00     0.029 A 
ATOM     69  C   UNL     1      -0.550  11.114  -8.848  1.00  0.00     0.049 A 
ATOM     70  H   UNL     1      -2.441  11.806  -8.279  1.00  0.00     0.167 HD
ATOM     71  C   UNL     1      -0.994  10.042 -10.965  1.00  0.00     0.074 A 
ATOM     72  C   UNL     1      -0.531   9.560 -12.254  1.00  0.00     0.031 C 
ATOM     73  C   UNL     1      -0.723  11.201 -10.287  1.00  0.00     0.037 A 
BRANCH  60  74
ATOM     74  C   UNL     1      -1.696  12.750  -4.406  1.00  0.00     0.064 A 
ATOM     75  C   UNL     1      -0.480  13.488  -4.395  1.00  0.00     0.173 A 
ATOM     76  C   UNL     1      -2.433  12.880  -3.210  1.00  0.00     0.173 A 
ATOM     77  F   UNL     1       0.326  13.531  -5.464  1.00  0.00    -0.203 F 
ATOM     78  C   UNL     1      -0.030  14.226  -3.288  1.00  0.00     0.198 A 
ATOM     79  C   UNL     1      -2.010  13.665  -2.123  1.00  0.00     0.198 A 
ATOM     80  F   UNL     1      -3.583  12.235  -3.011  1.00  0.00    -0.203 F 
ATOM     81  F   UNL     1       1.161  14.841  -3.334  1.00  0.00    -0.200 F 
ATOM     82  C   UNL     1      -0.801  14.322  -2.153  1.00  0.00     0.200 A 
ATOM     83  F   UNL     1      -2.788  13.762  -1.035  1.00  0.00    -0.200 F 
ATOM     84  F   UNL     1      -0.385  15.039  -1.100  1.00  0.00    -0.200 F 
ENDBRANCH  60  74
BRANCH  61  85
ATOM     85  C   UNL     1      -3.111   5.614 -11.620  1.00  0.00     0.064 A 
ATOM     86  C   UNL     1      -2.631   4.287 -11.484  1.00  0.00     0.173 A 
ATOM     87  C   UNL     1      -4.496   5.803 -11.480  1.00  0.00     0.173 A 
ATOM     88  F   UNL     1      -1.326   4.031 -11.675  1.00  0.00    -0.203 F 
ATOM     89  C   UNL     1      -3.406   3.315 -10.849  1.00  0.00     0.198 A 
ATOM     90  C   UNL     1      -5.281   4.810 -10.880  1.00  0.00     0.198 A 
ATOM     91  F   UNL     1      -5.029   7.018 -11.671  1.00  0.00    -0.203 F 
ATOM     92  F   UNL     1      -2.837   2.172 -10.436  1.00  0.00    -0.200 F 
ATOM     93  C   UNL     1      -4.712   3.604 -10.489  1.00  0.00     0.200 A 
ATOM     94  F   UNL     1      -6.544   5.083 -10.521  1.00  0.00    -0.200 F 
ATOM     95  F   UNL     1      -5.386   2.768  -9.685  1.00  0.00    -0.200 F 
ENDBRANCH  61  85
BRANCH  73  96
ATOM     96  C   UNL     1      -0.536  12.574 -10.915  1.00  0.00     0.064 A 
ATOM     97  C   UNL     1      -0.867  12.867 -12.246  1.00  0.00     0.173 A 
ATOM     98  C   UNL     1      -0.241  13.711 -10.108  1.00  0.00     0.173 A 
ATOM     99  F   UNL     1      -1.258  11.914 -13.101  1.00  0.00    -0.203 F 
ATOM    100  C   UNL     1      -0.874  14.176 -12.737  1.00  0.00     0.198 A 
ATOM    101  C   UNL     1      -0.306  15.016 -10.588  1.00  0.00     0.198 A 
ATOM    102  F   UNL     1       0.069  13.613  -8.809  1.00  0.00    -0.203 F 
ATOM    103  F   UNL     1      -1.180  14.394 -14.024  1.00  0.00    -0.200 F 
ATOM    104  C   UNL     1      -0.613  15.249 -11.907  1.00  0.00     0.200 A 
ATOM    105  F   UNL     1      -0.105  16.044  -9.750  1.00  0.00    -0.200 F 
ATOM    106  F   UNL     1      -0.681  16.503 -12.372  1.00  0.00    -0.200 F 
ENDBRANCH  73  96
ENDBRANCH  47  48
ENDBRANCH  40  42
ENDBRANCH  39  40
ENDBRANCH  38  39
ENDBRANCH  37  38
ENDBRANCH  36  37
ENDBRANCH  35  36
ENDBRANCH  34  35
ENDBRANCH  33  34
ENDBRANCH   1  33
TORSDOF 23
