REMARK SMILES O=C(Cc1ccccc1Nc1c(Cl)cccc1Cl)OCCOCCOCCOCCOC(=O)c1ccc(-c2c3nc(c(-c4c(F)c(F)c(F)c(F)c4F)c4ccc([nH]4)c(-c4c(F)c(F)c(F)c(F)c4F)c4nc(c(-c5c(F)c(F)c(F)c(F)c5F)c5ccc2[nH]5)C=C4)C=C3)cc1
REMARK SMILES IDX 24 1 23 2 22 3 21 4 20 5 19 6 2 7 1 8 3 9 4 10 5 11 9 12
REMARK SMILES IDX 6 13 8 14 7 15 10 16 11 18 12 19 17 20 13 21 14 22 16 23
REMARK SMILES IDX 18 24 15 25 25 26 26 27 27 28 28 29 29 30 30 31 31 32 32 33
REMARK SMILES IDX 33 34 34 35 35 36 96 37 36 38 95 39 37 40 38 41 39 42 89 43
REMARK SMILES IDX 40 44 94 45 88 46 90 47 41 48 93 49 87 50 86 51 42 53 74 54
REMARK SMILES IDX 54 55 73 56 55 57 58 58 72 59 91 60 56 61 57 62 71 64 92 65
REMARK SMILES IDX 59 66 43 67 44 68 52 69 45 70 46 71 50 72 53 73 47 74 48 75
REMARK SMILES IDX 51 76 49 77 75 78 76 79 84 80 77 81 78 82 82 83 85 84 79 85
REMARK SMILES IDX 80 86 83 87 81 88 60 89 61 90 69 91 62 92 63 93 67 94 70 95
REMARK SMILES IDX 64 96 65 97 68 98 66 99
REMARK H PARENT 10 17 90 52 58 63
REMARK Flexibility Score: inf
ROOT
ATOM      1  C   UNL     1       1.584   2.210   1.049  1.00  0.00     0.188 C 
ENDROOT
BRANCH   1   2
ATOM      2  C   UNL     1       2.185   0.910   1.558  1.00  0.00     0.188 C 
BRANCH   2   3
ATOM      3  O   UNL     1       3.562   0.700   1.298  1.00  0.00    -0.376 OA
BRANCH   3   4
ATOM      4  C   UNL     1       4.130   0.853   0.009  1.00  0.00     0.202 C 
BRANCH   4   5
ATOM      5  C   UNL     1       3.359   0.473  -1.246  1.00  0.00     0.261 C 
BRANCH   5   6
ATOM      6  O   UNL     1       2.192  -0.325  -1.057  1.00  0.00    -0.463 OA
BRANCH   6   7
ATOM      7  C   UNL     1       2.265  -1.668  -0.912  1.00  0.00     0.310 C 
ATOM      8  O   UNL     1       1.380  -2.375  -1.389  1.00  0.00    -0.252 OA
BRANCH   7   9
ATOM      9  C   UNL     1       3.323  -2.228   0.013  1.00  0.00     0.160 C 
BRANCH   9  10
ATOM     10  C   UNL     1       4.236  -3.236  -0.632  1.00  0.00    -0.013 A 
ATOM     11  C   UNL     1       3.741  -4.545  -0.765  1.00  0.00     0.006 A 
ATOM     12  C   UNL     1       5.532  -2.923  -1.103  1.00  0.00     0.042 A 
ATOM     13  C   UNL     1       4.526  -5.547  -1.318  1.00  0.00     0.000 A 
ATOM     14  C   UNL     1       6.309  -3.951  -1.651  1.00  0.00     0.026 A 
ATOM     15  C   UNL     1       5.810  -5.251  -1.760  1.00  0.00     0.002 A 
BRANCH  12  16
ATOM     16  N   UNL     1       6.122  -1.669  -0.843  1.00  0.00    -0.353 N 
ATOM     17  H   UNL     1       5.933  -1.321   0.059  1.00  0.00     0.167 HD
BRANCH  16  18
ATOM     18  C   UNL     1       6.939  -0.808  -1.632  1.00  0.00     0.076 A 
ATOM     19  C   UNL     1       7.837   0.067  -0.965  1.00  0.00     0.066 A 
ATOM     20  C   UNL     1       6.846  -0.665  -3.031  1.00  0.00     0.066 A 
ATOM     21  Cl  UNL     1       8.003   0.012   0.761  1.00  0.00    -0.082 Cl
ATOM     22  C   UNL     1       8.605   1.017  -1.648  1.00  0.00     0.023 A 
ATOM     23  C   UNL     1       7.623   0.289  -3.714  1.00  0.00     0.023 A 
ATOM     24  Cl  UNL     1       5.714  -1.542  -4.002  1.00  0.00    -0.082 Cl
ATOM     25  C   UNL     1       8.499   1.127  -3.028  1.00  0.00     0.003 A 
ENDBRANCH  16  18
ENDBRANCH  12  16
ENDBRANCH   9  10
ENDBRANCH   7   9
ENDBRANCH   6   7
ENDBRANCH   5   6
ENDBRANCH   4   5
ENDBRANCH   3   4
ENDBRANCH   2   3
ENDBRANCH   1   2
BRANCH   1  26
ATOM     26  O   UNL     1       2.075   3.348   1.741  1.00  0.00    -0.377 OA
BRANCH  26  27
ATOM     27  C   UNL     1       3.394   3.741   1.408  1.00  0.00     0.188 C 
BRANCH  27  28
ATOM     28  C   UNL     1       4.538   3.284   2.349  1.00  0.00     0.188 C 
BRANCH  28  29
ATOM     29  O   UNL     1       4.331   2.953   3.715  1.00  0.00    -0.376 OA
BRANCH  29  30
ATOM     30  C   UNL     1       3.188   3.423   4.401  1.00  0.00     0.202 C 
BRANCH  30  31
ATOM     31  C   UNL     1       3.137   4.922   4.715  1.00  0.00     0.261 C 
BRANCH  31  32
ATOM     32  O   UNL     1       3.380   5.766   3.580  1.00  0.00    -0.460 OA
BRANCH  32  33
ATOM     33  C   UNL     1       4.630   6.281   3.477  1.00  0.00     0.338 C 
ATOM     34  O   UNL     1       5.535   6.202   4.290  1.00  0.00    -0.246 OA
BRANCH  33  35
ATOM     35  C   UNL     1       4.822   6.807   2.103  1.00  0.00     0.060 A 
ATOM     36  C   UNL     1       6.007   6.477   1.424  1.00  0.00     0.016 A 
ATOM     37  C   UNL     1       3.832   7.557   1.463  1.00  0.00     0.016 A 
ATOM     38  C   UNL     1       6.223   6.926   0.120  1.00  0.00     0.010 A 
ATOM     39  C   UNL     1       4.059   8.031   0.169  1.00  0.00     0.010 A 
ATOM     40  C   UNL     1       5.272   7.753  -0.488  1.00  0.00    -0.014 A 
BRANCH  40  41
ATOM     41  C   UNL     1       5.653   8.596  -1.645  1.00  0.00     0.031 A 
ATOM     42  C   UNL     1       6.207   9.959  -1.337  1.00  0.00     0.074 A 
ATOM     43  C   UNL     1       5.462   8.209  -2.917  1.00  0.00     0.049 A 
ATOM     44  N   UNL     1       6.444  10.966  -2.135  1.00  0.00    -0.248 NA
ATOM     45  C   UNL     1       6.517  10.222   0.078  1.00  0.00     0.031 C 
ATOM     46  C   UNL     1       4.975   6.902  -3.343  1.00  0.00     0.029 A 
ATOM     47  N   UNL     1       5.627   8.911  -4.086  1.00  0.00    -0.354 N 
ATOM     48  C   UNL     1       6.901  11.988  -1.314  1.00  0.00     0.074 A 
ATOM     49  C   UNL     1       6.899  11.487   0.041  1.00  0.00     0.031 C 
ATOM     50  C   UNL     1       4.839   6.907  -4.682  1.00  0.00     0.029 A 
ATOM     51  C   UNL     1       5.189   8.232  -5.196  1.00  0.00     0.049 A 
ATOM     52  H   UNL     1       6.019   9.813  -4.124  1.00  0.00     0.167 HD
ATOM     53  C   UNL     1       7.280  13.240  -1.658  1.00  0.00     0.037 A 
ATOM     54  C   UNL     1       5.047   8.653  -6.468  1.00  0.00     0.037 A 
ATOM     55  C   UNL     1       7.268  13.739  -3.004  1.00  0.00     0.049 A 
ATOM     56  C   UNL     1       5.419  10.070  -6.828  1.00  0.00     0.074 A 
ATOM     57  C   UNL     1       7.653  14.983  -3.467  1.00  0.00     0.029 A 
ATOM     58  N   UNL     1       6.829  13.015  -4.104  1.00  0.00    -0.354 N 
ATOM     59  N   UNL     1       5.873  11.029  -6.056  1.00  0.00    -0.248 NA
ATOM     60  C   UNL     1       5.255  10.466  -8.235  1.00  0.00     0.031 C 
ATOM     61  C   UNL     1       7.398  15.030  -4.842  1.00  0.00     0.029 A 
ATOM     62  C   UNL     1       6.909  13.796  -5.243  1.00  0.00     0.049 A 
ATOM     63  H   UNL     1       6.508  12.085  -4.077  1.00  0.00     0.167 HD
ATOM     64  C   UNL     1       6.074  12.128  -6.884  1.00  0.00     0.074 A 
ATOM     65  C   UNL     1       5.694  11.718  -8.220  1.00  0.00     0.031 C 
ATOM     66  C   UNL     1       6.537  13.363  -6.567  1.00  0.00     0.037 A 
BRANCH  53  67
ATOM     67  C   UNL     1       7.680  14.159  -0.543  1.00  0.00     0.064 A 
ATOM     68  C   UNL     1       8.864  13.970   0.186  1.00  0.00     0.173 A 
ATOM     69  C   UNL     1       6.846  15.225  -0.176  1.00  0.00     0.173 A 
ATOM     70  F   UNL     1       9.682  12.948  -0.109  1.00  0.00    -0.203 F 
ATOM     71  C   UNL     1       9.177  14.789   1.267  1.00  0.00     0.198 A 
ATOM     72  C   UNL     1       7.179  16.063   0.884  1.00  0.00     0.198 A 
ATOM     73  F   UNL     1       5.700  15.447  -0.838  1.00  0.00    -0.203 F 
ATOM     74  F   UNL     1      10.277  14.546   1.993  1.00  0.00    -0.200 F 
ATOM     75  C   UNL     1       8.337  15.837   1.612  1.00  0.00     0.200 A 
ATOM     76  F   UNL     1       6.369  17.079   1.212  1.00  0.00    -0.200 F 
ATOM     77  F   UNL     1       8.636  16.621   2.658  1.00  0.00    -0.200 F 
ENDBRANCH  53  67
BRANCH  54  78
ATOM     78  C   UNL     1       4.493   7.727  -7.490  1.00  0.00     0.064 A 
ATOM     79  C   UNL     1       5.303   7.198  -8.503  1.00  0.00     0.173 A 
ATOM     80  C   UNL     1       3.144   7.342  -7.465  1.00  0.00     0.173 A 
ATOM     81  F   UNL     1       6.592   7.557  -8.585  1.00  0.00    -0.203 F 
ATOM     82  C   UNL     1       4.785   6.321  -9.455  1.00  0.00     0.198 A 
ATOM     83  C   UNL     1       2.632   6.446  -8.402  1.00  0.00     0.198 A 
ATOM     84  F   UNL     1       2.326   7.823  -6.517  1.00  0.00    -0.203 F 
ATOM     85  F   UNL     1       5.574   5.851 -10.430  1.00  0.00    -0.200 F 
ATOM     86  C   UNL     1       3.452   5.939  -9.398  1.00  0.00     0.200 A 
ATOM     87  F   UNL     1       1.348   6.071  -8.335  1.00  0.00    -0.200 F 
ATOM     88  F   UNL     1       2.959   5.084 -10.304  1.00  0.00    -0.200 F 
ENDBRANCH  54  78
BRANCH  66  89
ATOM     89  C   UNL     1       6.708  14.354  -7.681  1.00  0.00     0.064 A 
ATOM     90  C   UNL     1       5.611  14.994  -8.275  1.00  0.00     0.173 A 
ATOM     91  C   UNL     1       7.995  14.732  -8.095  1.00  0.00     0.173 A 
ATOM     92  F   UNL     1       4.361  14.660  -7.921  1.00  0.00    -0.203 F 
ATOM     93  C   UNL     1       5.797  15.970  -9.252  1.00  0.00     0.198 A 
ATOM     94  C   UNL     1       8.177  15.726  -9.051  1.00  0.00     0.198 A 
ATOM     95  F   UNL     1       9.076  14.155  -7.550  1.00  0.00    -0.203 F 
ATOM     96  F   UNL     1       4.735  16.550  -9.827  1.00  0.00    -0.200 F 
ATOM     97  C   UNL     1       7.079  16.342  -9.631  1.00  0.00     0.200 A 
ATOM     98  F   UNL     1       9.416  16.096  -9.404  1.00  0.00    -0.200 F 
ATOM     99  F   UNL     1       7.255  17.295 -10.557  1.00  0.00    -0.200 F 
ENDBRANCH  66  89
ENDBRANCH  40  41
ENDBRANCH  33  35
ENDBRANCH  32  33
ENDBRANCH  31  32
ENDBRANCH  30  31
ENDBRANCH  29  30
ENDBRANCH  28  29
ENDBRANCH  27  28
ENDBRANCH  26  27
ENDBRANCH   1  26
TORSDOF 23
