REMARK SMILES O=C(OCCOCCOCCOCCOC(=O)[C@H]1CC2=c3ccccc3=N[C@H]2[C@@H](c2ccccc2)[NH2+]1)c1ccc(-c2c3nc(c(-c4c(F)c(F)c(F)c(F)c4F)c4ccc([nH]4)c(-c4c(F)c(F)c(F)c(F)c4F)c4nc(c(-c5c(F)c(F)c(F)c(F)c5F)c5ccc2[nH]5)C=C4)C=C3)cc1
REMARK SMILES IDX 8 1 7 2 6 3 5 4 4 5 3 6 2 7 1 8 37 9 38 10 99 11 39 12 98 13
REMARK SMILES IDX 40 14 41 15 42 16 92 17 43 18 97 19 91 20 93 21 44 22 96 23
REMARK SMILES IDX 90 24 89 25 45 27 77 28 57 29 76 30 58 31 61 32 75 33 94 34
REMARK SMILES IDX 59 35 60 36 74 38 95 39 62 40 46 41 47 42 55 43 48 44 49 45
REMARK SMILES IDX 53 46 56 47 50 48 51 49 54 50 52 51 78 52 79 53 87 54 80 55
REMARK SMILES IDX 81 56 85 57 88 58 82 59 83 60 86 61 84 62 63 63 64 64 72 65
REMARK SMILES IDX 65 66 66 67 70 68 73 69 67 70 68 71 71 72 69 73 9 74 10 75
REMARK SMILES IDX 11 76 12 77 13 78 14 79 15 80 16 81 17 82 18 83 19 84 36 85
REMARK SMILES IDX 20 86 29 87 21 90 28 91 22 92 26 93 27 94 23 95 25 96 24 97
REMARK SMILES IDX 30 98 31 99 35 100 32 101 34 102 33 103
REMARK H PARENT 93 26 61 37 36 88 36 89
REMARK Flexibility Score: inf
ROOT
ATOM      1  C   UNL     1       2.613   0.694  -2.696  1.00  0.00     0.188 C 
ENDROOT
BRANCH   1   2
ATOM      2  C   UNL     1       2.911   0.807  -1.202  1.00  0.00     0.188 C 
BRANCH   2   3
ATOM      3  O   UNL     1       4.150   0.248  -0.777  1.00  0.00    -0.376 OA
BRANCH   3   4
ATOM      4  C   UNL     1       4.350  -1.126  -1.080  1.00  0.00     0.202 C 
BRANCH   4   5
ATOM      5  C   UNL     1       4.269  -1.980   0.176  1.00  0.00     0.261 C 
BRANCH   5   6
ATOM      6  O   UNL     1       2.961  -1.933   0.770  1.00  0.00    -0.460 OA
BRANCH   6   7
ATOM      7  C   UNL     1       2.434  -1.105   1.704  1.00  0.00     0.338 C 
ATOM      8  O   UNL     1       1.344  -1.409   2.172  1.00  0.00    -0.246 OA
BRANCH   7   9
ATOM      9  C   UNL     1       3.030   0.203   2.153  1.00  0.00     0.060 A 
ATOM     10  C   UNL     1       2.142   1.081   2.808  1.00  0.00     0.016 A 
ATOM     11  C   UNL     1       4.354   0.625   2.007  1.00  0.00     0.016 A 
ATOM     12  C   UNL     1       2.564   2.319   3.304  1.00  0.00     0.010 A 
ATOM     13  C   UNL     1       4.782   1.872   2.476  1.00  0.00     0.010 A 
ATOM     14  C   UNL     1       3.896   2.711   3.152  1.00  0.00    -0.014 A 
BRANCH  14  15
ATOM     15  C   UNL     1       4.420   3.872   3.898  1.00  0.00     0.031 A 
ATOM     16  C   UNL     1       4.592   5.210   3.263  1.00  0.00     0.074 A 
ATOM     17  C   UNL     1       4.779   3.656   5.177  1.00  0.00     0.049 A 
ATOM     18  N   UNL     1       4.908   6.347   3.828  1.00  0.00    -0.248 NA
ATOM     19  C   UNL     1       4.403   5.288   1.808  1.00  0.00     0.031 C 
ATOM     20  C   UNL     1       4.716   2.356   5.848  1.00  0.00     0.029 A 
ATOM     21  N   UNL     1       5.263   4.506   6.134  1.00  0.00    -0.354 N 
ATOM     22  C   UNL     1       4.922   7.285   2.808  1.00  0.00     0.074 A 
ATOM     23  C   UNL     1       4.641   6.574   1.577  1.00  0.00     0.031 C 
ATOM     24  C   UNL     1       5.125   2.497   7.116  1.00  0.00     0.029 A 
ATOM     25  C   UNL     1       5.476   3.894   7.344  1.00  0.00     0.049 A 
ATOM     26  H   UNL     1       5.441   5.460   5.971  1.00  0.00     0.167 HD
ATOM     27  C   UNL     1       5.131   8.620   2.912  1.00  0.00     0.037 A 
ATOM     28  C   UNL     1       5.884   4.411   8.517  1.00  0.00     0.037 A 
ATOM     29  C   UNL     1       5.442   9.287   4.153  1.00  0.00     0.049 A 
ATOM     30  C   UNL     1       6.123   5.888   8.604  1.00  0.00     0.074 A 
ATOM     31  C   UNL     1       5.595  10.640   4.393  1.00  0.00     0.029 A 
ATOM     32  N   UNL     1       5.676   8.638   5.360  1.00  0.00    -0.354 N 
ATOM     33  N   UNL     1       5.990   6.797   7.667  1.00  0.00    -0.248 NA
ATOM     34  C   UNL     1       6.554   6.417   9.902  1.00  0.00     0.031 C 
ATOM     35  C   UNL     1       5.978  10.806   5.729  1.00  0.00     0.029 A 
ATOM     36  C   UNL     1       6.018   9.560   6.336  1.00  0.00     0.049 A 
ATOM     37  H   UNL     1       5.608   7.666   5.501  1.00  0.00     0.167 HD
ATOM     38  C   UNL     1       6.315   8.006   8.259  1.00  0.00     0.074 A 
ATOM     39  C   UNL     1       6.630   7.717   9.646  1.00  0.00     0.031 C 
ATOM     40  C   UNL     1       6.353   9.242   7.704  1.00  0.00     0.037 A 
BRANCH  27  41
ATOM     41  C   UNL     1       5.016   9.451   1.666  1.00  0.00     0.064 A 
ATOM     42  C   UNL     1       3.777   9.660   1.040  1.00  0.00     0.173 A 
ATOM     43  C   UNL     1       6.135  10.110   1.132  1.00  0.00     0.173 A 
ATOM     44  F   UNL     1       2.674   9.056   1.508  1.00  0.00    -0.203 F 
ATOM     45  C   UNL     1       3.666  10.476  -0.084  1.00  0.00     0.198 A 
ATOM     46  C   UNL     1       6.016  10.947   0.024  1.00  0.00     0.198 A 
ATOM     47  F   UNL     1       7.343   9.958   1.696  1.00  0.00    -0.203 F 
ATOM     48  F   UNL     1       2.477  10.631  -0.683  1.00  0.00    -0.200 F 
ATOM     49  C   UNL     1       4.784  11.124  -0.586  1.00  0.00     0.200 A 
ATOM     50  F   UNL     1       7.094  11.586  -0.451  1.00  0.00    -0.200 F 
ATOM     51  F   UNL     1       4.673  11.920  -1.659  1.00  0.00    -0.200 F 
ENDBRANCH  27  41
BRANCH  28  52
ATOM     52  C   UNL     1       5.997   3.513   9.692  1.00  0.00     0.064 A 
ATOM     53  C   UNL     1       5.034   3.544  10.708  1.00  0.00     0.173 A 
ATOM     54  C   UNL     1       6.997   2.530   9.765  1.00  0.00     0.173 A 
ATOM     55  F   UNL     1       4.063   4.468  10.682  1.00  0.00    -0.203 F 
ATOM     56  C   UNL     1       5.061   2.620  11.751  1.00  0.00     0.198 A 
ATOM     57  C   UNL     1       7.009   1.594  10.796  1.00  0.00     0.198 A 
ATOM     58  F   UNL     1       7.930   2.450   8.806  1.00  0.00    -0.203 F 
ATOM     59  F   UNL     1       4.130   2.673  12.713  1.00  0.00    -0.200 F 
ATOM     60  C   UNL     1       6.040   1.639  11.787  1.00  0.00     0.200 A 
ATOM     61  F   UNL     1       7.943   0.633  10.816  1.00  0.00    -0.200 F 
ATOM     62  F   UNL     1       6.046   0.732  12.774  1.00  0.00    -0.200 F 
ENDBRANCH  28  52
BRANCH  40  63
ATOM     63  C   UNL     1       6.788  10.375   8.584  1.00  0.00     0.064 A 
ATOM     64  C   UNL     1       8.136  10.540   8.934  1.00  0.00     0.173 A 
ATOM     65  C   UNL     1       5.871  11.350   9.004  1.00  0.00     0.173 A 
ATOM     66  F   UNL     1       9.045   9.623   8.569  1.00  0.00    -0.203 F 
ATOM     67  C   UNL     1       8.551  11.642   9.675  1.00  0.00     0.198 A 
ATOM     68  C   UNL     1       6.294  12.464   9.722  1.00  0.00     0.198 A 
ATOM     69  F   UNL     1       4.572  11.237   8.689  1.00  0.00    -0.203 F 
ATOM     70  F   UNL     1       9.840  11.769  10.017  1.00  0.00    -0.200 F 
ATOM     71  C   UNL     1       7.633  12.609  10.057  1.00  0.00     0.200 A 
ATOM     72  F   UNL     1       5.409  13.405  10.079  1.00  0.00    -0.200 F 
ATOM     73  F   UNL     1       8.039  13.682  10.749  1.00  0.00    -0.200 F 
ENDBRANCH  40  63
ENDBRANCH  14  15
ENDBRANCH   7   9
ENDBRANCH   6   7
ENDBRANCH   5   6
ENDBRANCH   4   5
ENDBRANCH   3   4
ENDBRANCH   2   3
ENDBRANCH   1   2
BRANCH   1  74
ATOM     74  O   UNL     1       3.709   0.568  -3.588  1.00  0.00    -0.377 OA
BRANCH  74  75
ATOM     75  C   UNL     1       4.881   1.354  -3.407  1.00  0.00     0.188 C 
BRANCH  75  76
ATOM     76  C   UNL     1       4.806   2.857  -3.687  1.00  0.00     0.188 C 
BRANCH  76  77
ATOM     77  O   UNL     1       3.943   3.560  -2.806  1.00  0.00    -0.376 OA
BRANCH  77  78
ATOM     78  C   UNL     1       2.705   4.084  -3.295  1.00  0.00     0.202 C 
BRANCH  78  79
ATOM     79  C   UNL     1       2.338   4.000  -4.788  1.00  0.00     0.261 C 
BRANCH  79  80
ATOM     80  O   UNL     1       2.281   2.630  -5.219  1.00  0.00    -0.459 OA
BRANCH  80  81
ATOM     81  C   UNL     1       2.482   2.436  -6.560  1.00  0.00     0.365 C 
ATOM     82  O   UNL     1       2.186   3.244  -7.425  1.00  0.00    -0.245 OA
BRANCH  81  83
ATOM     83  C   UNL     1       3.400   1.220  -6.775  1.00  0.00     0.298 C 
ATOM     84  C   UNL     1       2.803   0.008  -7.537  1.00  0.00     0.111 C 
ATOM     85  N   UNL     1       4.731   1.744  -7.249  1.00  0.00    -0.326 N 
ATOM     86  C   UNL     1       3.856  -1.079  -7.590  1.00  0.00    -0.024 C 
ATOM     87  C   UNL     1       5.502   0.756  -8.074  1.00  0.00     0.243 C 
ATOM     88  H   UNL     1       5.290   1.990  -6.432  1.00  0.00     0.347 HD
ATOM     89  H   UNL     1       4.541   2.550  -7.844  1.00  0.00     0.347 HD
ATOM     90  C   UNL     1       3.875  -2.365  -7.932  1.00  0.00     0.002 A 
ATOM     91  C   UNL     1       5.267  -0.605  -7.345  1.00  0.00     0.196 C 
ATOM     92  C   UNL     1       2.949  -3.316  -8.458  1.00  0.00     0.010 A 
ATOM     93  C   UNL     1       5.317  -2.704  -7.831  1.00  0.00     0.066 A 
ATOM     94  N   UNL     1       6.168  -1.735  -7.668  1.00  0.00    -0.270 NA
ATOM     95  C   UNL     1       3.373  -4.574  -8.675  1.00  0.00     0.001 A 
ATOM     96  C   UNL     1       5.670  -4.134  -7.940  1.00  0.00     0.028 A 
ATOM     97  C   UNL     1       4.716  -5.001  -8.312  1.00  0.00     0.002 A 
BRANCH  87  98
ATOM     98  C   UNL     1       5.123   0.910  -9.566  1.00  0.00     0.012 A 
ATOM     99  C   UNL     1       4.884  -0.178 -10.418  1.00  0.00     0.010 A 
ATOM    100  C   UNL     1       4.957   2.196 -10.124  1.00  0.00     0.010 A 
ATOM    101  C   UNL     1       4.336   0.001 -11.694  1.00  0.00     0.001 A 
ATOM    102  C   UNL     1       4.411   2.380 -11.397  1.00  0.00     0.001 A 
ATOM    103  C   UNL     1       4.071   1.279 -12.171  1.00  0.00     0.000 A 
ENDBRANCH  87  98
ENDBRANCH  81  83
ENDBRANCH  80  81
ENDBRANCH  79  80
ENDBRANCH  78  79
ENDBRANCH  77  78
ENDBRANCH  76  77
ENDBRANCH  75  76
ENDBRANCH  74  75
ENDBRANCH   1  74
TORSDOF 21
