REMARK SMILES O=C(OCCOCCOCCOCCOC(=O)c1ccc(-c2c3nc(c(-c4c(F)c(F)c(F)c(F)c4F)c4ccc([nH]4)c(-c4c(F)c(F)c(F)c(F)c4F)c4nc(c(-c5c(F)c(F)c(F)c(F)c5F)c5ccc2[nH]5)C=C4)C=C3)cc1)c1ccc(NC(=O)[C@@H]2CC=CC[C@@H]2C(=O)Nc2ccc(Br)cc2)cc1
REMARK SMILES IDX 8 1 7 2 6 3 5 4 4 5 3 6 2 7 1 8 81 9 82 10 105 11 83 12
REMARK SMILES IDX 104 13 84 14 85 15 86 16 87 18 88 19 89 20 93 21 90 22 92 23
REMARK SMILES IDX 91 24 94 25 95 26 96 27 97 29 98 30 103 31 99 32 102 33
REMARK SMILES IDX 100 34 101 35 9 36 10 37 11 38 12 39 13 40 14 41 15 42 16 43
REMARK SMILES IDX 17 44 18 45 19 46 80 47 20 48 79 49 21 50 22 51 23 52 73 53
REMARK SMILES IDX 24 54 78 55 72 56 74 57 25 58 77 59 71 60 70 61 26 63 58 64
REMARK SMILES IDX 38 65 57 66 39 67 42 68 56 69 75 70 40 71 41 72 55 74 76 75
REMARK SMILES IDX 43 76 27 77 28 78 36 79 29 80 30 81 34 82 37 83 31 84 32 85
REMARK SMILES IDX 35 86 33 87 59 88 60 89 68 90 61 91 62 92 66 93 69 94 63 95
REMARK SMILES IDX 64 96 67 97 65 98 44 99 45 100 53 101 46 102 47 103 51 104
REMARK SMILES IDX 54 105 48 106 49 107 52 108 50 109
REMARK H PARENT 85 17 96 28 74 62 42 73
REMARK Flexibility Score: inf
ROOT
ATOM      1  C   UNL     1      13.987   3.463   3.064  1.00  0.00     0.188 C 
ENDROOT
BRANCH   1   2
ATOM      2  C   UNL     1      12.993   3.999   2.026  1.00  0.00     0.188 C 
BRANCH   2   3
ATOM      3  O   UNL     1      11.807   3.221   1.878  1.00  0.00    -0.376 OA
BRANCH   3   4
ATOM      4  C   UNL     1      11.491   2.822   0.550  1.00  0.00     0.202 C 
BRANCH   4   5
ATOM      5  C   UNL     1      11.326   3.940  -0.486  1.00  0.00     0.261 C 
BRANCH   5   6
ATOM      6  O   UNL     1      11.320   5.281   0.040  1.00  0.00    -0.460 OA
BRANCH   6   7
ATOM      7  C   UNL     1      10.404   5.979   0.747  1.00  0.00     0.338 C 
ATOM      8  O   UNL     1      10.740   7.067   1.215  1.00  0.00    -0.246 OA
BRANCH   7   9
ATOM      9  C   UNL     1       8.993   5.525   0.977  1.00  0.00     0.060 A 
ATOM     10  C   UNL     1       8.476   4.298   0.599  1.00  0.00     0.018 A 
ATOM     11  C   UNL     1       8.102   6.374   1.649  1.00  0.00     0.018 A 
ATOM     12  C   UNL     1       7.194   3.869   0.972  1.00  0.00     0.027 A 
ATOM     13  C   UNL     1       6.857   5.891   2.127  1.00  0.00     0.027 A 
ATOM     14  C   UNL     1       6.487   4.545   1.942  1.00  0.00     0.041 A 
BRANCH  14  15
ATOM     15  N   UNL     1       5.682   3.946   2.969  1.00  0.00    -0.326 N 
ATOM     16  C   UNL     1       5.488   2.775   3.684  1.00  0.00     0.228 C 
ATOM     17  H   UNL     1       5.028   4.613   3.280  1.00  0.00     0.169 HD
ATOM     18  O   UNL     1       4.741   2.957   4.666  1.00  0.00    -0.274 OA
BRANCH  16  19
ATOM     19  C   UNL     1       5.992   1.298   3.496  1.00  0.00     0.095 C 
ATOM     20  C   UNL     1       6.577   0.499   4.731  1.00  0.00     0.041 C 
ATOM     21  C   UNL     1       6.882   0.978   2.310  1.00  0.00     0.095 C 
ATOM     22  C   UNL     1       7.220  -0.848   4.358  1.00  0.00    -0.030 C 
ATOM     23  C   UNL     1       6.700  -0.517   1.981  1.00  0.00     0.041 C 
ATOM     24  C   UNL     1       7.226  -1.340   3.107  1.00  0.00    -0.030 C 
BRANCH  21  25
ATOM     25  C   UNL     1       8.371   1.361   2.663  1.00  0.00     0.228 C 
ATOM     26  O   UNL     1       9.331   0.702   2.285  1.00  0.00    -0.274 OA
ATOM     27  N   UNL     1       8.449   2.577   3.314  1.00  0.00    -0.326 N 
ATOM     28  H   UNL     1       8.079   3.313   2.775  1.00  0.00     0.169 HD
BRANCH  27  29
ATOM     29  C   UNL     1       8.928   3.016   4.559  1.00  0.00     0.041 A 
ATOM     30  C   UNL     1       8.457   4.288   4.946  1.00  0.00     0.027 A 
ATOM     31  C   UNL     1       9.604   2.251   5.488  1.00  0.00     0.027 A 
ATOM     32  C   UNL     1       8.570   4.763   6.245  1.00  0.00     0.018 A 
ATOM     33  C   UNL     1       9.754   2.739   6.801  1.00  0.00     0.018 A 
ATOM     34  C   UNL     1       9.220   3.977   7.176  1.00  0.00     0.018 A 
ATOM     35  Br  UNL     1       9.345   4.590   8.958  1.00  0.00    -0.051 Br
ENDBRANCH  27  29
ENDBRANCH  21  25
ENDBRANCH  16  19
ENDBRANCH  14  15
ENDBRANCH   7   9
ENDBRANCH   6   7
ENDBRANCH   5   6
ENDBRANCH   4   5
ENDBRANCH   3   4
ENDBRANCH   2   3
ENDBRANCH   1   2
BRANCH   1  36
ATOM     36  O   UNL     1      14.644   2.227   2.781  1.00  0.00    -0.377 OA
BRANCH  36  37
ATOM     37  C   UNL     1      13.838   1.142   2.338  1.00  0.00     0.188 C 
BRANCH  37  38
ATOM     38  C   UNL     1      12.689   0.648   3.236  1.00  0.00     0.188 C 
BRANCH  38  39
ATOM     39  O   UNL     1      12.394   1.533   4.290  1.00  0.00    -0.376 OA
BRANCH  39  40
ATOM     40  C   UNL     1      12.909   1.278   5.585  1.00  0.00     0.202 C 
BRANCH  40  41
ATOM     41  C   UNL     1      14.356   0.823   5.842  1.00  0.00     0.261 C 
BRANCH  41  42
ATOM     42  O   UNL     1      15.019   0.096   4.806  1.00  0.00    -0.460 OA
BRANCH  42  43
ATOM     43  C   UNL     1      14.824  -1.243   4.751  1.00  0.00     0.338 C 
ATOM     44  O   UNL     1      14.156  -1.921   5.494  1.00  0.00    -0.246 OA
BRANCH  43  45
ATOM     45  C   UNL     1      15.398  -1.706   3.461  1.00  0.00     0.060 A 
ATOM     46  C   UNL     1      14.562  -2.401   2.576  1.00  0.00     0.016 A 
ATOM     47  C   UNL     1      16.703  -1.370   3.083  1.00  0.00     0.016 A 
ATOM     48  C   UNL     1      15.038  -2.788   1.322  1.00  0.00     0.010 A 
ATOM     49  C   UNL     1      17.188  -1.783   1.838  1.00  0.00     0.010 A 
ATOM     50  C   UNL     1      16.367  -2.522   0.967  1.00  0.00    -0.014 A 
BRANCH  50  51
ATOM     51  C   UNL     1      16.971  -3.237  -0.183  1.00  0.00     0.031 A 
ATOM     52  C   UNL     1      17.693  -4.524   0.106  1.00  0.00     0.074 A 
ATOM     53  C   UNL     1      16.875  -2.783  -1.444  1.00  0.00     0.049 A 
ATOM     54  N   UNL     1      18.352  -5.314  -0.701  1.00  0.00    -0.248 NA
ATOM     55  C   UNL     1      17.668  -4.979   1.506  1.00  0.00     0.031 C 
ATOM     56  C   UNL     1      16.167  -1.576  -1.860  1.00  0.00     0.029 A 
ATOM     57  N   UNL     1      17.395  -3.289  -2.611  1.00  0.00    -0.354 N 
ATOM     58  C   UNL     1      18.824  -6.350   0.094  1.00  0.00     0.074 A 
ATOM     59  C   UNL     1      18.405  -6.076   1.450  1.00  0.00     0.031 C 
ATOM     60  C   UNL     1      16.312  -1.423  -3.189  1.00  0.00     0.029 A 
ATOM     61  C   UNL     1      17.153  -2.502  -3.710  1.00  0.00     0.049 A 
ATOM     62  H   UNL     1      17.895  -4.136  -2.655  1.00  0.00     0.167 HD
ATOM     63  C   UNL     1      19.539  -7.438  -0.275  1.00  0.00     0.037 A 
ATOM     64  C   UNL     1      17.587  -2.628  -4.980  1.00  0.00     0.037 A 
ATOM     65  C   UNL     1      19.964  -7.703  -1.622  1.00  0.00     0.049 A 
ATOM     66  C   UNL     1      18.455  -3.807  -5.353  1.00  0.00     0.074 A 
ATOM     67  C   UNL     1      20.678  -8.786  -2.103  1.00  0.00     0.029 A 
ATOM     68  N   UNL     1      19.725  -6.866  -2.702  1.00  0.00    -0.354 N 
ATOM     69  N   UNL     1      18.871  -4.801  -4.606  1.00  0.00    -0.248 NA
ATOM     70  C   UNL     1      18.912  -3.881  -6.749  1.00  0.00     0.031 C 
ATOM     71  C   UNL     1      20.928  -8.572  -3.462  1.00  0.00     0.029 A 
ATOM     72  C   UNL     1      20.308  -7.392  -3.843  1.00  0.00     0.049 A 
ATOM     73  H   UNL     1      19.217  -6.024  -2.663  1.00  0.00     0.167 HD
ATOM     74  C   UNL     1      19.608  -5.631  -5.444  1.00  0.00     0.074 A 
ATOM     75  C   UNL     1      19.571  -5.031  -6.760  1.00  0.00     0.031 C 
ATOM     76  C   UNL     1      20.254  -6.787  -5.151  1.00  0.00     0.037 A 
BRANCH  63  77
ATOM     77  C   UNL     1      19.941  -8.397   0.807  1.00  0.00     0.064 A 
ATOM     78  C   UNL     1      19.003  -9.203   1.471  1.00  0.00     0.173 A 
ATOM     79  C   UNL     1      21.289  -8.521   1.175  1.00  0.00     0.173 A 
ATOM     80  F   UNL     1      17.699  -9.109   1.171  1.00  0.00    -0.203 F 
ATOM     81  C   UNL     1      19.396 -10.073   2.485  1.00  0.00     0.198 A 
ATOM     82  C   UNL     1      21.683  -9.418   2.164  1.00  0.00     0.198 A 
ATOM     83  F   UNL     1      22.227  -7.775   0.573  1.00  0.00    -0.203 F 
ATOM     84  F   UNL     1      18.476 -10.790   3.144  1.00  0.00    -0.200 F 
ATOM     85  C   UNL     1      20.736 -10.186   2.824  1.00  0.00     0.200 A 
ATOM     86  F   UNL     1      22.980  -9.535   2.482  1.00  0.00    -0.200 F 
ATOM     87  F   UNL     1      21.114 -11.030   3.795  1.00  0.00    -0.200 F 
ENDBRANCH  63  77
BRANCH  64  88
ATOM     88  C   UNL     1      17.232  -1.601  -5.997  1.00  0.00     0.064 A 
ATOM     89  C   UNL     1      16.406  -1.910  -7.087  1.00  0.00     0.173 A 
ATOM     90  C   UNL     1      17.739  -0.294  -5.917  1.00  0.00     0.173 A 
ATOM     91  F   UNL     1      15.918  -3.152  -7.227  1.00  0.00    -0.203 F 
ATOM     92  C   UNL     1      16.117  -0.960  -8.066  1.00  0.00     0.198 A 
ATOM     93  C   UNL     1      17.424   0.663  -6.880  1.00  0.00     0.198 A 
ATOM     94  F   UNL     1      18.539   0.054  -4.899  1.00  0.00    -0.203 F 
ATOM     95  F   UNL     1      15.368  -1.299  -9.125  1.00  0.00    -0.200 F 
ATOM     96  C   UNL     1      16.621   0.327  -7.958  1.00  0.00     0.200 A 
ATOM     97  F   UNL     1      17.903   1.909  -6.764  1.00  0.00    -0.200 F 
ATOM     98  F   UNL     1      16.340   1.240  -8.898  1.00  0.00    -0.200 F 
ENDBRANCH  64  88
BRANCH  76  99
ATOM     99  C   UNL     1      20.937  -7.511  -6.278  1.00  0.00     0.064 A 
ATOM    100  C   UNL     1      22.102  -7.015  -6.880  1.00  0.00     0.173 A 
ATOM    101  C   UNL     1      20.448  -8.751  -6.720  1.00  0.00     0.173 A 
ATOM    102  F   UNL     1      22.605  -5.829  -6.503  1.00  0.00    -0.203 F 
ATOM    103  C   UNL     1      22.736  -7.719  -7.901  1.00  0.00     0.198 A 
ATOM    104  C   UNL     1      21.105  -9.469  -7.715  1.00  0.00     0.198 A 
ATOM    105  F   UNL     1      19.343  -9.278  -6.171  1.00  0.00    -0.203 F 
ATOM    106  F   UNL     1      23.820  -7.202  -8.495  1.00  0.00    -0.200 F 
ATOM    107  C   UNL     1      22.243  -8.949  -8.310  1.00  0.00     0.200 A 
ATOM    108  F   UNL     1      20.637 -10.666  -8.095  1.00  0.00    -0.200 F 
ATOM    109  F   UNL     1      22.863  -9.631  -9.283  1.00  0.00    -0.200 F 
ENDBRANCH  76  99
ENDBRANCH  50  51
ENDBRANCH  43  45
ENDBRANCH  42  43
ENDBRANCH  41  42
ENDBRANCH  40  41
ENDBRANCH  39  40
ENDBRANCH  38  39
ENDBRANCH  37  38
ENDBRANCH  36  37
ENDBRANCH   1  36
TORSDOF 24
