REMARK SMILES Cc1ccc(-c2noc(CCC(=O)OCCOCCOCCOCCOC(=O)c3ccc(-c4c5nc(c(-c6c(F)c(F)c(F)c(F)c6F)c6ccc([nH]6)c(-c6c(F)c(F)c(F)c(F)c6F)c6nc(c(-c7c(F)c(F)c(F)c(F)c7F)c7ccc4[nH]7)C=C6)C=C5)cc3)n2)cc1C
REMARK SMILES IDX 19 1 18 2 17 3 16 4 15 5 14 6 12 7 13 8 11 9 10 10 9 11 6 12
REMARK SMILES IDX 7 13 92 14 8 15 5 16 1 17 2 18 3 19 94 20 4 21 93 22 95 23
REMARK SMILES IDX 20 24 21 25 22 26 23 27 24 28 25 29 26 30 27 31 28 32 29 33
REMARK SMILES IDX 30 34 91 35 31 36 90 37 32 38 33 39 34 40 84 41 35 42 89 43
REMARK SMILES IDX 83 44 85 45 36 46 88 47 82 48 81 49 37 51 69 52 49 53 68 54
REMARK SMILES IDX 50 55 53 56 67 57 86 58 51 59 52 60 66 62 87 63 54 64 38 65
REMARK SMILES IDX 39 66 47 67 40 68 41 69 45 70 48 71 42 72 43 73 46 74 44 75
REMARK SMILES IDX 70 76 71 77 79 78 72 79 73 80 77 81 80 82 74 83 75 84 78 85
REMARK SMILES IDX 76 86 55 87 56 88 64 89 57 90 58 91 62 92 65 93 59 94 60 95
REMARK SMILES IDX 63 96 61 97
REMARK H PARENT 85 50 53 61
REMARK Flexibility Score: inf
ROOT
ATOM      1  C   UNL     1      -7.992  -3.602   0.284  1.00  0.00     0.188 C 
ENDROOT
BRANCH   1   2
ATOM      2  C   UNL     1      -8.233  -5.120   0.276  1.00  0.00     0.188 C 
BRANCH   2   3
ATOM      3  O   UNL     1      -7.734  -5.777   1.418  1.00  0.00    -0.376 OA
BRANCH   3   4
ATOM      4  C   UNL     1      -6.569  -6.572   1.316  1.00  0.00     0.202 C 
BRANCH   4   5
ATOM      5  C   UNL     1      -5.364  -6.175   0.444  1.00  0.00     0.261 C 
BRANCH   5   6
ATOM      6  O   UNL     1      -5.545  -5.073  -0.456  1.00  0.00    -0.463 OA
BRANCH   6   7
ATOM      7  C   UNL     1      -5.498  -5.337  -1.776  1.00  0.00     0.306 C 
ATOM      8  O   UNL     1      -5.483  -6.470  -2.246  1.00  0.00    -0.252 OA
BRANCH   7   9
ATOM      9  C   UNL     1      -5.505  -4.117  -2.675  1.00  0.00     0.132 C 
BRANCH   9  10
ATOM     10  C   UNL     1      -5.466  -2.682  -2.163  1.00  0.00     0.112 C 
BRANCH  10  11
ATOM     11  C   UNL     1      -4.368  -2.295  -1.254  1.00  0.00     0.227 A 
ATOM     12  C   UNL     1      -2.789  -1.387  -0.229  1.00  0.00     0.202 A 
ATOM     13  N   UNL     1      -3.191  -2.346   0.616  1.00  0.00    -0.057 NA
ATOM     14  N   UNL     1      -3.505  -1.317  -1.400  1.00  0.00    -0.191 NA
ATOM     15  O   UNL     1      -4.267  -2.921  -0.051  1.00  0.00    -0.339 OA
BRANCH  12  16
ATOM     16  C   UNL     1      -1.592  -0.607  -0.038  1.00  0.00     0.023 A 
ATOM     17  C   UNL     1       2.071   1.653   0.054  1.00  0.00     0.044 C 
ATOM     18  C   UNL     1       0.808   0.838   0.065  1.00  0.00    -0.048 A 
ATOM     19  C   UNL     1      -0.431   1.502   0.015  1.00  0.00     0.004 A 
ATOM     20  C   UNL     1       0.839  -0.569   0.090  1.00  0.00    -0.047 A 
ATOM     21  C   UNL     1      -1.626   0.786  -0.048  1.00  0.00     0.012 A 
ATOM     22  C   UNL     1      -0.369  -1.276   0.056  1.00  0.00     0.015 A 
ATOM     23  C   UNL     1       2.103  -1.383   0.104  1.00  0.00     0.044 C 
ENDBRANCH  12  16
ENDBRANCH  10  11
ENDBRANCH   9  10
ENDBRANCH   7   9
ENDBRANCH   6   7
ENDBRANCH   5   6
ENDBRANCH   4   5
ENDBRANCH   3   4
ENDBRANCH   2   3
ENDBRANCH   1   2
BRANCH   1  24
ATOM     24  O   UNL     1      -6.925  -3.057   1.047  1.00  0.00    -0.377 OA
BRANCH  24  25
ATOM     25  C   UNL     1      -6.803  -3.376   2.435  1.00  0.00     0.188 C 
BRANCH  25  26
ATOM     26  C   UNL     1      -8.055  -3.718   3.275  1.00  0.00     0.188 C 
BRANCH  26  27
ATOM     27  O   UNL     1      -9.290  -3.443   2.639  1.00  0.00    -0.376 OA
BRANCH  27  28
ATOM     28  C   UNL     1      -9.942  -2.227   2.975  1.00  0.00     0.202 C 
BRANCH  28  29
ATOM     29  C   UNL     1      -9.174  -0.919   2.727  1.00  0.00     0.261 C 
BRANCH  29  30
ATOM     30  O   UNL     1      -7.933  -0.768   3.437  1.00  0.00    -0.460 OA
BRANCH  30  31
ATOM     31  C   UNL     1      -7.970  -0.799   4.783  1.00  0.00     0.338 C 
ATOM     32  O   UNL     1      -8.955  -0.908   5.500  1.00  0.00    -0.246 OA
BRANCH  31  33
ATOM     33  C   UNL     1      -6.580  -0.854   5.269  1.00  0.00     0.060 A 
ATOM     34  C   UNL     1      -6.149  -1.976   5.987  1.00  0.00     0.016 A 
ATOM     35  C   UNL     1      -5.711   0.212   5.027  1.00  0.00     0.016 A 
ATOM     36  C   UNL     1      -4.853  -2.018   6.501  1.00  0.00     0.010 A 
ATOM     37  C   UNL     1      -4.420   0.177   5.556  1.00  0.00     0.010 A 
ATOM     38  C   UNL     1      -3.998  -0.921   6.328  1.00  0.00    -0.014 A 
BRANCH  38  39
ATOM     39  C   UNL     1      -2.749  -0.830   7.121  1.00  0.00     0.031 A 
ATOM     40  C   UNL     1      -2.764  -0.014   8.384  1.00  0.00     0.074 A 
ATOM     41  C   UNL     1      -1.631  -1.475   6.748  1.00  0.00     0.049 A 
ATOM     42  N   UNL     1      -1.796   0.245   9.226  1.00  0.00    -0.248 NA
ATOM     43  C   UNL     1      -4.054   0.597   8.742  1.00  0.00     0.031 C 
ATOM     44  C   UNL     1      -1.503  -2.334   5.574  1.00  0.00     0.029 A 
ATOM     45  N   UNL     1      -0.386  -1.500   7.326  1.00  0.00    -0.354 N 
ATOM     46  C   UNL     1      -2.358   1.051  10.208  1.00  0.00     0.074 A 
ATOM     47  C   UNL     1      -3.739   1.273   9.835  1.00  0.00     0.031 C 
ATOM     48  C   UNL     1      -0.246  -2.806   5.518  1.00  0.00     0.029 A 
ATOM     49  C   UNL     1       0.527  -2.252   6.630  1.00  0.00     0.049 A 
ATOM     50  H   UNL     1      -0.169  -1.025   8.160  1.00  0.00     0.167 HD
ATOM     51  C   UNL     1      -1.780   1.551  11.326  1.00  0.00     0.037 A 
ATOM     52  C   UNL     1       1.839  -2.451   6.859  1.00  0.00     0.037 A 
ATOM     53  C   UNL     1      -0.401   1.343  11.682  1.00  0.00     0.049 A 
ATOM     54  C   UNL     1       2.489  -1.798   8.054  1.00  0.00     0.074 A 
ATOM     55  C   UNL     1       0.284   1.804  12.792  1.00  0.00     0.029 A 
ATOM     56  N   UNL     1       0.509   0.622  10.922  1.00  0.00    -0.354 N 
ATOM     57  N   UNL     1       1.952  -1.055   8.991  1.00  0.00    -0.248 NA
ATOM     58  C   UNL     1       3.934  -2.016   8.220  1.00  0.00     0.031 C 
ATOM     59  C   UNL     1       1.624   1.416  12.670  1.00  0.00     0.029 A 
ATOM     60  C   UNL     1       1.759   0.653  11.521  1.00  0.00     0.049 A 
ATOM     61  H   UNL     1       0.298   0.157  10.080  1.00  0.00     0.167 HD
ATOM     62  C   UNL     1       2.979  -0.746   9.874  1.00  0.00     0.074 A 
ATOM     63  C   UNL     1       4.172  -1.392   9.365  1.00  0.00     0.031 C 
ATOM     64  C   UNL     1       2.938   0.001  11.007  1.00  0.00     0.037 A 
BRANCH  51  65
ATOM     65  C   UNL     1      -2.638   2.409  12.214  1.00  0.00     0.064 A 
ATOM     66  C   UNL     1      -3.724   1.881  12.931  1.00  0.00     0.173 A 
ATOM     67  C   UNL     1      -2.380   3.783  12.338  1.00  0.00     0.173 A 
ATOM     68  F   UNL     1      -4.024   0.576  12.839  1.00  0.00    -0.203 F 
ATOM     69  C   UNL     1      -4.547   2.703  13.697  1.00  0.00     0.198 A 
ATOM     70  C   UNL     1      -3.182   4.595  13.136  1.00  0.00     0.198 A 
ATOM     71  F   UNL     1      -1.353   4.341  11.682  1.00  0.00    -0.203 F 
ATOM     72  F   UNL     1      -5.621   2.188  14.311  1.00  0.00    -0.200 F 
ATOM     73  C   UNL     1      -4.273   4.058  13.802  1.00  0.00     0.200 A 
ATOM     74  F   UNL     1      -2.907   5.902  13.248  1.00  0.00    -0.200 F 
ATOM     75  F   UNL     1      -5.068   4.849  14.535  1.00  0.00    -0.200 F 
ENDBRANCH  51  65
BRANCH  52  76
ATOM     76  C   UNL     1       2.627  -3.319   5.945  1.00  0.00     0.064 A 
ATOM     77  C   UNL     1       3.131  -4.552   6.383  1.00  0.00     0.173 A 
ATOM     78  C   UNL     1       2.898  -2.937   4.622  1.00  0.00     0.173 A 
ATOM     79  F   UNL     1       2.925  -4.948   7.648  1.00  0.00    -0.203 F 
ATOM     80  C   UNL     1       3.884  -5.364   5.538  1.00  0.00     0.198 A 
ATOM     81  C   UNL     1       3.627  -3.764   3.769  1.00  0.00     0.198 A 
ATOM     82  F   UNL     1       2.448  -1.764   4.154  1.00  0.00    -0.203 F 
ATOM     83  F   UNL     1       4.389  -6.518   5.996  1.00  0.00    -0.200 F 
ATOM     84  C   UNL     1       4.124  -4.974   4.229  1.00  0.00     0.200 A 
ATOM     85  F   UNL     1       3.849  -3.387   2.502  1.00  0.00    -0.200 F 
ATOM     86  F   UNL     1       4.841  -5.759   3.414  1.00  0.00    -0.200 F 
ENDBRANCH  52  76
BRANCH  64  87
ATOM     87  C   UNL     1       4.208   0.125  11.803  1.00  0.00     0.064 A 
ATOM     88  C   UNL     1       5.307   0.863  11.340  1.00  0.00     0.173 A 
ATOM     89  C   UNL     1       4.310  -0.472  13.071  1.00  0.00     0.173 A 
ATOM     90  F   UNL     1       5.270   1.444  10.131  1.00  0.00    -0.203 F 
ATOM     91  C   UNL     1       6.470   0.973  12.100  1.00  0.00     0.198 A 
ATOM     92  C   UNL     1       5.459  -0.329  13.843  1.00  0.00     0.198 A 
ATOM     93  F   UNL     1       3.286  -1.182  13.568  1.00  0.00    -0.203 F 
ATOM     94  F   UNL     1       7.526   1.638  11.613  1.00  0.00    -0.200 F 
ATOM     95  C   UNL     1       6.541   0.385  13.354  1.00  0.00     0.200 A 
ATOM     96  F   UNL     1       5.519  -0.884  15.062  1.00  0.00    -0.200 F 
ATOM     97  F   UNL     1       7.657   0.500  14.087  1.00  0.00    -0.200 F 
ENDBRANCH  64  87
ENDBRANCH  38  39
ENDBRANCH  31  33
ENDBRANCH  30  31
ENDBRANCH  29  30
ENDBRANCH  28  29
ENDBRANCH  27  28
ENDBRANCH  26  27
ENDBRANCH  25  26
ENDBRANCH  24  25
ENDBRANCH   1  24
TORSDOF 23
