REMARK SMILES CCOc1cc2c(cc1/C=C1/C(=O)N(c3cccc(C(=O)OCCOCCOCCOCCOC(=O)c4ccc(-c5c6nc(c(-c7c(F)c(F)c(F)c(F)c7F)c7ccc([nH]7)c(-c7c(F)c(F)c(F)c(F)c7F)c7nc(c(-c8c(F)c(F)c(F)c(F)c8F)c8ccc5[nH]8)C=C7)C=C6)cc4)c3)C(=S)N=C1O)OCO2
REMARK SMILES IDX 27 1 26 2 25 3 24 4 23 5 22 6 20 7 21 8 19 9 15 10 16 11
REMARK SMILES IDX 100 12 17 13 18 14 14 15 10 16 11 17 12 18 104 19 13 20
REMARK SMILES IDX 103 21 101 22 102 23 9 24 4 25 5 26 6 27 8 28 7 29 108 30
REMARK SMILES IDX 106 31 107 32 3 33 2 34 1 35 105 36 28 38 29 39 30 40 31 41
REMARK SMILES IDX 32 42 33 43 34 44 35 45 36 46 37 47 38 48 99 49 39 50 98 51
REMARK SMILES IDX 40 52 41 53 42 54 92 55 43 56 97 57 91 58 93 59 44 60 96 61
REMARK SMILES IDX 90 62 89 63 45 65 77 66 57 67 76 68 58 69 61 70 75 71 94 72
REMARK SMILES IDX 59 73 60 74 74 76 95 77 62 78 46 79 47 80 55 81 48 82 49 83
REMARK SMILES IDX 53 84 56 85 50 86 51 87 54 88 52 89 78 90 79 91 87 92 80 93
REMARK SMILES IDX 81 94 85 95 88 96 82 97 83 98 86 99 84 100 63 101 64 102
REMARK SMILES IDX 72 103 65 104 66 105 70 106 73 107 67 108 68 109 71 110
REMARK SMILES IDX 69 111
REMARK H PARENT 105 37 93 64 61 75
REMARK Flexibility Score: inf
ROOT
ATOM      1  C   UNL     1       0.329  -4.303  11.588  1.00  0.00     0.188 C 
ENDROOT
BRANCH   1   2
ATOM      2  C   UNL     1      -1.117  -4.454  12.107  1.00  0.00     0.188 C 
BRANCH   2   3
ATOM      3  O   UNL     1      -1.801  -5.584  11.588  1.00  0.00    -0.376 OA
BRANCH   3   4
ATOM      4  C   UNL     1      -2.888  -5.376  10.707  1.00  0.00     0.202 C 
BRANCH   4   5
ATOM      5  C   UNL     1      -2.587  -4.723   9.351  1.00  0.00     0.261 C 
BRANCH   5   6
ATOM      6  O   UNL     1      -1.768  -3.550   9.399  1.00  0.00    -0.460 OA
BRANCH   6   7
ATOM      7  C   UNL     1      -2.335  -2.424   9.889  1.00  0.00     0.338 C 
ATOM      8  O   UNL     1      -3.485  -2.295  10.267  1.00  0.00    -0.246 OA
BRANCH   7   9
ATOM      9  C   UNL     1      -1.253  -1.432  10.108  1.00  0.00     0.062 A 
ATOM     10  C   UNL     1       0.887  -0.438   9.468  1.00  0.00     0.052 A 
ATOM     11  C   UNL     1       0.842   0.324  10.646  1.00  0.00     0.027 A 
ATOM     12  C   UNL     1      -0.183  -1.314   9.210  1.00  0.00     0.042 A 
ATOM     13  C   UNL     1      -0.208   0.183  11.562  1.00  0.00     0.003 A 
ATOM     14  C   UNL     1      -1.259  -0.689  11.291  1.00  0.00     0.016 A 
BRANCH  10  15
ATOM     15  N   UNL     1       1.985  -0.348   8.524  1.00  0.00    -0.251 N 
ATOM     16  C   UNL     1       2.419   0.304   4.925  1.00  0.00     0.031 C 
ATOM     17  C   UNL     1       2.740  -0.099   6.182  1.00  0.00     0.103 C 
ATOM     18  C   UNL     1       1.615  -0.200   7.168  1.00  0.00     0.270 C 
ATOM     19  C   UNL     1       4.037  -0.427   6.757  1.00  0.00     0.226 C 
ATOM     20  O   UNL     1       0.450  -0.113   6.772  1.00  0.00    -0.268 OA
ATOM     21  N   UNL     1       4.323  -0.549   7.993  1.00  0.00    -0.184 NA
ATOM     22  C   UNL     1       3.336  -0.466   8.944  1.00  0.00     0.210 C 
ATOM     23  S   UNL     1       3.883  -0.676  10.544  1.00  0.00    -0.038 S 
BRANCH  16  24
ATOM     24  C   UNL     1       3.227   0.575   3.701  1.00  0.00     0.021 A 
ATOM     25  C   UNL     1       2.648   0.498   2.393  1.00  0.00     0.130 A 
ATOM     26  C   UNL     1       3.431   0.707   1.248  1.00  0.00     0.097 A 
ATOM     27  C   UNL     1       4.777   0.930   1.409  1.00  0.00     0.169 A 
ATOM     28  C   UNL     1       4.570   0.974   3.796  1.00  0.00     0.062 A 
ATOM     29  C   UNL     1       5.329   1.073   2.650  1.00  0.00     0.166 A 
ATOM     30  O   UNL     1       5.688   1.083   0.412  1.00  0.00    -0.453 OA
ATOM     31  O   UNL     1       6.663   1.326   2.599  1.00  0.00    -0.454 OA
ATOM     32  C   UNL     1       6.903   1.190   1.183  1.00  0.00     0.468 C 
BRANCH  25  33
ATOM     33  O   UNL     1       1.281   0.386   2.274  1.00  0.00    -0.493 OA
BRANCH  33  34
ATOM     34  C   UNL     1       0.791  -0.646   1.405  1.00  0.00     0.226 C 
ATOM     35  C   UNL     1       0.667  -0.231  -0.057  1.00  0.00     0.049 C 
ENDBRANCH  33  34
ENDBRANCH  25  33
ENDBRANCH  16  24
BRANCH  19  36
ATOM     36  O   UNL     1       5.038  -0.701   5.924  1.00  0.00    -0.493 OA
ATOM     37  H   UNL     1       4.909  -0.634   4.998  1.00  0.00     0.295 HD
ENDBRANCH  19  36
ENDBRANCH  10  15
ENDBRANCH   7   9
ENDBRANCH   6   7
ENDBRANCH   5   6
ENDBRANCH   4   5
ENDBRANCH   3   4
ENDBRANCH   2   3
ENDBRANCH   1   2
BRANCH   1  38
ATOM     38  O   UNL     1       0.781  -5.140  10.531  1.00  0.00    -0.377 OA
BRANCH  38  39
ATOM     39  C   UNL     1       0.500  -6.537  10.563  1.00  0.00     0.188 C 
BRANCH  39  40
ATOM     40  C   UNL     1       0.308  -7.295  11.900  1.00  0.00     0.188 C 
BRANCH  40  41
ATOM     41  O   UNL     1       0.587  -6.526  13.055  1.00  0.00    -0.376 OA
BRANCH  41  42
ATOM     42  C   UNL     1       1.769  -6.819  13.775  1.00  0.00     0.202 C 
BRANCH  42  43
ATOM     43  C   UNL     1       3.105  -6.653  13.038  1.00  0.00     0.261 C 
BRANCH  43  44
ATOM     44  O   UNL     1       3.218  -7.303  11.763  1.00  0.00    -0.460 OA
BRANCH  44  45
ATOM     45  C   UNL     1       3.241  -8.658  11.745  1.00  0.00     0.338 C 
ATOM     46  O   UNL     1       3.170  -9.412  12.685  1.00  0.00    -0.246 OA
BRANCH  45  47
ATOM     47  C   UNL     1       3.185  -9.057  10.319  1.00  0.00     0.060 A 
ATOM     48  C   UNL     1       2.068  -9.755   9.837  1.00  0.00     0.016 A 
ATOM     49  C   UNL     1       4.218  -8.692   9.454  1.00  0.00     0.016 A 
ATOM     50  C   UNL     1       1.985 -10.091   8.484  1.00  0.00     0.010 A 
ATOM     51  C   UNL     1       4.146  -9.053   8.108  1.00  0.00     0.010 A 
ATOM     52  C   UNL     1       3.038  -9.768   7.619  1.00  0.00    -0.014 A 
BRANCH  52  53
ATOM     53  C   UNL     1       3.084 -10.316   6.242  1.00  0.00     0.031 A 
ATOM     54  C   UNL     1       3.908 -11.547   5.996  1.00  0.00     0.074 A 
ATOM     55  C   UNL     1       2.433  -9.722   5.227  1.00  0.00     0.049 A 
ATOM     56  N   UNL     1       4.207 -12.141   4.870  1.00  0.00    -0.248 NA
ATOM     57  C   UNL     1       4.478 -12.192   7.189  1.00  0.00     0.031 C 
ATOM     58  C   UNL     1       1.560  -8.558   5.348  1.00  0.00     0.029 A 
ATOM     59  N   UNL     1       2.426 -10.014   3.885  1.00  0.00    -0.354 N 
ATOM     60  C   UNL     1       5.005 -13.223   5.217  1.00  0.00     0.074 A 
ATOM     61  C   UNL     1       5.171 -13.184   6.654  1.00  0.00     0.031 C 
ATOM     62  C   UNL     1       1.112  -8.223   4.125  1.00  0.00     0.029 A 
ATOM     63  C   UNL     1       1.704  -9.120   3.133  1.00  0.00     0.049 A 
ATOM     64  H   UNL     1       2.894 -10.789   3.499  1.00  0.00     0.167 HD
ATOM     65  C   UNL     1       5.544 -14.167   4.410  1.00  0.00     0.037 A 
ATOM     66  C   UNL     1       1.568  -9.023   1.795  1.00  0.00     0.037 A 
ATOM     67  C   UNL     1       5.389 -14.189   2.980  1.00  0.00     0.049 A 
ATOM     68  C   UNL     1       2.278 -10.016   0.906  1.00  0.00     0.074 A 
ATOM     69  C   UNL     1       5.889 -15.104   2.071  1.00  0.00     0.029 A 
ATOM     70  N   UNL     1       4.691 -13.238   2.249  1.00  0.00    -0.354 N 
ATOM     71  N   UNL     1       3.014 -11.050   1.237  1.00  0.00    -0.248 NA
ATOM     72  C   UNL     1       2.145  -9.821  -0.545  1.00  0.00     0.031 C 
ATOM     73  C   UNL     1       5.548 -14.672   0.786  1.00  0.00     0.029 A 
ATOM     74  C   UNL     1       4.779 -13.524   0.896  1.00  0.00     0.049 A 
ATOM     75  H   UNL     1       4.205 -12.474   2.634  1.00  0.00     0.167 HD
ATOM     76  C   UNL     1       3.402 -11.645   0.043  1.00  0.00     0.074 A 
ATOM     77  C   UNL     1       2.812 -10.863  -1.023  1.00  0.00     0.031 C 
ATOM     78  C   UNL     1       4.177 -12.740  -0.154  1.00  0.00     0.037 A 
BRANCH  65  79
ATOM     79  C   UNL     1       6.383 -15.230   5.060  1.00  0.00     0.064 A 
ATOM     80  C   UNL     1       5.822 -16.204   5.901  1.00  0.00     0.173 A 
ATOM     81  C   UNL     1       7.767 -15.280   4.832  1.00  0.00     0.173 A 
ATOM     82  F   UNL     1       4.507 -16.193   6.164  1.00  0.00    -0.203 F 
ATOM     83  C   UNL     1       6.621 -17.163   6.519  1.00  0.00     0.198 A 
ATOM     84  C   UNL     1       8.556 -16.262   5.423  1.00  0.00     0.198 A 
ATOM     85  F   UNL     1       8.354 -14.377   4.033  1.00  0.00    -0.203 F 
ATOM     86  F   UNL     1       6.072 -18.043   7.368  1.00  0.00    -0.200 F 
ATOM     87  C   UNL     1       7.985 -17.195   6.275  1.00  0.00     0.200 A 
ATOM     88  F   UNL     1       9.873 -16.301   5.173  1.00  0.00    -0.200 F 
ATOM     89  F   UNL     1       8.752 -18.120   6.869  1.00  0.00    -0.200 F 
ENDBRANCH  65  79
BRANCH  66  90
ATOM     90  C   UNL     1       0.739  -7.938   1.204  1.00  0.00     0.064 A 
ATOM     91  C   UNL     1      -0.445  -8.233   0.514  1.00  0.00     0.173 A 
ATOM     92  C   UNL     1       1.121  -6.590   1.292  1.00  0.00     0.173 A 
ATOM     93  F   UNL     1      -0.838  -9.508   0.376  1.00  0.00    -0.203 F 
ATOM     94  C   UNL     1      -1.206  -7.227  -0.079  1.00  0.00     0.198 A 
ATOM     95  C   UNL     1       0.343  -5.581   0.726  1.00  0.00     0.198 A 
ATOM     96  F   UNL     1       2.248  -6.251   1.933  1.00  0.00    -0.203 F 
ATOM     97  F   UNL     1      -2.305  -7.544  -0.775  1.00  0.00    -0.200 F 
ATOM     98  C   UNL     1      -0.815  -5.901   0.034  1.00  0.00     0.200 A 
ATOM     99  F   UNL     1       0.719  -4.300   0.845  1.00  0.00    -0.200 F 
ATOM    100  F   UNL     1      -1.547  -4.933  -0.534  1.00  0.00    -0.200 F 
ENDBRANCH  66  90
BRANCH  78 101
ATOM    101  C   UNL     1       4.408 -13.188  -1.571  1.00  0.00     0.064 A 
ATOM    102  C   UNL     1       5.229 -12.465  -2.449  1.00  0.00     0.173 A 
ATOM    103  C   UNL     1       3.855 -14.393  -2.033  1.00  0.00     0.173 A 
ATOM    104  F   UNL     1       5.770 -11.300  -2.063  1.00  0.00    -0.203 F 
ATOM    105  C   UNL     1       5.473 -12.923  -3.742  1.00  0.00     0.198 A 
ATOM    106  C   UNL     1       4.129 -14.864  -3.314  1.00  0.00     0.198 A 
ATOM    107  F   UNL     1       3.069 -15.128  -1.232  1.00  0.00    -0.203 F 
ATOM    108  F   UNL     1       6.227 -12.195  -4.577  1.00  0.00    -0.200 F 
ATOM    109  C   UNL     1       4.933 -14.127  -4.169  1.00  0.00     0.200 A 
ATOM    110  F   UNL     1       3.620 -16.037  -3.718  1.00  0.00    -0.200 F 
ATOM    111  F   UNL     1       5.184 -14.574  -5.407  1.00  0.00    -0.200 F 
ENDBRANCH  78 101
ENDBRANCH  52  53
ENDBRANCH  45  47
ENDBRANCH  44  45
ENDBRANCH  43  44
ENDBRANCH  42  43
ENDBRANCH  41  42
ENDBRANCH  40  41
ENDBRANCH  39  40
ENDBRANCH  38  39
ENDBRANCH   1  38
TORSDOF 25
