REMARK SMILES CC[C@@](C)(NC(=O)c1c(C)cc(C)[nH]c1=O)C(=O)OCCOCCOCCOCCOC(=O)c1ccc(-c2c3nc(c(-c4c(F)c(F)c(F)c(F)c4F)c4ccc([nH]4)c(-c4c(F)c(F)c(F)c(F)c4F)c4nc(c(-c5c(F)c(F)c(F)c(F)c5F)c5ccc2[nH]5)C=C4)C=C3)cc1
REMARK SMILES IDX 25 1 24 2 23 3 22 4 21 5 20 6 19 7 17 8 18 9 3 10 4 11 2 12
REMARK SMILES IDX 1 13 5 14 6 15 7 17 8 18 9 19 15 20 10 21 11 22 14 23 16 24
REMARK SMILES IDX 12 25 13 27 26 28 27 29 28 30 29 31 30 32 31 33 32 34 33 35
REMARK SMILES IDX 34 36 35 37 96 38 36 39 95 40 37 41 38 42 39 43 89 44 40 45
REMARK SMILES IDX 94 46 88 47 90 48 41 49 93 50 87 51 86 52 42 54 74 55 54 56
REMARK SMILES IDX 73 57 55 58 58 59 72 60 91 61 56 62 57 63 71 65 92 66 59 67
REMARK SMILES IDX 43 68 44 69 52 70 45 71 46 72 50 73 53 74 47 75 48 76 51 77
REMARK SMILES IDX 49 78 75 79 76 80 84 81 77 82 78 83 82 84 85 85 79 86 80 87
REMARK SMILES IDX 83 88 81 89 60 90 61 91 69 92 62 93 63 94 67 95 70 96 64 97
REMARK SMILES IDX 65 98 68 99 66 100
REMARK H PARENT 5 16 14 26 90 53 58 64
REMARK Flexibility Score: inf
ROOT
ATOM      1  O   UNL     1       2.617  -2.815   4.586  1.00  0.00    -0.377 OA
ENDROOT
BRANCH   1   2
ATOM      2  C   UNL     1       1.732  -2.074   3.725  1.00  0.00     0.188 C 
BRANCH   2   3
ATOM      3  C   UNL     1       2.092  -1.680   2.123  1.00  0.00     0.188 C 
BRANCH   3   4
ATOM      4  O   UNL     1       3.369  -1.402   1.548  1.00  0.00    -0.376 OA
BRANCH   4   5
ATOM      5  C   UNL     1       4.029  -0.402   0.744  1.00  0.00     0.202 C 
BRANCH   5   6
ATOM      6  C   UNL     1       4.185   1.127   0.999  1.00  0.00     0.261 C 
BRANCH   6   7
ATOM      7  O   UNL     1       3.109   1.693   1.694  1.00  0.00    -0.462 OA
BRANCH   7   8
ATOM      8  C   UNL     1       1.970   1.696   0.981  1.00  0.00     0.331 C 
ATOM      9  O   UNL     1       1.917   1.863  -0.228  1.00  0.00    -0.249 OA
BRANCH   8  10
ATOM     10  C   UNL     1       0.807   1.435   1.930  1.00  0.00     0.135 C 
ATOM     11  C   UNL     1       0.053   2.784   1.998  1.00  0.00     0.047 C 
BRANCH  10  12
ATOM     12  C   UNL     1      -0.275   0.411   1.364  1.00  0.00     0.037 C 
ATOM     13  C   UNL     1      -0.081  -0.090  -0.078  1.00  0.00     0.007 C 
ENDBRANCH  10  12
BRANCH  10  14
ATOM     14  N   UNL     1       1.286   1.094   3.374  1.00  0.00    -0.336 N 
ATOM     15  C   UNL     1       2.360   0.722   4.172  1.00  0.00     0.258 C 
ATOM     16  H   UNL     1       0.503   1.178   3.965  1.00  0.00     0.165 HD
ATOM     17  O   UNL     1       2.001   0.708   5.370  1.00  0.00    -0.269 OA
BRANCH  15  18
ATOM     18  C   UNL     1       3.920   0.421   3.943  1.00  0.00     0.107 A 
ATOM     19  C   UNL     1       4.774  -0.646   3.617  1.00  0.00    -0.031 A 
ATOM     20  C   UNL     1       4.689   1.650   4.494  1.00  0.00     0.261 A 
ATOM     21  C   UNL     1       4.807  -2.176   3.200  1.00  0.00     0.045 C 
ATOM     22  C   UNL     1       6.225  -0.460   3.618  1.00  0.00     0.025 A 
ATOM     23  N   UNL     1       6.059   1.598   4.613  1.00  0.00    -0.326 N 
ATOM     24  O   UNL     1       4.116   2.682   4.844  1.00  0.00    -0.269 OA
ATOM     25  C   UNL     1       6.830   0.577   4.165  1.00  0.00     0.015 A 
ATOM     26  H   UNL     1       6.511   2.353   5.054  1.00  0.00     0.169 HD
ATOM     27  C   UNL     1       8.316   0.603   4.255  1.00  0.00     0.064 C 
ENDBRANCH  15  18
ENDBRANCH  10  14
ENDBRANCH   8  10
ENDBRANCH   7   8
ENDBRANCH   6   7
ENDBRANCH   5   6
ENDBRANCH   4   5
ENDBRANCH   3   4
ENDBRANCH   2   3
ENDBRANCH   1   2
BRANCH   1  28
ATOM     28  C   UNL     1       3.052  -2.240   5.827  1.00  0.00     0.188 C 
BRANCH  28  29
ATOM     29  C   UNL     1       4.537  -2.499   6.161  1.00  0.00     0.188 C 
BRANCH  29  30
ATOM     30  O   UNL     1       5.154  -3.756   5.920  1.00  0.00    -0.376 OA
BRANCH  30  31
ATOM     31  C   UNL     1       4.357  -4.925   5.959  1.00  0.00     0.202 C 
BRANCH  31  32
ATOM     32  C   UNL     1       3.608  -5.200   7.271  1.00  0.00     0.261 C 
BRANCH  32  33
ATOM     33  O   UNL     1       3.797  -4.205   8.292  1.00  0.00    -0.460 OA
BRANCH  33  34
ATOM     34  C   UNL     1       5.014  -4.181   8.887  1.00  0.00     0.338 C 
ATOM     35  O   UNL     1       5.863  -5.062   8.854  1.00  0.00    -0.246 OA
BRANCH  34  36
ATOM     36  C   UNL     1       5.261  -2.793   9.371  1.00  0.00     0.060 A 
ATOM     37  C   UNL     1       6.461  -2.178   8.979  1.00  0.00     0.016 A 
ATOM     38  C   UNL     1       4.275  -2.036  10.020  1.00  0.00     0.016 A 
ATOM     39  C   UNL     1       6.689  -0.827   9.259  1.00  0.00     0.010 A 
ATOM     40  C   UNL     1       4.527  -0.692  10.351  1.00  0.00     0.010 A 
ATOM     41  C   UNL     1       5.755  -0.094  10.010  1.00  0.00    -0.014 A 
BRANCH  41  42
ATOM     42  C   UNL     1       6.267   1.083  10.770  1.00  0.00     0.031 A 
ATOM     43  C   UNL     1       7.001   0.759  12.051  1.00  0.00     0.074 A 
ATOM     44  C   UNL     1       6.194   2.363  10.352  1.00  0.00     0.049 A 
ATOM     45  N   UNL     1       7.639   1.550  12.875  1.00  0.00    -0.248 NA
ATOM     46  C   UNL     1       7.040  -0.664  12.440  1.00  0.00     0.031 C 
ATOM     47  C   UNL     1       5.566   2.834   9.122  1.00  0.00     0.029 A 
ATOM     48  N   UNL     1       6.680   3.513  10.940  1.00  0.00    -0.354 N 
ATOM     49  C   UNL     1       8.172   0.716  13.850  1.00  0.00     0.074 A 
ATOM     50  C   UNL     1       7.767  -0.633  13.542  1.00  0.00     0.031 C 
ATOM     51  C   UNL     1       5.696   4.174   9.051  1.00  0.00     0.029 A 
ATOM     52  C   UNL     1       6.403   4.663  10.238  1.00  0.00     0.049 A 
ATOM     53  H   UNL     1       7.181   3.511  11.787  1.00  0.00     0.167 HD
ATOM     54  C   UNL     1       8.945   1.035  14.908  1.00  0.00     0.037 A 
ATOM     55  C   UNL     1       6.676   5.955  10.532  1.00  0.00     0.037 A 
ATOM     56  C   UNL     1       9.345   2.367  15.248  1.00  0.00     0.049 A 
ATOM     57  C   UNL     1       7.439   6.297  11.798  1.00  0.00     0.074 A 
ATOM     58  C   UNL     1      10.136   2.776  16.306  1.00  0.00     0.029 A 
ATOM     59  N   UNL     1       8.972   3.502  14.552  1.00  0.00    -0.354 N 
ATOM     60  N   UNL     1       7.992   5.497  12.677  1.00  0.00    -0.248 NA
ATOM     61  C   UNL     1       7.611   7.727  12.116  1.00  0.00     0.031 C 
ATOM     62  C   UNL     1      10.190   4.169  16.288  1.00  0.00     0.029 A 
ATOM     63  C   UNL     1       9.480   4.621  15.187  1.00  0.00     0.049 A 
ATOM     64  H   UNL     1       8.428   3.512  13.732  1.00  0.00     0.167 HD
ATOM     65  C   UNL     1       8.586   6.320  13.630  1.00  0.00     0.074 A 
ATOM     66  C   UNL     1       8.352   7.683  13.215  1.00  0.00     0.031 C 
ATOM     67  C   UNL     1       9.257   5.974  14.756  1.00  0.00     0.037 A 
BRANCH  54  68
ATOM     68  C   UNL     1       9.401  -0.076  15.798  1.00  0.00     0.064 A 
ATOM     69  C   UNL     1      10.432  -0.943  15.411  1.00  0.00     0.173 A 
ATOM     70  C   UNL     1       8.860  -0.217  17.083  1.00  0.00     0.173 A 
ATOM     71  F   UNL     1      10.960  -0.858  14.180  1.00  0.00    -0.203 F 
ATOM     72  C   UNL     1      10.914  -1.909  16.287  1.00  0.00     0.198 A 
ATOM     73  C   UNL     1       9.361  -1.167  17.965  1.00  0.00     0.198 A 
ATOM     74  F   UNL     1       7.866   0.587  17.490  1.00  0.00    -0.203 F 
ATOM     75  F   UNL     1      11.890  -2.739  15.896  1.00  0.00    -0.200 F 
ATOM     76  C   UNL     1      10.389  -2.010  17.568  1.00  0.00     0.200 A 
ATOM     77  F   UNL     1       8.861  -1.257  19.205  1.00  0.00    -0.200 F 
ATOM     78  F   UNL     1      10.876  -2.921  18.422  1.00  0.00    -0.200 F 
ENDBRANCH  54  68
BRANCH  55  79
ATOM     79  C   UNL     1       6.199   7.057   9.644  1.00  0.00     0.064 A 
ATOM     80  C   UNL     1       7.100   7.910   8.987  1.00  0.00     0.173 A 
ATOM     81  C   UNL     1       4.831   7.338   9.511  1.00  0.00     0.173 A 
ATOM     82  F   UNL     1       8.421   7.716   9.116  1.00  0.00    -0.203 F 
ATOM     83  C   UNL     1       6.653   9.010   8.255  1.00  0.00     0.198 A 
ATOM     84  C   UNL     1       4.383   8.420   8.752  1.00  0.00     0.198 A 
ATOM     85  F   UNL     1       3.924   6.576  10.139  1.00  0.00    -0.203 F 
ATOM     86  F   UNL     1       7.539   9.848   7.699  1.00  0.00    -0.200 F 
ATOM     87  C   UNL     1       5.295   9.262   8.134  1.00  0.00     0.200 A 
ATOM     88  F   UNL     1       3.070   8.661   8.642  1.00  0.00    -0.200 F 
ATOM     89  F   UNL     1       4.866  10.326   7.442  1.00  0.00    -0.200 F 
ENDBRANCH  55  79
BRANCH  67  90
ATOM     90  C   UNL     1       9.798   7.061  15.641  1.00  0.00     0.064 A 
ATOM     91  C   UNL     1       8.948   7.820  16.457  1.00  0.00     0.173 A 
ATOM     92  C   UNL     1      11.183   7.234  15.793  1.00  0.00     0.173 A 
ATOM     93  F   UNL     1       7.617   7.694  16.348  1.00  0.00    -0.203 F 
ATOM     94  C   UNL     1       9.465   8.709  17.397  1.00  0.00     0.198 A 
ATOM     95  C   UNL     1      11.697   8.101  16.753  1.00  0.00     0.198 A 
ATOM     96  F   UNL     1      12.040   6.517  15.049  1.00  0.00    -0.203 F 
ATOM     97  F   UNL     1       8.634   9.431  18.160  1.00  0.00    -0.200 F 
ATOM     98  C   UNL     1      10.838   8.836  17.555  1.00  0.00     0.200 A 
ATOM     99  F   UNL     1      13.022   8.203  16.923  1.00  0.00    -0.200 F 
ATOM    100  F   UNL     1      11.332   9.663  18.487  1.00  0.00    -0.200 F 
ENDBRANCH  67  90
ENDBRANCH  41  42
ENDBRANCH  34  36
ENDBRANCH  33  34
ENDBRANCH  32  33
ENDBRANCH  31  32
ENDBRANCH  30  31
ENDBRANCH  29  30
ENDBRANCH  28  29
ENDBRANCH   1  28
TORSDOF 23
