REMARK SMILES O=C(OCCOCCOCCOCCOC(=O)[C@@H]1CCCC[C@H]1C(=O)Nc1ccccc1C(=O)N1CCOCC1)c1ccc(-c2c3nc(c(-c4c(F)c(F)c(F)c(F)c4F)c4ccc([nH]4)c(-c4c(F)c(F)c(F)c(F)c4F)c4nc(c(-c5c(F)c(F)c(F)c(F)c5F)c5ccc2[nH]5)C=C4)C=C3)cc1
REMARK SMILES IDX 10 1 9 2 8 3 7 4 6 5 5 6 4 7 3 8 2 9 1 10 41 11 42 12 103 13
REMARK SMILES IDX 43 14 102 15 44 16 45 17 46 18 96 19 47 20 101 21 95 22
REMARK SMILES IDX 97 23 48 24 100 25 94 26 93 27 49 29 81 30 61 31 80 32 62 33
REMARK SMILES IDX 65 34 79 35 98 36 63 37 64 38 78 40 99 41 66 42 50 43 51 44
REMARK SMILES IDX 59 45 52 46 53 47 57 48 60 49 54 50 55 51 58 52 56 53 82 54
REMARK SMILES IDX 83 55 91 56 84 57 85 58 89 59 92 60 86 61 87 62 90 63 88 64
REMARK SMILES IDX 67 65 68 66 76 67 69 68 70 69 74 70 77 71 71 72 72 73 75 74
REMARK SMILES IDX 73 75 11 76 12 77 13 78 14 79 15 80 16 81 17 82 18 83 19 84
REMARK SMILES IDX 23 85 20 86 22 87 21 88 24 89 25 90 26 91 27 93 28 94 32 95
REMARK SMILES IDX 29 96 31 97 30 98 33 99 34 100 35 101 36 102 40 103 37 104
REMARK SMILES IDX 39 105 38 106
REMARK H PARENT 97 28 65 39 26 92
REMARK Flexibility Score: inf
ROOT
ATOM      1  C   UNL     1       4.112   2.156   2.142  1.00  0.00     0.188 C 
ENDROOT
BRANCH   1   2
ATOM      2  O   UNL     1       2.782   2.149   2.591  1.00  0.00    -0.377 OA
BRANCH   2   3
ATOM      3  C   UNL     1       2.045   1.002   2.187  1.00  0.00     0.188 C 
BRANCH   3   4
ATOM      4  C   UNL     1       2.507   0.209   0.943  1.00  0.00     0.188 C 
BRANCH   4   5
ATOM      5  O   UNL     1       3.907  -0.076   0.846  1.00  0.00    -0.376 OA
BRANCH   5   6
ATOM      6  C   UNL     1       4.655   0.368  -0.301  1.00  0.00     0.202 C 
BRANCH   6   7
ATOM      7  C   UNL     1       4.098   0.075  -1.702  1.00  0.00     0.261 C 
BRANCH   7   8
ATOM      8  O   UNL     1       2.782  -0.526  -1.829  1.00  0.00    -0.460 OA
BRANCH   8   9
ATOM      9  C   UNL     1       2.277  -1.772  -1.629  1.00  0.00     0.338 C 
ATOM     10  O   UNL     1       1.167  -2.040  -2.082  1.00  0.00    -0.246 OA
BRANCH   9  11
ATOM     11  C   UNL     1       2.944  -2.792  -0.771  1.00  0.00     0.060 A 
ATOM     12  C   UNL     1       4.199  -2.574  -0.249  1.00  0.00     0.016 A 
ATOM     13  C   UNL     1       2.300  -3.979  -0.393  1.00  0.00     0.016 A 
ATOM     14  C   UNL     1       4.793  -3.361   0.696  1.00  0.00     0.010 A 
ATOM     15  C   UNL     1       2.912  -4.854   0.526  1.00  0.00     0.010 A 
ATOM     16  C   UNL     1       4.161  -4.525   1.070  1.00  0.00    -0.014 A 
BRANCH  16  17
ATOM     17  C   UNL     1       5.070  -5.431   1.770  1.00  0.00     0.031 A 
ATOM     18  C   UNL     1       5.932  -6.283   0.887  1.00  0.00     0.074 A 
ATOM     19  C   UNL     1       5.373  -5.193   3.059  1.00  0.00     0.049 A 
ATOM     20  N   UNL     1       6.879  -7.117   1.205  1.00  0.00    -0.248 NA
ATOM     21  C   UNL     1       5.751  -6.111  -0.572  1.00  0.00     0.031 C 
ATOM     22  C   UNL     1       4.806  -4.117   3.883  1.00  0.00     0.029 A 
ATOM     23  N   UNL     1       6.271  -5.802   3.887  1.00  0.00    -0.354 N 
ATOM     24  C   UNL     1       7.381  -7.578  -0.002  1.00  0.00     0.074 A 
ATOM     25  C   UNL     1       6.677  -6.911  -1.066  1.00  0.00     0.031 C 
ATOM     26  C   UNL     1       5.335  -4.184   5.118  1.00  0.00     0.029 A 
ATOM     27  C   UNL     1       6.234  -5.330   5.177  1.00  0.00     0.049 A 
ATOM     28  H   UNL     1       6.886  -6.511   3.589  1.00  0.00     0.167 HD
ATOM     29  C   UNL     1       8.328  -8.519  -0.189  1.00  0.00     0.037 A 
ATOM     30  C   UNL     1       6.829  -5.836   6.272  1.00  0.00     0.037 A 
ATOM     31  C   UNL     1       8.941  -9.202   0.910  1.00  0.00     0.049 A 
ATOM     32  C   UNL     1       7.703  -7.051   6.061  1.00  0.00     0.074 A 
ATOM     33  C   UNL     1       9.763 -10.307   0.900  1.00  0.00     0.029 A 
ATOM     34  N   UNL     1       8.763  -8.829   2.238  1.00  0.00    -0.354 N 
ATOM     35  N   UNL     1       8.071  -7.621   4.934  1.00  0.00    -0.248 NA
ATOM     36  C   UNL     1       8.229  -7.707   7.261  1.00  0.00     0.031 C 
ATOM     37  C   UNL     1      10.037 -10.638   2.232  1.00  0.00     0.029 A 
ATOM     38  C   UNL     1       9.443  -9.698   3.064  1.00  0.00     0.049 A 
ATOM     39  H   UNL     1       8.230  -8.060   2.542  1.00  0.00     0.167 HD
ATOM     40  C   UNL     1       8.887  -8.684   5.287  1.00  0.00     0.074 A 
ATOM     41  C   UNL     1       8.982  -8.661   6.734  1.00  0.00     0.031 C 
ATOM     42  C   UNL     1       9.501  -9.606   4.502  1.00  0.00     0.037 A 
BRANCH  29  43
ATOM     43  C   UNL     1       8.593  -8.931  -1.601  1.00  0.00     0.064 A 
ATOM     44  C   UNL     1       9.292  -8.111  -2.498  1.00  0.00     0.173 A 
ATOM     45  C   UNL     1       8.040 -10.124  -2.091  1.00  0.00     0.173 A 
ATOM     46  F   UNL     1       9.777  -6.927  -2.093  1.00  0.00    -0.203 F 
ATOM     47  C   UNL     1       9.418  -8.465  -3.839  1.00  0.00     0.198 A 
ATOM     48  C   UNL     1       8.189 -10.486  -3.426  1.00  0.00     0.198 A 
ATOM     49  F   UNL     1       7.322 -10.918  -1.283  1.00  0.00    -0.203 F 
ATOM     50  F   UNL     1      10.031  -7.636  -4.696  1.00  0.00    -0.200 F 
ATOM     51  C   UNL     1       8.873  -9.655  -4.300  1.00  0.00     0.200 A 
ATOM     52  F   UNL     1       7.646 -11.627  -3.872  1.00  0.00    -0.200 F 
ATOM     53  F   UNL     1       8.985  -9.989  -5.593  1.00  0.00    -0.200 F 
ENDBRANCH  29  43
BRANCH  30  54
ATOM     54  C   UNL     1       6.543  -5.309   7.638  1.00  0.00     0.064 A 
ATOM     55  C   UNL     1       7.567  -4.852   8.480  1.00  0.00     0.173 A 
ATOM     56  C   UNL     1       5.244  -5.349   8.174  1.00  0.00     0.173 A 
ATOM     57  F   UNL     1       8.832  -4.816   8.036  1.00  0.00    -0.203 F 
ATOM     58  C   UNL     1       7.314  -4.502   9.808  1.00  0.00     0.198 A 
ATOM     59  C   UNL     1       4.986  -4.965   9.490  1.00  0.00     0.198 A 
ATOM     60  F   UNL     1       4.219  -5.789   7.429  1.00  0.00    -0.203 F 
ATOM     61  F   UNL     1       8.328  -4.150  10.611  1.00  0.00    -0.200 F 
ATOM     62  C   UNL     1       6.024  -4.558  10.312  1.00  0.00     0.200 A 
ATOM     63  F   UNL     1       3.735  -5.018   9.969  1.00  0.00    -0.200 F 
ATOM     64  F   UNL     1       5.785  -4.245  11.593  1.00  0.00    -0.200 F 
ENDBRANCH  30  54
BRANCH  42  65
ATOM     65  C   UNL     1      10.351 -10.622   5.198  1.00  0.00     0.064 A 
ATOM     66  C   UNL     1       9.787 -11.647   5.970  1.00  0.00     0.173 A 
ATOM     67  C   UNL     1      11.743 -10.601   5.032  1.00  0.00     0.173 A 
ATOM     68  F   UNL     1       8.460 -11.698   6.162  1.00  0.00    -0.203 F 
ATOM     69  C   UNL     1      10.595 -12.599   6.581  1.00  0.00     0.198 A 
ATOM     70  C   UNL     1      12.543 -11.579   5.610  1.00  0.00     0.198 A 
ATOM     71  F   UNL     1      12.322  -9.648   4.287  1.00  0.00    -0.203 F 
ATOM     72  F   UNL     1      10.044 -13.539   7.361  1.00  0.00    -0.200 F 
ATOM     73  C   UNL     1      11.969 -12.570   6.392  1.00  0.00     0.200 A 
ATOM     74  F   UNL     1      13.867 -11.564   5.406  1.00  0.00    -0.200 F 
ATOM     75  F   UNL     1      12.744 -13.498   6.970  1.00  0.00    -0.200 F 
ENDBRANCH  42  65
ENDBRANCH  16  17
ENDBRANCH   9  11
ENDBRANCH   8   9
ENDBRANCH   7   8
ENDBRANCH   6   7
ENDBRANCH   5   6
ENDBRANCH   4   5
ENDBRANCH   3   4
ENDBRANCH   2   3
ENDBRANCH   1   2
BRANCH   1  76
ATOM     76  C   UNL     1       5.204   1.482   2.953  1.00  0.00     0.188 C 
BRANCH  76  77
ATOM     77  O   UNL     1       4.780   0.529   3.892  1.00  0.00    -0.376 OA
BRANCH  77  78
ATOM     78  C   UNL     1       4.273   0.959   5.147  1.00  0.00     0.202 C 
BRANCH  78  79
ATOM     79  C   UNL     1       4.280   2.416   5.725  1.00  0.00     0.261 C 
BRANCH  79  80
ATOM     80  O   UNL     1       5.057   3.434   5.038  1.00  0.00    -0.463 OA
BRANCH  80  81
ATOM     81  C   UNL     1       5.242   4.693   5.578  1.00  0.00     0.309 C 
ATOM     82  O   UNL     1       5.140   4.897   6.784  1.00  0.00    -0.252 OA
BRANCH  81  83
ATOM     83  C   UNL     1       5.726   5.825   4.526  1.00  0.00     0.111 C 
ATOM     84  C   UNL     1       7.165   6.137   5.015  1.00  0.00     0.016 C 
ATOM     85  C   UNL     1       4.880   7.210   4.317  1.00  0.00     0.093 C 
ATOM     86  C   UNL     1       7.868   7.163   4.141  1.00  0.00     0.001 C 
ATOM     87  C   UNL     1       5.734   8.262   3.570  1.00  0.00     0.014 C 
ATOM     88  C   UNL     1       7.102   8.468   4.173  1.00  0.00     0.001 C 
BRANCH  85  89
ATOM     89  C   UNL     1       3.415   7.641   3.769  1.00  0.00     0.228 C 
ATOM     90  O   UNL     1       2.636   8.161   4.587  1.00  0.00    -0.274 OA
ATOM     91  N   UNL     1       3.022   7.796   2.439  1.00  0.00    -0.325 N 
ATOM     92  H   UNL     1       2.408   8.548   2.276  1.00  0.00     0.169 HD
BRANCH  91  93
ATOM     93  C   UNL     1       3.358   7.052   1.295  1.00  0.00     0.054 A 
ATOM     94  C   UNL     1       3.449   7.643   0.029  1.00  0.00     0.027 A 
ATOM     95  C   UNL     1       3.688   5.729   1.417  1.00  0.00     0.063 A 
ATOM     96  C   UNL     1       4.229   7.034  -0.968  1.00  0.00     0.002 A 
ATOM     97  C   UNL     1       4.646   5.216   0.521  1.00  0.00     0.016 A 
ATOM     98  C   UNL     1       4.927   5.871  -0.673  1.00  0.00     0.001 A 
BRANCH  95  99
ATOM     99  C   UNL     1       3.244   5.055   2.639  1.00  0.00     0.256 C 
ATOM    100  O   UNL     1       4.161   4.524   3.245  1.00  0.00    -0.269 OA
ATOM    101  N   UNL     1       2.023   5.190   3.267  1.00  0.00    -0.334 N 
ATOM    102  C   UNL     1       0.790   4.757   2.647  1.00  0.00     0.148 C 
ATOM    103  C   UNL     1       1.991   5.056   4.732  1.00  0.00     0.148 C 
ATOM    104  C   UNL     1      -0.404   5.436   3.325  1.00  0.00     0.181 C 
ATOM    105  C   UNL     1       0.775   5.731   5.348  1.00  0.00     0.181 C 
ATOM    106  O   UNL     1      -0.419   5.210   4.748  1.00  0.00    -0.378 OA
ENDBRANCH  95  99
ENDBRANCH  91  93
ENDBRANCH  85  89
ENDBRANCH  81  83
ENDBRANCH  80  81
ENDBRANCH  79  80
ENDBRANCH  78  79
ENDBRANCH  77  78
ENDBRANCH  76  77
ENDBRANCH   1  76
TORSDOF 23
