REMARK SMILES [NH3+][C@H]1COC[C@H]1C(=O)N[C@@H]1C=C[C@@H](C(=O)OCCOCCOCCOCCOC(=O)c2ccc(-c3c4nc(c(-c5c(F)c(F)c(F)c(F)c5F)c5ccc([nH]5)c(-c5c(F)c(F)c(F)c(F)c5F)c5nc(c(-c6c(F)c(F)c(F)c(F)c6F)c6ccc3[nH]6)C=C5)C=C4)cc2)C1
REMARK SMILES IDX 21 1 20 2 19 3 18 4 17 5 16 6 14 7 15 8 13 9 10 10 11 11
REMARK SMILES IDX 94 12 12 13 9 14 7 15 8 16 6 18 2 19 3 20 4 21 5 22 1 23
REMARK SMILES IDX 22 27 23 28 24 29 25 30 26 31 27 32 28 33 29 34 30 35 31 36
REMARK SMILES IDX 32 37 93 38 33 39 92 40 34 41 35 42 36 43 86 44 37 45 91 46
REMARK SMILES IDX 85 47 87 48 38 49 90 50 84 51 83 52 39 54 71 55 51 56 70 57
REMARK SMILES IDX 52 58 55 59 69 60 88 61 53 62 54 63 68 65 89 66 56 67 40 68
REMARK SMILES IDX 41 69 49 70 42 71 43 72 47 73 50 74 44 75 45 76 48 77 46 78
REMARK SMILES IDX 72 79 73 80 81 81 74 82 75 83 79 84 82 85 76 86 77 87 80 88
REMARK SMILES IDX 78 89 57 90 58 91 66 92 59 93 60 94 64 95 67 96 61 97 62 98
REMARK SMILES IDX 65 99 63 100
REMARK H PARENT 9 17 1 24 1 25 1 26 87 53 55 64
REMARK Flexibility Score: inf
ROOT
ATOM      1  C   UNL     1       2.516   2.227  -0.853  1.00  0.00     0.188 C 
ENDROOT
BRANCH   1   2
ATOM      2  C   UNL     1       3.196   3.534  -1.281  1.00  0.00     0.188 C 
BRANCH   2   3
ATOM      3  O   UNL     1       3.707   4.450  -0.324  1.00  0.00    -0.376 OA
BRANCH   3   4
ATOM      4  C   UNL     1       2.974   4.826   0.831  1.00  0.00     0.202 C 
BRANCH   4   5
ATOM      5  C   UNL     1       1.486   5.203   0.794  1.00  0.00     0.261 C 
BRANCH   5   6
ATOM      6  O   UNL     1       0.665   4.451  -0.099  1.00  0.00    -0.463 OA
BRANCH   6   7
ATOM      7  C   UNL     1       0.352   5.053  -1.273  1.00  0.00     0.312 C 
ATOM      8  O   UNL     1       0.741   6.166  -1.610  1.00  0.00    -0.252 OA
BRANCH   7   9
ATOM      9  C   UNL     1      -0.621   4.233  -2.106  1.00  0.00     0.124 C 
ATOM     10  C   UNL     1      -2.101   2.272  -1.864  1.00  0.00     0.106 C 
ATOM     11  C   UNL     1      -2.754   3.544  -1.472  1.00  0.00    -0.006 C 
ATOM     12  C   UNL     1      -0.639   2.712  -1.882  1.00  0.00     0.048 C 
ATOM     13  C   UNL     1      -1.991   4.621  -1.665  1.00  0.00    -0.014 C 
BRANCH  10  14
ATOM     14  N   UNL     1      -2.506   1.800  -3.178  1.00  0.00    -0.349 N 
ATOM     15  C   UNL     1      -3.691   1.371  -3.670  1.00  0.00     0.232 C 
ATOM     16  O   UNL     1      -3.626   0.654  -4.679  1.00  0.00    -0.274 OA
ATOM     17  H   UNL     1      -1.776   1.792  -3.839  1.00  0.00     0.164 HD
BRANCH  15  18
ATOM     18  C   UNL     1      -5.056   1.766  -3.139  1.00  0.00     0.164 C 
ATOM     19  C   UNL     1      -5.520   1.349  -1.753  1.00  0.00     0.221 C 
ATOM     20  C   UNL     1      -6.157   2.617  -1.175  1.00  0.00     0.225 C 
ATOM     21  O   UNL     1      -5.901   3.723  -2.043  1.00  0.00    -0.374 OA
ATOM     22  C   UNL     1      -5.313   3.255  -3.259  1.00  0.00     0.180 C 
BRANCH  19  23
ATOM     23  N   UNL     1      -4.547   0.726  -0.855  1.00  0.00    -0.352 N 
ATOM     24  H   UNL     1      -4.998   0.501   0.032  1.00  0.00     0.344 HD
ATOM     25  H   UNL     1      -3.774   1.371  -0.690  1.00  0.00     0.344 HD
ATOM     26  H   UNL     1      -4.190  -0.130  -1.281  1.00  0.00     0.344 HD
ENDBRANCH  19  23
ENDBRANCH  15  18
ENDBRANCH  10  14
ENDBRANCH   7   9
ENDBRANCH   6   7
ENDBRANCH   5   6
ENDBRANCH   4   5
ENDBRANCH   3   4
ENDBRANCH   2   3
ENDBRANCH   1   2
BRANCH   1  27
ATOM     27  O   UNL     1       2.071   2.202   0.487  1.00  0.00    -0.377 OA
BRANCH  27  28
ATOM     28  C   UNL     1       2.899   1.504   1.411  1.00  0.00     0.188 C 
BRANCH  28  29
ATOM     29  C   UNL     1       4.430   1.557   1.207  1.00  0.00     0.188 C 
BRANCH  29  30
ATOM     30  O   UNL     1       4.868   1.277  -0.115  1.00  0.00    -0.376 OA
BRANCH  30  31
ATOM     31  C   UNL     1       5.249  -0.046  -0.465  1.00  0.00     0.202 C 
BRANCH  31  32
ATOM     32  C   UNL     1       4.197  -1.168  -0.387  1.00  0.00     0.261 C 
BRANCH  32  33
ATOM     33  O   UNL     1       3.567  -1.371   0.887  1.00  0.00    -0.460 OA
BRANCH  33  34
ATOM     34  C   UNL     1       4.359  -1.650   1.940  1.00  0.00     0.338 C 
ATOM     35  O   UNL     1       5.567  -1.826   1.928  1.00  0.00    -0.246 OA
BRANCH  34  36
ATOM     36  C   UNL     1       3.553  -1.508   3.169  1.00  0.00     0.060 A 
ATOM     37  C   UNL     1       3.959  -0.576   4.133  1.00  0.00     0.016 A 
ATOM     38  C   UNL     1       2.417  -2.294   3.379  1.00  0.00     0.016 A 
ATOM     39  C   UNL     1       3.260  -0.463   5.334  1.00  0.00     0.010 A 
ATOM     40  C   UNL     1       1.733  -2.198   4.594  1.00  0.00     0.010 A 
ATOM     41  C   UNL     1       2.179  -1.314   5.593  1.00  0.00    -0.014 A 
BRANCH  41  42
ATOM     42  C   UNL     1       1.675  -1.435   6.982  1.00  0.00     0.031 A 
ATOM     43  C   UNL     1       2.183  -2.574   7.824  1.00  0.00     0.074 A 
ATOM     44  C   UNL     1       0.829  -0.531   7.506  1.00  0.00     0.049 A 
ATOM     45  N   UNL     1       1.878  -2.906   9.053  1.00  0.00    -0.248 NA
ATOM     46  C   UNL     1       3.172  -3.461   7.191  1.00  0.00     0.031 C 
ATOM     47  C   UNL     1       0.308   0.642   6.810  1.00  0.00     0.029 A 
ATOM     48  N   UNL     1       0.257  -0.468   8.752  1.00  0.00    -0.354 N 
ATOM     49  C   UNL     1       2.629  -4.040   9.333  1.00  0.00     0.074 A 
ATOM     50  C   UNL     1       3.377  -4.362   8.138  1.00  0.00     0.031 C 
ATOM     51  C   UNL     1      -0.518   1.306   7.637  1.00  0.00     0.029 A 
ATOM     52  C   UNL     1      -0.610   0.585   8.906  1.00  0.00     0.049 A 
ATOM     53  H   UNL     1       0.449  -1.117   9.467  1.00  0.00     0.167 HD
ATOM     54  C   UNL     1       2.697  -4.745  10.487  1.00  0.00     0.037 A 
ATOM     55  C   UNL     1      -1.401   0.912   9.947  1.00  0.00     0.037 A 
ATOM     56  C   UNL     1       1.949  -4.423  11.674  1.00  0.00     0.049 A 
ATOM     57  C   UNL     1      -1.370   0.063  11.194  1.00  0.00     0.074 A 
ATOM     58  C   UNL     1       1.956  -5.066  12.899  1.00  0.00     0.029 A 
ATOM     59  N   UNL     1       1.051  -3.370  11.779  1.00  0.00    -0.354 N 
ATOM     60  N   UNL     1      -0.642  -0.995  11.462  1.00  0.00    -0.248 NA
ATOM     61  C   UNL     1      -2.268   0.460  12.289  1.00  0.00     0.031 C 
ATOM     62  C   UNL     1       1.014  -4.443  13.724  1.00  0.00     0.029 A 
ATOM     63  C   UNL     1       0.474  -3.366  13.040  1.00  0.00     0.049 A 
ATOM     64  H   UNL     1       0.853  -2.723  11.065  1.00  0.00     0.167 HD
ATOM     65  C   UNL     1      -0.966  -1.366  12.762  1.00  0.00     0.074 A 
ATOM     66  C   UNL     1      -1.946  -0.411  13.234  1.00  0.00     0.031 C 
ATOM     67  C   UNL     1      -0.494  -2.402  13.500  1.00  0.00     0.037 A 
BRANCH  54  68
ATOM     68  C   UNL     1       3.583  -5.957  10.509  1.00  0.00     0.064 A 
ATOM     69  C   UNL     1       4.982  -5.855  10.458  1.00  0.00     0.173 A 
ATOM     70  C   UNL     1       3.024  -7.240  10.610  1.00  0.00     0.173 A 
ATOM     71  F   UNL     1       5.569  -4.654  10.345  1.00  0.00    -0.203 F 
ATOM     72  C   UNL     1       5.785  -6.994  10.477  1.00  0.00     0.198 A 
ATOM     73  C   UNL     1       3.830  -8.373  10.664  1.00  0.00     0.198 A 
ATOM     74  F   UNL     1       1.692  -7.395  10.663  1.00  0.00    -0.203 F 
ATOM     75  F   UNL     1       7.116  -6.875  10.372  1.00  0.00    -0.200 F 
ATOM     76  C   UNL     1       5.209  -8.250  10.589  1.00  0.00     0.200 A 
ATOM     77  F   UNL     1       3.272  -9.585  10.786  1.00  0.00    -0.200 F 
ATOM     78  F   UNL     1       5.983  -9.344  10.616  1.00  0.00    -0.200 F 
ENDBRANCH  54  68
BRANCH  55  79
ATOM     79  C   UNL     1      -2.307   2.088   9.855  1.00  0.00     0.064 A 
ATOM     80  C   UNL     1      -2.123   3.214  10.671  1.00  0.00     0.173 A 
ATOM     81  C   UNL     1      -3.397   2.099   8.971  1.00  0.00     0.173 A 
ATOM     82  F   UNL     1      -1.112   3.243  11.552  1.00  0.00    -0.203 F 
ATOM     83  C   UNL     1      -3.006   4.291  10.624  1.00  0.00     0.198 A 
ATOM     84  C   UNL     1      -4.260   3.190   8.902  1.00  0.00     0.198 A 
ATOM     85  F   UNL     1      -3.623   1.047   8.171  1.00  0.00    -0.203 F 
ATOM     86  F   UNL     1      -2.838   5.328  11.457  1.00  0.00    -0.200 F 
ATOM     87  C   UNL     1      -4.070   4.281   9.736  1.00  0.00     0.200 A 
ATOM     88  F   UNL     1      -5.279   3.181   8.032  1.00  0.00    -0.200 F 
ATOM     89  F   UNL     1      -4.918   5.317   9.690  1.00  0.00    -0.200 F 
ENDBRANCH  55  79
BRANCH  67  90
ATOM     90  C   UNL     1      -0.990  -2.530  14.914  1.00  0.00     0.064 A 
ATOM     91  C   UNL     1      -2.313  -2.892  15.209  1.00  0.00     0.173 A 
ATOM     92  C   UNL     1      -0.113  -2.323  15.992  1.00  0.00     0.173 A 
ATOM     93  F   UNL     1      -3.195  -3.091  14.218  1.00  0.00    -0.203 F 
ATOM     94  C   UNL     1      -2.749  -3.004  16.527  1.00  0.00     0.198 A 
ATOM     95  C   UNL     1      -0.542  -2.474  17.307  1.00  0.00     0.198 A 
ATOM     96  F   UNL     1       1.166  -1.987  15.768  1.00  0.00    -0.203 F 
ATOM     97  F   UNL     1      -4.032  -3.290  16.784  1.00  0.00    -0.200 F 
ATOM     98  C   UNL     1      -1.862  -2.803  17.575  1.00  0.00     0.200 A 
ATOM     99  F   UNL     1       0.322  -2.298  18.317  1.00  0.00    -0.200 F 
ATOM    100  F   UNL     1      -2.282  -2.918  18.842  1.00  0.00    -0.200 F 
ENDBRANCH  67  90
ENDBRANCH  41  42
ENDBRANCH  34  36
ENDBRANCH  33  34
ENDBRANCH  32  33
ENDBRANCH  31  32
ENDBRANCH  30  31
ENDBRANCH  29  30
ENDBRANCH  28  29
ENDBRANCH  27  28
ENDBRANCH   1  27
TORSDOF 23
