REMARK SMILES Cc1ccc(S(=O)(=O)N2c3ccc(C(=O)OCCOCCOCCOCCOC(=O)c4ccc(-c5c6nc(c(-c7c(F)c(F)c(F)c(F)c7F)c7ccc([nH]7)c(-c7c(F)c(F)c(F)c(F)c7F)c7nc(c(-c8c(F)c(F)c(F)c(F)c8F)c8ccc5[nH]8)C=C7)C=C6)cc4)cc3C[C@H]2C)cc1
REMARK SMILES IDX 22 1 21 2 20 3 19 4 18 5 17 6 16 7 14 8 15 9 13 10 9 11
REMARK SMILES IDX 10 12 97 13 11 14 95 15 96 16 98 17 12 18 94 19 6 20 7 21
REMARK SMILES IDX 8 22 5 23 1 24 2 25 3 26 100 27 4 28 99 29 23 30 24 31 25 32
REMARK SMILES IDX 26 33 27 34 28 35 29 36 30 37 31 38 32 39 93 40 33 41 92 42
REMARK SMILES IDX 34 43 35 44 36 45 86 46 37 47 91 48 85 49 87 50 38 51 90 52
REMARK SMILES IDX 84 53 83 54 39 56 71 57 51 58 70 59 52 60 55 61 69 62 88 63
REMARK SMILES IDX 53 64 54 65 68 67 89 68 56 69 40 70 41 71 49 72 42 73 43 74
REMARK SMILES IDX 47 75 50 76 44 77 45 78 48 79 46 80 72 81 73 82 81 83 74 84
REMARK SMILES IDX 75 85 79 86 82 87 76 88 77 89 80 90 78 91 57 92 58 93 66 94
REMARK SMILES IDX 59 95 60 96 64 97 67 98 61 99 62 100 65 101 63 102
REMARK H PARENT 87 55 55 66
REMARK Flexibility Score: inf
ROOT
ATOM      1  O   UNL     1      -9.159   4.439   1.751  1.00  0.00    -0.377 OA
ENDROOT
BRANCH   1   2
ATOM      2  C   UNL     1      -9.394   5.351   0.668  1.00  0.00     0.188 C 
BRANCH   2   3
ATOM      3  C   UNL     1     -10.792   6.021   0.047  1.00  0.00     0.188 C 
BRANCH   3   4
ATOM      4  O   UNL     1     -12.325   5.484  -0.665  1.00  0.00    -0.376 OA
BRANCH   4   5
ATOM      5  C   UNL     1     -13.224   3.989  -0.798  1.00  0.00     0.202 C 
BRANCH   5   6
ATOM      6  C   UNL     1     -12.563   2.248  -1.056  1.00  0.00     0.261 C 
BRANCH   6   7
ATOM      7  O   UNL     1     -10.829   1.849  -1.513  1.00  0.00    -0.460 OA
BRANCH   7   8
ATOM      8  C   UNL     1      -9.488   2.354  -2.004  1.00  0.00     0.338 C 
ATOM      9  O   UNL     1      -9.335   2.934  -3.089  1.00  0.00    -0.246 OA
BRANCH   8  10
ATOM     10  C   UNL     1      -8.051   2.262  -1.287  1.00  0.00     0.060 A 
ATOM     11  N   UNL     1      -3.992   1.870   0.021  1.00  0.00    -0.263 N 
ATOM     12  C   UNL     1      -5.385   1.953  -0.308  1.00  0.00     0.055 A 
ATOM     13  C   UNL     1      -3.416   3.057  -0.694  1.00  0.00     0.101 C 
ATOM     14  C   UNL     1      -6.403   1.488   0.447  1.00  0.00     0.028 A 
ATOM     15  C   UNL     1      -5.651   2.726  -1.427  1.00  0.00    -0.021 A 
ATOM     16  C   UNL     1      -4.403   3.432  -1.837  1.00  0.00     0.063 C 
ATOM     17  C   UNL     1      -3.329   4.148   0.397  1.00  0.00     0.032 C 
ATOM     18  C   UNL     1      -7.683   1.829   0.007  1.00  0.00     0.018 A 
ATOM     19  C   UNL     1      -6.943   2.801  -1.978  1.00  0.00     0.021 A 
BRANCH  11  20
ATOM     20  S   UNL     1      -3.396   0.295  -0.332  1.00  0.00     0.264 S 
ATOM     21  O   UNL     1      -3.498   0.102  -1.766  1.00  0.00    -0.201 OA
ATOM     22  O   UNL     1      -4.033  -0.628   0.589  1.00  0.00    -0.201 OA
BRANCH  20  23
ATOM     23  C   UNL     1      -1.655   0.203   0.034  1.00  0.00     0.088 A 
ATOM     24  C   UNL     1       2.629  -0.190   0.067  1.00  0.00     0.044 C 
ATOM     25  C   UNL     1       1.135  -0.063   0.120  1.00  0.00    -0.051 A 
ATOM     26  C   UNL     1       0.330  -1.187  -0.088  1.00  0.00     0.005 A 
ATOM     27  C   UNL     1       0.527   1.171   0.381  1.00  0.00     0.005 A 
ATOM     28  C   UNL     1      -1.058  -1.054  -0.143  1.00  0.00     0.022 A 
ATOM     29  C   UNL     1      -0.865   1.299   0.365  1.00  0.00     0.022 A 
ENDBRANCH  20  23
ENDBRANCH  11  20
ENDBRANCH   8  10
ENDBRANCH   7   8
ENDBRANCH   6   7
ENDBRANCH   5   6
ENDBRANCH   4   5
ENDBRANCH   3   4
ENDBRANCH   2   3
ENDBRANCH   1   2
BRANCH   1  30
ATOM     30  C   UNL     1      -9.498   4.613   3.115  1.00  0.00     0.188 C 
BRANCH  30  31
ATOM     31  C   UNL     1      -9.538   5.972   3.760  1.00  0.00     0.188 C 
BRANCH  31  32
ATOM     32  O   UNL     1     -10.124   6.894   2.867  1.00  0.00    -0.376 OA
BRANCH  32  33
ATOM     33  C   UNL     1     -10.003   8.244   3.280  1.00  0.00     0.202 C 
BRANCH  33  34
ATOM     34  C   UNL     1     -10.811   8.557   4.549  1.00  0.00     0.261 C 
BRANCH  34  35
ATOM     35  O   UNL     1     -12.209   8.254   4.339  1.00  0.00    -0.460 OA
BRANCH  35  36
ATOM     36  C   UNL     1     -12.684   7.099   4.920  1.00  0.00     0.338 C 
ATOM     37  O   UNL     1     -12.517   6.770   6.068  1.00  0.00    -0.246 OA
BRANCH  36  38
ATOM     38  C   UNL     1     -13.139   6.183   3.826  1.00  0.00     0.060 A 
ATOM     39  C   UNL     1     -13.093   4.793   3.901  1.00  0.00     0.016 A 
ATOM     40  C   UNL     1     -13.268   6.693   2.586  1.00  0.00     0.016 A 
ATOM     41  C   UNL     1     -12.726   3.976   2.758  1.00  0.00     0.010 A 
ATOM     42  C   UNL     1     -12.839   5.880   1.538  1.00  0.00     0.010 A 
ATOM     43  C   UNL     1     -12.260   4.521   1.556  1.00  0.00    -0.014 A 
BRANCH  43  44
ATOM     44  C   UNL     1     -11.219   3.607   0.301  1.00  0.00     0.031 A 
ATOM     45  C   UNL     1     -11.125   4.130  -1.628  1.00  0.00     0.074 A 
ATOM     46  C   UNL     1     -10.787   2.338   0.909  1.00  0.00     0.049 A 
ATOM     47  N   UNL     1     -11.725   3.384  -2.600  1.00  0.00    -0.248 NA
ATOM     48  C   UNL     1     -11.078   5.462  -2.560  1.00  0.00     0.031 C 
ATOM     49  C   UNL     1     -10.147   1.032   0.405  1.00  0.00     0.029 A 
ATOM     50  N   UNL     1     -10.935   1.871   2.254  1.00  0.00    -0.354 N 
ATOM     51  C   UNL     1     -11.828   3.784  -3.873  1.00  0.00     0.074 A 
ATOM     52  C   UNL     1     -11.610   5.175  -3.767  1.00  0.00     0.031 C 
ATOM     53  C   UNL     1      -9.937   0.076   1.298  1.00  0.00     0.029 A 
ATOM     54  C   UNL     1     -10.793   0.457   2.330  1.00  0.00     0.049 A 
ATOM     55  H   UNL     1     -11.113   2.454   3.028  1.00  0.00     0.167 HD
ATOM     56  C   UNL     1     -12.051   2.886  -4.877  1.00  0.00     0.037 A 
ATOM     57  C   UNL     1     -11.796  -0.403   2.617  1.00  0.00     0.037 A 
ATOM     58  C   UNL     1     -11.821   1.471  -4.491  1.00  0.00     0.049 A 
ATOM     59  C   UNL     1     -12.328  -1.090   1.323  1.00  0.00     0.074 A 
ATOM     60  C   UNL     1     -10.642   0.737  -4.464  1.00  0.00     0.029 A 
ATOM     61  N   UNL     1     -12.730   0.694  -3.750  1.00  0.00    -0.354 N 
ATOM     62  N   UNL     1     -12.416  -0.541   0.116  1.00  0.00    -0.248 NA
ATOM     63  C   UNL     1     -12.502  -2.539   1.263  1.00  0.00     0.031 C 
ATOM     64  C   UNL     1     -10.774  -0.311  -3.502  1.00  0.00     0.029 A 
ATOM     65  C   UNL     1     -12.079  -0.327  -3.016  1.00  0.00     0.049 A 
ATOM     66  H   UNL     1     -13.704   0.843  -3.743  1.00  0.00     0.167 HD
ATOM     67  C   UNL     1     -12.641  -1.512  -0.851  1.00  0.00     0.074 A 
ATOM     68  C   UNL     1     -12.667  -2.745  -0.057  1.00  0.00     0.031 C 
ATOM     69  C   UNL     1     -12.777  -1.372  -2.228  1.00  0.00     0.037 A 
BRANCH  56  70
ATOM     70  C   UNL     1     -12.001   3.486  -6.252  1.00  0.00     0.064 A 
ATOM     71  C   UNL     1     -10.967   3.201  -7.155  1.00  0.00     0.173 A 
ATOM     72  C   UNL     1     -12.869   4.543  -6.605  1.00  0.00     0.173 A 
ATOM     73  F   UNL     1     -10.113   2.194  -6.933  1.00  0.00    -0.203 F 
ATOM     74  C   UNL     1     -10.748   3.993  -8.287  1.00  0.00     0.198 A 
ATOM     75  C   UNL     1     -12.627   5.354  -7.716  1.00  0.00     0.198 A 
ATOM     76  F   UNL     1     -13.908   4.857  -5.813  1.00  0.00    -0.203 F 
ATOM     77  F   UNL     1      -9.720   3.721  -9.103  1.00  0.00    -0.200 F 
ATOM     78  C   UNL     1     -11.554   5.089  -8.547  1.00  0.00     0.200 A 
ATOM     79  F   UNL     1     -13.397   6.428  -7.943  1.00  0.00    -0.200 F 
ATOM     80  F   UNL     1     -11.286   5.896  -9.583  1.00  0.00    -0.200 F 
ENDBRANCH  56  70
BRANCH  57  81
ATOM     81  C   UNL     1     -12.294  -0.028   3.961  1.00  0.00     0.064 A 
ATOM     82  C   UNL     1     -11.274   0.184   4.947  1.00  0.00     0.173 A 
ATOM     83  C   UNL     1     -13.503   0.626   4.151  1.00  0.00     0.173 A 
ATOM     84  F   UNL     1     -10.084  -0.432   4.826  1.00  0.00    -0.203 F 
ATOM     85  C   UNL     1     -11.368   1.207   5.883  1.00  0.00     0.198 A 
ATOM     86  C   UNL     1     -13.626   1.584   5.166  1.00  0.00     0.198 A 
ATOM     87  F   UNL     1     -14.487   0.493   3.253  1.00  0.00    -0.203 F 
ATOM     88  F   UNL     1     -10.285   1.585   6.580  1.00  0.00    -0.200 F 
ATOM     89  C   UNL     1     -12.541   1.922   5.976  1.00  0.00     0.200 A 
ATOM     90  F   UNL     1     -14.747   2.313   5.249  1.00  0.00    -0.200 F 
ATOM     91  F   UNL     1     -12.599   2.999   6.773  1.00  0.00    -0.200 F 
ENDBRANCH  57  81
BRANCH  69  92
ATOM     92  C   UNL     1     -13.530  -2.413  -3.056  1.00  0.00     0.064 A 
ATOM     93  C   UNL     1     -14.581  -3.182  -2.525  1.00  0.00     0.173 A 
ATOM     94  C   UNL     1     -13.358  -2.519  -4.461  1.00  0.00     0.173 A 
ATOM     95  F   UNL     1     -14.937  -3.085  -1.237  1.00  0.00    -0.203 F 
ATOM     96  C   UNL     1     -15.347  -4.039  -3.316  1.00  0.00     0.198 A 
ATOM     97  C   UNL     1     -14.180  -3.313  -5.258  1.00  0.00     0.198 A 
ATOM     98  F   UNL     1     -12.418  -1.830  -5.121  1.00  0.00    -0.203 F 
ATOM     99  F   UNL     1     -16.298  -4.789  -2.743  1.00  0.00    -0.200 F 
ATOM    100  C   UNL     1     -15.162  -4.088  -4.683  1.00  0.00     0.200 A 
ATOM    101  F   UNL     1     -14.030  -3.297  -6.590  1.00  0.00    -0.200 F 
ATOM    102  F   UNL     1     -15.947  -4.859  -5.446  1.00  0.00    -0.200 F 
ENDBRANCH  69  92
ENDBRANCH  43  44
ENDBRANCH  36  38
ENDBRANCH  35  36
ENDBRANCH  34  35
ENDBRANCH  33  34
ENDBRANCH  32  33
ENDBRANCH  31  32
ENDBRANCH  30  31
ENDBRANCH   1  30
TORSDOF 22
