REMARK SMILES O=C(Cc1ccn(C(F)F)c(=O)c1)OCCOCCOCCOCCOC(=O)c1ccc(-c2c3nc(c(-c4c(F)c(F)c(F)c(F)c4F)c4ccc([nH]4)c(-c4c(F)c(F)c(F)c(F)c4F)c4nc(c(-c5c(F)c(F)c(F)c(F)c5F)c5ccc2[nH]5)C=C4)C=C3)cc1
REMARK SMILES IDX 20 1 19 2 18 3 17 4 16 5 15 6 14 7 2 8 1 9 3 10 4 11 5 12
REMARK SMILES IDX 13 13 6 14 11 15 7 16 12 17 8 18 9 19 10 20 21 21 22 22
REMARK SMILES IDX 23 23 24 24 25 25 26 26 27 27 28 28 29 29 30 30 91 31 31 32
REMARK SMILES IDX 90 33 32 34 33 35 34 36 84 37 35 38 89 39 83 40 85 41 36 42
REMARK SMILES IDX 88 43 82 44 81 45 37 47 69 48 49 49 68 50 50 51 53 52 67 53
REMARK SMILES IDX 86 54 51 55 52 56 66 58 87 59 54 60 38 61 39 62 47 63 40 64
REMARK SMILES IDX 41 65 45 66 48 67 42 68 43 69 46 70 44 71 70 72 71 73 79 74
REMARK SMILES IDX 72 75 73 76 77 77 80 78 74 79 75 80 78 81 76 82 55 83 56 84
REMARK SMILES IDX 64 85 57 86 58 87 62 88 65 89 59 90 60 91 63 92 61 93
REMARK H PARENT 85 46 53 57
REMARK Flexibility Score: inf
ROOT
ATOM      1  O   UNL     1       2.608   2.600   2.621  1.00  0.00    -0.377 OA
ENDROOT
BRANCH   1   2
ATOM      2  C   UNL     1       2.001   1.609   1.795  1.00  0.00     0.188 C 
BRANCH   2   3
ATOM      3  C   UNL     1       2.624   0.214   1.921  1.00  0.00     0.188 C 
BRANCH   3   4
ATOM      4  O   UNL     1       4.024   0.185   1.682  1.00  0.00    -0.376 OA
BRANCH   4   5
ATOM      5  C   UNL     1       4.574  -0.073   0.407  1.00  0.00     0.202 C 
BRANCH   5   6
ATOM      6  C   UNL     1       4.009   0.669  -0.797  1.00  0.00     0.261 C 
BRANCH   6   7
ATOM      7  O   UNL     1       2.604   0.516  -1.093  1.00  0.00    -0.463 OA
BRANCH   7   8
ATOM      8  C   UNL     1       1.883  -0.595  -1.338  1.00  0.00     0.310 C 
ATOM      9  O   UNL     1       0.760  -0.485  -1.827  1.00  0.00    -0.252 OA
BRANCH   8  10
ATOM     10  C   UNL     1       2.421  -1.952  -0.938  1.00  0.00     0.158 C 
BRANCH  10  11
ATOM     11  C   UNL     1       3.439  -2.618  -1.813  1.00  0.00    -0.030 A 
ATOM     12  C   UNL     1       4.035  -1.954  -2.950  1.00  0.00     0.023 A 
ATOM     13  C   UNL     1       3.807  -3.879  -1.528  1.00  0.00     0.076 A 
ATOM     14  C   UNL     1       4.959  -2.580  -3.688  1.00  0.00     0.095 A 
ATOM     15  C   UNL     1       4.779  -4.614  -2.378  1.00  0.00     0.255 A 
ATOM     16  N   UNL     1       5.336  -3.882  -3.413  1.00  0.00    -0.258 N 
ATOM     17  O   UNL     1       5.010  -5.787  -2.111  1.00  0.00    -0.269 OA
BRANCH  16  18
ATOM     18  C   UNL     1       6.182  -4.588  -4.340  1.00  0.00     0.451 C 
ATOM     19  F   UNL     1       7.061  -5.406  -3.717  1.00  0.00    -0.185 F 
ATOM     20  F   UNL     1       5.424  -5.340  -5.174  1.00  0.00    -0.185 F 
ENDBRANCH  16  18
ENDBRANCH  10  11
ENDBRANCH   8  10
ENDBRANCH   7   8
ENDBRANCH   6   7
ENDBRANCH   5   6
ENDBRANCH   4   5
ENDBRANCH   3   4
ENDBRANCH   2   3
ENDBRANCH   1   2
BRANCH   1  21
ATOM     21  C   UNL     1       3.973   2.849   2.331  1.00  0.00     0.188 C 
BRANCH  21  22
ATOM     22  C   UNL     1       5.007   2.283   3.333  1.00  0.00     0.188 C 
BRANCH  22  23
ATOM     23  O   UNL     1       4.633   1.452   4.422  1.00  0.00    -0.376 OA
BRANCH  23  24
ATOM     24  C   UNL     1       3.435   1.700   5.140  1.00  0.00     0.202 C 
BRANCH  24  25
ATOM     25  C   UNL     1       3.222   3.061   5.816  1.00  0.00     0.261 C 
BRANCH  25  26
ATOM     26  O   UNL     1       3.401   4.193   4.954  1.00  0.00    -0.460 OA
BRANCH  26  27
ATOM     27  C   UNL     1       4.550   4.896   5.126  1.00  0.00     0.338 C 
ATOM     28  O   UNL     1       5.414   4.713   5.952  1.00  0.00    -0.246 OA
BRANCH  27  29
ATOM     29  C   UNL     1       4.700   5.814   3.971  1.00  0.00     0.060 A 
ATOM     30  C   UNL     1       3.649   6.630   3.550  1.00  0.00     0.016 A 
ATOM     31  C   UNL     1       5.909   5.788   3.258  1.00  0.00     0.016 A 
ATOM     32  C   UNL     1       3.819   7.445   2.428  1.00  0.00     0.010 A 
ATOM     33  C   UNL     1       6.066   6.575   2.118  1.00  0.00     0.010 A 
ATOM     34  C   UNL     1       5.032   7.431   1.716  1.00  0.00    -0.014 A 
BRANCH  34  35
ATOM     35  C   UNL     1       5.304   8.483   0.710  1.00  0.00     0.031 A 
ATOM     36  C   UNL     1       5.106   8.275  -0.755  1.00  0.00     0.074 A 
ATOM     37  C   UNL     1       5.755   9.661   1.175  1.00  0.00     0.049 A 
ATOM     38  N   UNL     1       5.221   9.143  -1.729  1.00  0.00    -0.248 NA
ATOM     39  C   UNL     1       4.740   6.922  -1.189  1.00  0.00     0.031 C 
ATOM     40  C   UNL     1       6.004   9.957   2.587  1.00  0.00     0.029 A 
ATOM     41  N   UNL     1       6.071  10.823   0.524  1.00  0.00    -0.354 N 
ATOM     42  C   UNL     1       4.907   8.456  -2.891  1.00  0.00     0.074 A 
ATOM     43  C   UNL     1       4.654   7.081  -2.505  1.00  0.00     0.031 C 
ATOM     44  C   UNL     1       6.405  11.230   2.701  1.00  0.00     0.029 A 
ATOM     45  C   UNL     1       6.457  11.830   1.372  1.00  0.00     0.049 A 
ATOM     46  H   UNL     1       6.026  10.926  -0.454  1.00  0.00     0.167 HD
ATOM     47  C   UNL     1       4.822   8.941  -4.155  1.00  0.00     0.037 A 
ATOM     48  C   UNL     1       6.799  13.104   1.111  1.00  0.00     0.037 A 
ATOM     49  C   UNL     1       5.118  10.305  -4.528  1.00  0.00     0.049 A 
ATOM     50  C   UNL     1       6.754  13.598  -0.303  1.00  0.00     0.074 A 
ATOM     51  C   UNL     1       5.042  10.897  -5.778  1.00  0.00     0.029 A 
ATOM     52  N   UNL     1       5.566  11.289  -3.654  1.00  0.00    -0.354 N 
ATOM     53  N   UNL     1       6.394  12.961  -1.390  1.00  0.00    -0.248 NA
ATOM     54  C   UNL     1       7.154  14.993  -0.524  1.00  0.00     0.031 C 
ATOM     55  C   UNL     1       5.495  12.217  -5.671  1.00  0.00     0.029 A 
ATOM     56  C   UNL     1       5.801  12.471  -4.343  1.00  0.00     0.049 A 
ATOM     57  H   UNL     1       5.698  11.165  -2.686  1.00  0.00     0.167 HD
ATOM     58  C   UNL     1       6.509  13.877  -2.424  1.00  0.00     0.074 A 
ATOM     59  C   UNL     1       6.952  15.123  -1.828  1.00  0.00     0.031 C 
ATOM     60  C   UNL     1       6.269  13.699  -3.747  1.00  0.00     0.037 A 
BRANCH  47  61
ATOM     61  C   UNL     1       4.387   7.989  -5.235  1.00  0.00     0.064 A 
ATOM     62  C   UNL     1       3.072   7.499  -5.289  1.00  0.00     0.173 A 
ATOM     63  C   UNL     1       5.271   7.599  -6.252  1.00  0.00     0.173 A 
ATOM     64  F   UNL     1       2.187   7.835  -4.338  1.00  0.00    -0.203 F 
ATOM     65  C   UNL     1       2.669   6.631  -6.301  1.00  0.00     0.198 A 
ATOM     66  C   UNL     1       4.856   6.755  -7.280  1.00  0.00     0.198 A 
ATOM     67  F   UNL     1       6.536   8.044  -6.257  1.00  0.00    -0.203 F 
ATOM     68  F   UNL     1       1.423   6.138  -6.303  1.00  0.00    -0.200 F 
ATOM     69  C   UNL     1       3.559   6.265  -7.299  1.00  0.00     0.200 A 
ATOM     70  F   UNL     1       5.714   6.412  -8.251  1.00  0.00    -0.200 F 
ATOM     71  F   UNL     1       3.170   5.432  -8.274  1.00  0.00    -0.200 F 
ENDBRANCH  47  61
BRANCH  48  72
ATOM     72  C   UNL     1       7.138  13.998   2.243  1.00  0.00     0.064 A 
ATOM     73  C   UNL     1       6.237  14.983   2.665  1.00  0.00     0.173 A 
ATOM     74  C   UNL     1       8.320  13.827   2.979  1.00  0.00     0.173 A 
ATOM     75  F   UNL     1       5.099  15.185   1.984  1.00  0.00    -0.203 F 
ATOM     76  C   UNL     1       6.503  15.764   3.786  1.00  0.00     0.198 A 
ATOM     77  C   UNL     1       8.573  14.593   4.114  1.00  0.00     0.198 A 
ATOM     78  F   UNL     1       9.205  12.886   2.619  1.00  0.00    -0.203 F 
ATOM     79  F   UNL     1       5.631  16.709   4.163  1.00  0.00    -0.200 F 
ATOM     80  C   UNL     1       7.665  15.561   4.516  1.00  0.00     0.200 A 
ATOM     81  F   UNL     1       9.686  14.379   4.829  1.00  0.00    -0.200 F 
ATOM     82  F   UNL     1       7.907  16.295   5.610  1.00  0.00    -0.200 F 
ENDBRANCH  48  72
BRANCH  60  83
ATOM     83  C   UNL     1       6.491  14.885  -4.645  1.00  0.00     0.064 A 
ATOM     84  C   UNL     1       7.780  15.371  -4.913  1.00  0.00     0.173 A 
ATOM     85  C   UNL     1       5.407  15.530  -5.260  1.00  0.00     0.173 A 
ATOM     86  F   UNL     1       8.849  14.801  -4.337  1.00  0.00    -0.203 F 
ATOM     87  C   UNL     1       7.973  16.475  -5.740  1.00  0.00     0.198 A 
ATOM     88  C   UNL     1       5.606  16.614  -6.112  1.00  0.00     0.198 A 
ATOM     89  F   UNL     1       4.154  15.104  -5.042  1.00  0.00    -0.203 F 
ATOM     90  F   UNL     1       9.209  16.954  -5.937  1.00  0.00    -0.200 F 
ATOM     91  C   UNL     1       6.887  17.091  -6.343  1.00  0.00     0.200 A 
ATOM     92  F   UNL     1       4.557  17.200  -6.705  1.00  0.00    -0.200 F 
ATOM     93  F   UNL     1       7.075  18.151  -7.142  1.00  0.00    -0.200 F 
ENDBRANCH  60  83
ENDBRANCH  34  35
ENDBRANCH  27  29
ENDBRANCH  26  27
ENDBRANCH  25  26
ENDBRANCH  24  25
ENDBRANCH  23  24
ENDBRANCH  22  23
ENDBRANCH  21  22
ENDBRANCH   1  21
TORSDOF 22
