REMARK SMILES Cc1c(CC(=O)OCCOCCOCCOCCOC(=O)c2ccc(-c3c4nc(c(-c5c(F)c(F)c(F)c(F)c5F)c5ccc([nH]5)c(-c5c(F)c(F)c(F)c(F)c5F)c5nc(c(-c6c(F)c(F)c(F)c(F)c6F)c6ccc3[nH]6)C=C5)C=C4)cc2)cc(-c2ccccc2)cc1-c1ccccc1
REMARK SMILES IDX 13 1 12 2 11 3 10 4 9 5 8 6 7 7 5 8 6 9 4 10 3 11 1 12 2 13
REMARK SMILES IDX 94 14 85 15 93 16 86 17 95 18 96 19 100 20 97 21 99 22 98 23
REMARK SMILES IDX 87 24 88 25 92 26 89 27 91 28 90 29 14 30 15 31 16 32 17 33
REMARK SMILES IDX 18 34 19 35 20 36 21 37 22 38 23 39 84 40 24 41 83 42 25 43
REMARK SMILES IDX 26 44 27 45 77 46 28 47 82 48 76 49 78 50 29 51 81 52 75 53
REMARK SMILES IDX 74 54 30 56 62 57 42 58 61 59 43 60 46 61 60 62 79 63 44 64
REMARK SMILES IDX 45 65 59 67 80 68 47 69 31 70 32 71 40 72 33 73 34 74 38 75
REMARK SMILES IDX 41 76 35 77 36 78 39 79 37 80 63 81 64 82 72 83 65 84 66 85
REMARK SMILES IDX 70 86 73 87 67 88 68 89 71 90 69 91 48 92 49 93 57 94 50 95
REMARK SMILES IDX 51 96 55 97 58 98 52 99 53 100 56 101 54 102
REMARK H PARENT 78 55 46 66
REMARK Flexibility Score: inf
ROOT
ATOM      1  O   UNL     1      -1.593  -2.170   1.925  1.00  0.00    -0.377 OA
ENDROOT
BRANCH   1   2
ATOM      2  C   UNL     1      -1.688  -2.325   0.528  1.00  0.00     0.188 C 
BRANCH   2   3
ATOM      3  C   UNL     1      -2.088  -3.671  -0.110  1.00  0.00     0.188 C 
BRANCH   3   4
ATOM      4  O   UNL     1      -1.591  -4.910   0.373  1.00  0.00    -0.376 OA
BRANCH   4   5
ATOM      5  C   UNL     1      -0.336  -4.894   1.021  1.00  0.00     0.202 C 
BRANCH   5   6
ATOM      6  C   UNL     1       0.903  -4.748   0.139  1.00  0.00     0.261 C 
BRANCH   6   7
ATOM      7  O   UNL     1       1.101  -3.412  -0.367  1.00  0.00    -0.463 OA
BRANCH   7   8
ATOM      8  C   UNL     1       0.926  -3.243  -1.702  1.00  0.00     0.310 C 
ATOM      9  O   UNL     1       0.597  -4.136  -2.476  1.00  0.00    -0.252 OA
BRANCH   8  10
ATOM     10  C   UNL     1       1.285  -1.853  -2.179  1.00  0.00     0.158 C 
BRANCH  10  11
ATOM     11  C   UNL     1       0.591  -0.651  -1.549  1.00  0.00    -0.033 A 
ATOM     12  C   UNL     1       2.764   0.109  -0.463  1.00  0.00     0.045 C 
ATOM     13  C   UNL     1       1.314   0.327  -0.822  1.00  0.00    -0.039 A 
ATOM     14  C   UNL     1       0.670   1.535  -0.462  1.00  0.00    -0.015 A 
ATOM     15  C   UNL     1      -0.797  -0.449  -1.765  1.00  0.00     0.013 A 
ATOM     16  C   UNL     1      -0.726   1.627  -0.581  1.00  0.00     0.017 A 
ATOM     17  C   UNL     1      -1.492   0.634  -1.190  1.00  0.00    -0.017 A 
BRANCH  14  18
ATOM     18  C   UNL     1       1.393   2.790  -0.190  1.00  0.00    -0.018 A 
ATOM     19  C   UNL     1       1.117   3.600   0.921  1.00  0.00     0.009 A 
ATOM     20  C   UNL     1       2.248   3.293  -1.188  1.00  0.00     0.009 A 
ATOM     21  C   UNL     1       1.655   4.888   1.008  1.00  0.00     0.001 A 
ATOM     22  C   UNL     1       2.790   4.572  -1.098  1.00  0.00     0.001 A 
ATOM     23  C   UNL     1       2.483   5.374  -0.004  1.00  0.00     0.000 A 
ENDBRANCH  14  18
BRANCH  17  24
ATOM     24  C   UNL     1      -2.968   0.742  -1.150  1.00  0.00    -0.018 A 
ATOM     25  C   UNL     1      -3.618   1.046   0.068  1.00  0.00     0.009 A 
ATOM     26  C   UNL     1      -3.776   0.525  -2.271  1.00  0.00     0.009 A 
ATOM     27  C   UNL     1      -5.012   1.090   0.173  1.00  0.00     0.001 A 
ATOM     28  C   UNL     1      -5.174   0.585  -2.172  1.00  0.00     0.001 A 
ATOM     29  C   UNL     1      -5.791   0.851  -0.951  1.00  0.00     0.000 A 
ENDBRANCH  17  24
ENDBRANCH  10  11
ENDBRANCH   8  10
ENDBRANCH   7   8
ENDBRANCH   6   7
ENDBRANCH   5   6
ENDBRANCH   4   5
ENDBRANCH   3   4
ENDBRANCH   2   3
ENDBRANCH   1   2
BRANCH   1  30
ATOM     30  C   UNL     1      -2.736  -1.823   2.675  1.00  0.00     0.188 C 
BRANCH  30  31
ATOM     31  C   UNL     1      -4.098  -1.787   2.044  1.00  0.00     0.188 C 
BRANCH  31  32
ATOM     32  O   UNL     1      -4.473  -3.109   1.702  1.00  0.00    -0.376 OA
BRANCH  32  33
ATOM     33  C   UNL     1      -5.785  -3.203   1.160  1.00  0.00     0.202 C 
BRANCH  33  34
ATOM     34  C   UNL     1      -6.857  -2.887   2.211  1.00  0.00     0.261 C 
BRANCH  34  35
ATOM     35  O   UNL     1      -6.638  -3.735   3.360  1.00  0.00    -0.460 OA
BRANCH  35  36
ATOM     36  C   UNL     1      -6.139  -3.118   4.470  1.00  0.00     0.338 C 
ATOM     37  O   UNL     1      -6.523  -2.050   4.911  1.00  0.00    -0.246 OA
BRANCH  36  38
ATOM     38  C   UNL     1      -4.868  -3.785   4.906  1.00  0.00     0.060 A 
ATOM     39  C   UNL     1      -4.041  -3.167   5.866  1.00  0.00     0.016 A 
ATOM     40  C   UNL     1      -4.349  -4.822   4.135  1.00  0.00     0.016 A 
ATOM     41  C   UNL     1      -2.667  -3.488   5.948  1.00  0.00     0.010 A 
ATOM     42  C   UNL     1      -2.982  -5.062   4.155  1.00  0.00     0.010 A 
ATOM     43  C   UNL     1      -2.108  -4.384   5.032  1.00  0.00    -0.014 A 
BRANCH  43  44
ATOM     44  C   UNL     1      -0.658  -4.540   4.732  1.00  0.00     0.031 A 
ATOM     45  C   UNL     1      -0.116  -5.927   4.505  1.00  0.00     0.074 A 
ATOM     46  C   UNL     1       0.085  -3.479   4.296  1.00  0.00     0.049 A 
ATOM     47  N   UNL     1       1.083  -6.180   4.100  1.00  0.00    -0.248 NA
ATOM     48  C   UNL     1      -0.880  -7.164   4.683  1.00  0.00     0.031 C 
ATOM     49  C   UNL     1       1.242  -3.547   3.386  1.00  0.00     0.029 A 
ATOM     50  N   UNL     1      -0.094  -2.082   4.429  1.00  0.00    -0.354 N 
ATOM     51  C   UNL     1       1.135  -7.469   3.628  1.00  0.00     0.074 A 
ATOM     52  C   UNL     1      -0.079  -8.072   4.110  1.00  0.00     0.031 C 
ATOM     53  C   UNL     1       1.734  -2.330   3.131  1.00  0.00     0.029 A 
ATOM     54  C   UNL     1       1.148  -1.464   4.117  1.00  0.00     0.049 A 
ATOM     55  H   UNL     1      -0.925  -1.623   4.690  1.00  0.00     0.167 HD
ATOM     56  C   UNL     1       2.161  -7.815   2.792  1.00  0.00     0.037 A 
ATOM     57  C   UNL     1       1.888  -0.807   5.057  1.00  0.00     0.037 A 
ATOM     58  C   UNL     1       3.227  -6.789   2.788  1.00  0.00     0.049 A 
ATOM     59  C   UNL     1       3.177  -1.541   5.354  1.00  0.00     0.074 A 
ATOM     60  C   UNL     1       3.922  -6.086   1.819  1.00  0.00     0.029 A 
ATOM     61  N   UNL     1       3.638  -6.237   4.011  1.00  0.00    -0.354 N 
ATOM     62  N   UNL     1       3.350  -2.793   5.013  1.00  0.00    -0.248 NA
ATOM     63  C   UNL     1       4.383  -0.978   5.953  1.00  0.00     0.031 C 
ATOM     64  C   UNL     1       4.628  -5.023   2.462  1.00  0.00     0.029 A 
ATOM     65  C   UNL     1       4.444  -5.133   3.833  1.00  0.00     0.049 A 
ATOM     66  H   UNL     1       3.381  -6.595   4.891  1.00  0.00     0.167 HD
ATOM     67  C   UNL     1       4.617  -3.191   5.272  1.00  0.00     0.074 A 
ATOM     68  C   UNL     1       5.223  -2.033   5.904  1.00  0.00     0.031 C 
ATOM     69  C   UNL     1       5.047  -4.450   4.976  1.00  0.00     0.037 A 
BRANCH  56  70
ATOM     70  C   UNL     1       2.172  -9.040   1.879  1.00  0.00     0.064 A 
ATOM     71  C   UNL     1       3.349  -9.421   1.192  1.00  0.00     0.173 A 
ATOM     72  C   UNL     1       1.043  -9.831   1.560  1.00  0.00     0.173 A 
ATOM     73  F   UNL     1       4.500  -8.758   1.369  1.00  0.00    -0.203 F 
ATOM     74  C   UNL     1       3.393 -10.493   0.288  1.00  0.00     0.198 A 
ATOM     75  C   UNL     1       1.103 -10.943   0.707  1.00  0.00     0.198 A 
ATOM     76  F   UNL     1      -0.179  -9.532   2.011  1.00  0.00    -0.203 F 
ATOM     77  F   UNL     1       4.530 -10.766  -0.368  1.00  0.00    -0.200 F 
ATOM     78  C   UNL     1       2.276 -11.269   0.062  1.00  0.00     0.200 A 
ATOM     79  F   UNL     1       0.003 -11.684   0.502  1.00  0.00    -0.200 F 
ATOM     80  F   UNL     1       2.322 -12.309  -0.781  1.00  0.00    -0.200 F 
ENDBRANCH  56  70
BRANCH  57  81
ATOM     81  C   UNL     1       1.019   0.069   5.888  1.00  0.00     0.064 A 
ATOM     82  C   UNL     1       0.441   1.143   5.172  1.00  0.00     0.173 A 
ATOM     83  C   UNL     1       0.270  -0.477   6.941  1.00  0.00     0.173 A 
ATOM     84  F   UNL     1       1.128   1.726   4.176  1.00  0.00    -0.203 F 
ATOM     85  C   UNL     1      -0.905   1.469   5.323  1.00  0.00     0.198 A 
ATOM     86  C   UNL     1      -1.075  -0.126   7.106  1.00  0.00     0.198 A 
ATOM     87  F   UNL     1       0.773  -1.477   7.679  1.00  0.00    -0.203 F 
ATOM     88  F   UNL     1      -1.480   2.340   4.481  1.00  0.00    -0.200 F 
ATOM     89  C   UNL     1      -1.674   0.796   6.256  1.00  0.00     0.200 A 
ATOM     90  F   UNL     1      -1.830  -0.772   8.007  1.00  0.00    -0.200 F 
ATOM     91  F   UNL     1      -3.000   0.994   6.298  1.00  0.00    -0.200 F 
ENDBRANCH  57  81
BRANCH  69  92
ATOM     92  C   UNL     1       6.119  -5.146   5.763  1.00  0.00     0.064 A 
ATOM     93  C   UNL     1       6.364  -4.854   7.116  1.00  0.00     0.173 A 
ATOM     94  C   UNL     1       6.771  -6.288   5.247  1.00  0.00     0.173 A 
ATOM     95  F   UNL     1       5.707  -3.873   7.750  1.00  0.00    -0.203 F 
ATOM     96  C   UNL     1       7.248  -5.610   7.882  1.00  0.00     0.198 A 
ATOM     97  C   UNL     1       7.611  -7.073   6.031  1.00  0.00     0.198 A 
ATOM     98  F   UNL     1       6.577  -6.698   3.985  1.00  0.00    -0.203 F 
ATOM     99  F   UNL     1       7.471  -5.272   9.159  1.00  0.00    -0.200 F 
ATOM    100  C   UNL     1       7.862  -6.724   7.343  1.00  0.00     0.200 A 
ATOM    101  F   UNL     1       8.151  -8.186   5.517  1.00  0.00    -0.200 F 
ATOM    102  F   UNL     1       8.676  -7.475   8.096  1.00  0.00    -0.200 F 
ENDBRANCH  69  92
ENDBRANCH  43  44
ENDBRANCH  36  38
ENDBRANCH  35  36
ENDBRANCH  34  35
ENDBRANCH  33  34
ENDBRANCH  32  33
ENDBRANCH  31  32
ENDBRANCH  30  31
ENDBRANCH   1  30
TORSDOF 23
