REMARK SMILES C[NH2+][C@@]1(C(=O)OCCOCCOCCOCCOC(=O)c2ccc(-c3c4nc(c(-c5c(F)c(F)c(F)c(F)c5F)c5ccc([nH]5)c(-c5c(F)c(F)c(F)c(F)c5F)c5nc(c(-c6c(F)c(F)c(F)c(F)c6F)c6ccc3[nH]6)C=C5)C=C4)cc2)CC[C@@H]([N@@H+](C)C2CCCCCC2)C1
REMARK SMILES IDX 10 1 9 2 8 3 7 4 6 5 4 6 5 7 3 8 84 9 96 10 85 11 86 12 2 13
REMARK SMILES IDX 1 14 87 17 88 18 89 20 90 21 91 22 92 23 95 25 94 26 93 27
REMARK SMILES IDX 11 29 12 30 13 31 14 32 15 33 16 34 17 35 18 36 19 37 20 38
REMARK SMILES IDX 21 39 22 40 83 41 23 42 82 43 24 44 25 45 26 46 76 47 27 48
REMARK SMILES IDX 81 49 75 50 77 51 28 52 80 53 74 54 73 55 29 57 61 58 41 59
REMARK SMILES IDX 60 60 42 61 45 62 59 63 78 64 43 65 44 66 58 68 79 69 46 70
REMARK SMILES IDX 30 71 31 72 39 73 32 74 33 75 37 76 40 77 34 78 35 79 38 80
REMARK SMILES IDX 36 81 62 82 63 83 71 84 64 85 65 86 69 87 72 88 66 89 67 90
REMARK SMILES IDX 70 91 68 92 47 93 48 94 56 95 49 96 50 97 54 98 57 99 51 100
REMARK SMILES IDX 52 101 55 102 53 103
REMARK H PARENT 2 15 2 16 87 19 77 56 45 67
REMARK Flexibility Score: 80.00
ROOT
ATOM      1  C   UNL     1      -0.230  -1.848   4.656  1.00  0.00     0.188 C 
ENDROOT
BRANCH   1   2
ATOM      2  O   UNL     1      -0.861  -1.518   5.875  1.00  0.00    -0.376 OA
BRANCH   2   3
ATOM      3  C   UNL     1      -2.056  -0.760   5.972  1.00  0.00     0.202 C 
BRANCH   3   4
ATOM      4  C   UNL     1      -2.765   0.064   4.876  1.00  0.00     0.261 C 
BRANCH   4   5
ATOM      5  O   UNL     1      -2.546  -0.282   3.512  1.00  0.00    -0.459 OA
BRANCH   5   6
ATOM      6  C   UNL     1      -1.563   0.435   2.929  1.00  0.00     0.368 C 
ATOM      7  O   UNL     1      -0.965   1.348   3.501  1.00  0.00    -0.245 OA
BRANCH   6   8
ATOM      8  C   UNL     1      -1.251   0.027   1.458  1.00  0.00     0.200 C 
ATOM      9  C   UNL     1      -1.878   1.202   0.683  1.00  0.00     0.087 C 
ATOM     10  C   UNL     1      -1.901  -1.247   0.855  1.00  0.00     0.146 C 
ATOM     11  C   UNL     1      -3.172   0.667   0.054  1.00  0.00     0.072 C 
ATOM     12  C   UNL     1      -3.048  -0.853  -0.075  1.00  0.00     0.191 C 
BRANCH   8  13
ATOM     13  N   UNL     1       0.220  -0.192   1.494  1.00  0.00    -0.334 N 
ATOM     14  C   UNL     1       1.049   0.427   0.497  1.00  0.00     0.331 C 
ATOM     15  H   UNL     1       0.548   0.139   2.401  1.00  0.00     0.347 HD
ATOM     16  H   UNL     1       0.319  -1.189   1.304  1.00  0.00     0.347 HD
ENDBRANCH   8  13
BRANCH  12  17
ATOM     17  N   UNL     1      -3.144  -1.575  -1.370  1.00  0.00    -0.332 N 
ATOM     18  C   UNL     1      -4.554  -1.649  -1.796  1.00  0.00     0.333 C 
ATOM     19  H   UNL     1      -2.711  -2.449  -1.071  1.00  0.00     0.348 HD
BRANCH  17  20
ATOM     20  C   UNL     1      -2.258  -1.332  -2.545  1.00  0.00     0.184 C 
BRANCH  20  21
ATOM     21  C   UNL     1      -2.288   0.080  -3.154  1.00  0.00     0.065 C 
BRANCH  21  22
ATOM     22  C   UNL     1      -1.248   0.989  -2.531  1.00  0.00     0.006 C 
BRANCH  22  23
ATOM     23  C   UNL     1       0.068   1.085  -3.276  1.00  0.00     0.000 CG0
ATOM     24  G   UNL     1       0.890  -0.203  -3.331  1.00  0.00     0.000 G0
ENDBRANCH  22  23
ENDBRANCH  21  22
ENDBRANCH  20  21
BRANCH  20  25
ATOM     25  C   UNL     1      -0.824  -1.906  -2.403  1.00  0.00     0.065 C 
BRANCH  25  26
ATOM     26  C   UNL     1       0.137  -1.520  -3.546  1.00  0.00     0.006 C 
BRANCH  26  27
ATOM     27  C   UNL     1       0.890  -0.203  -3.331  1.00  0.00     0.000 CG0
ATOM     28  G   UNL     1       0.068   1.085  -3.276  1.00  0.00     0.000 G0
ENDBRANCH  26  27
ENDBRANCH  25  26
ENDBRANCH  20  25
ENDBRANCH  17  20
ENDBRANCH  12  17
ENDBRANCH   6   8
ENDBRANCH   5   6
ENDBRANCH   4   5
ENDBRANCH   3   4
ENDBRANCH   2   3
ENDBRANCH   1   2
BRANCH   1  29
ATOM     29  C   UNL     1      -0.939  -2.810   3.699  1.00  0.00     0.188 C 
BRANCH  29  30
ATOM     30  O   UNL     1      -2.346  -2.810   3.801  1.00  0.00    -0.377 OA
BRANCH  30  31
ATOM     31  C   UNL     1      -2.966  -3.689   4.724  1.00  0.00     0.188 C 
BRANCH  31  32
ATOM     32  C   UNL     1      -2.145  -4.321   5.864  1.00  0.00     0.188 C 
BRANCH  32  33
ATOM     33  O   UNL     1      -0.853  -4.771   5.494  1.00  0.00    -0.376 OA
BRANCH  33  34
ATOM     34  C   UNL     1      -0.671  -6.119   5.091  1.00  0.00     0.202 C 
BRANCH  34  35
ATOM     35  C   UNL     1      -1.449  -6.647   3.873  1.00  0.00     0.261 C 
BRANCH  35  36
ATOM     36  O   UNL     1      -2.882  -6.568   3.925  1.00  0.00    -0.460 OA
BRANCH  36  37
ATOM     37  C   UNL     1      -3.522  -7.135   4.966  1.00  0.00     0.338 C 
ATOM     38  O   UNL     1      -3.030  -7.795   5.868  1.00  0.00    -0.246 OA
BRANCH  37  39
ATOM     39  C   UNL     1      -4.920  -6.654   4.951  1.00  0.00     0.060 A 
ATOM     40  C   UNL     1      -5.398  -5.916   6.042  1.00  0.00     0.016 A 
ATOM     41  C   UNL     1      -5.755  -6.931   3.866  1.00  0.00     0.016 A 
ATOM     42  C   UNL     1      -6.725  -5.487   6.072  1.00  0.00     0.010 A 
ATOM     43  C   UNL     1      -7.093  -6.528   3.910  1.00  0.00     0.010 A 
ATOM     44  C   UNL     1      -7.592  -5.839   5.031  1.00  0.00    -0.014 A 
BRANCH  44  45
ATOM     45  C   UNL     1      -9.055  -5.692   5.221  1.00  0.00     0.031 A 
ATOM     46  C   UNL     1      -9.834  -6.898   5.668  1.00  0.00     0.074 A 
ATOM     47  C   UNL     1      -9.676  -4.515   5.035  1.00  0.00     0.049 A 
ATOM     48  N   UNL     1     -11.122  -7.043   5.846  1.00  0.00    -0.248 NA
ATOM     49  C   UNL     1      -9.048  -8.111   5.952  1.00  0.00     0.031 C 
ATOM     50  C   UNL     1      -9.024  -3.264   4.659  1.00  0.00     0.029 A 
ATOM     51  N   UNL     1     -11.007  -4.189   5.131  1.00  0.00    -0.354 N 
ATOM     52  C   UNL     1     -11.300  -8.360   6.250  1.00  0.00     0.074 A 
ATOM     53  C   UNL     1      -9.995  -8.982   6.261  1.00  0.00     0.031 C 
ATOM     54  C   UNL     1      -9.959  -2.306   4.538  1.00  0.00     0.029 A 
ATOM     55  C   UNL     1     -11.278  -2.886   4.792  1.00  0.00     0.049 A 
ATOM     56  H   UNL     1     -11.700  -4.827   5.415  1.00  0.00     0.167 HD
ATOM     57  C   UNL     1     -12.449  -8.990   6.588  1.00  0.00     0.037 A 
ATOM     58  C   UNL     1     -12.460  -2.249   4.674  1.00  0.00     0.037 A 
ATOM     59  C   UNL     1     -13.746  -8.367   6.572  1.00  0.00     0.049 A 
ATOM     60  C   UNL     1     -13.736  -2.999   4.970  1.00  0.00     0.074 A 
ATOM     61  C   UNL     1     -14.970  -8.915   6.909  1.00  0.00     0.029 A 
ATOM     62  N   UNL     1     -13.986  -7.056   6.187  1.00  0.00    -0.354 N 
ATOM     63  N   UNL     1     -13.899  -4.238   5.369  1.00  0.00    -0.248 NA
ATOM     64  C   UNL     1     -14.995  -2.258   4.801  1.00  0.00     0.031 C 
ATOM     65  C   UNL     1     -15.959  -7.957   6.664  1.00  0.00     0.029 A 
ATOM     66  C   UNL     1     -15.344  -6.787   6.246  1.00  0.00     0.049 A 
ATOM     67  H   UNL     1     -13.294  -6.412   5.912  1.00  0.00     0.167 HD
ATOM     68  C   UNL     1     -15.268  -4.413   5.533  1.00  0.00     0.074 A 
ATOM     69  C   UNL     1     -15.890  -3.149   5.202  1.00  0.00     0.031 C 
ATOM     70  C   UNL     1     -15.949  -5.519   5.924  1.00  0.00     0.037 A 
BRANCH  57  71
ATOM     71  C   UNL     1     -12.359 -10.441   6.968  1.00  0.00     0.064 A 
ATOM     72  C   UNL     1     -11.747 -10.860   8.159  1.00  0.00     0.173 A 
ATOM     73  C   UNL     1     -12.917 -11.425   6.138  1.00  0.00     0.173 A 
ATOM     74  F   UNL     1     -11.183  -9.962   8.981  1.00  0.00    -0.203 F 
ATOM     75  C   UNL     1     -11.673 -12.211   8.490  1.00  0.00     0.198 A 
ATOM     76  C   UNL     1     -12.872 -12.771   6.489  1.00  0.00     0.198 A 
ATOM     77  F   UNL     1     -13.515 -11.080   4.987  1.00  0.00    -0.203 F 
ATOM     78  F   UNL     1     -11.036 -12.591   9.607  1.00  0.00    -0.200 F 
ATOM     79  C   UNL     1     -12.243 -13.164   7.660  1.00  0.00     0.200 A 
ATOM     80  F   UNL     1     -13.437 -13.688   5.691  1.00  0.00    -0.200 F 
ATOM     81  F   UNL     1     -12.179 -14.463   7.984  1.00  0.00    -0.200 F 
ENDBRANCH  57  71
BRANCH  58  82
ATOM     82  C   UNL     1     -12.501  -0.828   4.234  1.00  0.00     0.064 A 
ATOM     83  C   UNL     1     -12.948   0.185   5.094  1.00  0.00     0.173 A 
ATOM     84  C   UNL     1     -12.125  -0.458   2.934  1.00  0.00     0.173 A 
ATOM     85  F   UNL     1     -13.346  -0.120   6.338  1.00  0.00    -0.203 F 
ATOM     86  C   UNL     1     -13.038   1.508   4.664  1.00  0.00     0.198 A 
ATOM     87  C   UNL     1     -12.183   0.870   2.516  1.00  0.00     0.198 A 
ATOM     88  F   UNL     1     -11.694  -1.388   2.068  1.00  0.00    -0.203 F 
ATOM     89  F   UNL     1     -13.522   2.446   5.489  1.00  0.00    -0.200 F 
ATOM     90  C   UNL     1     -12.650   1.850   3.378  1.00  0.00     0.200 A 
ATOM     91  F   UNL     1     -11.794   1.197   1.276  1.00  0.00    -0.200 F 
ATOM     92  F   UNL     1     -12.735   3.122   2.965  1.00  0.00    -0.200 F 
ENDBRANCH  58  82
BRANCH  70  93
ATOM     93  C   UNL     1     -17.441  -5.404   6.066  1.00  0.00     0.064 A 
ATOM     94  C   UNL     1     -18.285  -5.261   4.954  1.00  0.00     0.173 A 
ATOM     95  C   UNL     1     -18.039  -5.484   7.334  1.00  0.00     0.173 A 
ATOM     96  F   UNL     1     -17.766  -5.168   3.720  1.00  0.00    -0.203 F 
ATOM     97  C   UNL     1     -19.666  -5.172   5.109  1.00  0.00     0.198 A 
ATOM     98  C   UNL     1     -19.422  -5.432   7.482  1.00  0.00     0.198 A 
ATOM     99  F   UNL     1     -17.281  -5.631   8.431  1.00  0.00    -0.203 F 
ATOM    100  F   UNL     1     -20.447  -4.981   4.037  1.00  0.00    -0.200 F 
ATOM    101  C   UNL     1     -20.234  -5.267   6.371  1.00  0.00     0.200 A 
ATOM    102  F   UNL     1     -19.969  -5.544   8.700  1.00  0.00    -0.200 F 
ATOM    103  F   UNL     1     -21.564  -5.191   6.516  1.00  0.00    -0.200 F 
ENDBRANCH  70  93
ENDBRANCH  44  45
ENDBRANCH  37  39
ENDBRANCH  36  37
ENDBRANCH  35  36
ENDBRANCH  34  35
ENDBRANCH  33  34
ENDBRANCH  32  33
ENDBRANCH  31  32
ENDBRANCH  30  31
ENDBRANCH  29  30
ENDBRANCH   1  29
TORSDOF 23
