REMARK SMILES Cc1nc(-c2ccc(C(F)(F)F)cc2)nc(SCC(=O)OCCOCCOCCOCCOC(=O)c2ccc(-c3c4nc(c(-c5c(F)c(F)c(F)c(F)c5F)c5ccc([nH]5)c(-c5c(F)c(F)c(F)c(F)c5F)c5nc(c(-c6c(F)c(F)c(F)c(F)c6F)c6ccc3[nH]6)C=C5)C=C4)cc2)c1C
REMARK SMILES IDX 26 1 25 2 24 3 23 4 22 5 21 6 19 7 20 8 18 9 17 10 16 11
REMARK SMILES IDX 1 12 2 13 3 14 99 15 4 16 100 17 15 18 5 19 6 20 14 21 7 22
REMARK SMILES IDX 13 23 8 24 9 25 10 26 11 27 12 28 27 29 28 30 29 31 30 32
REMARK SMILES IDX 31 33 32 34 33 35 34 36 35 37 36 38 37 39 98 40 38 41 97 42
REMARK SMILES IDX 39 43 40 44 41 45 91 46 42 47 96 48 90 49 92 50 43 51 95 52
REMARK SMILES IDX 89 53 88 54 44 56 76 57 56 58 75 59 57 60 60 61 74 62 93 63
REMARK SMILES IDX 58 64 59 65 73 67 94 68 61 69 45 70 46 71 54 72 47 73 48 74
REMARK SMILES IDX 52 75 55 76 49 77 50 78 53 79 51 80 77 81 78 82 86 83 79 84
REMARK SMILES IDX 80 85 84 86 87 87 81 88 82 89 85 90 83 91 62 92 63 93 71 94
REMARK SMILES IDX 64 95 65 96 69 97 72 98 66 99 67 100 70 101 68 102
REMARK H PARENT 92 55 60 66
REMARK Flexibility Score: inf
ROOT
ATOM      1  C   UNL     1       0.880  -0.967   3.896  1.00  0.00     0.188 C 
ENDROOT
BRANCH   1   2
ATOM      2  C   UNL     1       0.728   0.548   3.711  1.00  0.00     0.188 C 
BRANCH   2   3
ATOM      3  O   UNL     1       1.152   1.383   4.774  1.00  0.00    -0.376 OA
BRANCH   3   4
ATOM      4  C   UNL     1       0.746   1.080   6.098  1.00  0.00     0.202 C 
BRANCH   4   5
ATOM      5  C   UNL     1      -0.705   0.680   6.432  1.00  0.00     0.261 C 
BRANCH   5   6
ATOM      6  O   UNL     1      -1.286  -0.428   5.693  1.00  0.00    -0.463 OA
BRANCH   6   7
ATOM      7  C   UNL     1      -2.284  -0.120   4.820  1.00  0.00     0.316 C 
ATOM      8  O   UNL     1      -2.636   1.035   4.590  1.00  0.00    -0.251 OA
BRANCH   7   9
ATOM      9  C   UNL     1      -3.044  -1.295   4.226  1.00  0.00     0.199 C 
BRANCH   9  10
ATOM     10  S   UNL     1      -2.157  -2.780   3.661  1.00  0.00    -0.094 SA
BRANCH  10  11
ATOM     11  C   UNL     1      -1.530  -2.639   1.966  1.00  0.00     0.104 A 
ATOM     12  C   UNL     1      -0.110  -0.402  -0.717  1.00  0.00     0.067 C 
ATOM     13  C   UNL     1      -0.513  -1.590   0.115  1.00  0.00     0.045 A 
ATOM     14  N   UNL     1       0.145  -2.723  -0.198  1.00  0.00    -0.233 NA
ATOM     15  C   UNL     1      -1.449  -1.507   1.153  1.00  0.00     0.003 A 
ATOM     16  C   UNL     1      -0.124  -3.813   0.528  1.00  0.00     0.160 A 
ATOM     17  C   UNL     1      -2.247  -0.259   1.341  1.00  0.00     0.049 C 
ATOM     18  N   UNL     1      -0.920  -3.809   1.610  1.00  0.00    -0.221 NA
BRANCH  16  19
ATOM     19  C   UNL     1       0.543  -5.057   0.090  1.00  0.00     0.019 A 
ATOM     20  C   UNL     1       1.936  -5.100  -0.098  1.00  0.00     0.012 A 
ATOM     21  C   UNL     1      -0.170  -6.214  -0.256  1.00  0.00     0.012 A 
ATOM     22  C   UNL     1       2.598  -6.218  -0.613  1.00  0.00     0.014 A 
ATOM     23  C   UNL     1       0.484  -7.342  -0.791  1.00  0.00     0.014 A 
ATOM     24  C   UNL     1       1.874  -7.351  -0.982  1.00  0.00     0.056 A 
BRANCH  24  25
ATOM     25  C   UNL     1       2.606  -8.533  -1.571  1.00  0.00     0.416 C 
ATOM     26  F   UNL     1       3.387  -8.187  -2.634  1.00  0.00    -0.166 F 
ATOM     27  F   UNL     1       3.446  -9.123  -0.674  1.00  0.00    -0.166 F 
ATOM     28  F   UNL     1       1.784  -9.521  -2.021  1.00  0.00    -0.166 F 
ENDBRANCH  24  25
ENDBRANCH  16  19
ENDBRANCH  10  11
ENDBRANCH   9  10
ENDBRANCH   7   9
ENDBRANCH   6   7
ENDBRANCH   5   6
ENDBRANCH   4   5
ENDBRANCH   3   4
ENDBRANCH   2   3
ENDBRANCH   1   2
BRANCH   1  29
ATOM     29  O   UNL     1       2.143  -1.538   3.648  1.00  0.00    -0.377 OA
BRANCH  29  30
ATOM     30  C   UNL     1       3.174  -1.041   4.460  1.00  0.00     0.188 C 
BRANCH  30  31
ATOM     31  C   UNL     1       4.179  -0.180   3.691  1.00  0.00     0.188 C 
BRANCH  31  32
ATOM     32  O   UNL     1       3.902   0.299   2.384  1.00  0.00    -0.376 OA
BRANCH  32  33
ATOM     33  C   UNL     1       3.294  -0.528   1.405  1.00  0.00     0.202 C 
BRANCH  33  34
ATOM     34  C   UNL     1       3.766  -1.956   1.111  1.00  0.00     0.261 C 
BRANCH  34  35
ATOM     35  O   UNL     1       4.073  -2.784   2.235  1.00  0.00    -0.460 OA
BRANCH  35  36
ATOM     36  C   UNL     1       5.379  -3.055   2.434  1.00  0.00     0.338 C 
ATOM     37  O   UNL     1       6.326  -2.735   1.734  1.00  0.00    -0.246 OA
BRANCH  36  38
ATOM     38  C   UNL     1       5.518  -3.626   3.784  1.00  0.00     0.060 A 
ATOM     39  C   UNL     1       6.245  -2.882   4.720  1.00  0.00     0.016 A 
ATOM     40  C   UNL     1       4.909  -4.832   4.146  1.00  0.00     0.016 A 
ATOM     41  C   UNL     1       6.343  -3.325   6.031  1.00  0.00     0.010 A 
ATOM     42  C   UNL     1       5.059  -5.309   5.452  1.00  0.00     0.010 A 
ATOM     43  C   UNL     1       5.791  -4.562   6.389  1.00  0.00    -0.014 A 
BRANCH  43  44
ATOM     44  C   UNL     1       6.234  -5.140   7.674  1.00  0.00     0.031 A 
ATOM     45  C   UNL     1       7.547  -5.867   7.678  1.00  0.00     0.074 A 
ATOM     46  C   UNL     1       5.568  -4.898   8.815  1.00  0.00     0.049 A 
ATOM     47  N   UNL     1       8.257  -6.294   8.687  1.00  0.00    -0.248 NA
ATOM     48  C   UNL     1       8.156  -6.120   6.360  1.00  0.00     0.031 C 
ATOM     49  C   UNL     1       4.313  -4.157   8.919  1.00  0.00     0.029 A 
ATOM     50  N   UNL     1       5.876  -5.228  10.110  1.00  0.00    -0.354 N 
ATOM     51  C   UNL     1       9.409  -6.829   8.128  1.00  0.00     0.074 A 
ATOM     52  C   UNL     1       9.288  -6.718   6.693  1.00  0.00     0.031 C 
ATOM     53  C   UNL     1       3.962  -4.078  10.215  1.00  0.00     0.029 A 
ATOM     54  C   UNL     1       4.963  -4.770  11.027  1.00  0.00     0.049 A 
ATOM     55  H   UNL     1       6.677  -5.744  10.359  1.00  0.00     0.167 HD
ATOM     56  C   UNL     1      10.482  -7.351   8.763  1.00  0.00     0.037 A 
ATOM     57  C   UNL     1       4.950  -4.895  12.369  1.00  0.00     0.037 A 
ATOM     58  C   UNL     1      10.573  -7.487  10.189  1.00  0.00     0.049 A 
ATOM     59  C   UNL     1       6.107  -5.585  13.047  1.00  0.00     0.074 A 
ATOM     60  C   UNL     1      11.604  -8.021  10.938  1.00  0.00     0.029 A 
ATOM     61  N   UNL     1       9.582  -7.099  11.079  1.00  0.00    -0.354 N 
ATOM     62  N   UNL     1       7.211  -6.057  12.520  1.00  0.00    -0.248 NA
ATOM     63  C   UNL     1       6.021  -5.757  14.505  1.00  0.00     0.031 C 
ATOM     64  C   UNL     1      11.211  -8.009  12.279  1.00  0.00     0.029 A 
ATOM     65  C   UNL     1       9.961  -7.415  12.371  1.00  0.00     0.049 A 
ATOM     66  H   UNL     1       8.735  -6.664  10.828  1.00  0.00     0.167 HD
ATOM     67  C   UNL     1       7.959  -6.562  13.575  1.00  0.00     0.074 A 
ATOM     68  C   UNL     1       7.187  -6.327  14.779  1.00  0.00     0.031 C 
ATOM     69  C   UNL     1       9.173  -7.165  13.552  1.00  0.00     0.037 A 
BRANCH  56  70
ATOM     70  C   UNL     1      11.619  -7.832   7.915  1.00  0.00     0.064 A 
ATOM     71  C   UNL     1      12.466  -6.936   7.247  1.00  0.00     0.173 A 
ATOM     72  C   UNL     1      11.882  -9.204   7.790  1.00  0.00     0.173 A 
ATOM     73  F   UNL     1      12.243  -5.615   7.318  1.00  0.00    -0.203 F 
ATOM     74  C   UNL     1      13.527  -7.397   6.472  1.00  0.00     0.198 A 
ATOM     75  C   UNL     1      12.959  -9.660   7.036  1.00  0.00     0.198 A 
ATOM     76  F   UNL     1      11.097 -10.101   8.406  1.00  0.00    -0.203 F 
ATOM     77  F   UNL     1      14.301  -6.525   5.811  1.00  0.00    -0.200 F 
ATOM     78  C   UNL     1      13.777  -8.757   6.374  1.00  0.00     0.200 A 
ATOM     79  F   UNL     1      13.204 -10.975   6.949  1.00  0.00    -0.200 F 
ATOM     80  F   UNL     1      14.805  -9.200   5.636  1.00  0.00    -0.200 F 
ENDBRANCH  56  70
BRANCH  57  81
ATOM     81  C   UNL     1       3.813  -4.342  13.151  1.00  0.00     0.064 A 
ATOM     82  C   UNL     1       3.981  -3.241  14.002  1.00  0.00     0.173 A 
ATOM     83  C   UNL     1       2.525  -4.891  13.046  1.00  0.00     0.173 A 
ATOM     84  F   UNL     1       5.195  -2.693  14.156  1.00  0.00    -0.203 F 
ATOM     85  C   UNL     1       2.907  -2.711  14.717  1.00  0.00     0.198 A 
ATOM     86  C   UNL     1       1.448  -4.346  13.741  1.00  0.00     0.198 A 
ATOM     87  F   UNL     1       2.309  -5.948  12.249  1.00  0.00    -0.203 F 
ATOM     88  F   UNL     1       3.100  -1.674  15.543  1.00  0.00    -0.200 F 
ATOM     89  C   UNL     1       1.640  -3.258  14.579  1.00  0.00     0.200 A 
ATOM     90  F   UNL     1       0.223  -4.869  13.594  1.00  0.00    -0.200 F 
ATOM     91  F   UNL     1       0.605  -2.737  15.252  1.00  0.00    -0.200 F 
ENDBRANCH  57  81
BRANCH  69  92
ATOM     92  C   UNL     1       9.759  -7.615  14.857  1.00  0.00     0.064 A 
ATOM     93  C   UNL     1       9.275  -8.753  15.518  1.00  0.00     0.173 A 
ATOM     94  C   UNL     1      10.894  -6.978  15.383  1.00  0.00     0.173 A 
ATOM     95  F   UNL     1       8.188  -9.390  15.059  1.00  0.00    -0.203 F 
ATOM     96  C   UNL     1       9.908  -9.237  16.660  1.00  0.00     0.198 A 
ATOM     97  C   UNL     1      11.540  -7.482  16.507  1.00  0.00     0.198 A 
ATOM     98  F   UNL     1      11.401  -5.893  14.778  1.00  0.00    -0.203 F 
ATOM     99  F   UNL     1       9.419 -10.316  17.287  1.00  0.00    -0.200 F 
ATOM    100  C   UNL     1      11.047  -8.610  17.145  1.00  0.00     0.200 A 
ATOM    101  F   UNL     1      12.652  -6.888  16.961  1.00  0.00    -0.200 F 
ATOM    102  F   UNL     1      11.672  -9.096  18.226  1.00  0.00    -0.200 F 
ENDBRANCH  69  92
ENDBRANCH  43  44
ENDBRANCH  36  38
ENDBRANCH  35  36
ENDBRANCH  34  35
ENDBRANCH  33  34
ENDBRANCH  32  33
ENDBRANCH  31  32
ENDBRANCH  30  31
ENDBRANCH  29  30
ENDBRANCH   1  29
TORSDOF 24
