REMARK SMILES COc1c(C(=O)OCCOCCOCCOCCOC(=O)c2ccc(-c3c4nc(c(-c5c(F)c(F)c(F)c(F)c5F)c5ccc([nH]5)c(-c5c(F)c(F)c(F)c(F)c5F)c5nc(c(-c6c(F)c(F)c(F)c(F)c6F)c6ccc3[nH]6)C=C5)C=C4)cc2)cccc1-c1ccc2ccccc2c1
REMARK SMILES IDX 14 1 13 2 12 3 11 4 10 5 9 6 8 7 7 8 5 9 6 10 4 11 3 12
REMARK SMILES IDX 88 13 85 14 87 15 86 16 2 17 1 18 89 19 90 20 98 21 91 22
REMARK SMILES IDX 97 23 92 24 96 25 93 26 95 27 94 28 15 29 16 30 17 31 18 32
REMARK SMILES IDX 19 33 20 34 21 35 22 36 23 37 84 38 24 39 83 40 25 41 26 42
REMARK SMILES IDX 27 43 77 44 28 45 82 46 76 47 78 48 29 49 81 50 75 51 74 52
REMARK SMILES IDX 30 54 62 55 42 56 61 57 43 58 46 59 60 60 79 61 44 62 45 63
REMARK SMILES IDX 59 65 80 66 47 67 31 68 32 69 40 70 33 71 34 72 38 73 41 74
REMARK SMILES IDX 35 75 36 76 39 77 37 78 63 79 64 80 72 81 65 82 66 83 70 84
REMARK SMILES IDX 73 85 67 86 68 87 71 88 69 89 48 90 49 91 57 92 50 93 51 94
REMARK SMILES IDX 55 95 58 96 52 97 53 98 56 99 54 100
REMARK H PARENT 78 53 46 64
REMARK Flexibility Score: inf
ROOT
ATOM      1  C   UNL     1      -3.292  -0.790   2.526  1.00  0.00     0.188 C 
ENDROOT
BRANCH   1   2
ATOM      2  O   UNL     1      -1.939  -0.414   2.749  1.00  0.00    -0.377 OA
BRANCH   2   3
ATOM      3  C   UNL     1      -1.640   0.736   3.537  1.00  0.00     0.188 C 
BRANCH   3   4
ATOM      4  C   UNL     1      -2.588   1.960   3.591  1.00  0.00     0.188 C 
BRANCH   4   5
ATOM      5  O   UNL     1      -3.800   1.798   2.877  1.00  0.00    -0.376 OA
BRANCH   5   6
ATOM      6  C   UNL     1      -4.028   2.598   1.734  1.00  0.00     0.202 C 
BRANCH   6   7
ATOM      7  C   UNL     1      -3.062   2.451   0.551  1.00  0.00     0.261 C 
BRANCH   7   8
ATOM      8  O   UNL     1      -1.679   2.326   0.903  1.00  0.00    -0.460 OA
BRANCH   8   9
ATOM      9  C   UNL     1      -0.980   3.473   1.083  1.00  0.00     0.342 C 
ATOM     10  O   UNL     1      -1.424   4.606   1.003  1.00  0.00    -0.246 OA
BRANCH   9  11
ATOM     11  C   UNL     1       0.335   3.132   1.678  1.00  0.00     0.102 A 
ATOM     12  C   UNL     1       1.189   2.146   1.147  1.00  0.00     0.141 A 
ATOM     13  C   UNL     1       2.369   1.792   1.843  1.00  0.00     0.025 A 
ATOM     14  C   UNL     1       0.641   3.756   2.898  1.00  0.00     0.019 A 
ATOM     15  C   UNL     1       2.646   2.436   3.067  1.00  0.00     0.012 A 
ATOM     16  C   UNL     1       1.791   3.402   3.595  1.00  0.00     0.002 A 
BRANCH  12  17
ATOM     17  O   UNL     1       0.868   1.615  -0.080  1.00  0.00    -0.495 OA
ATOM     18  C   UNL     1       0.620   0.207  -0.046  1.00  0.00     0.278 C 
ENDBRANCH  12  17
BRANCH  13  19
ATOM     19  C   UNL     1       3.285   0.731   1.398  1.00  0.00    -0.014 A 
ATOM     20  C   UNL     1       3.329  -0.477   2.112  1.00  0.00     0.009 A 
ATOM     21  C   UNL     1       4.102   0.868   0.264  1.00  0.00     0.017 A 
ATOM     22  C   UNL     1       4.109  -1.544   1.672  1.00  0.00     0.009 A 
ATOM     23  C   UNL     1       4.931  -0.188  -0.169  1.00  0.00    -0.018 A 
ATOM     24  C   UNL     1       4.902  -1.419   0.527  1.00  0.00    -0.018 A 
ATOM     25  C   UNL     1       5.791  -0.055  -1.272  1.00  0.00     0.009 A 
ATOM     26  C   UNL     1       5.676  -2.495   0.070  1.00  0.00     0.009 A 
ATOM     27  C   UNL     1       6.597  -1.121  -1.683  1.00  0.00     0.001 A 
ATOM     28  C   UNL     1       6.525  -2.345  -1.025  1.00  0.00     0.001 A 
ENDBRANCH  13  19
ENDBRANCH   9  11
ENDBRANCH   8   9
ENDBRANCH   7   8
ENDBRANCH   6   7
ENDBRANCH   5   6
ENDBRANCH   4   5
ENDBRANCH   3   4
ENDBRANCH   2   3
ENDBRANCH   1   2
BRANCH   1  29
ATOM     29  C   UNL     1      -4.295  -0.762   3.700  1.00  0.00     0.188 C 
BRANCH  29  30
ATOM     30  O   UNL     1      -3.747  -0.259   4.906  1.00  0.00    -0.376 OA
BRANCH  30  31
ATOM     31  C   UNL     1      -3.450  -1.179   5.939  1.00  0.00     0.202 C 
BRANCH  31  32
ATOM     32  C   UNL     1      -2.499  -2.349   5.646  1.00  0.00     0.261 C 
BRANCH  32  33
ATOM     33  O   UNL     1      -2.727  -3.088   4.439  1.00  0.00    -0.460 OA
BRANCH  33  34
ATOM     34  C   UNL     1      -3.825  -3.875   4.380  1.00  0.00     0.338 C 
ATOM     35  O   UNL     1      -4.677  -4.023   5.226  1.00  0.00    -0.246 OA
BRANCH  34  36
ATOM     36  C   UNL     1      -3.889  -4.404   2.999  1.00  0.00     0.060 A 
ATOM     37  C   UNL     1      -4.963  -4.052   2.170  1.00  0.00     0.016 A 
ATOM     38  C   UNL     1      -2.862  -5.221   2.523  1.00  0.00     0.016 A 
ATOM     39  C   UNL     1      -5.018  -4.533   0.860  1.00  0.00     0.010 A 
ATOM     40  C   UNL     1      -2.930  -5.719   1.223  1.00  0.00     0.010 A 
ATOM     41  C   UNL     1      -4.021  -5.400   0.395  1.00  0.00    -0.014 A 
BRANCH  41  42
ATOM     42  C   UNL     1      -4.195  -6.133  -0.881  1.00  0.00     0.031 A 
ATOM     43  C   UNL     1      -4.678  -7.552  -0.821  1.00  0.00     0.074 A 
ATOM     44  C   UNL     1      -3.888  -5.569  -2.061  1.00  0.00     0.049 A 
ATOM     45  N   UNL     1      -4.783  -8.441  -1.774  1.00  0.00    -0.248 NA
ATOM     46  C   UNL     1      -5.082  -8.039   0.507  1.00  0.00     0.031 C 
ATOM     47  C   UNL     1      -3.435  -4.195  -2.247  1.00  0.00     0.029 A 
ATOM     48  N   UNL     1      -3.884  -6.106  -3.325  1.00  0.00    -0.354 N 
ATOM     49  C   UNL     1      -5.242  -9.597  -1.158  1.00  0.00     0.074 A 
ATOM     50  C   UNL     1      -5.369  -9.306   0.253  1.00  0.00     0.031 C 
ATOM     51  C   UNL     1      -3.162  -4.002  -3.549  1.00  0.00     0.029 A 
ATOM     52  C   UNL     1      -3.383  -5.252  -4.276  1.00  0.00     0.049 A 
ATOM     53  H   UNL     1      -4.207  -7.013  -3.529  1.00  0.00     0.167 HD
ATOM     54  C   UNL     1      -5.532 -10.794  -1.722  1.00  0.00     0.037 A 
ATOM     55  C   UNL     1      -3.098  -5.471  -5.575  1.00  0.00     0.037 A 
ATOM     56  C   UNL     1      -5.394 -11.075  -3.126  1.00  0.00     0.049 A 
ATOM     57  C   UNL     1      -3.375  -6.826  -6.176  1.00  0.00     0.074 A 
ATOM     58  C   UNL     1      -5.699 -12.240  -3.807  1.00  0.00     0.029 A 
ATOM     59  N   UNL     1      -4.887 -10.185  -4.064  1.00  0.00    -0.354 N 
ATOM     60  N   UNL     1      -3.849  -7.906  -5.602  1.00  0.00    -0.248 NA
ATOM     61  C   UNL     1      -3.082  -6.990  -7.607  1.00  0.00     0.031 C 
ATOM     62  C   UNL     1      -5.308 -12.080  -5.141  1.00  0.00     0.029 A 
ATOM     63  C   UNL     1      -4.833 -10.788  -5.310  1.00  0.00     0.049 A 
ATOM     64  H   UNL     1      -4.607  -9.261  -3.871  1.00  0.00     0.167 HD
ATOM     65  C   UNL     1      -3.937  -8.867  -6.603  1.00  0.00     0.074 A 
ATOM     66  C   UNL     1      -3.475  -8.238  -7.823  1.00  0.00     0.031 C 
ATOM     67  C   UNL     1      -4.368 -10.151  -6.519  1.00  0.00     0.037 A 
BRANCH  54  68
ATOM     68  C   UNL     1      -5.970 -11.899  -0.802  1.00  0.00     0.064 A 
ATOM     69  C   UNL     1      -7.189 -11.855  -0.108  1.00  0.00     0.173 A 
ATOM     70  C   UNL     1      -5.145 -13.017  -0.601  1.00  0.00     0.173 A 
ATOM     71  F   UNL     1      -8.011 -10.803  -0.250  1.00  0.00    -0.203 F 
ATOM     72  C   UNL     1      -7.543 -12.862   0.787  1.00  0.00     0.198 A 
ATOM     73  C   UNL     1      -5.520 -14.041   0.264  1.00  0.00     0.198 A 
ATOM     74  F   UNL     1      -3.970 -13.116  -1.241  1.00  0.00    -0.203 F 
ATOM     75  F   UNL     1      -8.676 -12.759   1.495  1.00  0.00    -0.200 F 
ATOM     76  C   UNL     1      -6.711 -13.956   0.969  1.00  0.00     0.200 A 
ATOM     77  F   UNL     1      -4.721 -15.105   0.425  1.00  0.00    -0.200 F 
ATOM     78  F   UNL     1      -7.050 -14.923   1.833  1.00  0.00    -0.200 F 
ENDBRANCH  54  68
BRANCH  55  79
ATOM     79  C   UNL     1      -2.495  -4.380  -6.383  1.00  0.00     0.064 A 
ATOM     80  C   UNL     1      -3.218  -3.742  -7.399  1.00  0.00     0.173 A 
ATOM     81  C   UNL     1      -1.187  -3.935  -6.135  1.00  0.00     0.173 A 
ATOM     82  F   UNL     1      -4.462  -4.148  -7.692  1.00  0.00    -0.203 F 
ATOM     83  C   UNL     1      -2.655  -2.704  -8.140  1.00  0.00     0.198 A 
ATOM     84  C   UNL     1      -0.635  -2.879  -6.857  1.00  0.00     0.198 A 
ATOM     85  F   UNL     1      -0.452  -4.514  -5.175  1.00  0.00    -0.203 F 
ATOM     86  F   UNL     1      -3.356  -2.134  -9.130  1.00  0.00    -0.200 F 
ATOM     87  C   UNL     1      -1.368  -2.267  -7.862  1.00  0.00     0.200 A 
ATOM     88  F   UNL     1       0.603  -2.451  -6.574  1.00  0.00    -0.200 F 
ATOM     89  F   UNL     1      -0.834  -1.259  -8.564  1.00  0.00    -0.200 F 
ENDBRANCH  55  79
BRANCH  67  90
ATOM     90  C   UNL     1      -4.403 -10.959  -7.787  1.00  0.00     0.064 A 
ATOM     91  C   UNL     1      -3.231 -11.388  -8.428  1.00  0.00     0.173 A 
ATOM     92  C   UNL     1      -5.632 -11.355  -8.339  1.00  0.00     0.173 A 
ATOM     93  F   UNL     1      -2.030 -11.029  -7.951  1.00  0.00    -0.203 F 
ATOM     94  C   UNL     1      -3.290 -12.160  -9.587  1.00  0.00     0.198 A 
ATOM     95  C   UNL     1      -5.686 -12.157  -9.475  1.00  0.00     0.198 A 
ATOM     96  F   UNL     1      -6.784 -10.981  -7.762  1.00  0.00    -0.203 F 
ATOM     97  F   UNL     1      -2.158 -12.517 -10.210  1.00  0.00    -0.200 F 
ATOM     98  C   UNL     1      -4.516 -12.552 -10.103  1.00  0.00     0.200 A 
ATOM     99  F   UNL     1      -6.872 -12.549  -9.961  1.00  0.00    -0.200 F 
ATOM    100  F   UNL     1      -4.569 -13.305 -11.210  1.00  0.00    -0.200 F 
ENDBRANCH  67  90
ENDBRANCH  41  42
ENDBRANCH  34  36
ENDBRANCH  33  34
ENDBRANCH  32  33
ENDBRANCH  31  32
ENDBRANCH  30  31
ENDBRANCH  29  30
ENDBRANCH   1  29
TORSDOF 22
