REMARK SMILES COC(=O)c1ccc(C)c(NC(=O)[C@H]2CC=CC[C@H]2C(=O)OCCOCCOCCOCCOC(=O)c2ccc(-c3c4nc(c(-c5c(F)c(F)c(F)c(F)c5F)c5ccc([nH]5)c(-c5c(F)c(F)c(F)c(F)c5F)c5nc(c(-c6c(F)c(F)c(F)c(F)c6F)c6ccc3[nH]6)C=C5)C=C4)cc2)c1
REMARK SMILES IDX 27 1 26 2 25 3 24 4 23 5 22 6 20 7 21 8 19 9 14 10 15 11
REMARK SMILES IDX 16 12 18 13 17 14 12 15 11 16 13 18 10 19 5 20 6 21 100 22
REMARK SMILES IDX 7 23 8 24 9 25 3 26 4 27 2 28 1 29 28 30 29 31 30 32 31 33
REMARK SMILES IDX 32 34 33 35 34 36 35 37 36 38 37 39 38 40 99 41 39 42 98 43
REMARK SMILES IDX 40 44 41 45 42 46 92 47 43 48 97 49 91 50 93 51 44 52 96 53
REMARK SMILES IDX 90 54 89 55 45 57 77 58 57 59 76 60 58 61 61 62 75 63 94 64
REMARK SMILES IDX 59 65 60 66 74 68 95 69 62 70 46 71 47 72 55 73 48 74 49 75
REMARK SMILES IDX 53 76 56 77 50 78 51 79 54 80 52 81 78 82 79 83 87 84 80 85
REMARK SMILES IDX 81 86 85 87 88 88 82 89 83 90 86 91 84 92 63 93 64 94 72 95
REMARK SMILES IDX 65 96 66 97 70 98 73 99 67 100 68 101 71 102 69 103
REMARK H PARENT 11 17 93 56 61 67
REMARK Flexibility Score: inf
ROOT
ATOM      1  C   UNL     1       8.259   3.631  -4.177  1.00  0.00     0.188 C 
ENDROOT
BRANCH   1   2
ATOM      2  C   UNL     1       7.466   5.118  -4.225  1.00  0.00     0.188 C 
BRANCH   2   3
ATOM      3  O   UNL     1       5.759   5.648  -4.016  1.00  0.00    -0.376 OA
BRANCH   3   4
ATOM      4  C   UNL     1       4.336   4.990  -3.135  1.00  0.00     0.202 C 
BRANCH   4   5
ATOM      5  C   UNL     1       3.901   3.145  -2.751  1.00  0.00     0.261 C 
BRANCH   5   6
ATOM      6  O   UNL     1       4.578   1.586  -3.468  1.00  0.00    -0.463 OA
BRANCH   6   7
ATOM      7  C   UNL     1       5.280   0.959  -4.617  1.00  0.00     0.310 C 
ATOM      8  O   UNL     1       5.186   1.371  -5.786  1.00  0.00    -0.252 OA
BRANCH   7   9
ATOM      9  C   UNL     1       6.557  -0.272  -4.507  1.00  0.00     0.116 C 
ATOM     10  C   UNL     1       7.227  -0.623  -3.217  1.00  0.00     0.097 C 
ATOM     11  C   UNL     1       8.616  -1.281  -3.346  1.00  0.00     0.041 C 
ATOM     12  C   UNL     1       8.502  -2.629  -3.929  1.00  0.00    -0.030 C 
ATOM     13  C   UNL     1       6.599  -1.709  -5.282  1.00  0.00     0.043 C 
ATOM     14  C   UNL     1       7.538  -2.824  -4.829  1.00  0.00    -0.030 C 
BRANCH  10  15
ATOM     15  C   UNL     1       6.233  -1.451  -2.425  1.00  0.00     0.228 C 
ATOM     16  N   UNL     1       4.928  -1.733  -2.690  1.00  0.00    -0.326 N 
ATOM     17  H   UNL     1       4.604  -2.074  -1.825  1.00  0.00     0.169 HD
ATOM     18  O   UNL     1       6.610  -1.868  -1.313  1.00  0.00    -0.274 OA
BRANCH  16  19
ATOM     19  C   UNL     1       3.744  -1.817  -3.523  1.00  0.00     0.044 A 
ATOM     20  C   UNL     1       1.388  -2.565  -3.062  1.00  0.00     0.062 A 
ATOM     21  C   UNL     1       1.087  -2.634  -4.399  1.00  0.00     0.016 A 
ATOM     22  C   UNL     1       2.680  -2.186  -2.656  1.00  0.00     0.042 A 
ATOM     23  C   UNL     1       2.052  -2.200  -5.285  1.00  0.00     0.006 A 
ATOM     24  C   UNL     1       3.348  -1.708  -4.894  1.00  0.00    -0.027 A 
ATOM     25  C   UNL     1       3.922  -1.138  -6.179  1.00  0.00     0.046 C 
BRANCH  20  26
ATOM     26  C   UNL     1       0.296  -2.587  -2.070  1.00  0.00     0.337 C 
ATOM     27  O   UNL     1      -0.844  -2.184  -2.302  1.00  0.00    -0.246 OA
BRANCH  26  28
ATOM     28  O   UNL     1       0.811  -2.871  -0.856  1.00  0.00    -0.465 OA
ATOM     29  C   UNL     1       0.470  -1.892   0.121  1.00  0.00     0.282 C 
ENDBRANCH  26  28
ENDBRANCH  20  26
ENDBRANCH  16  19
ENDBRANCH  10  15
ENDBRANCH   7   9
ENDBRANCH   6   7
ENDBRANCH   5   6
ENDBRANCH   4   5
ENDBRANCH   3   4
ENDBRANCH   2   3
ENDBRANCH   1   2
BRANCH   1  30
ATOM     30  O   UNL     1       8.606   2.772  -3.066  1.00  0.00    -0.377 OA
BRANCH  30  31
ATOM     31  C   UNL     1       9.113   3.139  -1.788  1.00  0.00     0.188 C 
BRANCH  31  32
ATOM     32  C   UNL     1      10.252   4.104  -1.621  1.00  0.00     0.188 C 
BRANCH  32  33
ATOM     33  O   UNL     1      10.171   5.088  -2.627  1.00  0.00    -0.376 OA
BRANCH  33  34
ATOM     34  C   UNL     1      11.399   5.770  -2.824  1.00  0.00     0.202 C 
BRANCH  34  35
ATOM     35  C   UNL     1      11.767   6.663  -1.632  1.00  0.00     0.261 C 
BRANCH  35  36
ATOM     36  O   UNL     1      10.673   7.570  -1.375  1.00  0.00    -0.460 OA
BRANCH  36  37
ATOM     37  C   UNL     1       9.994   7.365  -0.209  1.00  0.00     0.338 C 
ATOM     38  O   UNL     1      10.490   7.068   0.865  1.00  0.00    -0.246 OA
BRANCH  37  39
ATOM     39  C   UNL     1       8.557   7.173  -0.537  1.00  0.00     0.060 A 
ATOM     40  C   UNL     1       7.754   6.364   0.241  1.00  0.00     0.016 A 
ATOM     41  C   UNL     1       8.033   7.537  -1.744  1.00  0.00     0.016 A 
ATOM     42  C   UNL     1       6.759   5.567  -0.379  1.00  0.00     0.010 A 
ATOM     43  C   UNL     1       6.989   6.757  -2.273  1.00  0.00     0.010 A 
ATOM     44  C   UNL     1       6.624   5.455  -1.773  1.00  0.00    -0.014 A 
BRANCH  44  45
ATOM     45  C   UNL     1       6.202   3.876  -2.655  1.00  0.00     0.031 A 
ATOM     46  C   UNL     1       5.472   3.665  -4.515  1.00  0.00     0.074 A 
ATOM     47  C   UNL     1       6.198   2.923  -1.625  1.00  0.00     0.049 A 
ATOM     48  N   UNL     1       4.169   3.311  -4.761  1.00  0.00    -0.248 NA
ATOM     49  C   UNL     1       5.633   4.395  -5.955  1.00  0.00     0.031 C 
ATOM     50  C   UNL     1       5.973   1.520  -1.664  1.00  0.00     0.029 A 
ATOM     51  N   UNL     1       6.097   3.051  -0.228  1.00  0.00    -0.354 N 
ATOM     52  C   UNL     1       3.470   3.691  -5.859  1.00  0.00     0.074 A 
ATOM     53  C   UNL     1       4.441   4.410  -6.594  1.00  0.00     0.031 C 
ATOM     54  C   UNL     1       5.307   1.004  -0.639  1.00  0.00     0.029 A 
ATOM     55  C   UNL     1       5.228   2.081   0.263  1.00  0.00     0.049 A 
ATOM     56  H   UNL     1       6.567   3.722   0.318  1.00  0.00     0.167 HD
ATOM     57  C   UNL     1       2.125   3.445  -6.012  1.00  0.00     0.037 A 
ATOM     58  C   UNL     1       4.491   1.998   1.372  1.00  0.00     0.037 A 
ATOM     59  C   UNL     1       1.475   2.597  -4.987  1.00  0.00     0.049 A 
ATOM     60  C   UNL     1       3.017   2.008   0.942  1.00  0.00     0.074 A 
ATOM     61  C   UNL     1       1.298   1.229  -4.954  1.00  0.00     0.029 A 
ATOM     62  N   UNL     1       0.976   3.037  -3.737  1.00  0.00    -0.354 N 
ATOM     63  N   UNL     1       2.559   1.954  -0.304  1.00  0.00    -0.248 NA
ATOM     64  C   UNL     1       1.931   2.116   1.904  1.00  0.00     0.031 C 
ATOM     65  C   UNL     1       0.931   0.839  -3.650  1.00  0.00     0.029 A 
ATOM     66  C   UNL     1       0.840   1.944  -2.829  1.00  0.00     0.049 A 
ATOM     67  H   UNL     1       0.753   3.971  -3.523  1.00  0.00     0.167 HD
ATOM     68  C   UNL     1       1.172   2.057  -0.328  1.00  0.00     0.074 A 
ATOM     69  C   UNL     1       0.855   2.180   1.098  1.00  0.00     0.031 C 
ATOM     70  C   UNL     1       0.330   2.022  -1.436  1.00  0.00     0.037 A 
BRANCH  57  71
ATOM     71  C   UNL     1       1.524   3.720  -7.374  1.00  0.00     0.064 A 
ATOM     72  C   UNL     1       1.067   2.669  -8.195  1.00  0.00     0.173 A 
ATOM     73  C   UNL     1       1.522   4.999  -7.962  1.00  0.00     0.173 A 
ATOM     74  F   UNL     1       0.985   1.414  -7.737  1.00  0.00    -0.203 F 
ATOM     75  C   UNL     1       0.729   2.864  -9.537  1.00  0.00     0.198 A 
ATOM     76  C   UNL     1       1.206   5.189  -9.315  1.00  0.00     0.198 A 
ATOM     77  F   UNL     1       1.879   6.074  -7.242  1.00  0.00    -0.203 F 
ATOM     78  F   UNL     1       0.347   1.820 -10.287  1.00  0.00    -0.200 F 
ATOM     79  C   UNL     1       0.831   4.118 -10.107  1.00  0.00     0.200 A 
ATOM     80  F   UNL     1       1.310   6.409  -9.864  1.00  0.00    -0.200 F 
ATOM     81  F   UNL     1       0.585   4.287 -11.414  1.00  0.00    -0.200 F 
ENDBRANCH  57  71
BRANCH  58  82
ATOM     82  C   UNL     1       5.380   2.376   2.511  1.00  0.00     0.064 A 
ATOM     83  C   UNL     1       6.489   1.482   2.675  1.00  0.00     0.173 A 
ATOM     84  C   UNL     1       5.621   3.714   2.834  1.00  0.00     0.173 A 
ATOM     85  F   UNL     1       6.335   0.179   2.385  1.00  0.00    -0.203 F 
ATOM     86  C   UNL     1       7.795   1.949   2.854  1.00  0.00     0.198 A 
ATOM     87  C   UNL     1       6.928   4.165   3.094  1.00  0.00     0.198 A 
ATOM     88  F   UNL     1       4.647   4.621   2.683  1.00  0.00    -0.203 F 
ATOM     89  F   UNL     1       8.837   1.115   2.716  1.00  0.00    -0.200 F 
ATOM     90  C   UNL     1       8.016   3.301   3.019  1.00  0.00     0.200 A 
ATOM     91  F   UNL     1       7.151   5.473   3.275  1.00  0.00    -0.200 F 
ATOM     92  F   UNL     1       9.269   3.782   3.017  1.00  0.00    -0.200 F 
ENDBRANCH  58  82
BRANCH  70  93
ATOM     93  C   UNL     1      -1.190   1.786  -1.336  1.00  0.00     0.064 A 
ATOM     94  C   UNL     1      -1.829   1.070  -0.307  1.00  0.00     0.173 A 
ATOM     95  C   UNL     1      -2.030   2.100  -2.438  1.00  0.00     0.173 A 
ATOM     96  F   UNL     1      -1.148   0.565   0.730  1.00  0.00    -0.203 F 
ATOM     97  C   UNL     1      -3.200   0.785  -0.330  1.00  0.00     0.198 A 
ATOM     98  C   UNL     1      -3.374   1.732  -2.501  1.00  0.00     0.198 A 
ATOM     99  F   UNL     1      -1.573   2.776  -3.502  1.00  0.00    -0.203 F 
ATOM    100  F   UNL     1      -3.766   0.182   0.725  1.00  0.00    -0.200 F 
ATOM    101  C   UNL     1      -3.969   1.103  -1.431  1.00  0.00     0.200 A 
ATOM    102  F   UNL     1      -4.085   2.000  -3.605  1.00  0.00    -0.200 F 
ATOM    103  F   UNL     1      -5.274   0.807  -1.460  1.00  0.00    -0.200 F 
ENDBRANCH  70  93
ENDBRANCH  44  45
ENDBRANCH  37  39
ENDBRANCH  36  37
ENDBRANCH  35  36
ENDBRANCH  34  35
ENDBRANCH  33  34
ENDBRANCH  32  33
ENDBRANCH  31  32
ENDBRANCH  30  31
ENDBRANCH   1  30
TORSDOF 24
