REMARK SMILES C[C@H](NC(=O)OCc1ccccc1)C(=O)NCC(=O)N1CCC[C@H]1C(=O)OCCOCCOCCOCCOC(=O)c1ccc(-c2c3nc(c(-c4c(F)c(F)c(F)c(F)c4F)c4ccc([nH]4)c(-c4c(F)c(F)c(F)c(F)c4F)c4nc(c(-c5c(F)c(F)c(F)c(F)c5F)c5ccc2[nH]5)C=C4)C=C3)cc1
REMARK SMILES IDX 30 1 29 2 28 3 27 4 25 5 26 6 24 7 20 8 21 9 22 10 23 11
REMARK SMILES IDX 18 12 19 13 17 14 16 15 14 16 15 17 2 19 1 20 3 21 4 22 5 24
REMARK SMILES IDX 6 25 7 26 8 27 9 28 13 29 10 30 12 31 11 32 31 33 32 34
REMARK SMILES IDX 33 35 34 36 35 37 36 38 37 39 38 40 39 41 40 42 41 43 42 44
REMARK SMILES IDX 43 45 104 46 44 47 103 48 45 49 46 50 47 51 97 52 48 53
REMARK SMILES IDX 102 54 96 55 98 56 49 57 101 58 95 59 94 60 50 62 82 63
REMARK SMILES IDX 62 64 81 65 63 66 66 67 80 68 99 69 64 70 65 71 79 73 100 74
REMARK SMILES IDX 67 75 51 76 52 77 60 78 53 79 54 80 58 81 61 82 55 83 56 84
REMARK SMILES IDX 59 85 57 86 83 87 84 88 92 89 85 90 86 91 90 92 93 93 87 94
REMARK SMILES IDX 88 95 91 96 89 97 68 98 69 99 77 100 70 101 71 102 75 103
REMARK SMILES IDX 78 104 72 105 73 106 76 107 74 108
REMARK H PARENT 16 18 3 23 98 61 66 72
REMARK Flexibility Score: inf
ROOT
ATOM      1  O   UNL     1      -2.619   0.168  -7.155  1.00  0.00    -0.376 OA
ENDROOT
BRANCH   1   2
ATOM      2  C   UNL     1      -3.594  -0.810  -6.868  1.00  0.00     0.202 C 
BRANCH   2   3
ATOM      3  C   UNL     1      -4.147  -0.855  -5.437  1.00  0.00     0.261 C 
BRANCH   3   4
ATOM      4  O   UNL     1      -3.177  -0.746  -4.393  1.00  0.00    -0.462 OA
BRANCH   4   5
ATOM      5  C   UNL     1      -2.353  -1.804  -4.203  1.00  0.00     0.328 C 
ATOM      6  O   UNL     1      -2.429  -2.839  -4.856  1.00  0.00    -0.250 OA
BRANCH   5   7
ATOM      7  C   UNL     1      -1.177  -1.434  -3.271  1.00  0.00     0.195 C 
ATOM      8  N   UNL     1      -1.479  -0.747  -2.003  1.00  0.00    -0.327 N 
ATOM      9  C   UNL     1      -1.436  -1.713  -0.933  1.00  0.00     0.120 C 
ATOM     10  C   UNL     1      -0.410  -2.744  -1.368  1.00  0.00     0.024 C 
ATOM     11  C   UNL     1      -0.377  -2.682  -2.885  1.00  0.00     0.039 C 
BRANCH   8  12
ATOM     12  C   UNL     1      -1.797   0.595  -1.946  1.00  0.00     0.242 C 
ATOM     13  O   UNL     1      -2.140   1.214  -2.958  1.00  0.00    -0.273 OA
BRANCH  12  14
ATOM     14  C   UNL     1      -1.518   1.460  -0.704  1.00  0.00     0.216 C 
BRANCH  14  15
ATOM     15  N   UNL     1      -1.707   0.936   0.625  1.00  0.00    -0.345 N 
ATOM     16  C   UNL     1      -0.809   0.636   1.599  1.00  0.00     0.242 C 
ATOM     17  O   UNL     1      -1.280   0.325   2.699  1.00  0.00    -0.273 OA
ATOM     18  H   UNL     1      -2.646   0.766   0.868  1.00  0.00     0.164 HD
BRANCH  16  19
ATOM     19  C   UNL     1       0.725   0.764   1.422  1.00  0.00     0.171 C 
ATOM     20  C   UNL     1       1.180   2.182   1.728  1.00  0.00     0.042 C 
BRANCH  19  21
ATOM     21  N   UNL     1       1.243   0.142   0.202  1.00  0.00    -0.310 N 
ATOM     22  C   UNL     1       1.718   0.658  -0.960  1.00  0.00     0.408 C 
ATOM     23  H   UNL     1       1.247  -0.842   0.229  1.00  0.00     0.167 HD
ATOM     24  O   UNL     1       1.864  -0.069  -1.943  1.00  0.00    -0.225 OA
BRANCH  22  25
ATOM     25  O   UNL     1       1.961   1.982  -0.920  1.00  0.00    -0.445 OA
BRANCH  25  26
ATOM     26  C   UNL     1       2.359   2.585  -2.159  1.00  0.00     0.270 C 
BRANCH  26  27
ATOM     27  C   UNL     1       3.781   2.252  -2.537  1.00  0.00    -0.011 A 
ATOM     28  C   UNL     1       4.834   2.446  -1.632  1.00  0.00     0.007 A 
ATOM     29  C   UNL     1       4.066   1.744  -3.812  1.00  0.00     0.007 A 
ATOM     30  C   UNL     1       6.143   2.123  -1.993  1.00  0.00     0.000 A 
ATOM     31  C   UNL     1       5.374   1.422  -4.171  1.00  0.00     0.000 A 
ATOM     32  C   UNL     1       6.412   1.610  -3.261  1.00  0.00     0.000 A 
ENDBRANCH  26  27
ENDBRANCH  25  26
ENDBRANCH  22  25
ENDBRANCH  19  21
ENDBRANCH  16  19
ENDBRANCH  14  15
ENDBRANCH  12  14
ENDBRANCH   8  12
ENDBRANCH   5   7
ENDBRANCH   4   5
ENDBRANCH   3   4
ENDBRANCH   2   3
ENDBRANCH   1   2
BRANCH   1  33
ATOM     33  C   UNL     1      -1.288   0.049  -6.686  1.00  0.00     0.188 C 
BRANCH  33  34
ATOM     34  C   UNL     1      -0.824   1.203  -5.760  1.00  0.00     0.188 C 
BRANCH  34  35
ATOM     35  O   UNL     1      -1.398   2.505  -5.768  1.00  0.00    -0.377 OA
BRANCH  35  36
ATOM     36  C   UNL     1      -2.676   2.658  -6.360  1.00  0.00     0.188 C 
BRANCH  36  37
ATOM     37  C   UNL     1      -2.585   2.776  -7.894  1.00  0.00     0.188 C 
BRANCH  37  38
ATOM     38  O   UNL     1      -1.322   2.402  -8.420  1.00  0.00    -0.376 OA
BRANCH  38  39
ATOM     39  C   UNL     1      -0.240   3.321  -8.397  1.00  0.00     0.202 C 
BRANCH  39  40
ATOM     40  C   UNL     1      -0.065   4.495  -7.403  1.00  0.00     0.261 C 
BRANCH  40  41
ATOM     41  O   UNL     1      -1.220   5.101  -6.812  1.00  0.00    -0.460 OA
BRANCH  41  42
ATOM     42  C   UNL     1      -1.988   5.900  -7.576  1.00  0.00     0.338 C 
ATOM     43  O   UNL     1      -1.816   6.197  -8.742  1.00  0.00    -0.246 OA
BRANCH  42  44
ATOM     44  C   UNL     1      -3.210   6.203  -6.793  1.00  0.00     0.060 A 
ATOM     45  C   UNL     1      -4.452   5.769  -7.276  1.00  0.00     0.016 A 
ATOM     46  C   UNL     1      -3.128   6.892  -5.580  1.00  0.00     0.016 A 
ATOM     47  C   UNL     1      -5.620   6.055  -6.567  1.00  0.00     0.010 A 
ATOM     48  C   UNL     1      -4.301   7.207  -4.887  1.00  0.00     0.010 A 
ATOM     49  C   UNL     1      -5.554   6.822  -5.398  1.00  0.00    -0.014 A 
BRANCH  49  50
ATOM     50  C   UNL     1      -6.797   7.411  -4.843  1.00  0.00     0.031 A 
ATOM     51  C   UNL     1      -7.134   8.828  -5.222  1.00  0.00     0.074 A 
ATOM     52  C   UNL     1      -7.631   6.702  -4.062  1.00  0.00     0.049 A 
ATOM     53  N   UNL     1      -8.124   9.586  -4.826  1.00  0.00    -0.248 NA
ATOM     54  C   UNL     1      -6.226   9.479  -6.183  1.00  0.00     0.031 C 
ATOM     55  C   UNL     1      -7.450   5.304  -3.678  1.00  0.00     0.029 A 
ATOM     56  N   UNL     1      -8.801   7.073  -3.446  1.00  0.00    -0.354 N 
ATOM     57  C   UNL     1      -7.960  10.795  -5.490  1.00  0.00     0.074 A 
ATOM     58  C   UNL     1      -6.754  10.689  -6.281  1.00  0.00     0.031 C 
ATOM     59  C   UNL     1      -8.469   4.937  -2.880  1.00  0.00     0.029 A 
ATOM     60  C   UNL     1      -9.351   6.084  -2.667  1.00  0.00     0.049 A 
ATOM     61  H   UNL     1      -9.208   7.963  -3.553  1.00  0.00     0.167 HD
ATOM     62  C   UNL     1      -8.753  11.892  -5.456  1.00  0.00     0.037 A 
ATOM     63  C   UNL     1     -10.427   6.119  -1.855  1.00  0.00     0.037 A 
ATOM     64  C   UNL     1      -9.946  12.001  -4.661  1.00  0.00     0.049 A 
ATOM     65  C   UNL     1     -11.225   7.397  -1.744  1.00  0.00     0.074 A 
ATOM     66  C   UNL     1     -10.807  13.077  -4.539  1.00  0.00     0.029 A 
ATOM     67  N   UNL     1     -10.444  10.994  -3.847  1.00  0.00    -0.354 N 
ATOM     68  N   UNL     1     -11.070   8.535  -2.379  1.00  0.00    -0.248 NA
ATOM     69  C   UNL     1     -12.354   7.393  -0.801  1.00  0.00     0.031 C 
ATOM     70  C   UNL     1     -11.797  12.741  -3.611  1.00  0.00     0.029 A 
ATOM     71  C   UNL     1     -11.591  11.432  -3.205  1.00  0.00     0.049 A 
ATOM     72  H   UNL     1     -10.043  10.102  -3.741  1.00  0.00     0.167 HD
ATOM     73  C   UNL     1     -12.103   9.359  -1.947  1.00  0.00     0.074 A 
ATOM     74  C   UNL     1     -12.887   8.588  -1.008  1.00  0.00     0.031 C 
ATOM     75  C   UNL     1     -12.379  10.641  -2.296  1.00  0.00     0.037 A 
BRANCH  62  76
ATOM     76  C   UNL     1      -8.347  13.070  -6.293  1.00  0.00     0.064 A 
ATOM     77  C   UNL     1      -8.430  13.039  -7.694  1.00  0.00     0.173 A 
ATOM     78  C   UNL     1      -7.915  14.259  -5.687  1.00  0.00     0.173 A 
ATOM     79  F   UNL     1      -8.822  11.921  -8.323  1.00  0.00    -0.203 F 
ATOM     80  C   UNL     1      -8.079  14.150  -8.456  1.00  0.00     0.198 A 
ATOM     81  C   UNL     1      -7.596  15.378  -6.452  1.00  0.00     0.198 A 
ATOM     82  F   UNL     1      -7.819  14.343  -4.352  1.00  0.00    -0.203 F 
ATOM     83  F   UNL     1      -8.127  14.084  -9.794  1.00  0.00    -0.200 F 
ATOM     84  C   UNL     1      -7.673  15.321  -7.835  1.00  0.00     0.200 A 
ATOM     85  F   UNL     1      -7.218  16.514  -5.849  1.00  0.00    -0.200 F 
ATOM     86  F   UNL     1      -7.351  16.395  -8.570  1.00  0.00    -0.200 F 
ENDBRANCH  62  76
BRANCH  63  87
ATOM     87  C   UNL     1     -10.816   4.924  -1.055  1.00  0.00     0.064 A 
ATOM     88  C   UNL     1     -12.049   4.287  -1.258  1.00  0.00     0.173 A 
ATOM     89  C   UNL     1     -10.000   4.442  -0.021  1.00  0.00     0.173 A 
ATOM     90  F   UNL     1     -12.880   4.726  -2.216  1.00  0.00    -0.203 F 
ATOM     91  C   UNL     1     -12.469   3.246  -0.432  1.00  0.00     0.198 A 
ATOM     92  C   UNL     1     -10.404   3.375   0.780  1.00  0.00     0.198 A 
ATOM     93  F   UNL     1      -8.812   5.014   0.222  1.00  0.00    -0.203 F 
ATOM     94  F   UNL     1     -13.686   2.710  -0.599  1.00  0.00    -0.200 F 
ATOM     95  C   UNL     1     -11.645   2.789   0.585  1.00  0.00     0.200 A 
ATOM     96  F   UNL     1      -9.598   2.928   1.753  1.00  0.00    -0.200 F 
ATOM     97  F   UNL     1     -12.053   1.795   1.386  1.00  0.00    -0.200 F 
ENDBRANCH  63  87
BRANCH  75  98
ATOM     98  C   UNL     1     -13.614  11.270  -1.715  1.00  0.00     0.064 A 
ATOM     99  C   UNL     1     -13.711  11.603  -0.356  1.00  0.00     0.173 A 
ATOM    100  C   UNL     1     -14.704  11.582  -2.544  1.00  0.00     0.173 A 
ATOM    101  F   UNL     1     -12.704  11.316   0.483  1.00  0.00    -0.203 F 
ATOM    102  C   UNL     1     -14.864  12.193   0.157  1.00  0.00     0.198 A 
ATOM    103  C   UNL     1     -15.839  12.207  -2.035  1.00  0.00     0.198 A 
ATOM    104  F   UNL     1     -14.661  11.296  -3.854  1.00  0.00    -0.203 F 
ATOM    105  F   UNL     1     -14.956  12.449   1.470  1.00  0.00    -0.200 F 
ATOM    106  C   UNL     1     -15.923  12.502  -0.684  1.00  0.00     0.200 A 
ATOM    107  F   UNL     1     -16.852  12.522  -2.854  1.00  0.00    -0.200 F 
ATOM    108  F   UNL     1     -17.027  13.078  -0.190  1.00  0.00    -0.200 F 
ENDBRANCH  75  98
ENDBRANCH  49  50
ENDBRANCH  42  44
ENDBRANCH  41  42
ENDBRANCH  40  41
ENDBRANCH  39  40
ENDBRANCH  38  39
ENDBRANCH  37  38
ENDBRANCH  36  37
ENDBRANCH  35  36
ENDBRANCH  34  35
ENDBRANCH  33  34
ENDBRANCH   1  33
TORSDOF 28
