REMARK SMILES Cc1ccc(N2C(=O)N=C(OCCOCCOCCOCCOC(=O)c3ccc(-c4c5nc(c(-c6c(F)c(F)c(F)c(F)c6F)c6ccc([nH]6)c(-c6c(F)c(F)c(F)c(F)c6F)c6nc(c(-c7c(F)c(F)c(F)c(F)c7F)c7ccc4[nH]7)C=C6)C=C5)cc3)/C(=C\c3ccccc3OCc3cccc(C(=O)[O-])c3)C2=O)cc1
REMARK SMILES IDX 16 1 15 2 14 3 13 4 12 5 11 6 10 7 6 8 7 9 108 10 8 11 9 12
REMARK SMILES IDX 89 13 109 14 90 15 5 16 1 17 2 18 3 19 111 20 4 21 110 22
REMARK SMILES IDX 91 23 92 24 96 25 93 26 95 27 94 28 97 29 98 30 99 31 100 32
REMARK SMILES IDX 107 33 101 34 103 35 102 36 104 37 105 38 106 39 17 40 18 41
REMARK SMILES IDX 19 42 20 43 21 44 22 45 23 46 24 47 25 48 26 49 27 50 88 51
REMARK SMILES IDX 28 52 87 53 29 54 30 55 31 56 81 57 32 58 86 59 80 60 82 61
REMARK SMILES IDX 33 62 85 63 79 64 78 65 34 67 66 68 46 69 65 70 47 71 50 72
REMARK SMILES IDX 64 73 83 74 48 75 49 76 63 78 84 79 51 80 35 81 36 82 44 83
REMARK SMILES IDX 37 84 38 85 42 86 45 87 39 88 40 89 43 90 41 91 67 92 68 93
REMARK SMILES IDX 76 94 69 95 70 96 74 97 77 98 71 99 72 100 75 101 73 102
REMARK SMILES IDX 52 103 53 104 61 105 54 106 55 107 59 108 62 109 56 110
REMARK SMILES IDX 57 111 60 112 58 113
REMARK H PARENT 82 66 50 77
REMARK Flexibility Score: inf
ROOT
ATOM      1  C   UNL     1      -5.704   3.444   3.084  1.00  0.00     0.188 C 
ENDROOT
BRANCH   1   2
ATOM      2  C   UNL     1      -5.797   3.433   1.573  1.00  0.00     0.188 C 
BRANCH   2   3
ATOM      3  O   UNL     1      -7.320   3.583   0.933  1.00  0.00    -0.376 OA
BRANCH   3   4
ATOM      4  C   UNL     1      -8.479   2.682   0.297  1.00  0.00     0.201 C 
BRANCH   4   5
ATOM      5  C   UNL     1      -8.263   1.206  -0.777  1.00  0.00     0.260 C 
BRANCH   5   6
ATOM      6  O   UNL     1      -7.047  -0.054  -0.511  1.00  0.00    -0.475 OA
BRANCH   6   7
ATOM      7  C   UNL     1      -5.598  -0.349  -0.566  1.00  0.00     0.231 C 
ATOM      8  N   UNL     1      -2.782  -0.094  -0.487  1.00  0.00    -0.226 N 
ATOM      9  C   UNL     1      -3.500  -0.760   0.483  1.00  0.00     0.358 C 
ATOM     10  C   UNL     1      -3.379   0.113  -1.699  1.00  0.00     0.272 C 
ATOM     11  O   UNL     1      -2.978  -1.040   1.565  1.00  0.00    -0.245 OA
ATOM     12  N   UNL     1      -4.858  -0.995   0.303  1.00  0.00    -0.156 NA
ATOM     13  C   UNL     1      -4.877   0.009  -1.683  1.00  0.00     0.103 C 
ATOM     14  O   UNL     1      -2.742   0.344  -2.725  1.00  0.00    -0.268 OA
ATOM     15  C   UNL     1      -5.683  -0.286  -2.690  1.00  0.00     0.031 C 
BRANCH   8  16
ATOM     16  C   UNL     1      -1.358   0.035  -0.340  1.00  0.00     0.054 A 
ATOM     17  C   UNL     1       2.960   0.125   0.022  1.00  0.00     0.044 C 
ATOM     18  C   UNL     1       1.460   0.135  -0.052  1.00  0.00    -0.051 A 
ATOM     19  C   UNL     1       0.780  -1.082   0.005  1.00  0.00     0.005 A 
ATOM     20  C   UNL     1       0.718   1.313  -0.219  1.00  0.00     0.005 A 
ATOM     21  C   UNL     1      -0.607  -1.126  -0.122  1.00  0.00     0.027 A 
ATOM     22  C   UNL     1      -0.683   1.267  -0.383  1.00  0.00     0.027 A 
ENDBRANCH   8  16
BRANCH  15  23
ATOM     23  C   UNL     1      -7.135  -0.282  -3.077  1.00  0.00     0.018 A 
ATOM     24  C   UNL     1      -7.885   0.563  -4.002  1.00  0.00     0.012 A 
ATOM     25  C   UNL     1      -7.820  -1.223  -2.411  1.00  0.00     0.127 A 
ATOM     26  C   UNL     1      -9.276   0.595  -4.115  1.00  0.00     0.001 A 
ATOM     27  C   UNL     1      -9.250  -1.156  -2.540  1.00  0.00     0.047 A 
ATOM     28  C   UNL     1      -9.977  -0.287  -3.359  1.00  0.00     0.004 A 
BRANCH  25  29
ATOM     29  O   UNL     1      -7.106  -1.988  -1.490  1.00  0.00    -0.488 OA
BRANCH  29  30
ATOM     30  C   UNL     1      -5.906  -2.840  -1.269  1.00  0.00     0.265 C 
BRANCH  30  31
ATOM     31  C   UNL     1      -5.292  -3.478   0.046  1.00  0.00    -0.010 A 
ATOM     32  C   UNL     1      -3.906  -3.734  -0.060  1.00  0.00     0.007 A 
ATOM     33  C   UNL     1      -6.058  -4.379   0.762  1.00  0.00     0.017 A 
ATOM     34  C   UNL     1      -3.405  -4.997   0.181  1.00  0.00     0.001 A 
ATOM     35  C   UNL     1      -5.665  -5.702   0.643  1.00  0.00    -0.002 A 
ATOM     36  C   UNL     1      -4.322  -6.014   0.392  1.00  0.00     0.010 A 
BRANCH  35  37
ATOM     37  C   UNL     1      -6.713  -6.699   0.347  1.00  0.00     0.071 C 
ATOM     38  O   UNL     1      -6.532  -7.729  -0.308  1.00  0.00    -0.545 OA
ATOM     39  O   UNL     1      -7.949  -6.300   0.679  1.00  0.00    -0.545 OA
ENDBRANCH  35  37
ENDBRANCH  30  31
ENDBRANCH  29  30
ENDBRANCH  25  29
ENDBRANCH  15  23
ENDBRANCH   6   7
ENDBRANCH   5   6
ENDBRANCH   4   5
ENDBRANCH   3   4
ENDBRANCH   2   3
ENDBRANCH   1   2
BRANCH   1  40
ATOM     40  O   UNL     1      -6.755   4.140   3.713  1.00  0.00    -0.377 OA
BRANCH  40  41
ATOM     41  C   UNL     1      -7.317   5.171   2.919  1.00  0.00     0.188 C 
BRANCH  41  42
ATOM     42  C   UNL     1      -6.383   5.744   1.869  1.00  0.00     0.188 C 
BRANCH  42  43
ATOM     43  O   UNL     1      -5.071   6.105   2.171  1.00  0.00    -0.376 OA
BRANCH  43  44
ATOM     44  C   UNL     1      -5.073   7.420   2.683  1.00  0.00     0.202 C 
BRANCH  44  45
ATOM     45  C   UNL     1      -6.440   8.250   2.500  1.00  0.00     0.261 C 
BRANCH  45  46
ATOM     46  O   UNL     1      -6.983   8.344   1.013  1.00  0.00    -0.460 OA
BRANCH  46  47
ATOM     47  C   UNL     1      -8.152   7.667   0.506  1.00  0.00     0.338 C 
ATOM     48  O   UNL     1      -9.177   7.537   1.169  1.00  0.00    -0.246 OA
BRANCH  47  49
ATOM     49  C   UNL     1      -7.852   6.674  -0.738  1.00  0.00     0.060 A 
ATOM     50  C   UNL     1      -8.704   5.626  -1.157  1.00  0.00     0.016 A 
ATOM     51  C   UNL     1      -6.540   6.502  -1.171  1.00  0.00     0.016 A 
ATOM     52  C   UNL     1      -8.171   4.375  -1.705  1.00  0.00     0.010 A 
ATOM     53  C   UNL     1      -6.027   5.187  -1.460  1.00  0.00     0.010 A 
ATOM     54  C   UNL     1      -6.822   4.027  -1.473  1.00  0.00    -0.014 A 
BRANCH  54  55
ATOM     55  C   UNL     1      -6.043   2.516  -0.980  1.00  0.00     0.031 A 
ATOM     56  C   UNL     1      -5.212   2.347  -2.627  1.00  0.00     0.074 A 
ATOM     57  C   UNL     1      -6.266   1.624   0.447  1.00  0.00     0.049 A 
ATOM     58  N   UNL     1      -5.672   1.672  -3.689  1.00  0.00    -0.248 NA
ATOM     59  C   UNL     1      -4.089   3.096  -3.226  1.00  0.00     0.031 C 
ATOM     60  C   UNL     1      -5.547   0.707   1.619  1.00  0.00     0.029 A 
ATOM     61  N   UNL     1      -7.546   1.227   1.429  1.00  0.00    -0.354 N 
ATOM     62  C   UNL     1      -4.692   1.268  -4.655  1.00  0.00     0.074 A 
ATOM     63  C   UNL     1      -3.861   2.479  -4.432  1.00  0.00     0.031 C 
ATOM     64  C   UNL     1      -6.347  -0.324   2.147  1.00  0.00     0.029 A 
ATOM     65  C   UNL     1      -7.722  -0.153   1.774  1.00  0.00     0.049 A 
ATOM     66  H   UNL     1      -8.163   1.917   1.763  1.00  0.00     0.167 HD
ATOM     67  C   UNL     1      -4.456  -0.070  -5.330  1.00  0.00     0.037 A 
ATOM     68  C   UNL     1      -8.903  -0.908   1.623  1.00  0.00     0.037 A 
ATOM     69  C   UNL     1      -5.179  -1.630  -4.951  1.00  0.00     0.049 A 
ATOM     70  C   UNL     1      -9.162  -2.285   0.535  1.00  0.00     0.074 A 
ATOM     71  C   UNL     1      -4.546  -2.715  -4.282  1.00  0.00     0.029 A 
ATOM     72  N   UNL     1      -6.598  -2.146  -4.775  1.00  0.00    -0.354 N 
ATOM     73  N   UNL     1      -8.286  -2.957  -0.204  1.00  0.00    -0.248 NA
ATOM     74  C   UNL     1     -10.447  -2.942   0.190  1.00  0.00     0.031 C 
ATOM     75  C   UNL     1      -5.434  -3.768  -3.807  1.00  0.00     0.029 A 
ATOM     76  C   UNL     1      -6.756  -3.281  -3.702  1.00  0.00     0.049 A 
ATOM     77  H   UNL     1      -7.358  -1.795  -5.293  1.00  0.00     0.167 HD
ATOM     78  C   UNL     1      -8.779  -3.698  -1.427  1.00  0.00     0.074 A 
ATOM     79  C   UNL     1     -10.184  -3.787  -0.871  1.00  0.00     0.031 C 
ATOM     80  C   UNL     1      -8.178  -3.929  -2.882  1.00  0.00     0.037 A 
BRANCH  67  81
ATOM     81  C   UNL     1      -2.999  -0.181  -6.013  1.00  0.00     0.064 A 
ATOM     82  C   UNL     1      -2.170  -1.335  -5.988  1.00  0.00     0.173 A 
ATOM     83  C   UNL     1      -2.380   0.895  -6.679  1.00  0.00     0.173 A 
ATOM     84  F   UNL     1      -2.638  -2.557  -5.740  1.00  0.00    -0.203 F 
ATOM     85  C   UNL     1      -0.814  -1.345  -6.351  1.00  0.00     0.198 A 
ATOM     86  C   UNL     1      -1.020   0.889  -7.067  1.00  0.00     0.198 A 
ATOM     87  F   UNL     1      -3.097   1.967  -7.045  1.00  0.00    -0.203 F 
ATOM     88  F   UNL     1      -0.102  -2.478  -6.233  1.00  0.00    -0.200 F 
ATOM     89  C   UNL     1      -0.227  -0.221  -6.869  1.00  0.00     0.200 A 
ATOM     90  F   UNL     1      -0.490   1.971  -7.656  1.00  0.00    -0.200 F 
ATOM     91  F   UNL     1       1.059  -0.237  -7.249  1.00  0.00    -0.200 F 
ENDBRANCH  67  81
BRANCH  68  92
ATOM     92  C   UNL     1     -10.021   0.037   2.265  1.00  0.00     0.064 A 
ATOM     93  C   UNL     1      -9.693   0.540   3.573  1.00  0.00     0.173 A 
ATOM     94  C   UNL     1     -10.942   0.849   1.571  1.00  0.00     0.173 A 
ATOM     95  F   UNL     1      -8.887  -0.181   4.369  1.00  0.00    -0.203 F 
ATOM     96  C   UNL     1      -9.990   1.849   4.001  1.00  0.00     0.198 A 
ATOM     97  C   UNL     1     -11.303   2.152   2.043  1.00  0.00     0.198 A 
ATOM     98  F   UNL     1     -11.363   0.504   0.347  1.00  0.00    -0.203 F 
ATOM     99  F   UNL     1      -9.409   2.342   5.106  1.00  0.00    -0.200 F 
ATOM    100  C   UNL     1     -10.759   2.675   3.211  1.00  0.00     0.200 A 
ATOM    101  F   UNL     1     -12.004   2.978   1.247  1.00  0.00    -0.200 F 
ATOM    102  F   UNL     1     -10.883   3.980   3.509  1.00  0.00    -0.200 F 
ENDBRANCH  68  92
BRANCH  80 103
ATOM    103  C   UNL     1      -8.810  -4.925  -3.887  1.00  0.00     0.064 A 
ATOM    104  C   UNL     1      -9.873  -5.782  -3.607  1.00  0.00     0.173 A 
ATOM    105  C   UNL     1      -8.252  -5.124  -5.193  1.00  0.00     0.173 A 
ATOM    106  F   UNL     1     -10.335  -5.949  -2.366  1.00  0.00    -0.203 F 
ATOM    107  C   UNL     1     -10.450  -6.599  -4.589  1.00  0.00     0.198 A 
ATOM    108  C   UNL     1      -8.780  -5.984  -6.143  1.00  0.00     0.198 A 
ATOM    109  F   UNL     1      -7.136  -4.536  -5.636  1.00  0.00    -0.203 F 
ATOM    110  F   UNL     1     -11.533  -7.324  -4.281  1.00  0.00    -0.200 F 
ATOM    111  C   UNL     1      -9.913  -6.691  -5.858  1.00  0.00     0.200 A 
ATOM    112  F   UNL     1      -8.167  -6.109  -7.329  1.00  0.00    -0.200 F 
ATOM    113  F   UNL     1     -10.458  -7.483  -6.787  1.00  0.00    -0.200 F 
ENDBRANCH  80 103
ENDBRANCH  54  55
ENDBRANCH  47  49
ENDBRANCH  46  47
ENDBRANCH  45  46
ENDBRANCH  44  45
ENDBRANCH  43  44
ENDBRANCH  42  43
ENDBRANCH  41  42
ENDBRANCH  40  41
ENDBRANCH   1  40
TORSDOF 25
