REMARK SMILES CNC(=O)[C@H](C)S(=O)(=O)c1cc(C(=O)OCCOCCOCCOCCOC(=O)c2ccc(-c3c4nc(c(-c5c(F)c(F)c(F)c(F)c5F)c5ccc([nH]5)c(-c5c(F)c(F)c(F)c(F)c5F)c5nc(c(-c6c(F)c(F)c(F)c(F)c6F)c6ccc3[nH]6)C=C5)C=C4)cc2)c(C)cc1C
REMARK SMILES IDX 20 1 19 2 18 3 17 4 16 5 15 6 13 7 14 8 12 9 10 10 11 11
REMARK SMILES IDX 96 12 95 13 97 14 93 15 94 16 7 17 8 18 9 19 5 20 6 21 3 22
REMARK SMILES IDX 1 23 2 24 4 26 21 27 22 28 23 29 24 30 25 31 26 32 27 33
REMARK SMILES IDX 28 34 29 35 30 36 31 37 92 38 32 39 91 40 33 41 34 42 35 43
REMARK SMILES IDX 85 44 36 45 90 46 84 47 86 48 37 49 89 50 83 51 82 52 38 54
REMARK SMILES IDX 70 55 50 56 69 57 51 58 54 59 68 60 87 61 52 62 53 63 67 65
REMARK SMILES IDX 88 66 55 67 39 68 40 69 48 70 41 71 42 72 46 73 49 74 43 75
REMARK SMILES IDX 44 76 47 77 45 78 71 79 72 80 80 81 73 82 74 83 78 84 81 85
REMARK SMILES IDX 75 86 76 87 79 88 77 89 56 90 57 91 65 92 58 93 59 94 63 95
REMARK SMILES IDX 66 96 60 97 61 98 64 99 62 100
REMARK H PARENT 2 25 86 53 54 64
REMARK Flexibility Score: inf
ROOT
ATOM      1  C   UNL     1       3.585   1.243  -0.956  1.00  0.00     0.188 C 
ENDROOT
BRANCH   1   2
ATOM      2  C   UNL     1       3.237  -0.187  -1.417  1.00  0.00     0.188 C 
BRANCH   2   3
ATOM      3  O   UNL     1       3.936  -0.678  -2.542  1.00  0.00    -0.376 OA
BRANCH   3   4
ATOM      4  C   UNL     1       3.670  -0.215  -3.856  1.00  0.00     0.202 C 
BRANCH   4   5
ATOM      5  C   UNL     1       2.632   0.851  -4.259  1.00  0.00     0.261 C 
BRANCH   5   6
ATOM      6  O   UNL     1       1.880   1.469  -3.219  1.00  0.00    -0.460 OA
BRANCH   6   7
ATOM      7  C   UNL     1       0.636   1.020  -2.969  1.00  0.00     0.338 C 
ATOM      8  O   UNL     1       0.080   0.094  -3.533  1.00  0.00    -0.246 OA
BRANCH   7   9
ATOM      9  C   UNL     1       0.115   1.672  -1.729  1.00  0.00     0.064 A 
ATOM     10  C   UNL     1      -1.101   1.291   0.379  1.00  0.00     0.071 A 
ATOM     11  C   UNL     1      -0.582   0.820  -0.838  1.00  0.00     0.036 A 
ATOM     12  C   UNL     1      -1.096   2.678   0.610  1.00  0.00    -0.032 A 
ATOM     13  C   UNL     1      -0.334   3.505  -0.240  1.00  0.00     0.009 A 
ATOM     14  C   UNL     1      -1.900   3.397   1.661  1.00  0.00     0.046 C 
ATOM     15  C   UNL     1       0.319   3.021  -1.385  1.00  0.00    -0.036 A 
ATOM     16  C   UNL     1       1.109   4.024  -2.184  1.00  0.00     0.045 C 
BRANCH  10  17
ATOM     17  S   UNL     1      -1.893   0.125   1.497  1.00  0.00     0.190 S 
ATOM     18  O   UNL     1      -3.017  -0.391   0.733  1.00  0.00    -0.223 OA
ATOM     19  O   UNL     1      -2.139   0.826   2.744  1.00  0.00    -0.223 OA
BRANCH  17  20
ATOM     20  C   UNL     1      -0.872  -1.247   1.918  1.00  0.00     0.199 C 
ATOM     21  C   UNL     1      -0.350  -2.139   0.810  1.00  0.00     0.036 C 
BRANCH  20  22
ATOM     22  C   UNL     1       0.099  -0.967   3.040  1.00  0.00     0.238 C 
ATOM     23  C   UNL     1       1.866   0.333   1.752  1.00  0.00     0.142 C 
ATOM     24  N   UNL     1       1.264  -0.293   2.891  1.00  0.00    -0.358 N 
ATOM     25  H   UNL     1       1.794  -0.220   3.717  1.00  0.00     0.163 HD
ATOM     26  O   UNL     1      -0.104  -1.435   4.167  1.00  0.00    -0.274 OA
ENDBRANCH  20  22
ENDBRANCH  17  20
ENDBRANCH  10  17
ENDBRANCH   7   9
ENDBRANCH   6   7
ENDBRANCH   5   6
ENDBRANCH   4   5
ENDBRANCH   3   4
ENDBRANCH   2   3
ENDBRANCH   1   2
BRANCH   1  27
ATOM     27  O   UNL     1       4.307   1.984  -1.920  1.00  0.00    -0.377 OA
BRANCH  27  28
ATOM     28  C   UNL     1       5.721   1.817  -1.938  1.00  0.00     0.188 C 
BRANCH  28  29
ATOM     29  C   UNL     1       6.393   0.528  -1.403  1.00  0.00     0.188 C 
BRANCH  29  30
ATOM     30  O   UNL     1       5.804   0.009  -0.216  1.00  0.00    -0.376 OA
BRANCH  30  31
ATOM     31  C   UNL     1       6.555   0.049   0.986  1.00  0.00     0.202 C 
BRANCH  31  32
ATOM     32  C   UNL     1       6.628   1.424   1.657  1.00  0.00     0.261 C 
BRANCH  32  33
ATOM     33  O   UNL     1       7.092   2.489   0.819  1.00  0.00    -0.460 OA
BRANCH  33  34
ATOM     34  C   UNL     1       8.377   2.429   0.408  1.00  0.00     0.338 C 
ATOM     35  O   UNL     1       9.197   1.565   0.658  1.00  0.00    -0.246 OA
BRANCH  34  36
ATOM     36  C   UNL     1       8.573   3.532  -0.549  1.00  0.00     0.060 A 
ATOM     37  C   UNL     1       8.937   3.244  -1.872  1.00  0.00     0.016 A 
ATOM     38  C   UNL     1       8.361   4.849  -0.137  1.00  0.00     0.016 A 
ATOM     39  C   UNL     1       9.115   4.283  -2.786  1.00  0.00     0.010 A 
ATOM     40  C   UNL     1       8.563   5.887  -1.043  1.00  0.00     0.010 A 
ATOM     41  C   UNL     1       8.972   5.610  -2.360  1.00  0.00    -0.014 A 
BRANCH  41  42
ATOM     42  C   UNL     1       9.477   6.730  -3.185  1.00  0.00     0.031 A 
ATOM     43  C   UNL     1      10.852   7.250  -2.875  1.00  0.00     0.074 A 
ATOM     44  C   UNL     1       8.723   7.311  -4.134  1.00  0.00     0.049 A 
ATOM     45  N   UNL     1      11.451   8.331  -3.297  1.00  0.00    -0.248 NA
ATOM     46  C   UNL     1      11.652   6.440  -1.940  1.00  0.00     0.031 C 
ATOM     47  C   UNL     1       7.401   6.862  -4.558  1.00  0.00     0.029 A 
ATOM     48  N   UNL     1       8.962   8.431  -4.890  1.00  0.00    -0.354 N 
ATOM     49  C   UNL     1      12.686   8.343  -2.662  1.00  0.00     0.074 A 
ATOM     50  C   UNL     1      12.743   7.177  -1.810  1.00  0.00     0.031 C 
ATOM     51  C   UNL     1       6.929   7.719  -5.482  1.00  0.00     0.029 A 
ATOM     52  C   UNL     1       7.896   8.799  -5.674  1.00  0.00     0.049 A 
ATOM     53  H   UNL     1       9.815   8.924  -4.872  1.00  0.00     0.167 HD
ATOM     54  C   UNL     1      13.683   9.251  -2.780  1.00  0.00     0.037 A 
ATOM     55  C   UNL     1       7.714   9.905  -6.423  1.00  0.00     0.037 A 
ATOM     56  C   UNL     1      13.611  10.412  -3.625  1.00  0.00     0.049 A 
ATOM     57  C   UNL     1       8.806  10.948  -6.476  1.00  0.00     0.074 A 
ATOM     58  C   UNL     1      14.565  11.392  -3.825  1.00  0.00     0.029 A 
ATOM     59  N   UNL     1      12.513  10.752  -4.402  1.00  0.00    -0.354 N 
ATOM     60  N   UNL     1       9.976  10.955  -5.883  1.00  0.00    -0.248 NA
ATOM     61  C   UNL     1       8.550  12.138  -7.301  1.00  0.00     0.031 C 
ATOM     62  C   UNL     1      14.022  12.358  -4.677  1.00  0.00     0.029 A 
ATOM     63  C   UNL     1      12.759  11.941  -5.067  1.00  0.00     0.049 A 
ATOM     64  H   UNL     1      11.684  10.226  -4.470  1.00  0.00     0.167 HD
ATOM     65  C   UNL     1      10.612  12.119  -6.300  1.00  0.00     0.074 A 
ATOM     66  C   UNL     1       9.696  12.796  -7.193  1.00  0.00     0.031 C 
ATOM     67  C   UNL     1      11.846  12.581  -5.980  1.00  0.00     0.037 A 
BRANCH  54  68
ATOM     68  C   UNL     1      14.913   9.042  -1.947  1.00  0.00     0.064 A 
ATOM     69  C   UNL     1      15.803   7.985  -2.189  1.00  0.00     0.173 A 
ATOM     70  C   UNL     1      15.215   9.926  -0.899  1.00  0.00     0.173 A 
ATOM     71  F   UNL     1      15.550   7.100  -3.166  1.00  0.00    -0.203 F 
ATOM     72  C   UNL     1      16.933   7.803  -1.396  1.00  0.00     0.198 A 
ATOM     73  C   UNL     1      16.364   9.762  -0.131  1.00  0.00     0.198 A 
ATOM     74  F   UNL     1      14.398  10.953  -0.623  1.00  0.00    -0.203 F 
ATOM     75  F   UNL     1      17.737   6.753  -1.610  1.00  0.00    -0.200 F 
ATOM     76  C   UNL     1      17.217   8.696  -0.374  1.00  0.00     0.200 A 
ATOM     77  F   UNL     1      16.643  10.634   0.847  1.00  0.00    -0.200 F 
ATOM     78  F   UNL     1      18.309   8.524   0.384  1.00  0.00    -0.200 F 
ENDBRANCH  54  68
BRANCH  55  79
ATOM     79  C   UNL     1       6.443  10.102  -7.170  1.00  0.00     0.064 A 
ATOM     80  C   UNL     1       6.423  10.101  -8.572  1.00  0.00     0.173 A 
ATOM     81  C   UNL     1       5.228  10.323  -6.503  1.00  0.00     0.173 A 
ATOM     82  F   UNL     1       7.562   9.921  -9.257  1.00  0.00    -0.203 F 
ATOM     83  C   UNL     1       5.244  10.336  -9.277  1.00  0.00     0.198 A 
ATOM     84  C   UNL     1       4.044  10.525  -7.209  1.00  0.00     0.198 A 
ATOM     85  F   UNL     1       5.190  10.336  -5.162  1.00  0.00    -0.203 F 
ATOM     86  F   UNL     1       5.265  10.383 -10.616  1.00  0.00    -0.200 F 
ATOM     87  C   UNL     1       4.054  10.541  -8.595  1.00  0.00     0.200 A 
ATOM     88  F   UNL     1       2.894  10.710  -6.546  1.00  0.00    -0.200 F 
ATOM     89  F   UNL     1       2.920  10.765  -9.273  1.00  0.00    -0.200 F 
ENDBRANCH  55  79
BRANCH  67  90
ATOM     90  C   UNL     1      12.325  13.835  -6.656  1.00  0.00     0.064 A 
ATOM     91  C   UNL     1      11.812  15.099  -6.336  1.00  0.00     0.173 A 
ATOM     92  C   UNL     1      13.380  13.769  -7.582  1.00  0.00     0.173 A 
ATOM     93  F   UNL     1      10.797  15.216  -5.466  1.00  0.00    -0.203 F 
ATOM     94  C   UNL     1      12.326  16.250  -6.929  1.00  0.00     0.198 A 
ATOM     95  C   UNL     1      13.913  14.923  -8.146  1.00  0.00     0.198 A 
ATOM     96  F   UNL     1      13.913  12.584  -7.915  1.00  0.00    -0.203 F 
ATOM     97  F   UNL     1      11.796  17.446  -6.636  1.00  0.00    -0.200 F 
ATOM     98  C   UNL     1      13.383  16.162  -7.824  1.00  0.00     0.200 A 
ATOM     99  F   UNL     1      14.947  14.836  -8.994  1.00  0.00    -0.200 F 
ATOM    100  F   UNL     1      13.889  17.273  -8.376  1.00  0.00    -0.200 F 
ENDBRANCH  67  90
ENDBRANCH  41  42
ENDBRANCH  34  36
ENDBRANCH  33  34
ENDBRANCH  32  33
ENDBRANCH  31  32
ENDBRANCH  30  31
ENDBRANCH  29  30
ENDBRANCH  28  29
ENDBRANCH  27  28
ENDBRANCH   1  27
TORSDOF 23
