REMARK SMILES C[C@@H](Oc1ccc(F)cc1)C(=O)N[C@@H](CO)C(=O)OCCOCCOCCOCCOC(=O)c1ccc(-c2c3nc(c(-c4c(F)c(F)c(F)c(F)c4F)c4ccc([nH]4)c(-c4c(F)c(F)c(F)c(F)c4F)c4nc(c(-c5c(F)c(F)c(F)c(F)c5F)c5ccc2[nH]5)C=C4)C=C3)cc1
REMARK SMILES IDX 24 1 23 2 22 3 21 4 20 5 19 6 17 7 18 8 14 9 13 10 11 11
REMARK SMILES IDX 12 12 2 14 1 15 3 16 4 17 5 18 10 19 6 20 9 21 7 22 8 23
REMARK SMILES IDX 15 24 16 25 25 27 26 28 27 29 28 30 29 31 30 32 31 33 32 34
REMARK SMILES IDX 33 35 34 36 35 37 96 38 36 39 95 40 37 41 38 42 39 43 89 44
REMARK SMILES IDX 40 45 94 46 88 47 90 48 41 49 93 50 87 51 86 52 42 54 74 55
REMARK SMILES IDX 54 56 73 57 55 58 58 59 72 60 91 61 56 62 57 63 71 65 92 66
REMARK SMILES IDX 59 67 43 68 44 69 52 70 45 71 46 72 50 73 53 74 47 75 48 76
REMARK SMILES IDX 51 77 49 78 75 79 76 80 84 81 77 82 78 83 82 84 85 85 79 86
REMARK SMILES IDX 80 87 83 88 81 89 60 90 61 91 69 92 62 93 63 94 67 95 70 96
REMARK SMILES IDX 64 97 65 98 68 99 66 100
REMARK H PARENT 13 13 16 26 90 53 58 64
REMARK Flexibility Score: inf
ROOT
ATOM      1  C   UNL     1      -1.659   3.031   3.016  1.00  0.00     0.188 C 
ENDROOT
BRANCH   1   2
ATOM      2  C   UNL     1      -0.560   4.088   2.823  1.00  0.00     0.188 C 
BRANCH   2   3
ATOM      3  O   UNL     1      -0.877   5.473   2.825  1.00  0.00    -0.376 OA
BRANCH   3   4
ATOM      4  C   UNL     1      -2.046   5.945   2.171  1.00  0.00     0.202 C 
BRANCH   4   5
ATOM      5  C   UNL     1      -2.408   5.491   0.744  1.00  0.00     0.261 C 
BRANCH   5   6
ATOM      6  O   UNL     1      -2.189   4.101   0.442  1.00  0.00    -0.462 OA
BRANCH   6   7
ATOM      7  C   UNL     1      -1.176   3.830  -0.418  1.00  0.00     0.331 C 
ATOM      8  O   UNL     1      -0.496   4.685  -0.979  1.00  0.00    -0.250 OA
BRANCH   7   9
ATOM      9  C   UNL     1      -0.965   2.325  -0.678  1.00  0.00     0.218 C 
BRANCH   9  10
ATOM     10  N   UNL     1      -1.599   1.315   0.194  1.00  0.00    -0.338 N 
ATOM     11  C   UNL     1      -1.030   0.331   0.965  1.00  0.00     0.261 C 
ATOM     12  O   UNL     1      -1.786  -0.426   1.581  1.00  0.00    -0.271 OA
ATOM     13  H   UNL     1      -2.583   1.352   0.227  1.00  0.00     0.164 HD
BRANCH  11  14
ATOM     14  C   UNL     1       0.502   0.169   1.076  1.00  0.00     0.258 C 
ATOM     15  C   UNL     1       1.038  -0.396  -0.235  1.00  0.00     0.064 C 
BRANCH  14  16
ATOM     16  O   UNL     1       1.039   1.446   1.455  1.00  0.00    -0.481 OA
BRANCH  16  17
ATOM     17  C   UNL     1       2.343   1.446   1.868  1.00  0.00     0.120 A 
ATOM     18  C   UNL     1       3.375   1.424   0.928  1.00  0.00     0.049 A 
ATOM     19  C   UNL     1       2.632   1.683   3.215  1.00  0.00     0.049 A 
ATOM     20  C   UNL     1       4.700   1.582   1.335  1.00  0.00     0.043 A 
ATOM     21  C   UNL     1       3.960   1.858   3.621  1.00  0.00     0.043 A 
ATOM     22  C   UNL     1       4.981   1.802   2.678  1.00  0.00     0.123 A 
ATOM     23  F   UNL     1       6.251   1.989   3.061  1.00  0.00    -0.207 F 
ENDBRANCH  16  17
ENDBRANCH  14  16
ENDBRANCH  11  14
ENDBRANCH   9  10
BRANCH   9  24
ATOM     24  C   UNL     1      -1.405   2.066  -2.121  1.00  0.00     0.193 C 
BRANCH  24  25
ATOM     25  O   UNL     1      -2.829   2.111  -2.242  1.00  0.00    -0.394 OA
ATOM     26  H   UNL     1      -3.223   1.424  -1.681  1.00  0.00     0.210 HD
ENDBRANCH  24  25
ENDBRANCH   9  24
ENDBRANCH   7   9
ENDBRANCH   6   7
ENDBRANCH   5   6
ENDBRANCH   4   5
ENDBRANCH   3   4
ENDBRANCH   2   3
ENDBRANCH   1   2
BRANCH   1  27
ATOM     27  O   UNL     1      -2.986   3.511   2.936  1.00  0.00    -0.377 OA
BRANCH  27  28
ATOM     28  C   UNL     1      -3.654   3.695   4.173  1.00  0.00     0.188 C 
BRANCH  28  29
ATOM     29  C   UNL     1      -2.828   4.276   5.337  1.00  0.00     0.188 C 
BRANCH  29  30
ATOM     30  O   UNL     1      -1.618   3.575   5.596  1.00  0.00    -0.376 OA
BRANCH  30  31
ATOM     31  C   UNL     1      -1.599   2.574   6.603  1.00  0.00     0.202 C 
BRANCH  31  32
ATOM     32  C   UNL     1      -2.458   1.311   6.405  1.00  0.00     0.261 C 
BRANCH  32  33
ATOM     33  O   UNL     1      -3.866   1.507   6.209  1.00  0.00    -0.460 OA
BRANCH  33  34
ATOM     34  C   UNL     1      -4.557   2.173   7.153  1.00  0.00     0.338 C 
ATOM     35  O   UNL     1      -4.138   2.586   8.222  1.00  0.00    -0.246 OA
BRANCH  34  36
ATOM     36  C   UNL     1      -5.879   2.515   6.585  1.00  0.00     0.060 A 
ATOM     37  C   UNL     1      -6.253   3.863   6.504  1.00  0.00     0.016 A 
ATOM     38  C   UNL     1      -6.739   1.515   6.123  1.00  0.00     0.016 A 
ATOM     39  C   UNL     1      -7.505   4.214   6.000  1.00  0.00     0.010 A 
ATOM     40  C   UNL     1      -8.005   1.865   5.644  1.00  0.00     0.010 A 
ATOM     41  C   UNL     1      -8.406   3.213   5.617  1.00  0.00    -0.014 A 
BRANCH  41  42
ATOM     42  C   UNL     1      -9.830   3.558   5.396  1.00  0.00     0.031 A 
ATOM     43  C   UNL     1     -10.796   3.348   6.528  1.00  0.00     0.074 A 
ATOM     44  C   UNL     1     -10.257   4.072   4.230  1.00  0.00     0.049 A 
ATOM     45  N   UNL     1     -12.091   3.525   6.563  1.00  0.00    -0.248 NA
ATOM     46  C   UNL     1     -10.218   2.870   7.795  1.00  0.00     0.031 C 
ATOM     47  C   UNL     1      -9.410   4.373   3.081  1.00  0.00     0.029 A 
ATOM     48  N   UNL     1     -11.521   4.427   3.825  1.00  0.00    -0.354 N 
ATOM     49  C   UNL     1     -12.482   3.172   7.848  1.00  0.00     0.074 A 
ATOM     50  C   UNL     1     -11.296   2.740   8.552  1.00  0.00     0.031 C 
ATOM     51  C   UNL     1     -10.178   4.861   2.092  1.00  0.00     0.029 A 
ATOM     52  C   UNL     1     -11.576   4.870   2.527  1.00  0.00     0.049 A 
ATOM     53  H   UNL     1     -12.311   4.369   4.409  1.00  0.00     0.167 HD
ATOM     54  C   UNL     1     -13.721   3.216   8.392  1.00  0.00     0.037 A 
ATOM     55  C   UNL     1     -12.636   5.220   1.771  1.00  0.00     0.037 A 
ATOM     56  C   UNL     1     -14.897   3.648   7.685  1.00  0.00     0.049 A 
ATOM     57  C   UNL     1     -14.019   5.180   2.369  1.00  0.00     0.074 A 
ATOM     58  C   UNL     1     -16.193   3.748   8.155  1.00  0.00     0.029 A 
ATOM     59  N   UNL     1     -14.920   4.042   6.355  1.00  0.00    -0.354 N 
ATOM     60  N   UNL     1     -14.384   4.859   3.587  1.00  0.00    -0.248 NA
ATOM     61  C   UNL     1     -15.137   5.551   1.489  1.00  0.00     0.031 C 
ATOM     62  C   UNL     1     -17.013   4.134   7.091  1.00  0.00     0.029 A 
ATOM     63  C   UNL     1     -16.217   4.350   5.977  1.00  0.00     0.049 A 
ATOM     64  H   UNL     1     -14.133   4.095   5.767  1.00  0.00     0.167 HD
ATOM     65  C   UNL     1     -15.765   5.012   3.628  1.00  0.00     0.074 A 
ATOM     66  C   UNL     1     -16.173   5.463   2.314  1.00  0.00     0.031 C 
ATOM     67  C   UNL     1     -16.614   4.800   4.665  1.00  0.00     0.037 A 
BRANCH  54  68
ATOM     68  C   UNL     1     -13.875   2.754   9.812  1.00  0.00     0.064 A 
ATOM     69  C   UNL     1     -14.595   1.585  10.102  1.00  0.00     0.173 A 
ATOM     70  C   UNL     1     -13.352   3.485  10.890  1.00  0.00     0.173 A 
ATOM     71  F   UNL     1     -15.117   0.849   9.109  1.00  0.00    -0.203 F 
ATOM     72  C   UNL     1     -14.797   1.173  11.416  1.00  0.00     0.198 A 
ATOM     73  C   UNL     1     -13.526   3.050  12.202  1.00  0.00     0.198 A 
ATOM     74  F   UNL     1     -12.642   4.601  10.669  1.00  0.00    -0.203 F 
ATOM     75  F   UNL     1     -15.517   0.070  11.667  1.00  0.00    -0.200 F 
ATOM     76  C   UNL     1     -14.257   1.901  12.464  1.00  0.00     0.200 A 
ATOM     77  F   UNL     1     -12.977   3.738  13.212  1.00  0.00    -0.200 F 
ATOM     78  F   UNL     1     -14.436   1.492  13.728  1.00  0.00    -0.200 F 
ENDBRANCH  54  68
BRANCH  55  79
ATOM     79  C   UNL     1     -12.415   5.644   0.364  1.00  0.00     0.064 A 
ATOM     80  C   UNL     1     -11.975   4.734  -0.609  1.00  0.00     0.173 A 
ATOM     81  C   UNL     1     -12.587   6.979  -0.022  1.00  0.00     0.173 A 
ATOM     82  F   UNL     1     -11.799   3.443  -0.291  1.00  0.00    -0.203 F 
ATOM     83  C   UNL     1     -11.682   5.151  -1.905  1.00  0.00     0.198 A 
ATOM     84  C   UNL     1     -12.319   7.391  -1.327  1.00  0.00     0.198 A 
ATOM     85  F   UNL     1     -13.032   7.881   0.865  1.00  0.00    -0.203 F 
ATOM     86  F   UNL     1     -11.219   4.270  -2.803  1.00  0.00    -0.200 F 
ATOM     87  C   UNL     1     -11.854   6.479  -2.263  1.00  0.00     0.200 A 
ATOM     88  F   UNL     1     -12.510   8.670  -1.676  1.00  0.00    -0.200 F 
ATOM     89  F   UNL     1     -11.571   6.882  -3.510  1.00  0.00    -0.200 F 
ENDBRANCH  55  79
BRANCH  67  90
ATOM     90  C   UNL     1     -18.076   5.071   4.448  1.00  0.00     0.064 A 
ATOM     91  C   UNL     1     -18.710   6.127   5.124  1.00  0.00     0.173 A 
ATOM     92  C   UNL     1     -18.872   4.229   3.658  1.00  0.00     0.173 A 
ATOM     93  F   UNL     1     -17.997   6.955   5.902  1.00  0.00    -0.203 F 
ATOM     94  C   UNL     1     -20.086   6.313   5.036  1.00  0.00     0.198 A 
ATOM     95  C   UNL     1     -20.245   4.440   3.545  1.00  0.00     0.198 A 
ATOM     96  F   UNL     1     -18.316   3.212   2.983  1.00  0.00    -0.203 F 
ATOM     97  F   UNL     1     -20.673   7.298   5.731  1.00  0.00    -0.200 F 
ATOM     98  C   UNL     1     -20.852   5.472   4.245  1.00  0.00     0.200 A 
ATOM     99  F   UNL     1     -20.981   3.640   2.761  1.00  0.00    -0.200 F 
ATOM    100  F   UNL     1     -22.177   5.656   4.156  1.00  0.00    -0.200 F 
ENDBRANCH  67  90
ENDBRANCH  41  42
ENDBRANCH  34  36
ENDBRANCH  33  34
ENDBRANCH  32  33
ENDBRANCH  31  32
ENDBRANCH  30  31
ENDBRANCH  29  30
ENDBRANCH  28  29
ENDBRANCH  27  28
ENDBRANCH   1  27
TORSDOF 26
