REMARK SMILES O=C(OCCOCCOCCOCCOC(=O)c1ccc(C[NH2+][C@H]2CCCNC2=O)nc1)c1ccc(-c2c3nc(c(-c4c(F)c(F)c(F)c(F)c4F)c4ccc([nH]4)c(-c4c(F)c(F)c(F)c(F)c4F)c4nc(c(-c5c(F)c(F)c(F)c(F)c5F)c5ccc2[nH]5)C=C4)C=C3)cc1
REMARK SMILES IDX 10 1 9 2 8 3 7 4 6 5 5 6 4 7 3 8 2 9 1 10 33 11 34 12 95 13
REMARK SMILES IDX 35 14 94 15 36 16 37 17 38 18 88 19 39 20 93 21 87 22 89 23
REMARK SMILES IDX 40 24 92 25 86 26 85 27 41 29 73 30 53 31 72 32 54 33 57 34
REMARK SMILES IDX 71 35 90 36 55 37 56 38 70 40 91 41 58 42 42 43 43 44 51 45
REMARK SMILES IDX 44 46 45 47 49 48 52 49 46 50 47 51 50 52 48 53 74 54 75 55
REMARK SMILES IDX 83 56 76 57 77 58 81 59 84 60 78 61 79 62 82 63 80 64 59 65
REMARK SMILES IDX 60 66 68 67 61 68 62 69 66 70 69 71 63 72 64 73 67 74 65 75
REMARK SMILES IDX 11 76 12 77 13 78 14 79 15 80 16 81 17 82 18 83 19 84 32 85
REMARK SMILES IDX 20 86 31 87 21 88 22 89 23 90 24 93 25 94 29 95 26 96 28 97
REMARK SMILES IDX 30 98 27 99
REMARK H PARENT 89 28 57 39 23 91 23 92 28 100
REMARK Flexibility Score: inf
ROOT
ATOM      1  C   UNL     1       4.077   0.716  -3.809  1.00  0.00     0.188 C 
ENDROOT
BRANCH   1   2
ATOM      2  O   UNL     1       2.660   0.725  -3.944  1.00  0.00    -0.377 OA
BRANCH   2   3
ATOM      3  C   UNL     1       1.906   0.817  -2.735  1.00  0.00     0.188 C 
BRANCH   3   4
ATOM      4  C   UNL     1       2.309  -0.168  -1.639  1.00  0.00     0.188 C 
BRANCH   4   5
ATOM      5  O   UNL     1       3.600   0.152  -1.113  1.00  0.00    -0.376 OA
BRANCH   5   6
ATOM      6  C   UNL     1       4.397  -0.971  -0.737  1.00  0.00     0.202 C 
BRANCH   6   7
ATOM      7  C   UNL     1       3.975  -1.662   0.564  1.00  0.00     0.261 C 
BRANCH   7   8
ATOM      8  O   UNL     1       2.586  -1.482   0.886  1.00  0.00    -0.460 OA
BRANCH   8   9
ATOM      9  C   UNL     1       2.025  -0.548   1.695  1.00  0.00     0.338 C 
ATOM     10  O   UNL     1       0.834  -0.655   1.981  1.00  0.00    -0.246 OA
BRANCH   9  11
ATOM     11  C   UNL     1       2.782   0.595   2.290  1.00  0.00     0.060 A 
ATOM     12  C   UNL     1       3.905   1.192   1.722  1.00  0.00     0.016 A 
ATOM     13  C   UNL     1       2.287   1.141   3.486  1.00  0.00     0.016 A 
ATOM     14  C   UNL     1       4.609   2.193   2.374  1.00  0.00     0.010 A 
ATOM     15  C   UNL     1       2.958   2.187   4.130  1.00  0.00     0.010 A 
ATOM     16  C   UNL     1       4.162   2.669   3.602  1.00  0.00    -0.014 A 
BRANCH  16  17
ATOM     17  C   UNL     1       5.105   3.472   4.406  1.00  0.00     0.031 A 
ATOM     18  C   UNL     1       5.774   2.793   5.566  1.00  0.00     0.074 A 
ATOM     19  C   UNL     1       5.484   4.697   4.000  1.00  0.00     0.049 A 
ATOM     20  N   UNL     1       6.601   3.276   6.453  1.00  0.00    -0.248 NA
ATOM     21  C   UNL     1       5.475   1.361   5.745  1.00  0.00     0.031 C 
ATOM     22  C   UNL     1       4.999   5.375   2.797  1.00  0.00     0.029 A 
ATOM     23  N   UNL     1       6.399   5.568   4.529  1.00  0.00    -0.354 N 
ATOM     24  C   UNL     1       6.870   2.226   7.322  1.00  0.00     0.074 A 
ATOM     25  C   UNL     1       6.128   1.079   6.859  1.00  0.00     0.031 C 
ATOM     26  C   UNL     1       5.655   6.539   2.656  1.00  0.00     0.029 A 
ATOM     27  C   UNL     1       6.546   6.721   3.797  1.00  0.00     0.049 A 
ATOM     28  H   UNL     1       6.902   5.386   5.355  1.00  0.00     0.167 HD
ATOM     29  C   UNL     1       7.665   2.231   8.416  1.00  0.00     0.037 A 
ATOM     30  C   UNL     1       7.302   7.806   4.048  1.00  0.00     0.037 A 
ATOM     31  C   UNL     1       8.423   3.377   8.829  1.00  0.00     0.049 A 
ATOM     32  C   UNL     1       8.134   7.810   5.304  1.00  0.00     0.074 A 
ATOM     33  C   UNL     1       9.209   3.543   9.953  1.00  0.00     0.029 A 
ATOM     34  N   UNL     1       8.496   4.560   8.104  1.00  0.00    -0.354 N 
ATOM     35  N   UNL     1       8.301   6.855   6.190  1.00  0.00    -0.248 NA
ATOM     36  C   UNL     1       8.865   9.046   5.609  1.00  0.00     0.031 C 
ATOM     37  C   UNL     1       9.733   4.841   9.923  1.00  0.00     0.029 A 
ATOM     38  C   UNL     1       9.311   5.465   8.758  1.00  0.00     0.049 A 
ATOM     39  H   UNL     1       8.036   4.729   7.250  1.00  0.00     0.167 HD
ATOM     40  C   UNL     1       9.167   7.365   7.146  1.00  0.00     0.074 A 
ATOM     41  C   UNL     1       9.507   8.709   6.719  1.00  0.00     0.031 C 
ATOM     42  C   UNL     1       9.635   6.786   8.280  1.00  0.00     0.037 A 
BRANCH  29  43
ATOM     43  C   UNL     1       7.668   0.990   9.259  1.00  0.00     0.064 A 
ATOM     44  C   UNL     1       8.279  -0.201   8.839  1.00  0.00     0.173 A 
ATOM     45  C   UNL     1       6.988   0.979  10.487  1.00  0.00     0.173 A 
ATOM     46  F   UNL     1       8.910  -0.255   7.656  1.00  0.00    -0.203 F 
ATOM     47  C   UNL     1       8.177  -1.365   9.599  1.00  0.00     0.198 A 
ATOM     48  C   UNL     1       6.913  -0.178  11.257  1.00  0.00     0.198 A 
ATOM     49  F   UNL     1       6.378   2.088  10.931  1.00  0.00    -0.203 F 
ATOM     50  F   UNL     1       8.707  -2.509   9.143  1.00  0.00    -0.200 F 
ATOM     51  C   UNL     1       7.497  -1.352  10.807  1.00  0.00     0.200 A 
ATOM     52  F   UNL     1       6.255  -0.162  12.425  1.00  0.00    -0.200 F 
ATOM     53  F   UNL     1       7.387  -2.476  11.529  1.00  0.00    -0.200 F 
ENDBRANCH  29  43
BRANCH  30  54
ATOM     54  C   UNL     1       7.278   8.975   3.127  1.00  0.00     0.064 A 
ATOM     55  C   UNL     1       8.423   9.372   2.421  1.00  0.00     0.173 A 
ATOM     56  C   UNL     1       6.110   9.733   2.942  1.00  0.00     0.173 A 
ATOM     57  F   UNL     1       9.573   8.700   2.579  1.00  0.00    -0.203 F 
ATOM     58  C   UNL     1       8.404  10.485   1.580  1.00  0.00     0.198 A 
ATOM     59  C   UNL     1       6.084  10.825   2.076  1.00  0.00     0.198 A 
ATOM     60  F   UNL     1       4.986   9.405   3.595  1.00  0.00    -0.203 F 
ATOM     61  F   UNL     1       9.526  10.869   0.955  1.00  0.00    -0.200 F 
ATOM     62  C   UNL     1       7.233  11.206   1.403  1.00  0.00     0.200 A 
ATOM     63  F   UNL     1       4.945  11.510   1.899  1.00  0.00    -0.200 F 
ATOM     64  F   UNL     1       7.215  12.273   0.592  1.00  0.00    -0.200 F 
ENDBRANCH  30  54
BRANCH  42  65
ATOM     65  C   UNL     1      10.594   7.590   9.102  1.00  0.00     0.064 A 
ATOM     66  C   UNL     1      10.164   8.673   9.882  1.00  0.00     0.173 A 
ATOM     67  C   UNL     1      11.952   7.240   9.143  1.00  0.00     0.173 A 
ATOM     68  F   UNL     1       8.877   9.050   9.862  1.00  0.00    -0.203 F 
ATOM     69  C   UNL     1      11.068   9.394  10.656  1.00  0.00     0.198 A 
ATOM     70  C   UNL     1      12.846   7.946   9.940  1.00  0.00     0.198 A 
ATOM     71  F   UNL     1      12.405   6.205   8.419  1.00  0.00    -0.203 F 
ATOM     72  F   UNL     1      10.646  10.454  11.359  1.00  0.00    -0.200 F 
ATOM     73  C   UNL     1      12.405   9.026  10.689  1.00  0.00     0.200 A 
ATOM     74  F   UNL     1      14.135   7.581   9.982  1.00  0.00    -0.200 F 
ATOM     75  F   UNL     1      13.272   9.718  11.441  1.00  0.00    -0.200 F 
ENDBRANCH  42  65
ENDBRANCH  16  17
ENDBRANCH   9  11
ENDBRANCH   8   9
ENDBRANCH   7   8
ENDBRANCH   6   7
ENDBRANCH   5   6
ENDBRANCH   4   5
ENDBRANCH   3   4
ENDBRANCH   2   3
ENDBRANCH   1   2
BRANCH   1  76
ATOM     76  C   UNL     1       4.766   1.948  -3.186  1.00  0.00     0.188 C 
BRANCH  76  77
ATOM     77  O   UNL     1       3.883   2.923  -2.645  1.00  0.00    -0.376 OA
BRANCH  77  78
ATOM     78  C   UNL     1       3.833   4.159  -3.354  1.00  0.00     0.202 C 
BRANCH  78  79
ATOM     79  C   UNL     1       3.033   4.125  -4.664  1.00  0.00     0.261 C 
BRANCH  79  80
ATOM     80  O   UNL     1       3.485   3.159  -5.627  1.00  0.00    -0.460 OA
BRANCH  80  81
ATOM     81  C   UNL     1       4.691   3.359  -6.213  1.00  0.00     0.339 C 
ATOM     82  O   UNL     1       5.426   4.305  -6.062  1.00  0.00    -0.246 OA
BRANCH  81  83
ATOM     83  C   UNL     1       5.059   2.093  -6.887  1.00  0.00     0.078 A 
ATOM     84  C   UNL     1       4.130   1.294  -7.553  1.00  0.00     0.019 A 
ATOM     85  C   UNL     1       6.340   1.594  -6.698  1.00  0.00     0.127 A 
ATOM     86  C   UNL     1       4.506   0.018  -7.970  1.00  0.00     0.031 A 
ATOM     87  N   UNL     1       6.732   0.357  -7.097  1.00  0.00    -0.254 NA
ATOM     88  C   UNL     1       5.804  -0.428  -7.714  1.00  0.00     0.094 A 
BRANCH  88  89
ATOM     89  C   UNL     1       6.195  -1.839  -8.152  1.00  0.00     0.318 C 
BRANCH  89  90
ATOM     90  N   UNL     1       7.608  -2.142  -7.918  1.00  0.00    -0.331 N 
ATOM     91  H   UNL     1       7.707  -2.426  -6.944  1.00  0.00     0.347 HD
ATOM     92  H   UNL     1       8.110  -1.289  -8.165  1.00  0.00     0.347 HD
BRANCH  90  93
ATOM     93  C   UNL     1       8.206  -3.203  -8.758  1.00  0.00     0.272 C 
ATOM     94  C   UNL     1       9.324  -3.852  -7.931  1.00  0.00     0.077 C 
ATOM     95  C   UNL     1       7.189  -4.259  -9.245  1.00  0.00     0.278 C 
ATOM     96  C   UNL     1       8.735  -4.753  -6.848  1.00  0.00     0.028 C 
ATOM     97  N   UNL     1       7.039  -5.407  -8.519  1.00  0.00    -0.351 N 
ATOM     98  O   UNL     1       6.458  -4.071 -10.219  1.00  0.00    -0.268 OA
ATOM     99  C   UNL     1       7.954  -5.876  -7.507  1.00  0.00     0.116 C 
ATOM    100  H   UNL     1       6.243  -5.957  -8.701  1.00  0.00     0.163 HD
ENDBRANCH  90  93
ENDBRANCH  89  90
ENDBRANCH  88  89
ENDBRANCH  81  83
ENDBRANCH  80  81
ENDBRANCH  79  80
ENDBRANCH  78  79
ENDBRANCH  77  78
ENDBRANCH  76  77
ENDBRANCH   1  76
TORSDOF 23
