REMARK SMILES C[N@H+]1CCO[C@](C)(C(=O)OCCOCCOCCOCCOC(=O)c2ccc(-c3c4nc(c(-c5c(F)c(F)c(F)c(F)c5F)c5ccc([nH]5)c(-c5c(F)c(F)c(F)c(F)c5F)c5nc(c(-c6c(F)c(F)c(F)c(F)c6F)c6ccc3[nH]6)C=C5)C=C4)cc2)C1
REMARK SMILES IDX 17 1 16 2 15 3 14 4 13 5 12 6 11 7 10 8 8 9 9 10 6 11 1 12
REMARK SMILES IDX 2 13 3 14 88 15 4 17 5 18 7 19 18 20 19 21 20 22 21 23 22 24
REMARK SMILES IDX 23 25 24 26 25 27 26 28 87 29 27 30 86 31 28 32 29 33 30 34
REMARK SMILES IDX 80 35 31 36 85 37 79 38 81 39 32 40 84 41 78 42 77 43 33 45
REMARK SMILES IDX 65 46 45 47 64 48 46 49 49 50 63 51 82 52 47 53 48 54 62 56
REMARK SMILES IDX 83 57 50 58 34 59 35 60 43 61 36 62 37 63 41 64 44 65 38 66
REMARK SMILES IDX 39 67 42 68 40 69 66 70 67 71 75 72 68 73 69 74 73 75 76 76
REMARK SMILES IDX 70 77 71 78 74 79 72 80 51 81 52 82 60 83 53 84 54 85 58 86
REMARK SMILES IDX 61 87 55 88 56 89 59 90 57 91
REMARK H PARENT 2 16 81 44 49 55
REMARK Flexibility Score: inf
ROOT
ATOM      1  C   UNL     1      -3.674  -4.022   1.859  1.00  0.00     0.188 C 
ENDROOT
BRANCH   1   2
ATOM      2  O   UNL     1      -2.300  -3.684   1.699  1.00  0.00    -0.377 OA
BRANCH   2   3
ATOM      3  C   UNL     1      -1.488  -4.531   0.908  1.00  0.00     0.188 C 
BRANCH   3   4
ATOM      4  C   UNL     1      -0.741  -5.615   1.693  1.00  0.00     0.188 C 
BRANCH   4   5
ATOM      5  O   UNL     1      -1.197  -6.023   2.970  1.00  0.00    -0.376 OA
BRANCH   5   6
ATOM      6  C   UNL     1      -1.430  -5.105   4.026  1.00  0.00     0.202 C 
BRANCH   6   7
ATOM      7  C   UNL     1      -0.602  -3.836   4.303  1.00  0.00     0.261 C 
BRANCH   7   8
ATOM      8  O   UNL     1      -0.281  -2.973   3.201  1.00  0.00    -0.461 OA
BRANCH   8   9
ATOM      9  C   UNL     1       0.990  -3.094   2.743  1.00  0.00     0.344 C 
ATOM     10  O   UNL     1       1.799  -3.887   3.225  1.00  0.00    -0.249 OA
BRANCH   9  11
ATOM     11  C   UNL     1       1.364  -2.134   1.591  1.00  0.00     0.211 C 
ATOM     12  C   UNL     1       1.174   0.561  -0.327  1.00  0.00     0.332 C 
ATOM     13  N   UNL     1       0.487  -0.720  -0.393  1.00  0.00    -0.333 N 
ATOM     14  C   UNL     1       1.185  -1.681  -1.267  1.00  0.00     0.290 C 
ATOM     15  C   UNL     1       0.206  -1.335   0.930  1.00  0.00     0.310 C 
ATOM     16  H   UNL     1      -0.420  -0.499  -0.805  1.00  0.00     0.348 HD
ATOM     17  C   UNL     1       2.362  -2.399  -0.593  1.00  0.00     0.223 C 
ATOM     18  O   UNL     1       1.978  -3.026   0.627  1.00  0.00    -0.353 OA
ATOM     19  C   UNL     1       2.396  -1.187   2.217  1.00  0.00     0.061 C 
ENDBRANCH   9  11
ENDBRANCH   8   9
ENDBRANCH   7   8
ENDBRANCH   6   7
ENDBRANCH   5   6
ENDBRANCH   4   5
ENDBRANCH   3   4
ENDBRANCH   2   3
ENDBRANCH   1   2
BRANCH   1  20
ATOM     20  C   UNL     1      -4.116  -5.491   1.708  1.00  0.00     0.188 C 
BRANCH  20  21
ATOM     21  O   UNL     1      -3.642  -6.126   0.530  1.00  0.00    -0.376 OA
BRANCH  21  22
ATOM     22  C   UNL     1      -4.465  -6.118  -0.629  1.00  0.00     0.202 C 
BRANCH  22  23
ATOM     23  C   UNL     1      -4.836  -4.752  -1.230  1.00  0.00     0.261 C 
BRANCH  23  24
ATOM     24  O   UNL     1      -5.639  -3.890  -0.404  1.00  0.00    -0.460 OA
BRANCH  24  25
ATOM     25  C   UNL     1      -6.806  -4.374   0.070  1.00  0.00     0.338 C 
ATOM     26  O   UNL     1      -7.328  -5.436  -0.198  1.00  0.00    -0.246 OA
BRANCH  25  27
ATOM     27  C   UNL     1      -7.267  -3.473   1.150  1.00  0.00     0.060 A 
ATOM     28  C   UNL     1      -7.465  -4.013   2.426  1.00  0.00     0.016 A 
ATOM     29  C   UNL     1      -7.534  -2.124   0.903  1.00  0.00     0.016 A 
ATOM     30  C   UNL     1      -7.980  -3.217   3.448  1.00  0.00     0.010 A 
ATOM     31  C   UNL     1      -8.069  -1.331   1.924  1.00  0.00     0.010 A 
ATOM     32  C   UNL     1      -8.333  -1.886   3.189  1.00  0.00    -0.014 A 
BRANCH  32  33
ATOM     33  C   UNL     1      -9.145  -1.152   4.192  1.00  0.00     0.031 A 
ATOM     34  C   UNL     1     -10.636  -1.078   3.998  1.00  0.00     0.074 A 
ATOM     35  C   UNL     1      -8.581  -0.622   5.291  1.00  0.00     0.049 A 
ATOM     36  N   UNL     1     -11.549  -0.522   4.755  1.00  0.00    -0.248 NA
ATOM     37  C   UNL     1     -11.171  -1.722   2.787  1.00  0.00     0.031 C 
ATOM     38  C   UNL     1      -7.156  -0.664   5.612  1.00  0.00     0.029 A 
ATOM     39  N   UNL     1      -9.145   0.052   6.345  1.00  0.00    -0.354 N 
ATOM     40  C   UNL     1     -12.760  -0.749   4.113  1.00  0.00     0.074 A 
ATOM     41  C   UNL     1     -12.465  -1.459   2.888  1.00  0.00     0.031 C 
ATOM     42  C   UNL     1      -6.956  -0.039   6.785  1.00  0.00     0.029 A 
ATOM     43  C   UNL     1      -8.233   0.471   7.282  1.00  0.00     0.049 A 
ATOM     44  H   UNL     1     -10.112   0.220   6.422  1.00  0.00     0.167 HD
ATOM     45  C   UNL     1     -14.007  -0.407   4.515  1.00  0.00     0.037 A 
ATOM     46  C   UNL     1      -8.411   1.197   8.403  1.00  0.00     0.037 A 
ATOM     47  C   UNL     1     -14.299   0.303   5.734  1.00  0.00     0.049 A 
ATOM     48  C   UNL     1      -9.803   1.628   8.791  1.00  0.00     0.074 A 
ATOM     49  C   UNL     1     -15.531   0.681   6.238  1.00  0.00     0.029 A 
ATOM     50  N   UNL     1     -13.345   0.751   6.635  1.00  0.00    -0.354 N 
ATOM     51  N   UNL     1     -10.946   1.383   8.197  1.00  0.00    -0.248 NA
ATOM     52  C   UNL     1      -9.929   2.432  10.015  1.00  0.00     0.031 C 
ATOM     53  C   UNL     1     -15.318   1.414   7.410  1.00  0.00     0.029 A 
ATOM     54  C   UNL     1     -13.959   1.431   7.676  1.00  0.00     0.049 A 
ATOM     55  H   UNL     1     -12.375   0.608   6.549  1.00  0.00     0.167 HD
ATOM     56  C   UNL     1     -11.925   1.974   8.986  1.00  0.00     0.074 A 
ATOM     57  C   UNL     1     -11.243   2.570  10.116  1.00  0.00     0.031 C 
ATOM     58  C   UNL     1     -13.268   2.022   8.794  1.00  0.00     0.037 A 
BRANCH  45  59
ATOM     59  C   UNL     1     -15.152  -0.768   3.612  1.00  0.00     0.064 A 
ATOM     60  C   UNL     1     -15.561  -2.098   3.428  1.00  0.00     0.173 A 
ATOM     61  C   UNL     1     -15.875   0.236   2.950  1.00  0.00     0.173 A 
ATOM     62  F   UNL     1     -14.895  -3.098   4.025  1.00  0.00    -0.203 F 
ATOM     63  C   UNL     1     -16.633  -2.409   2.595  1.00  0.00     0.198 A 
ATOM     64  C   UNL     1     -16.967  -0.076   2.145  1.00  0.00     0.198 A 
ATOM     65  F   UNL     1     -15.529   1.525   3.093  1.00  0.00    -0.203 F 
ATOM     66  F   UNL     1     -16.974  -3.690   2.395  1.00  0.00    -0.200 F 
ATOM     67  C   UNL     1     -17.340  -1.399   1.961  1.00  0.00     0.200 A 
ATOM     68  F   UNL     1     -17.657   0.903   1.545  1.00  0.00    -0.200 F 
ATOM     69  F   UNL     1     -18.378  -1.699   1.169  1.00  0.00    -0.200 F 
ENDBRANCH  45  59
BRANCH  46  70
ATOM     70  C   UNL     1      -7.240   1.579   9.239  1.00  0.00     0.064 A 
ATOM     71  C   UNL     1      -7.084   1.086  10.543  1.00  0.00     0.173 A 
ATOM     72  C   UNL     1      -6.271   2.475   8.763  1.00  0.00     0.173 A 
ATOM     73  F   UNL     1      -7.997   0.248  11.056  1.00  0.00    -0.203 F 
ATOM     74  C   UNL     1      -6.019   1.494  11.345  1.00  0.00     0.198 A 
ATOM     75  C   UNL     1      -5.189   2.855   9.553  1.00  0.00     0.198 A 
ATOM     76  F   UNL     1      -6.374   2.980   7.524  1.00  0.00    -0.203 F 
ATOM     77  F   UNL     1      -5.927   1.053  12.607  1.00  0.00    -0.200 F 
ATOM     78  C   UNL     1      -5.069   2.373  10.847  1.00  0.00     0.200 A 
ATOM     79  F   UNL     1      -4.266   3.694   9.062  1.00  0.00    -0.200 F 
ATOM     80  F   UNL     1      -4.045   2.764  11.617  1.00  0.00    -0.200 F 
ENDBRANCH  46  70
BRANCH  58  81
ATOM     81  C   UNL     1     -14.090   2.713   9.848  1.00  0.00     0.064 A 
ATOM     82  C   UNL     1     -14.023   4.101  10.048  1.00  0.00     0.173 A 
ATOM     83  C   UNL     1     -14.968   1.978  10.660  1.00  0.00     0.173 A 
ATOM     84  F   UNL     1     -13.192   4.851   9.307  1.00  0.00    -0.203 F 
ATOM     85  C   UNL     1     -14.768   4.718  11.049  1.00  0.00     0.198 A 
ATOM     86  C   UNL     1     -15.741   2.604  11.634  1.00  0.00     0.198 A 
ATOM     87  F   UNL     1     -15.082   0.651  10.505  1.00  0.00    -0.203 F 
ATOM     88  F   UNL     1     -14.634   6.034  11.267  1.00  0.00    -0.200 F 
ATOM     89  C   UNL     1     -15.630   3.971  11.837  1.00  0.00     0.200 A 
ATOM     90  F   UNL     1     -16.587   1.883  12.381  1.00  0.00    -0.200 F 
ATOM     91  F   UNL     1     -16.347   4.567  12.800  1.00  0.00    -0.200 F 
ENDBRANCH  58  81
ENDBRANCH  32  33
ENDBRANCH  25  27
ENDBRANCH  24  25
ENDBRANCH  23  24
ENDBRANCH  22  23
ENDBRANCH  21  22
ENDBRANCH  20  21
ENDBRANCH   1  20
TORSDOF 20
