REMARK SMILES C[N@H+]1CCO[C@H](c2noc(-c3ccccc3C(=O)OCCOCCOCCOCCOC(=O)c3ccc(-c4c5nc(c(-c6c(F)c(F)c(F)c(F)c6F)c6ccc([nH]6)c(-c6c(F)c(F)c(F)c(F)c6F)c6nc(c(-c7c(F)c(F)c(F)c(F)c7F)c7ccc4[nH]7)C=C6)C=C5)cc3)n2)C1
REMARK SMILES IDX 25 1 24 2 23 3 22 4 21 5 20 6 19 7 17 8 18 9 16 10 11 11
REMARK SMILES IDX 12 12 13 13 15 14 14 15 10 16 7 17 8 18 97 19 9 20 6 21 1 22
REMARK SMILES IDX 2 23 3 24 98 25 4 27 5 28 26 29 27 30 28 31 29 32 30 33
REMARK SMILES IDX 31 34 32 35 33 36 34 37 35 38 96 39 36 40 95 41 37 42 38 43
REMARK SMILES IDX 39 44 89 45 40 46 94 47 88 48 90 49 41 50 93 51 87 52 86 53
REMARK SMILES IDX 42 55 74 56 54 57 73 58 55 59 58 60 72 61 91 62 56 63 57 64
REMARK SMILES IDX 71 66 92 67 59 68 43 69 44 70 52 71 45 72 46 73 50 74 53 75
REMARK SMILES IDX 47 76 48 77 51 78 49 79 75 80 76 81 84 82 77 83 78 84 82 85
REMARK SMILES IDX 85 86 79 87 80 88 83 89 81 90 60 91 61 92 69 93 62 94 63 95
REMARK SMILES IDX 67 96 70 97 64 98 65 99 68 100 66 101
REMARK H PARENT 2 26 90 54 58 65
REMARK Flexibility Score: inf
ROOT
ATOM      1  O   UNL     1      -0.790   7.291   2.353  1.00  0.00    -0.377 OA
ENDROOT
BRANCH   1   2
ATOM      2  C   UNL     1      -0.941   8.496   1.619  1.00  0.00     0.188 C 
BRANCH   2   3
ATOM      3  C   UNL     1      -1.884   8.527   0.394  1.00  0.00     0.188 C 
BRANCH   3   4
ATOM      4  O   UNL     1      -2.825   7.471   0.359  1.00  0.00    -0.376 OA
BRANCH   4   5
ATOM      5  C   UNL     1      -2.661   6.402  -0.553  1.00  0.00     0.202 C 
BRANCH   5   6
ATOM      6  C   UNL     1      -1.305   5.704  -0.712  1.00  0.00     0.261 C 
BRANCH   6   7
ATOM      7  O   UNL     1      -0.168   6.521  -0.436  1.00  0.00    -0.460 OA
BRANCH   7   8
ATOM      8  C   UNL     1       0.456   7.119  -1.471  1.00  0.00     0.339 C 
ATOM      9  O   UNL     1       0.100   7.105  -2.636  1.00  0.00    -0.246 OA
BRANCH   8  10
ATOM     10  C   UNL     1       1.517   8.014  -0.934  1.00  0.00     0.072 A 
ATOM     11  C   UNL     1       2.451   7.633   0.052  1.00  0.00     0.054 A 
ATOM     12  C   UNL     1       3.376   8.592   0.503  1.00  0.00     0.015 A 
ATOM     13  C   UNL     1       3.342   9.906   0.028  1.00  0.00     0.001 A 
ATOM     14  C   UNL     1       1.484   9.341  -1.398  1.00  0.00     0.016 A 
ATOM     15  C   UNL     1       2.383  10.286  -0.906  1.00  0.00     0.001 A 
BRANCH  11  16
ATOM     16  C   UNL     1       2.446   6.304   0.644  1.00  0.00     0.258 A 
ATOM     17  C   UNL     1       2.005   4.342   1.216  1.00  0.00     0.206 A 
ATOM     18  N   UNL     1       2.415   4.902   2.364  1.00  0.00    -0.059 NA
ATOM     19  N   UNL     1       2.118   5.151   0.112  1.00  0.00    -0.189 NA
ATOM     20  O   UNL     1       2.689   6.223   1.988  1.00  0.00    -0.334 OA
BRANCH  17  21
ATOM     21  C   UNL     1       1.415   2.965   1.138  1.00  0.00     0.245 C 
ATOM     22  C   UNL     1       1.408   0.131  -0.329  1.00  0.00     0.332 C 
ATOM     23  N   UNL     1       0.496   1.250  -0.545  1.00  0.00    -0.333 N 
ATOM     24  C   UNL     1      -0.697   1.185   0.319  1.00  0.00     0.290 C 
ATOM     25  C   UNL     1       1.161   2.559  -0.341  1.00  0.00     0.303 C 
ATOM     26  H   UNL     1       0.202   1.170  -1.519  1.00  0.00     0.348 HD
ATOM     27  C   UNL     1      -0.404   1.585   1.768  1.00  0.00     0.222 C 
ATOM     28  O   UNL     1       0.165   2.891   1.870  1.00  0.00    -0.358 OA
ENDBRANCH  17  21
ENDBRANCH  11  16
ENDBRANCH   8  10
ENDBRANCH   7   8
ENDBRANCH   6   7
ENDBRANCH   5   6
ENDBRANCH   4   5
ENDBRANCH   3   4
ENDBRANCH   2   3
ENDBRANCH   1   2
BRANCH   1  29
ATOM     29  C   UNL     1      -1.937   6.587   2.825  1.00  0.00     0.188 C 
BRANCH  29  30
ATOM     30  C   UNL     1      -3.300   7.289   3.034  1.00  0.00     0.188 C 
BRANCH  30  31
ATOM     31  O   UNL     1      -3.271   8.698   2.898  1.00  0.00    -0.376 OA
BRANCH  31  32
ATOM     32  C   UNL     1      -3.370   9.486   4.069  1.00  0.00     0.202 C 
BRANCH  32  33
ATOM     33  C   UNL     1      -2.279   9.312   5.136  1.00  0.00     0.261 C 
BRANCH  33  34
ATOM     34  O   UNL     1      -2.025   7.969   5.575  1.00  0.00    -0.460 OA
BRANCH  34  35
ATOM     35  C   UNL     1      -3.003   7.346   6.263  1.00  0.00     0.338 C 
ATOM     36  O   UNL     1      -4.101   7.793   6.560  1.00  0.00    -0.246 OA
BRANCH  35  37
ATOM     37  C   UNL     1      -2.588   5.944   6.464  1.00  0.00     0.060 A 
ATOM     38  C   UNL     1      -3.348   4.912   5.898  1.00  0.00     0.016 A 
ATOM     39  C   UNL     1      -1.450   5.652   7.219  1.00  0.00     0.016 A 
ATOM     40  C   UNL     1      -2.990   3.580   6.119  1.00  0.00     0.010 A 
ATOM     41  C   UNL     1      -1.106   4.319   7.457  1.00  0.00     0.010 A 
ATOM     42  C   UNL     1      -1.894   3.277   6.938  1.00  0.00    -0.014 A 
BRANCH  42  43
ATOM     43  C   UNL     1      -1.681   1.885   7.405  1.00  0.00     0.031 A 
ATOM     44  C   UNL     1      -2.184   1.498   8.764  1.00  0.00     0.074 A 
ATOM     45  C   UNL     1      -1.046   0.974   6.649  1.00  0.00     0.049 A 
ATOM     46  N   UNL     1      -2.061   0.361   9.399  1.00  0.00    -0.248 NA
ATOM     47  C   UNL     1      -2.903   2.538   9.513  1.00  0.00     0.031 C 
ATOM     48  C   UNL     1      -0.495   1.231   5.327  1.00  0.00     0.029 A 
ATOM     49  N   UNL     1      -0.739  -0.345   6.897  1.00  0.00    -0.354 N 
ATOM     50  C   UNL     1      -2.668   0.555  10.630  1.00  0.00     0.074 A 
ATOM     51  C   UNL     1      -3.137   1.925  10.663  1.00  0.00     0.031 C 
ATOM     52  C   UNL     1       0.088   0.106   4.884  1.00  0.00     0.029 A 
ATOM     53  C   UNL     1      -0.036  -0.945   5.883  1.00  0.00     0.049 A 
ATOM     54  H   UNL     1      -1.000  -0.813   7.723  1.00  0.00     0.167 HD
ATOM     55  C   UNL     1      -2.820  -0.331  11.642  1.00  0.00     0.037 A 
ATOM     56  C   UNL     1       0.476  -2.186   5.763  1.00  0.00     0.037 A 
ATOM     57  C   UNL     1      -2.342  -1.689  11.610  1.00  0.00     0.049 A 
ATOM     58  C   UNL     1       0.318  -3.145   6.910  1.00  0.00     0.074 A 
ATOM     59  C   UNL     1      -2.466  -2.668  12.581  1.00  0.00     0.029 A 
ATOM     60  N   UNL     1      -1.636  -2.258  10.559  1.00  0.00    -0.354 N 
ATOM     61  N   UNL     1      -0.287  -2.964   8.057  1.00  0.00    -0.248 NA
ATOM     62  C   UNL     1       0.928  -4.473   6.754  1.00  0.00     0.031 C 
ATOM     63  C   UNL     1      -1.782  -3.807  12.144  1.00  0.00     0.029 A 
ATOM     64  C   UNL     1      -1.295  -3.566  10.870  1.00  0.00     0.049 A 
ATOM     65  H   UNL     1      -1.412  -1.801   9.716  1.00  0.00     0.167 HD
ATOM     66  C   UNL     1      -0.147  -4.155   8.753  1.00  0.00     0.074 A 
ATOM     67  C   UNL     1       0.576  -5.062   7.887  1.00  0.00     0.031 C 
ATOM     68  C   UNL     1      -0.574  -4.463  10.002  1.00  0.00     0.037 A 
BRANCH  55  69
ATOM     69  C   UNL     1      -3.497   0.160  12.887  1.00  0.00     0.064 A 
ATOM     70  C   UNL     1      -4.863   0.479  12.912  1.00  0.00     0.173 A 
ATOM     71  C   UNL     1      -2.768   0.300  14.078  1.00  0.00     0.173 A 
ATOM     72  F   UNL     1      -5.600   0.380  11.796  1.00  0.00    -0.203 F 
ATOM     73  C   UNL     1      -5.467   0.949  14.075  1.00  0.00     0.198 A 
ATOM     74  C   UNL     1      -3.384   0.736  15.248  1.00  0.00     0.198 A 
ATOM     75  F   UNL     1      -1.459   0.010  14.110  1.00  0.00    -0.203 F 
ATOM     76  F   UNL     1      -6.760   1.302  14.060  1.00  0.00    -0.200 F 
ATOM     77  C   UNL     1      -4.730   1.069  15.243  1.00  0.00     0.200 A 
ATOM     78  F   UNL     1      -2.672   0.838  16.379  1.00  0.00    -0.200 F 
ATOM     79  F   UNL     1      -5.315   1.513  16.364  1.00  0.00    -0.200 F 
ENDBRANCH  55  69
BRANCH  56  80
ATOM     80  C   UNL     1       1.184  -2.599   4.517  1.00  0.00     0.064 A 
ATOM     81  C   UNL     1       0.660  -3.602   3.686  1.00  0.00     0.173 A 
ATOM     82  C   UNL     1       2.396  -2.008   4.129  1.00  0.00     0.173 A 
ATOM     83  F   UNL     1      -0.485  -4.216   4.017  1.00  0.00    -0.203 F 
ATOM     84  C   UNL     1       1.328  -4.006   2.530  1.00  0.00     0.198 A 
ATOM     85  C   UNL     1       3.040  -2.382   2.951  1.00  0.00     0.198 A 
ATOM     86  F   UNL     1       2.942  -1.040   4.879  1.00  0.00    -0.203 F 
ATOM     87  F   UNL     1       0.828  -4.999   1.782  1.00  0.00    -0.200 F 
ATOM     88  C   UNL     1       2.512  -3.389   2.158  1.00  0.00     0.200 A 
ATOM     89  F   UNL     1       4.167  -1.759   2.579  1.00  0.00    -0.200 F 
ATOM     90  F   UNL     1       3.143  -3.762   1.037  1.00  0.00    -0.200 F 
ENDBRANCH  56  80
BRANCH  68  91
ATOM     91  C   UNL     1      -0.301  -5.855  10.494  1.00  0.00     0.064 A 
ATOM     92  C   UNL     1       0.997  -6.292  10.801  1.00  0.00     0.173 A 
ATOM     93  C   UNL     1      -1.359  -6.757  10.684  1.00  0.00     0.173 A 
ATOM     94  F   UNL     1       2.045  -5.475  10.619  1.00  0.00    -0.203 F 
ATOM     95  C   UNL     1       1.227  -7.590  11.248  1.00  0.00     0.198 A 
ATOM     96  C   UNL     1      -1.129  -8.041  11.166  1.00  0.00     0.198 A 
ATOM     97  F   UNL     1      -2.620  -6.388  10.409  1.00  0.00    -0.203 F 
ATOM     98  F   UNL     1       2.481  -8.005  11.477  1.00  0.00    -0.200 F 
ATOM     99  C   UNL     1       0.164  -8.460  11.438  1.00  0.00     0.200 A 
ATOM    100  F   UNL     1      -2.159  -8.875  11.363  1.00  0.00    -0.200 F 
ATOM    101  F   UNL     1       0.388  -9.707  11.874  1.00  0.00    -0.200 F 
ENDBRANCH  68  91
ENDBRANCH  42  43
ENDBRANCH  35  37
ENDBRANCH  34  35
ENDBRANCH  33  34
ENDBRANCH  32  33
ENDBRANCH  31  32
ENDBRANCH  30  31
ENDBRANCH  29  30
ENDBRANCH   1  29
TORSDOF 22
