REMARK SMILES CCCCCCNC(=O)Oc1cccc(-c2ccc([C@@H](C)C(=O)OCCOCCOCCOCCOC(=O)c3ccc(-c4c5nc(c(-c6c(F)c(F)c(F)c(F)c6F)c6ccc([nH]6)c(-c6c(F)c(F)c(F)c(F)c6F)c6nc(c(-c7c(F)c(F)c(F)c(F)c7F)c7ccc4[nH]7)C=C6)C=C5)cc3)cc2N)c1
REMARK SMILES IDX 26 1 25 2 24 3 22 4 23 5 20 6 21 7 19 8 16 9 17 10 103 11
REMARK SMILES IDX 18 12 102 13 15 14 11 15 12 16 105 17 13 18 14 19 10 20 8 21
REMARK SMILES IDX 7 22 9 24 6 25 5 26 4 27 3 28 2 29 1 30 104 31 27 34 28 35
REMARK SMILES IDX 29 36 30 37 31 38 32 39 33 40 34 41 35 42 36 43 37 44 38 45
REMARK SMILES IDX 39 46 40 47 101 48 41 49 100 50 42 51 43 52 44 53 94 54
REMARK SMILES IDX 45 55 99 56 93 57 95 58 46 59 98 60 92 61 91 62 47 64 79 65
REMARK SMILES IDX 59 66 78 67 60 68 63 69 77 70 96 71 61 72 62 73 76 75 97 76
REMARK SMILES IDX 64 77 48 78 49 79 57 80 50 81 51 82 55 83 58 84 52 85 53 86
REMARK SMILES IDX 56 87 54 88 80 89 81 90 89 91 82 92 83 93 87 94 90 95 84 96
REMARK SMILES IDX 85 97 88 98 86 99 65 100 66 101 74 102 67 103 68 104 72 105
REMARK SMILES IDX 75 106 69 107 70 108 73 109 71 110
REMARK H PARENT 7 23 104 32 104 33 95 63 63 74
REMARK Flexibility Score: inf
ROOT
ATOM      1  C   UNL     1      -0.886  -8.506  13.044  1.00  0.00     0.202 C 
ENDROOT
BRANCH   1   2
ATOM      2  C   UNL     1      -2.364  -8.749  13.406  1.00  0.00     0.261 C 
BRANCH   2   3
ATOM      3  O   UNL     1      -3.358  -8.036  12.639  1.00  0.00    -0.463 OA
BRANCH   3   4
ATOM      4  C   UNL     1      -3.953  -6.990  13.259  1.00  0.00     0.313 C 
ATOM      5  O   UNL     1      -3.703  -6.663  14.419  1.00  0.00    -0.252 OA
BRANCH   4   6
ATOM      6  C   UNL     1      -5.005  -6.235  12.449  1.00  0.00     0.126 C 
ATOM      7  C   UNL     1      -6.379  -6.564  13.022  1.00  0.00     0.025 C 
BRANCH   6   8
ATOM      8  C   UNL     1      -5.018  -6.274  10.919  1.00  0.00    -0.032 A 
ATOM      9  C   UNL     1      -5.000  -6.193   8.046  1.00  0.00     0.005 A 
ATOM     10  C   UNL     1      -5.164  -7.399   8.764  1.00  0.00     0.011 A 
ATOM     11  C   UNL     1      -4.857  -5.003   8.794  1.00  0.00     0.040 A 
ATOM     12  C   UNL     1      -5.180  -7.441  10.171  1.00  0.00     0.005 A 
ATOM     13  C   UNL     1      -4.853  -5.066  10.203  1.00  0.00     0.030 A 
BRANCH   9  14
ATOM     14  C   UNL     1      -5.064  -6.203   6.560  1.00  0.00    -0.013 A 
ATOM     15  C   UNL     1      -4.185  -5.612   4.364  1.00  0.00     0.133 A 
ATOM     16  C   UNL     1      -5.341  -6.078   3.743  1.00  0.00     0.047 A 
ATOM     17  C   UNL     1      -4.034  -5.678   5.755  1.00  0.00     0.056 A 
ATOM     18  C   UNL     1      -6.355  -6.630   4.519  1.00  0.00     0.004 A 
ATOM     19  C   UNL     1      -6.218  -6.684   5.911  1.00  0.00     0.009 A 
BRANCH  15  20
ATOM     20  O   UNL     1      -3.272  -4.923   3.541  1.00  0.00    -0.410 OA
BRANCH  20  21
ATOM     21  C   UNL     1      -1.924  -5.242   3.595  1.00  0.00     0.412 C 
ATOM     22  N   UNL     1      -1.146  -4.446   2.798  1.00  0.00    -0.321 N 
ATOM     23  H   UNL     1      -0.176  -4.610   2.830  1.00  0.00     0.167 HD
ATOM     24  O   UNL     1      -1.427  -6.143   4.261  1.00  0.00    -0.224 OA
BRANCH  22  25
ATOM     25  C   UNL     1      -1.590  -3.385   1.911  1.00  0.00     0.119 C 
BRANCH  25  26
ATOM     26  C   UNL     1      -0.981  -2.029   2.272  1.00  0.00     0.021 C 
BRANCH  26  27
ATOM     27  C   UNL     1       0.548  -1.953   2.165  1.00  0.00     0.002 C 
BRANCH  27  28
ATOM     28  C   UNL     1       1.131  -2.230   0.774  1.00  0.00    -0.000 C 
BRANCH  28  29
ATOM     29  C   UNL     1       0.665  -1.285  -0.337  1.00  0.00    -0.003 C 
ATOM     30  C   UNL     1       1.072   0.163  -0.109  1.00  0.00     0.004 C 
ENDBRANCH  28  29
ENDBRANCH  27  28
ENDBRANCH  26  27
ENDBRANCH  25  26
ENDBRANCH  22  25
ENDBRANCH  20  21
ENDBRANCH  15  20
ENDBRANCH   9  14
BRANCH  11  31
ATOM     31  N   UNL     1      -4.605  -3.769   8.192  1.00  0.00    -0.398 N 
ATOM     32  H   UNL     1      -4.600  -3.691   7.211  1.00  0.00     0.156 HD
ATOM     33  H   UNL     1      -4.432  -2.975   8.749  1.00  0.00     0.156 HD
ENDBRANCH  11  31
ENDBRANCH   6   8
ENDBRANCH   4   6
ENDBRANCH   3   4
ENDBRANCH   2   3
ENDBRANCH   1   2
BRANCH   1  34
ATOM     34  O   UNL     1      -0.366  -7.190  12.928  1.00  0.00    -0.376 OA
BRANCH  34  35
ATOM     35  C   UNL     1      -0.997  -6.230  12.091  1.00  0.00     0.188 C 
BRANCH  35  36
ATOM     36  C   UNL     1      -1.650  -6.642  10.764  1.00  0.00     0.188 C 
BRANCH  36  37
ATOM     37  O   UNL     1      -1.714  -8.034  10.534  1.00  0.00    -0.377 OA
BRANCH  37  38
ATOM     38  C   UNL     1      -0.776  -8.560   9.612  1.00  0.00     0.188 C 
BRANCH  38  39
ATOM     39  C   UNL     1       0.664  -8.022   9.698  1.00  0.00     0.188 C 
BRANCH  39  40
ATOM     40  O   UNL     1       0.758  -6.604   9.635  1.00  0.00    -0.376 OA
BRANCH  40  41
ATOM     41  C   UNL     1       1.019  -5.989   8.381  1.00  0.00     0.202 C 
BRANCH  41  42
ATOM     42  C   UNL     1      -0.034  -6.112   7.267  1.00  0.00     0.261 C 
BRANCH  42  43
ATOM     43  O   UNL     1      -0.422  -7.439   6.891  1.00  0.00    -0.460 OA
BRANCH  43  44
ATOM     44  C   UNL     1       0.525  -8.284   6.433  1.00  0.00     0.338 C 
ATOM     45  O   UNL     1       1.705  -8.060   6.277  1.00  0.00    -0.246 OA
BRANCH  44  46
ATOM     46  C   UNL     1      -0.094  -9.629   6.362  1.00  0.00     0.060 A 
ATOM     47  C   UNL     1       0.447 -10.670   7.131  1.00  0.00     0.016 A 
ATOM     48  C   UNL     1      -1.202  -9.857   5.544  1.00  0.00     0.016 A 
ATOM     49  C   UNL     1      -0.089 -11.957   7.046  1.00  0.00     0.010 A 
ATOM     50  C   UNL     1      -1.719 -11.151   5.437  1.00  0.00     0.010 A 
ATOM     51  C   UNL     1      -1.138 -12.213   6.155  1.00  0.00    -0.014 A 
BRANCH  51  52
ATOM     52  C   UNL     1      -1.461 -13.609   5.768  1.00  0.00     0.031 A 
ATOM     53  C   UNL     1      -0.840 -14.141   4.504  1.00  0.00     0.074 A 
ATOM     54  C   UNL     1      -2.283 -14.385   6.495  1.00  0.00     0.049 A 
ATOM     55  N   UNL     1      -1.067 -15.261   3.867  1.00  0.00    -0.248 NA
ATOM     56  C   UNL     1       0.173 -13.282   3.869  1.00  0.00     0.031 C 
ATOM     57  C   UNL     1      -2.891 -14.013   7.769  1.00  0.00     0.029 A 
ATOM     58  N   UNL     1      -2.763 -15.648   6.246  1.00  0.00    -0.354 N 
ATOM     59  C   UNL     1      -0.244 -15.228   2.749  1.00  0.00     0.074 A 
ATOM     60  C   UNL     1       0.473 -13.973   2.781  1.00  0.00     0.031 C 
ATOM     61  C   UNL     1      -3.688 -15.016   8.178  1.00  0.00     0.029 A 
ATOM     62  C   UNL     1      -3.681 -16.078   7.172  1.00  0.00     0.049 A 
ATOM     63  H   UNL     1      -2.477 -16.192   5.477  1.00  0.00     0.167 HD
ATOM     64  C   UNL     1      -0.099 -16.162   1.780  1.00  0.00     0.037 A 
ATOM     65  C   UNL     1      -4.453 -17.185   7.180  1.00  0.00     0.037 A 
ATOM     66  C   UNL     1      -0.818 -17.407   1.752  1.00  0.00     0.049 A 
ATOM     67  C   UNL     1      -4.342 -18.172   6.042  1.00  0.00     0.074 A 
ATOM     68  C   UNL     1      -0.742 -18.425   0.819  1.00  0.00     0.029 A 
ATOM     69  N   UNL     1      -1.752 -17.798   2.700  1.00  0.00    -0.354 N 
ATOM     70  N   UNL     1      -3.562 -18.141   4.988  1.00  0.00    -0.248 NA
ATOM     71  C   UNL     1      -5.222 -19.351   6.093  1.00  0.00     0.031 C 
ATOM     72  C   UNL     1      -1.677 -19.404   1.167  1.00  0.00     0.029 A 
ATOM     73  C   UNL     1      -2.278 -19.033   2.359  1.00  0.00     0.049 A 
ATOM     74  H   UNL     1      -2.004 -17.276   3.495  1.00  0.00     0.167 HD
ATOM     75  C   UNL     1      -3.820 -19.311   4.282  1.00  0.00     0.074 A 
ATOM     76  C   UNL     1      -4.833 -20.030   5.023  1.00  0.00     0.031 C 
ATOM     77  C   UNL     1      -3.262 -19.753   3.128  1.00  0.00     0.037 A 
BRANCH  64  78
ATOM     78  C   UNL     1       0.840 -15.854   0.651  1.00  0.00     0.064 A 
ATOM     79  C   UNL     1       2.230 -15.803   0.834  1.00  0.00     0.173 A 
ATOM     80  C   UNL     1       0.340 -15.637  -0.643  1.00  0.00     0.173 A 
ATOM     81  F   UNL     1       2.758 -15.987   2.053  1.00  0.00    -0.203 F 
ATOM     82  C   UNL     1       3.082 -15.518  -0.230  1.00  0.00     0.198 A 
ATOM     83  C   UNL     1       1.197 -15.387  -1.710  1.00  0.00     0.198 A 
ATOM     84  F   UNL     1      -0.981 -15.677  -0.874  1.00  0.00    -0.203 F 
ATOM     85  F   UNL     1       4.402 -15.422  -0.022  1.00  0.00    -0.200 F 
ATOM     86  C   UNL     1       2.566 -15.320  -1.502  1.00  0.00     0.200 A 
ATOM     87  F   UNL     1       0.697 -15.211  -2.942  1.00  0.00    -0.200 F 
ATOM     88  F   UNL     1       3.388 -15.056  -2.527  1.00  0.00    -0.200 F 
ENDBRANCH  64  78
BRANCH  65  89
ATOM     89  C   UNL     1      -5.422 -17.414   8.286  1.00  0.00     0.064 A 
ATOM     90  C   UNL     1      -5.266 -18.487   9.175  1.00  0.00     0.173 A 
ATOM     91  C   UNL     1      -6.544 -16.588   8.455  1.00  0.00     0.173 A 
ATOM     92  F   UNL     1      -4.226 -19.323   9.039  1.00  0.00    -0.203 F 
ATOM     93  C   UNL     1      -6.205 -18.738  10.175  1.00  0.00     0.198 A 
ATOM     94  C   UNL     1      -7.464 -16.821   9.476  1.00  0.00     0.198 A 
ATOM     95  F   UNL     1      -6.747 -15.551   7.630  1.00  0.00    -0.203 F 
ATOM     96  F   UNL     1      -6.060 -19.805  10.973  1.00  0.00    -0.200 F 
ATOM     97  C   UNL     1      -7.300 -17.902  10.328  1.00  0.00     0.200 A 
ATOM     98  F   UNL     1      -8.515 -16.003   9.627  1.00  0.00    -0.200 F 
ATOM     99  F   UNL     1      -8.202 -18.144  11.288  1.00  0.00    -0.200 F 
ENDBRANCH  65  89
BRANCH  77 100
ATOM    100  C   UNL     1      -3.660 -21.112   2.626  1.00  0.00     0.064 A 
ATOM    101  C   UNL     1      -4.919 -21.361   2.063  1.00  0.00     0.173 A 
ATOM    102  C   UNL     1      -2.724 -22.160   2.632  1.00  0.00     0.173 A 
ATOM    103  F   UNL     1      -5.852 -20.398   2.042  1.00  0.00    -0.203 F 
ATOM    104  C   UNL     1      -5.232 -22.613   1.538  1.00  0.00     0.198 A 
ATOM    105  C   UNL     1      -3.029 -23.398   2.076  1.00  0.00     0.198 A 
ATOM    106  F   UNL     1      -1.501 -21.971   3.151  1.00  0.00    -0.203 F 
ATOM    107  F   UNL     1      -6.454 -22.840   1.036  1.00  0.00    -0.200 F 
ATOM    108  C   UNL     1      -4.284 -23.625   1.534  1.00  0.00     0.200 A 
ATOM    109  F   UNL     1      -2.103 -24.368   2.055  1.00  0.00    -0.200 F 
ATOM    110  F   UNL     1      -4.580 -24.822   1.007  1.00  0.00    -0.200 F 
ENDBRANCH  77 100
ENDBRANCH  51  52
ENDBRANCH  44  46
ENDBRANCH  43  44
ENDBRANCH  42  43
ENDBRANCH  41  42
ENDBRANCH  40  41
ENDBRANCH  39  40
ENDBRANCH  38  39
ENDBRANCH  37  38
ENDBRANCH  36  37
ENDBRANCH  35  36
ENDBRANCH  34  35
ENDBRANCH   1  34
TORSDOF 30
