REMARK SMILES CCC(CC)(NC(=O)Nc1cc(Cl)cc(Cl)c1)C(=O)OCCOCCOCCOCCOC(=O)c1ccc(-c2c3nc(c(-c4c(F)c(F)c(F)c(F)c4F)c4ccc([nH]4)c(-c4c(F)c(F)c(F)c(F)c4F)c4nc(c(-c5c(F)c(F)c(F)c(F)c5F)c5ccc2[nH]5)C=C4)C=C3)cc1
REMARK SMILES IDX 26 1 25 2 24 3 23 4 22 5 21 6 20 7 18 8 19 9 3 10 2 11 1 12
REMARK SMILES IDX 4 13 5 14 6 15 7 16 8 18 9 19 10 21 11 22 17 23 12 24 15 25
REMARK SMILES IDX 13 26 14 27 16 28 27 29 28 30 29 31 30 32 31 33 32 34 33 35
REMARK SMILES IDX 34 36 35 37 36 38 97 39 37 40 96 41 38 42 39 43 40 44 90 45
REMARK SMILES IDX 41 46 95 47 89 48 91 49 42 50 94 51 88 52 87 53 43 55 75 56
REMARK SMILES IDX 55 57 74 58 56 59 59 60 73 61 92 62 57 63 58 64 72 66 93 67
REMARK SMILES IDX 60 68 44 69 45 70 53 71 46 72 47 73 51 74 54 75 48 76 49 77
REMARK SMILES IDX 52 78 50 79 76 80 77 81 85 82 78 83 79 84 83 85 86 86 80 87
REMARK SMILES IDX 81 88 84 89 82 90 61 91 62 92 70 93 63 94 64 95 68 96 71 97
REMARK SMILES IDX 65 98 66 99 69 100 67 101
REMARK H PARENT 6 17 9 20 91 54 59 65
REMARK Flexibility Score: inf
ROOT
ATOM      1  O   UNL     1       3.353  -3.918   4.146  1.00  0.00    -0.377 OA
ENDROOT
BRANCH   1   2
ATOM      2  C   UNL     1       3.383  -3.479   2.804  1.00  0.00     0.188 C 
BRANCH   2   3
ATOM      3  C   UNL     1       4.593  -2.624   2.320  1.00  0.00     0.188 C 
BRANCH   3   4
ATOM      4  O   UNL     1       4.721  -1.205   2.614  1.00  0.00    -0.376 OA
BRANCH   4   5
ATOM      5  C   UNL     1       4.983  -0.411   3.796  1.00  0.00     0.202 C 
BRANCH   5   6
ATOM      6  C   UNL     1       4.081   0.934   4.375  1.00  0.00     0.261 C 
BRANCH   6   7
ATOM      7  O   UNL     1       2.578   1.155   4.298  1.00  0.00    -0.461 OA
BRANCH   7   8
ATOM      8  C   UNL     1       1.693   1.938   3.503  1.00  0.00     0.331 C 
ATOM      9  O   UNL     1       1.819   3.152   3.366  1.00  0.00    -0.249 OA
BRANCH   8  10
ATOM     10  C   UNL     1       0.404   1.062   2.809  1.00  0.00     0.139 C 
BRANCH  10  11
ATOM     11  C   UNL     1       0.133   0.355   1.398  1.00  0.00     0.037 C 
ATOM     12  C   UNL     1       0.284   1.028   0.061  1.00  0.00     0.007 C 
ENDBRANCH  10  11
BRANCH  10  13
ATOM     13  C   UNL     1      -0.853   1.872   3.196  1.00  0.00     0.037 C 
ATOM     14  C   UNL     1      -2.219   1.213   3.020  1.00  0.00     0.007 C 
ENDBRANCH  10  13
BRANCH  10  15
ATOM     15  N   UNL     1       0.651  -0.098   3.582  1.00  0.00    -0.322 N 
ATOM     16  C   UNL     1       1.816  -0.732   3.326  1.00  0.00     0.320 C 
ATOM     17  H   UNL     1       0.015  -0.422   4.260  1.00  0.00     0.166 HD
ATOM     18  O   UNL     1       2.183  -1.520   4.197  1.00  0.00    -0.248 OA
ATOM     19  N   UNL     1       2.594  -0.442   2.205  1.00  0.00    -0.308 N 
ATOM     20  H   UNL     1       2.905  -1.323   1.898  1.00  0.00     0.171 HD
BRANCH  19  21
ATOM     21  C   UNL     1       3.190   0.498   1.247  1.00  0.00     0.045 A 
ATOM     22  C   UNL     1       3.494   1.858   1.367  1.00  0.00     0.046 A 
ATOM     23  C   UNL     1       3.804  -0.107   0.132  1.00  0.00     0.046 A 
ATOM     24  C   UNL     1       4.160   2.601   0.377  1.00  0.00     0.044 A 
ATOM     25  C   UNL     1       4.587   0.601  -0.794  1.00  0.00     0.044 A 
ATOM     26  Cl  UNL     1       4.360   4.302   0.578  1.00  0.00    -0.084 Cl
ATOM     27  C   UNL     1       4.716   1.974  -0.715  1.00  0.00     0.041 A 
ATOM     28  Cl  UNL     1       5.450  -0.259  -2.009  1.00  0.00    -0.084 Cl
ENDBRANCH  19  21
ENDBRANCH  10  15
ENDBRANCH   8  10
ENDBRANCH   7   8
ENDBRANCH   6   7
ENDBRANCH   5   6
ENDBRANCH   4   5
ENDBRANCH   3   4
ENDBRANCH   2   3
ENDBRANCH   1   2
BRANCH   1  29
ATOM     29  C   UNL     1       4.532  -3.703   4.883  1.00  0.00     0.188 C 
BRANCH  29  30
ATOM     30  C   UNL     1       5.738  -4.535   4.431  1.00  0.00     0.188 C 
BRANCH  30  31
ATOM     31  O   UNL     1       5.622  -5.924   4.164  1.00  0.00    -0.376 OA
BRANCH  31  32
ATOM     32  C   UNL     1       4.351  -6.515   3.968  1.00  0.00     0.202 C 
BRANCH  32  33
ATOM     33  C   UNL     1       3.512  -6.788   5.231  1.00  0.00     0.261 C 
BRANCH  33  34
ATOM     34  O   UNL     1       3.816  -5.998   6.393  1.00  0.00    -0.460 OA
BRANCH  34  35
ATOM     35  C   UNL     1       5.014  -6.208   6.976  1.00  0.00     0.338 C 
ATOM     36  O   UNL     1       5.821  -7.100   6.719  1.00  0.00    -0.246 OA
BRANCH  35  37
ATOM     37  C   UNL     1       5.319  -5.091   7.899  1.00  0.00     0.060 A 
ATOM     38  C   UNL     1       6.556  -4.436   7.784  1.00  0.00     0.016 A 
ATOM     39  C   UNL     1       4.418  -4.710   8.896  1.00  0.00     0.016 A 
ATOM     40  C   UNL     1       6.928  -3.457   8.697  1.00  0.00     0.010 A 
ATOM     41  C   UNL     1       4.819  -3.776   9.858  1.00  0.00     0.010 A 
ATOM     42  C   UNL     1       6.104  -3.204   9.797  1.00  0.00    -0.014 A 
BRANCH  42  43
ATOM     43  C   UNL     1       6.751  -2.675  11.021  1.00  0.00     0.031 A 
ATOM     44  C   UNL     1       7.264  -3.684  12.019  1.00  0.00     0.074 A 
ATOM     45  C   UNL     1       6.981  -1.365  11.201  1.00  0.00     0.049 A 
ATOM     46  N   UNL     1       7.869  -3.499  13.164  1.00  0.00    -0.248 NA
ATOM     47  C   UNL     1       7.070  -5.102  11.669  1.00  0.00     0.031 C 
ATOM     48  C   UNL     1       6.618  -0.304  10.267  1.00  0.00     0.029 A 
ATOM     49  N   UNL     1       7.590  -0.709  12.241  1.00  0.00    -0.354 N 
ATOM     50  C   UNL     1       8.104  -4.771  13.673  1.00  0.00     0.074 A 
ATOM     51  C   UNL     1       7.556  -5.719  12.732  1.00  0.00     0.031 C 
ATOM     52  C   UNL     1       7.006   0.877  10.780  1.00  0.00     0.029 A 
ATOM     53  C   UNL     1       7.612   0.655  12.093  1.00  0.00     0.049 A 
ATOM     54  H   UNL     1       7.974  -1.173  13.020  1.00  0.00     0.167 HD
ATOM     55  C   UNL     1       8.728  -5.120  14.822  1.00  0.00     0.037 A 
ATOM     56  C   UNL     1       8.054   1.608  12.937  1.00  0.00     0.037 A 
ATOM     57  C   UNL     1       9.280  -4.173  15.752  1.00  0.00     0.049 A 
ATOM     58  C   UNL     1       8.661   1.198  14.257  1.00  0.00     0.074 A 
ATOM     59  C   UNL     1       9.942  -4.416  16.941  1.00  0.00     0.029 A 
ATOM     60  N   UNL     1       9.224  -2.795  15.598  1.00  0.00    -0.354 N 
ATOM     61  N   UNL     1       8.886  -0.003  14.733  1.00  0.00    -0.248 NA
ATOM     62  C   UNL     1       9.080   2.284  15.154  1.00  0.00     0.031 C 
ATOM     63  C   UNL     1      10.225  -3.185  17.541  1.00  0.00     0.029 A 
ATOM     64  C   UNL     1       9.809  -2.174  16.688  1.00  0.00     0.049 A 
ATOM     65  H   UNL     1       8.827  -2.328  14.827  1.00  0.00     0.167 HD
ATOM     66  C   UNL     1       9.506   0.181  15.963  1.00  0.00     0.074 A 
ATOM     67  C   UNL     1       9.633   1.611  16.153  1.00  0.00     0.031 C 
ATOM     68  C   UNL     1       9.937  -0.748  16.855  1.00  0.00     0.037 A 
BRANCH  55  69
ATOM     69  C   UNL     1       8.792  -6.583  15.159  1.00  0.00     0.064 A 
ATOM     70  C   UNL     1       9.573  -7.488  14.423  1.00  0.00     0.173 A 
ATOM     71  C   UNL     1       8.058  -7.087  16.244  1.00  0.00     0.173 A 
ATOM     72  F   UNL     1      10.280  -7.065  13.364  1.00  0.00    -0.203 F 
ATOM     73  C   UNL     1       9.587  -8.845  14.738  1.00  0.00     0.198 A 
ATOM     74  C   UNL     1       8.104  -8.437  16.579  1.00  0.00     0.198 A 
ATOM     75  F   UNL     1       7.294  -6.267  16.983  1.00  0.00    -0.203 F 
ATOM     76  F   UNL     1      10.290  -9.700  13.982  1.00  0.00    -0.200 F 
ATOM     77  C   UNL     1       8.859  -9.317  15.820  1.00  0.00     0.200 A 
ATOM     78  F   UNL     1       7.411  -8.887  17.635  1.00  0.00    -0.200 F 
ATOM     79  F   UNL     1       8.878 -10.621  16.126  1.00  0.00    -0.200 F 
ENDBRANCH  55  69
BRANCH  56  80
ATOM     80  C   UNL     1       7.935   3.045  12.570  1.00  0.00     0.064 A 
ATOM     81  C   UNL     1       9.073   3.834  12.354  1.00  0.00     0.173 A 
ATOM     82  C   UNL     1       6.682   3.667  12.459  1.00  0.00     0.173 A 
ATOM     83  F   UNL     1      10.295   3.294  12.476  1.00  0.00    -0.203 F 
ATOM     84  C   UNL     1       8.964   5.192  12.062  1.00  0.00     0.198 A 
ATOM     85  C   UNL     1       6.573   5.018  12.135  1.00  0.00     0.198 A 
ATOM     86  F   UNL     1       5.560   2.960  12.661  1.00  0.00    -0.203 F 
ATOM     87  F   UNL     1      10.071   5.934  11.914  1.00  0.00    -0.200 F 
ATOM     88  C   UNL     1       7.715   5.782  11.946  1.00  0.00     0.200 A 
ATOM     89  F   UNL     1       5.363   5.579  12.012  1.00  0.00    -0.200 F 
ATOM     90  F   UNL     1       7.610   7.087  11.663  1.00  0.00    -0.200 F 
ENDBRANCH  56  80
BRANCH  68  91
ATOM     91  C   UNL     1      10.639  -0.250  18.088  1.00  0.00     0.064 A 
ATOM     92  C   UNL     1       9.964   0.450  19.099  1.00  0.00     0.173 A 
ATOM     93  C   UNL     1      12.008  -0.505  18.272  1.00  0.00     0.173 A 
ATOM     94  F   UNL     1       8.658   0.730  18.970  1.00  0.00    -0.203 F 
ATOM     95  C   UNL     1      10.640   0.910  20.226  1.00  0.00     0.198 A 
ATOM     96  C   UNL     1      12.671  -0.079  19.419  1.00  0.00     0.198 A 
ATOM     97  F   UNL     1      12.702  -1.181  17.344  1.00  0.00    -0.203 F 
ATOM     98  F   UNL     1       9.987   1.633  21.147  1.00  0.00    -0.200 F 
ATOM     99  C   UNL     1      11.990   0.640  20.389  1.00  0.00     0.200 A 
ATOM    100  F   UNL     1      13.972  -0.359  19.583  1.00  0.00    -0.200 F 
ATOM    101  F   UNL     1      12.637   1.080  21.477  1.00  0.00    -0.200 F 
ENDBRANCH  68  91
ENDBRANCH  42  43
ENDBRANCH  35  37
ENDBRANCH  34  35
ENDBRANCH  33  34
ENDBRANCH  32  33
ENDBRANCH  31  32
ENDBRANCH  30  31
ENDBRANCH  29  30
ENDBRANCH   1  29
TORSDOF 24
