REMARK SMILES C#CC[N@H+](CC(=O)OCCOCCOCCOCCOC(=O)c1ccc(-c2c3nc(c(-c4c(F)c(F)c(F)c(F)c4F)c4ccc([nH]4)c(-c4c(F)c(F)c(F)c(F)c4F)c4nc(c(-c5c(F)c(F)c(F)c(F)c5F)c5ccc2[nH]5)C=C4)C=C3)cc1)[C@H](C)c1cc(C)ccc1C
REMARK SMILES IDX 13 1 12 2 11 3 10 4 9 5 8 6 6 7 7 8 5 9 4 10 3 12 2 13 1 14
REMARK SMILES IDX 86 15 87 16 88 17 89 18 94 19 90 20 93 21 95 22 91 23 92 24
REMARK SMILES IDX 14 25 15 26 16 27 17 28 18 29 19 30 20 31 21 32 22 33 23 34
REMARK SMILES IDX 24 35 85 36 25 37 84 38 26 39 27 40 28 41 78 42 29 43 83 44
REMARK SMILES IDX 77 45 79 46 30 47 82 48 76 49 75 50 31 52 63 53 43 54 62 55
REMARK SMILES IDX 44 56 47 57 61 58 80 59 45 60 46 61 60 63 81 64 48 65 32 66
REMARK SMILES IDX 33 67 41 68 34 69 35 70 39 71 42 72 36 73 37 74 40 75 38 76
REMARK SMILES IDX 64 77 65 78 73 79 66 80 67 81 71 82 74 83 68 84 69 85 72 86
REMARK SMILES IDX 70 87 49 88 50 89 58 90 51 91 52 92 56 93 59 94 53 95 54 96
REMARK SMILES IDX 57 97 55 98
REMARK H PARENT 4 11 79 51 47 62
REMARK Flexibility Score: inf
ROOT
ATOM      1  C   UNL     1      -2.728  -1.853  -5.079  1.00  0.00     0.188 C 
ENDROOT
BRANCH   1   2
ATOM      2  C   UNL     1      -4.214  -2.027  -5.431  1.00  0.00     0.188 C 
BRANCH   2   3
ATOM      3  O   UNL     1      -4.718  -1.170  -6.433  1.00  0.00    -0.376 OA
BRANCH   3   4
ATOM      4  C   UNL     1      -5.306   0.079  -6.119  1.00  0.00     0.202 C 
BRANCH   4   5
ATOM      5  C   UNL     1      -5.203   0.803  -4.765  1.00  0.00     0.261 C 
BRANCH   5   6
ATOM      6  O   UNL     1      -4.303   0.259  -3.800  1.00  0.00    -0.459 OA
BRANCH   6   7
ATOM      7  C   UNL     1      -4.844  -0.375  -2.740  1.00  0.00     0.361 C 
ATOM      8  O   UNL     1      -6.057  -0.527  -2.596  1.00  0.00    -0.245 OA
BRANCH   7   9
ATOM      9  C   UNL     1      -3.870  -0.900  -1.686  1.00  0.00     0.387 C 
BRANCH   9  10
ATOM     10  N   UNL     1      -2.386  -0.931  -1.889  1.00  0.00    -0.310 N 
ATOM     11  H   UNL     1      -2.171  -1.485  -2.718  1.00  0.00     0.349 HD
BRANCH  10  12
ATOM     12  C   UNL     1      -1.808   0.359  -2.275  1.00  0.00     0.354 C 
BRANCH  12  13
ATOM     13  C   UNL     1      -0.492   0.234  -2.930  1.00  0.00    -0.047 C 
ATOM     14  C   UNL     1       0.588   0.119  -3.456  1.00  0.00     0.010 C 
ENDBRANCH  12  13
ENDBRANCH  10  12
BRANCH  10  15
ATOM     15  C   UNL     1      -1.735  -1.646  -0.728  1.00  0.00     0.213 C 
ATOM     16  C   UNL     1      -2.350  -1.389   0.664  1.00  0.00     0.081 C 
BRANCH  15  17
ATOM     17  C   UNL     1      -0.197  -1.721  -0.616  1.00  0.00     0.012 A 
ATOM     18  C   UNL     1       0.410  -2.991  -0.817  1.00  0.00     0.013 A 
ATOM     19  C   UNL     1       0.649  -0.660  -0.210  1.00  0.00    -0.042 A 
ATOM     20  C   UNL     1       1.794  -3.196  -0.676  1.00  0.00    -0.051 A 
ATOM     21  C   UNL     1       2.046  -0.852  -0.198  1.00  0.00     0.004 A 
ATOM     22  C   UNL     1       0.196   0.714   0.196  1.00  0.00     0.045 C 
ATOM     23  C   UNL     1       2.380  -4.577  -0.722  1.00  0.00     0.044 C 
ATOM     24  C   UNL     1       2.613  -2.101  -0.423  1.00  0.00     0.004 A 
ENDBRANCH  15  17
ENDBRANCH  10  15
ENDBRANCH   9  10
ENDBRANCH   7   9
ENDBRANCH   6   7
ENDBRANCH   5   6
ENDBRANCH   4   5
ENDBRANCH   3   4
ENDBRANCH   2   3
ENDBRANCH   1   2
BRANCH   1  25
ATOM     25  O   UNL     1      -2.134  -0.584  -5.264  1.00  0.00    -0.377 OA
BRANCH  25  26
ATOM     26  C   UNL     1      -2.058   0.022  -6.540  1.00  0.00     0.188 C 
BRANCH  26  27
ATOM     27  C   UNL     1      -2.208  -0.795  -7.837  1.00  0.00     0.188 C 
BRANCH  27  28
ATOM     28  O   UNL     1      -2.207  -2.198  -7.671  1.00  0.00    -0.376 OA
BRANCH  28  29
ATOM     29  C   UNL     1      -0.995  -2.901  -7.896  1.00  0.00     0.202 C 
BRANCH  29  30
ATOM     30  C   UNL     1       0.268  -2.510  -7.107  1.00  0.00     0.261 C 
BRANCH  30  31
ATOM     31  O   UNL     1       0.627  -1.119  -7.097  1.00  0.00    -0.460 OA
BRANCH  31  32
ATOM     32  C   UNL     1       1.025  -0.569  -8.262  1.00  0.00     0.338 C 
ATOM     33  O   UNL     1       1.117  -1.117  -9.344  1.00  0.00    -0.246 OA
BRANCH  32  34
ATOM     34  C   UNL     1       1.183   0.885  -8.046  1.00  0.00     0.060 A 
ATOM     35  C   UNL     1       0.303   1.769  -8.685  1.00  0.00     0.016 A 
ATOM     36  C   UNL     1       2.208   1.374  -7.233  1.00  0.00     0.016 A 
ATOM     37  C   UNL     1       0.467   3.147  -8.541  1.00  0.00     0.010 A 
ATOM     38  C   UNL     1       2.386   2.756  -7.111  1.00  0.00     0.010 A 
ATOM     39  C   UNL     1       1.539   3.649  -7.793  1.00  0.00    -0.014 A 
BRANCH  39  40
ATOM     40  C   UNL     1       1.889   5.089  -7.886  1.00  0.00     0.031 A 
ATOM     41  C   UNL     1       3.016   5.494  -8.797  1.00  0.00     0.074 A 
ATOM     42  C   UNL     1       1.207   6.024  -7.202  1.00  0.00     0.049 A 
ATOM     43  N   UNL     1       3.545   6.674  -8.999  1.00  0.00    -0.248 NA
ATOM     44  C   UNL     1       3.633   4.417  -9.589  1.00  0.00     0.031 C 
ATOM     45  C   UNL     1       0.064   5.768  -6.331  1.00  0.00     0.029 A 
ATOM     46  N   UNL     1       1.388   7.384  -7.131  1.00  0.00    -0.354 N 
ATOM     47  C   UNL     1       4.558   6.479  -9.929  1.00  0.00     0.074 A 
ATOM     48  C   UNL     1       4.596   5.064 -10.226  1.00  0.00     0.031 C 
ATOM     49  C   UNL     1      -0.348   6.933  -5.800  1.00  0.00     0.029 A 
ATOM     50  C   UNL     1       0.529   8.009  -6.261  1.00  0.00     0.049 A 
ATOM     51  H   UNL     1       2.070   7.865  -7.654  1.00  0.00     0.167 HD
ATOM     52  C   UNL     1       5.377   7.399 -10.491  1.00  0.00     0.037 A 
ATOM     53  C   UNL     1       0.479   9.296  -5.862  1.00  0.00     0.037 A 
ATOM     54  C   UNL     1       5.340   8.806 -10.189  1.00  0.00     0.049 A 
ATOM     55  C   UNL     1       1.468  10.285  -6.431  1.00  0.00     0.074 A 
ATOM     56  C   UNL     1       6.121   9.822 -10.713  1.00  0.00     0.029 A 
ATOM     57  N   UNL     1       4.482   9.395  -9.271  1.00  0.00    -0.354 N 
ATOM     58  N   UNL     1       2.409  10.100  -7.326  1.00  0.00    -0.248 NA
ATOM     59  C   UNL     1       1.385  11.666  -5.933  1.00  0.00     0.031 C 
ATOM     60  C   UNL     1       5.786  11.011 -10.060  1.00  0.00     0.029 A 
ATOM     61  C   UNL     1       4.740  10.755  -9.189  1.00  0.00     0.049 A 
ATOM     62  H   UNL     1       3.793   8.918  -8.755  1.00  0.00     0.167 HD
ATOM     63  C   UNL     1       3.000  11.342  -7.525  1.00  0.00     0.074 A 
ATOM     64  C   UNL     1       2.300  12.277  -6.670  1.00  0.00     0.031 C 
ATOM     65  C   UNL     1       4.028  11.680  -8.343  1.00  0.00     0.037 A 
BRANCH  52  66
ATOM     66  C   UNL     1       6.410   6.911 -11.467  1.00  0.00     0.064 A 
ATOM     67  C   UNL     1       6.059   6.407 -12.729  1.00  0.00     0.173 A 
ATOM     68  C   UNL     1       7.775   6.987 -11.151  1.00  0.00     0.173 A 
ATOM     69  F   UNL     1       4.768   6.301 -13.079  1.00  0.00    -0.203 F 
ATOM     70  C   UNL     1       7.033   5.973 -13.624  1.00  0.00     0.198 A 
ATOM     71  C   UNL     1       8.748   6.587 -12.062  1.00  0.00     0.198 A 
ATOM     72  F   UNL     1       8.168   7.465  -9.960  1.00  0.00    -0.203 F 
ATOM     73  F   UNL     1       6.671   5.447 -14.803  1.00  0.00    -0.200 F 
ATOM     74  C   UNL     1       8.376   6.072 -13.295  1.00  0.00     0.200 A 
ATOM     75  F   UNL     1      10.046   6.701 -11.748  1.00  0.00    -0.200 F 
ATOM     76  F   UNL     1       9.313   5.666 -14.162  1.00  0.00    -0.200 F 
ENDBRANCH  52  66
BRANCH  53  77
ATOM     77  C   UNL     1      -0.526   9.731  -4.852  1.00  0.00     0.064 A 
ATOM     78  C   UNL     1      -1.526  10.659  -5.177  1.00  0.00     0.173 A 
ATOM     79  C   UNL     1      -0.477   9.268  -3.529  1.00  0.00     0.173 A 
ATOM     80  F   UNL     1      -1.601  11.154  -6.421  1.00  0.00    -0.203 F 
ATOM     81  C   UNL     1      -2.416  11.128  -4.213  1.00  0.00     0.198 A 
ATOM     82  C   UNL     1      -1.392   9.709  -2.574  1.00  0.00     0.198 A 
ATOM     83  F   UNL     1       0.461   8.383  -3.159  1.00  0.00    -0.203 F 
ATOM     84  F   UNL     1      -3.318  12.065  -4.537  1.00  0.00    -0.200 F 
ATOM     85  C   UNL     1      -2.352  10.649  -2.914  1.00  0.00     0.200 A 
ATOM     86  F   UNL     1      -1.335   9.230  -1.324  1.00  0.00    -0.200 F 
ATOM     87  F   UNL     1      -3.207  11.101  -1.986  1.00  0.00    -0.200 F 
ENDBRANCH  53  77
BRANCH  65  88
ATOM     88  C   UNL     1       4.429  13.129  -8.398  1.00  0.00     0.064 A 
ATOM     89  C   UNL     1       5.038  13.776  -7.312  1.00  0.00     0.173 A 
ATOM     90  C   UNL     1       4.237  13.871  -9.575  1.00  0.00     0.173 A 
ATOM     91  F   UNL     1       5.236  13.118  -6.159  1.00  0.00    -0.203 F 
ATOM     92  C   UNL     1       5.405  15.117  -7.390  1.00  0.00     0.198 A 
ATOM     93  C   UNL     1       4.643  15.200  -9.663  1.00  0.00     0.198 A 
ATOM     94  F   UNL     1       3.671  13.302 -10.650  1.00  0.00    -0.203 F 
ATOM     95  F   UNL     1       5.928  15.729  -6.318  1.00  0.00    -0.200 F 
ATOM     96  C   UNL     1       5.216  15.825  -8.567  1.00  0.00     0.200 A 
ATOM     97  F   UNL     1       4.479  15.874 -10.809  1.00  0.00    -0.200 F 
ATOM     98  F   UNL     1       5.579  17.113  -8.643  1.00  0.00    -0.200 F 
ENDBRANCH  65  88
ENDBRANCH  39  40
ENDBRANCH  32  34
ENDBRANCH  31  32
ENDBRANCH  30  31
ENDBRANCH  29  30
ENDBRANCH  28  29
ENDBRANCH  27  28
ENDBRANCH  26  27
ENDBRANCH  25  26
ENDBRANCH   1  25
TORSDOF 25
