REMARK SMILES CCOc1cccc(OCC)c1-c1ccc([C@@H](C)C(=O)OCCOCCOCCOCCOC(=O)c2ccc(-c3c4nc(c(-c5c(F)c(F)c(F)c(F)c5F)c5ccc([nH]5)c(-c5c(F)c(F)c(F)c(F)c5F)c5nc(c(-c6c(F)c(F)c(F)c(F)c6F)c6ccc3[nH]6)C=C5)C=C4)cc2)cc1F
REMARK SMILES IDX 26 1 25 2 24 3 23 4 22 5 21 6 19 7 20 8 17 9 18 10 16 11
REMARK SMILES IDX 13 12 14 13 100 14 15 15 99 16 101 17 12 18 4 19 5 20 6 21
REMARK SMILES IDX 8 22 7 23 3 24 2 25 1 26 9 27 10 28 11 29 27 30 28 31 29 32
REMARK SMILES IDX 30 33 31 34 32 35 33 36 34 37 35 38 36 39 37 40 98 41 38 42
REMARK SMILES IDX 97 43 39 44 40 45 41 46 91 47 42 48 96 49 90 50 92 51 43 52
REMARK SMILES IDX 95 53 89 54 88 55 44 57 76 58 56 59 75 60 57 61 60 62 74 63
REMARK SMILES IDX 93 64 58 65 59 66 73 68 94 69 61 70 45 71 46 72 54 73 47 74
REMARK SMILES IDX 48 75 52 76 55 77 49 78 50 79 53 80 51 81 77 82 78 83 86 84
REMARK SMILES IDX 79 85 80 86 84 87 87 88 81 89 82 90 85 91 83 92 62 93 63 94
REMARK SMILES IDX 71 95 64 96 65 97 69 98 72 99 66 100 67 101 70 102 68 103
REMARK H PARENT 92 56 60 67
REMARK Flexibility Score: inf
ROOT
ATOM      1  C   UNL     1      -0.527   2.314  -2.000  1.00  0.00     0.188 C 
ENDROOT
BRANCH   1   2
ATOM      2  C   UNL     1      -1.464   3.517  -2.129  1.00  0.00     0.188 C 
BRANCH   2   3
ATOM      3  O   UNL     1      -1.421   4.352  -3.275  1.00  0.00    -0.376 OA
BRANCH   3   4
ATOM      4  C   UNL     1      -0.177   4.682  -3.875  1.00  0.00     0.202 C 
BRANCH   4   5
ATOM      5  C   UNL     1       0.917   5.343  -3.023  1.00  0.00     0.261 C 
BRANCH   5   6
ATOM      6  O   UNL     1       1.360   4.599  -1.867  1.00  0.00    -0.463 OA
BRANCH   6   7
ATOM      7  C   UNL     1       1.025   5.120  -0.662  1.00  0.00     0.313 C 
ATOM      8  O   UNL     1       0.334   6.130  -0.532  1.00  0.00    -0.252 OA
BRANCH   7   9
ATOM      9  C   UNL     1       1.624   4.437   0.561  1.00  0.00     0.126 C 
ATOM     10  C   UNL     1       2.801   5.284   1.047  1.00  0.00     0.025 C 
BRANCH   9  11
ATOM     11  C   UNL     1       2.000   2.956   0.592  1.00  0.00    -0.031 A 
ATOM     12  C   UNL     1       2.898   0.247   0.938  1.00  0.00     0.025 A 
ATOM     13  C   UNL     1       3.052   0.934  -0.281  1.00  0.00     0.012 A 
ATOM     14  C   UNL     1       2.213   0.921   1.952  1.00  0.00     0.131 A 
ATOM     15  C   UNL     1       2.657   2.277  -0.438  1.00  0.00     0.005 A 
ATOM     16  C   UNL     1       1.765   2.238   1.784  1.00  0.00     0.044 A 
ATOM     17  F   UNL     1       1.995   0.328   3.136  1.00  0.00    -0.206 F 
BRANCH  12  18
ATOM     18  C   UNL     1       3.441  -1.121   1.111  1.00  0.00     0.069 A 
ATOM     19  C   UNL     1       2.534  -2.215   1.143  1.00  0.00     0.130 A 
ATOM     20  C   UNL     1       2.946  -3.553   1.140  1.00  0.00     0.047 A 
ATOM     21  C   UNL     1       4.296  -3.848   1.131  1.00  0.00     0.008 A 
ATOM     22  C   UNL     1       4.813  -1.446   1.196  1.00  0.00     0.130 A 
ATOM     23  C   UNL     1       5.212  -2.802   1.190  1.00  0.00     0.047 A 
BRANCH  19  24
ATOM     24  O   UNL     1       1.200  -1.975   1.350  1.00  0.00    -0.493 OA
BRANCH  24  25
ATOM     25  C   UNL     1       0.399  -2.212   0.200  1.00  0.00     0.226 C 
ATOM     26  C   UNL     1      -0.283  -0.905  -0.128  1.00  0.00     0.049 C 
ENDBRANCH  24  25
ENDBRANCH  19  24
BRANCH  22  27
ATOM     27  O   UNL     1       5.921  -0.658   1.337  1.00  0.00    -0.493 OA
BRANCH  27  28
ATOM     28  C   UNL     1       5.909   0.758   1.304  1.00  0.00     0.226 C 
ATOM     29  C   UNL     1       6.297   1.213  -0.091  1.00  0.00     0.049 C 
ENDBRANCH  27  28
ENDBRANCH  22  27
ENDBRANCH  12  18
ENDBRANCH   9  11
ENDBRANCH   7   9
ENDBRANCH   6   7
ENDBRANCH   5   6
ENDBRANCH   4   5
ENDBRANCH   3   4
ENDBRANCH   2   3
ENDBRANCH   1   2
BRANCH   1  30
ATOM     30  O   UNL     1       0.407   2.159  -3.047  1.00  0.00    -0.377 OA
BRANCH  30  31
ATOM     31  C   UNL     1       0.248   0.980  -3.821  1.00  0.00     0.188 C 
BRANCH  31  32
ATOM     32  C   UNL     1      -1.048   0.900  -4.649  1.00  0.00     0.188 C 
BRANCH  32  33
ATOM     33  O   UNL     1      -2.283   0.671  -3.980  1.00  0.00    -0.376 OA
BRANCH  33  34
ATOM     34  C   UNL     1      -2.456  -0.454  -3.129  1.00  0.00     0.202 C 
BRANCH  34  35
ATOM     35  C   UNL     1      -1.901  -1.828  -3.520  1.00  0.00     0.261 C 
BRANCH  35  36
ATOM     36  O   UNL     1      -0.491  -1.803  -3.798  1.00  0.00    -0.460 OA
BRANCH  36  37
ATOM     37  C   UNL     1      -0.111  -2.528  -4.865  1.00  0.00     0.338 C 
ATOM     38  O   UNL     1      -0.797  -3.341  -5.490  1.00  0.00    -0.246 OA
BRANCH  37  39
ATOM     39  C   UNL     1       1.206  -2.097  -5.350  1.00  0.00     0.060 A 
ATOM     40  C   UNL     1       1.245  -1.357  -6.539  1.00  0.00     0.016 A 
ATOM     41  C   UNL     1       2.386  -2.551  -4.757  1.00  0.00     0.016 A 
ATOM     42  C   UNL     1       2.458  -1.135  -7.184  1.00  0.00     0.010 A 
ATOM     43  C   UNL     1       3.605  -2.341  -5.417  1.00  0.00     0.010 A 
ATOM     44  C   UNL     1       3.636  -1.684  -6.662  1.00  0.00    -0.014 A 
BRANCH  44  45
ATOM     45  C   UNL     1       4.827  -1.768  -7.544  1.00  0.00     0.031 A 
ATOM     46  C   UNL     1       5.046  -3.029  -8.339  1.00  0.00     0.074 A 
ATOM     47  C   UNL     1       5.656  -0.722  -7.704  1.00  0.00     0.049 A 
ATOM     48  N   UNL     1       5.993  -3.322  -9.195  1.00  0.00    -0.248 NA
ATOM     49  C   UNL     1       4.057  -4.103  -8.148  1.00  0.00     0.031 C 
ATOM     50  C   UNL     1       5.523   0.571  -7.037  1.00  0.00     0.029 A 
ATOM     51  N   UNL     1       6.777  -0.586  -8.486  1.00  0.00    -0.354 N 
ATOM     52  C   UNL     1       5.716  -4.610  -9.638  1.00  0.00     0.074 A 
ATOM     53  C   UNL     1       4.528  -5.053  -8.942  1.00  0.00     0.031 C 
ATOM     54  C   UNL     1       6.534   1.367  -7.428  1.00  0.00     0.029 A 
ATOM     55  C   UNL     1       7.397   0.631  -8.352  1.00  0.00     0.049 A 
ATOM     56  H   UNL     1       7.105  -1.295  -9.086  1.00  0.00     0.167 HD
ATOM     57  C   UNL     1       6.387  -5.353 -10.550  1.00  0.00     0.037 A 
ATOM     58  C   UNL     1       8.541   1.088  -8.898  1.00  0.00     0.037 A 
ATOM     59  C   UNL     1       7.563  -4.912 -11.250  1.00  0.00     0.049 A 
ATOM     60  C   UNL     1       9.310   0.212  -9.856  1.00  0.00     0.074 A 
ATOM     61  C   UNL     1       8.295  -5.583 -12.214  1.00  0.00     0.029 A 
ATOM     62  N   UNL     1       8.186  -3.689 -11.053  1.00  0.00    -0.354 N 
ATOM     63  N   UNL     1       9.021  -0.988 -10.297  1.00  0.00    -0.248 NA
ATOM     64  C   UNL     1      10.563   0.759 -10.396  1.00  0.00     0.031 C 
ATOM     65  C   UNL     1       9.392  -4.789 -12.561  1.00  0.00     0.029 A 
ATOM     66  C   UNL     1       9.313  -3.600 -11.853  1.00  0.00     0.049 A 
ATOM     67  H   UNL     1       7.873  -2.989 -10.436  1.00  0.00     0.167 HD
ATOM     68  C   UNL     1      10.036  -1.327 -11.183  1.00  0.00     0.074 A 
ATOM     69  C   UNL     1      10.943  -0.200 -11.229  1.00  0.00     0.031 C 
ATOM     70  C   UNL     1      10.203  -2.468 -11.895  1.00  0.00     0.037 A 
BRANCH  57  71
ATOM     71  C   UNL     1       5.884  -6.740 -10.822  1.00  0.00     0.064 A 
ATOM     72  C   UNL     1       4.711  -6.971 -11.556  1.00  0.00     0.173 A 
ATOM     73  C   UNL     1       6.613  -7.854 -10.379  1.00  0.00     0.173 A 
ATOM     74  F   UNL     1       3.972  -5.939 -11.989  1.00  0.00    -0.203 F 
ATOM     75  C   UNL     1       4.277  -8.268 -11.820  1.00  0.00     0.198 A 
ATOM     76  C   UNL     1       6.190  -9.148 -10.668  1.00  0.00     0.198 A 
ATOM     77  F   UNL     1       7.743  -7.686  -9.675  1.00  0.00    -0.203 F 
ATOM     78  F   UNL     1       3.134  -8.466 -12.491  1.00  0.00    -0.200 F 
ATOM     79  C   UNL     1       5.020  -9.354 -11.383  1.00  0.00     0.200 A 
ATOM     80  F   UNL     1       6.915 -10.196 -10.254  1.00  0.00    -0.200 F 
ATOM     81  F   UNL     1       4.606 -10.601 -11.647  1.00  0.00    -0.200 F 
ENDBRANCH  57  71
BRANCH  58  82
ATOM     82  C   UNL     1       9.051   2.437  -8.535  1.00  0.00     0.064 A 
ATOM     83  C   UNL     1       9.103   3.475  -9.475  1.00  0.00     0.173 A 
ATOM     84  C   UNL     1       9.532   2.702  -7.244  1.00  0.00     0.173 A 
ATOM     85  F   UNL     1       8.681   3.262 -10.730  1.00  0.00    -0.203 F 
ATOM     86  C   UNL     1       9.635   4.720  -9.144  1.00  0.00     0.198 A 
ATOM     87  C   UNL     1      10.037   3.955  -6.906  1.00  0.00     0.198 A 
ATOM     88  F   UNL     1       9.509   1.741  -6.308  1.00  0.00    -0.203 F 
ATOM     89  F   UNL     1       9.721   5.678 -10.076  1.00  0.00    -0.200 F 
ATOM     90  C   UNL     1      10.097   4.960  -7.859  1.00  0.00     0.200 A 
ATOM     91  F   UNL     1      10.472   4.186  -5.660  1.00  0.00    -0.200 F 
ATOM     92  F   UNL     1      10.609   6.157  -7.541  1.00  0.00    -0.200 F 
ENDBRANCH  58  82
BRANCH  70  93
ATOM     93  C   UNL     1      11.390  -2.548 -12.812  1.00  0.00     0.064 A 
ATOM     94  C   UNL     1      12.694  -2.692 -12.316  1.00  0.00     0.173 A 
ATOM     95  C   UNL     1      11.214  -2.529 -14.204  1.00  0.00     0.173 A 
ATOM     96  F   UNL     1      12.916  -2.703 -10.993  1.00  0.00    -0.203 F 
ATOM     97  C   UNL     1      13.781  -2.792 -13.181  1.00  0.00     0.198 A 
ATOM     98  C   UNL     1      12.300  -2.659 -15.066  1.00  0.00     0.198 A 
ATOM     99  F   UNL     1       9.986  -2.402 -14.729  1.00  0.00    -0.203 F 
ATOM    100  F   UNL     1      15.022  -2.885 -12.686  1.00  0.00    -0.200 F 
ATOM    101  C   UNL     1      13.582  -2.783 -14.554  1.00  0.00     0.200 A 
ATOM    102  F   UNL     1      12.104  -2.665 -16.392  1.00  0.00    -0.200 F 
ATOM    103  F   UNL     1      14.629  -2.888 -15.385  1.00  0.00    -0.200 F 
ENDBRANCH  70  93
ENDBRANCH  44  45
ENDBRANCH  37  39
ENDBRANCH  36  37
ENDBRANCH  35  36
ENDBRANCH  34  35
ENDBRANCH  33  34
ENDBRANCH  32  33
ENDBRANCH  31  32
ENDBRANCH  30  31
ENDBRANCH   1  30
TORSDOF 26
