REMARK SMILES Cc1[nH]cnc1C[NH+]1CCC(Oc2cccc(F)c2)(C(=O)OCCOCCOCCOCCOC(=O)c2ccc(-c3c4nc(c(-c5c(F)c(F)c(F)c(F)c5F)c5ccc([nH]5)c(-c5c(F)c(F)c(F)c(F)c5F)c5nc(c(-c6c(F)c(F)c(F)c(F)c6F)c6ccc3[nH]6)C=C5)C=C4)cc2)CC1
REMARK SMILES IDX 28 1 27 2 26 3 25 4 24 5 23 6 22 7 20 8 21 9 11 10 8 11 9 12
REMARK SMILES IDX 101 13 10 15 100 16 7 17 6 18 1 19 2 20 3 21 4 22 5 24 12 25
REMARK SMILES IDX 13 26 14 27 19 28 15 29 17 30 16 31 18 32 29 33 30 34 31 35
REMARK SMILES IDX 32 36 33 37 34 38 35 39 36 40 37 41 38 42 99 43 39 44 98 45
REMARK SMILES IDX 40 46 41 47 42 48 92 49 43 50 97 51 91 52 93 53 44 54 96 55
REMARK SMILES IDX 90 56 89 57 45 59 77 60 57 61 76 62 58 63 61 64 75 65 94 66
REMARK SMILES IDX 59 67 60 68 74 70 95 71 62 72 46 73 47 74 55 75 48 76 49 77
REMARK SMILES IDX 53 78 56 79 50 80 51 81 54 82 52 83 78 84 79 85 87 86 80 87
REMARK SMILES IDX 81 88 85 89 88 90 82 91 83 92 86 93 84 94 63 95 64 96 72 97
REMARK SMILES IDX 65 98 66 99 70 100 73 101 67 102 68 103 71 104 69 105
REMARK H PARENT 8 14 3 23 93 58 61 69
REMARK Flexibility Score: inf
ROOT
ATOM      1  O   UNL     1      -0.812  -0.088   4.145  1.00  0.00    -0.377 OA
ENDROOT
BRANCH   1   2
ATOM      2  C   UNL     1      -1.520  -0.182   2.918  1.00  0.00     0.188 C 
BRANCH   2   3
ATOM      3  C   UNL     1      -2.980   0.242   2.817  1.00  0.00     0.188 C 
BRANCH   3   4
ATOM      4  O   UNL     1      -3.515   1.054   3.834  1.00  0.00    -0.376 OA
BRANCH   4   5
ATOM      5  C   UNL     1      -3.373   0.633   5.183  1.00  0.00     0.202 C 
BRANCH   5   6
ATOM      6  C   UNL     1      -3.501  -0.849   5.601  1.00  0.00     0.261 C 
BRANCH   6   7
ATOM      7  O   UNL     1      -2.532  -1.790   5.066  1.00  0.00    -0.460 OA
BRANCH   7   8
ATOM      8  C   UNL     1      -3.003  -2.728   4.194  1.00  0.00     0.351 C 
ATOM      9  O   UNL     1      -4.183  -2.752   3.842  1.00  0.00    -0.247 OA
BRANCH   8  10
ATOM     10  C   UNL     1      -1.980  -3.817   3.752  1.00  0.00     0.216 C 
ATOM     11  N   UNL     1      -0.495  -3.503   1.175  1.00  0.00    -0.330 N 
ATOM     12  C   UNL     1       0.166  -3.038   2.382  1.00  0.00     0.267 C 
ATOM     13  C   UNL     1      -1.950  -3.498   1.211  1.00  0.00     0.267 C 
ATOM     14  H   UNL     1      -0.284  -4.501   1.175  1.00  0.00     0.348 HD
ATOM     15  C   UNL     1      -0.468  -3.489   3.717  1.00  0.00     0.122 C 
ATOM     16  C   UNL     1      -2.439  -4.364   2.378  1.00  0.00     0.122 C 
BRANCH  11  17
ATOM     17  C   UNL     1       0.110  -3.033  -0.091  1.00  0.00     0.321 C 
BRANCH  17  18
ATOM     18  C   UNL     1      -0.112  -1.591  -0.499  1.00  0.00     0.115 A 
ATOM     19  C   UNL     1       2.206  -0.789  -1.499  1.00  0.00     0.066 C 
ATOM     20  C   UNL     1       0.774  -0.712  -1.121  1.00  0.00     0.040 A 
ATOM     21  N   UNL     1       0.028   0.408  -1.412  1.00  0.00    -0.348 N 
ATOM     22  C   UNL     1      -1.244   0.186  -0.978  1.00  0.00     0.197 A 
ATOM     23  H   UNL     1       0.356   1.224  -1.856  1.00  0.00     0.167 HD
ATOM     24  N   UNL     1      -1.359  -0.994  -0.417  1.00  0.00    -0.236 NA
ENDBRANCH  17  18
ENDBRANCH  11  17
BRANCH  10  25
ATOM     25  O   UNL     1      -2.241  -4.694   4.908  1.00  0.00    -0.475 OA
BRANCH  25  26
ATOM     26  C   UNL     1      -2.051  -6.032   4.740  1.00  0.00     0.123 A 
ATOM     27  C   UNL     1      -0.809  -6.607   5.011  1.00  0.00     0.047 A 
ATOM     28  C   UNL     1      -3.143  -6.834   4.423  1.00  0.00     0.085 A 
ATOM     29  C   UNL     1      -0.624  -7.979   4.851  1.00  0.00     0.007 A 
ATOM     30  C   UNL     1      -2.953  -8.204   4.288  1.00  0.00     0.126 A 
ATOM     31  C   UNL     1      -1.701  -8.781   4.478  1.00  0.00     0.039 A 
ATOM     32  F   UNL     1      -3.994  -8.985   3.972  1.00  0.00    -0.207 F 
ENDBRANCH  25  26
ENDBRANCH  10  25
ENDBRANCH   8  10
ENDBRANCH   7   8
ENDBRANCH   6   7
ENDBRANCH   5   6
ENDBRANCH   4   5
ENDBRANCH   3   4
ENDBRANCH   2   3
ENDBRANCH   1   2
BRANCH   1  33
ATOM     33  C   UNL     1      -0.098   1.095   4.488  1.00  0.00     0.188 C 
BRANCH  33  34
ATOM     34  C   UNL     1      -0.243   2.284   3.547  1.00  0.00     0.188 C 
BRANCH  34  35
ATOM     35  O   UNL     1       0.682   2.345   2.462  1.00  0.00    -0.376 OA
BRANCH  35  36
ATOM     36  C   UNL     1       1.169   1.131   1.898  1.00  0.00     0.202 C 
BRANCH  36  37
ATOM     37  C   UNL     1       2.639   1.244   1.533  1.00  0.00     0.261 C 
BRANCH  37  38
ATOM     38  O   UNL     1       3.373   1.502   2.726  1.00  0.00    -0.460 OA
BRANCH  38  39
ATOM     39  C   UNL     1       3.330   2.803   3.097  1.00  0.00     0.338 C 
ATOM     40  O   UNL     1       3.111   3.775   2.405  1.00  0.00    -0.246 OA
BRANCH  39  41
ATOM     41  C   UNL     1       3.426   2.833   4.561  1.00  0.00     0.060 A 
ATOM     42  C   UNL     1       2.642   3.770   5.240  1.00  0.00     0.016 A 
ATOM     43  C   UNL     1       4.307   1.983   5.240  1.00  0.00     0.016 A 
ATOM     44  C   UNL     1       2.821   3.939   6.601  1.00  0.00     0.010 A 
ATOM     45  C   UNL     1       4.498   2.161   6.601  1.00  0.00     0.010 A 
ATOM     46  C   UNL     1       3.808   3.191   7.255  1.00  0.00    -0.014 A 
BRANCH  46  47
ATOM     47  C   UNL     1       4.307   3.701   8.537  1.00  0.00     0.031 A 
ATOM     48  C   UNL     1       5.502   4.609   8.500  1.00  0.00     0.074 A 
ATOM     49  C   UNL     1       3.637   3.433   9.666  1.00  0.00     0.049 A 
ATOM     50  N   UNL     1       6.109   5.217   9.482  1.00  0.00    -0.248 NA
ATOM     51  C   UNL     1       6.091   4.876   7.174  1.00  0.00     0.031 C 
ATOM     52  C   UNL     1       2.433   2.610   9.751  1.00  0.00     0.029 A 
ATOM     53  N   UNL     1       3.867   3.840  10.949  1.00  0.00    -0.354 N 
ATOM     54  C   UNL     1       7.144   5.932   8.894  1.00  0.00     0.074 A 
ATOM     55  C   UNL     1       7.110   5.665   7.477  1.00  0.00     0.031 C 
ATOM     56  C   UNL     1       2.023   2.575  11.029  1.00  0.00     0.029 A 
ATOM     57  C   UNL     1       2.959   3.342  11.847  1.00  0.00     0.049 A 
ATOM     58  H   UNL     1       4.612   4.432  11.204  1.00  0.00     0.167 HD
ATOM     59  C   UNL     1       8.033   6.750   9.498  1.00  0.00     0.037 A 
ATOM     60  C   UNL     1       2.915   3.487  13.183  1.00  0.00     0.037 A 
ATOM     61  C   UNL     1       8.030   7.000  10.914  1.00  0.00     0.049 A 
ATOM     62  C   UNL     1       3.955   4.357  13.837  1.00  0.00     0.074 A 
ATOM     63  C   UNL     1       8.882   7.801  11.649  1.00  0.00     0.029 A 
ATOM     64  N   UNL     1       7.123   6.443  11.806  1.00  0.00    -0.354 N 
ATOM     65  N   UNL     1       4.940   5.027  13.283  1.00  0.00    -0.248 NA
ATOM     66  C   UNL     1       3.875   4.503  15.294  1.00  0.00     0.031 C 
ATOM     67  C   UNL     1       8.530   7.679  12.995  1.00  0.00     0.029 A 
ATOM     68  C   UNL     1       7.409   6.866  13.091  1.00  0.00     0.049 A 
ATOM     69  H   UNL     1       6.387   5.837  11.561  1.00  0.00     0.167 HD
ATOM     70  C   UNL     1       5.578   5.697  14.316  1.00  0.00     0.074 A 
ATOM     71  C   UNL     1       4.858   5.361  15.529  1.00  0.00     0.031 C 
ATOM     72  C   UNL     1       6.660   6.515  14.272  1.00  0.00     0.037 A 
BRANCH  59  73
ATOM     73  C   UNL     1       9.088   7.402   8.655  1.00  0.00     0.064 A 
ATOM     74  C   UNL     1      10.433   7.033   8.801  1.00  0.00     0.173 A 
ATOM     75  C   UNL     1       8.786   8.434   7.754  1.00  0.00     0.173 A 
ATOM     76  F   UNL     1      10.775   6.044   9.641  1.00  0.00    -0.203 F 
ATOM     77  C   UNL     1      11.440   7.694   8.103  1.00  0.00     0.198 A 
ATOM     78  C   UNL     1       9.793   9.073   7.034  1.00  0.00     0.198 A 
ATOM     79  F   UNL     1       7.513   8.808   7.555  1.00  0.00    -0.203 F 
ATOM     80  F   UNL     1      12.721   7.349   8.292  1.00  0.00    -0.200 F 
ATOM     81  C   UNL     1      11.119   8.713   7.220  1.00  0.00     0.200 A 
ATOM     82  F   UNL     1       9.480  10.039   6.158  1.00  0.00    -0.200 F 
ATOM     83  F   UNL     1      12.089   9.347   6.547  1.00  0.00    -0.200 F 
ENDBRANCH  59  73
BRANCH  60  84
ATOM     84  C   UNL     1       1.857   2.795  13.961  1.00  0.00     0.064 A 
ATOM     85  C   UNL     1       1.811   1.393  14.030  1.00  0.00     0.173 A 
ATOM     86  C   UNL     1       0.848   3.511  14.619  1.00  0.00     0.173 A 
ATOM     87  F   UNL     1       2.748   0.659  13.412  1.00  0.00    -0.203 F 
ATOM     88  C   UNL     1       0.788   0.736  14.709  1.00  0.00     0.198 A 
ATOM     89  C   UNL     1      -0.157   2.853  15.325  1.00  0.00     0.198 A 
ATOM     90  F   UNL     1       0.853   4.851  14.594  1.00  0.00    -0.203 F 
ATOM     91  F   UNL     1       0.748  -0.603  14.722  1.00  0.00    -0.200 F 
ATOM     92  C   UNL     1      -0.192   1.467  15.362  1.00  0.00     0.200 A 
ATOM     93  F   UNL     1      -1.090   3.563  15.975  1.00  0.00    -0.200 F 
ATOM     94  F   UNL     1      -1.169   0.836  16.027  1.00  0.00    -0.200 F 
ENDBRANCH  60  84
BRANCH  72  95
ATOM     95  C   UNL     1       7.104   7.138  15.563  1.00  0.00     0.064 A 
ATOM     96  C   UNL     1       6.988   8.524  15.753  1.00  0.00     0.173 A 
ATOM     97  C   UNL     1       7.708   6.382  16.577  1.00  0.00     0.173 A 
ATOM     98  F   UNL     1       6.432   9.293  14.804  1.00  0.00    -0.203 F 
ATOM     99  C   UNL     1       7.473   9.131  16.906  1.00  0.00     0.198 A 
ATOM    100  C   UNL     1       8.155   6.988  17.747  1.00  0.00     0.198 A 
ATOM    101  F   UNL     1       7.835   5.053  16.445  1.00  0.00    -0.203 F 
ATOM    102  F   UNL     1       7.390  10.461  17.046  1.00  0.00    -0.200 F 
ATOM    103  C   UNL     1       8.047   8.362  17.906  1.00  0.00     0.200 A 
ATOM    104  F   UNL     1       8.684   6.240  18.725  1.00  0.00    -0.200 F 
ATOM    105  F   UNL     1       8.495   8.945  19.026  1.00  0.00    -0.200 F 
ENDBRANCH  72  95
ENDBRANCH  46  47
ENDBRANCH  39  41
ENDBRANCH  38  39
ENDBRANCH  37  38
ENDBRANCH  36  37
ENDBRANCH  35  36
ENDBRANCH  34  35
ENDBRANCH  33  34
ENDBRANCH   1  33
TORSDOF 24
