REMARK SMILES O=C(CCC(=O)N1Cc2[nH]cnc2C[C@H]1C(=O)NCc1ccccc1)OCCOCCOCCOCCOC(=O)c1ccc(-c2c3nc(c(-c4c(F)c(F)c(F)c(F)c4F)c4ccc([nH]4)c(-c4c(F)c(F)c(F)c(F)c4F)c4nc(c(-c5c(F)c(F)c(F)c(F)c5F)c5ccc2[nH]5)C=C4)C=C3)cc1
REMARK SMILES IDX 30 1 29 2 28 3 27 4 26 5 2 6 1 7 3 8 4 9 5 10 6 11 7 12 8 13
REMARK SMILES IDX 15 14 9 15 14 16 10 17 13 18 11 19 12 21 16 22 17 23 18 24
REMARK SMILES IDX 19 26 20 27 21 28 25 29 22 30 24 31 23 32 31 33 32 34 33 35
REMARK SMILES IDX 34 36 35 37 36 38 37 39 38 40 39 41 40 42 41 43 42 44 103 45
REMARK SMILES IDX 43 46 102 47 44 48 45 49 46 50 96 51 47 52 101 53 95 54
REMARK SMILES IDX 97 55 48 56 100 57 94 58 93 59 49 61 81 62 61 63 80 64 62 65
REMARK SMILES IDX 65 66 79 67 98 68 63 69 64 70 78 72 99 73 66 74 50 75 51 76
REMARK SMILES IDX 59 77 52 78 53 79 57 80 60 81 54 82 55 83 58 84 56 85 82 86
REMARK SMILES IDX 83 87 91 88 84 89 85 90 89 91 92 92 86 93 87 94 90 95 88 96
REMARK SMILES IDX 67 97 68 98 76 99 69 100 70 101 74 102 77 103 71 104 72 105
REMARK SMILES IDX 75 106 73 107
REMARK H PARENT 10 20 18 25 97 60 65 71
REMARK Flexibility Score: inf
ROOT
ATOM      1  C   UNL     1       2.665   2.383  -1.578  1.00  0.00     0.188 C 
ENDROOT
BRANCH   1   2
ATOM      2  O   UNL     1       4.085   2.462  -1.702  1.00  0.00    -0.376 OA
BRANCH   2   3
ATOM      3  C   UNL     1       4.917   2.081  -0.622  1.00  0.00     0.202 C 
BRANCH   3   4
ATOM      4  C   UNL     1       4.854   0.613  -0.229  1.00  0.00     0.261 C 
BRANCH   4   5
ATOM      5  O   UNL     1       3.496   0.151  -0.152  1.00  0.00    -0.463 OA
BRANCH   5   6
ATOM      6  C   UNL     1       2.617   0.445   0.830  1.00  0.00     0.306 C 
ATOM      7  O   UNL     1       1.409   0.383   0.623  1.00  0.00    -0.252 OA
BRANCH   6   8
ATOM      8  C   UNL     1       3.171   0.667   2.188  1.00  0.00     0.132 C 
BRANCH   8   9
ATOM      9  C   UNL     1       3.320  -0.695   2.848  1.00  0.00     0.112 C 
BRANCH   9  10
ATOM     10  C   UNL     1       4.578  -1.400   2.388  1.00  0.00     0.224 C 
ATOM     11  O   UNL     1       5.640  -1.069   2.931  1.00  0.00    -0.275 OA
BRANCH  10  12
ATOM     12  N   UNL     1       4.566  -2.343   1.357  1.00  0.00    -0.324 N 
ATOM     13  C   UNL     1       5.913  -2.862   1.056  1.00  0.00     0.176 C 
ATOM     14  C   UNL     1       3.361  -2.769   0.528  1.00  0.00     0.180 C 
ATOM     15  C   UNL     1       5.931  -3.676  -0.158  1.00  0.00     0.058 A 
ATOM     16  C   UNL     1       3.632  -3.152  -0.954  1.00  0.00     0.093 C 
ATOM     17  N   UNL     1       6.938  -4.501  -0.570  1.00  0.00    -0.347 N 
ATOM     18  C   UNL     1       4.935  -3.823  -1.082  1.00  0.00     0.066 A 
ATOM     19  C   UNL     1       6.500  -5.115  -1.714  1.00  0.00     0.197 A 
ATOM     20  H   UNL     1       7.810  -4.629  -0.131  1.00  0.00     0.167 HD
ATOM     21  N   UNL     1       5.288  -4.721  -2.047  1.00  0.00    -0.242 NA
BRANCH  14  22
ATOM     22  C   UNL     1       2.287  -3.685   1.159  1.00  0.00     0.243 C 
ATOM     23  O   UNL     1       1.125  -3.270   1.265  1.00  0.00    -0.273 OA
ATOM     24  N   UNL     1       2.492  -4.950   1.575  1.00  0.00    -0.350 N 
ATOM     25  H   UNL     1       1.702  -5.375   1.983  1.00  0.00     0.163 HD
BRANCH  24  26
ATOM     26  C   UNL     1       3.656  -5.790   1.530  1.00  0.00     0.151 C 
BRANCH  26  27
ATOM     27  C   UNL     1       4.434  -5.819   2.818  1.00  0.00    -0.029 A 
ATOM     28  C   UNL     1       5.194  -6.955   3.123  1.00  0.00     0.005 A 
ATOM     29  C   UNL     1       4.503  -4.719   3.684  1.00  0.00     0.005 A 
ATOM     30  C   UNL     1       6.015  -6.978   4.251  1.00  0.00     0.000 A 
ATOM     31  C   UNL     1       5.353  -4.725   4.789  1.00  0.00     0.000 A 
ATOM     32  C   UNL     1       6.109  -5.857   5.072  1.00  0.00     0.000 A 
ENDBRANCH  26  27
ENDBRANCH  24  26
ENDBRANCH  14  22
ENDBRANCH  10  12
ENDBRANCH   9  10
ENDBRANCH   8   9
ENDBRANCH   6   8
ENDBRANCH   5   6
ENDBRANCH   4   5
ENDBRANCH   3   4
ENDBRANCH   2   3
ENDBRANCH   1   2
BRANCH   1  33
ATOM     33  C   UNL     1       2.049   1.251  -2.438  1.00  0.00     0.188 C 
BRANCH  33  34
ATOM     34  O   UNL     1       2.612   1.148  -3.754  1.00  0.00    -0.377 OA
BRANCH  34  35
ATOM     35  C   UNL     1       3.927   0.606  -3.765  1.00  0.00     0.188 C 
BRANCH  35  36
ATOM     36  C   UNL     1       5.087   1.545  -4.184  1.00  0.00     0.188 C 
BRANCH  36  37
ATOM     37  O   UNL     1       4.995   2.955  -4.394  1.00  0.00    -0.376 OA
BRANCH  37  38
ATOM     38  C   UNL     1       3.761   3.646  -4.513  1.00  0.00     0.202 C 
BRANCH  38  39
ATOM     39  C   UNL     1       2.997   3.585  -5.830  1.00  0.00     0.261 C 
BRANCH  39  40
ATOM     40  O   UNL     1       2.915   2.262  -6.313  1.00  0.00    -0.460 OA
BRANCH  40  41
ATOM     41  C   UNL     1       4.051   1.885  -6.929  1.00  0.00     0.338 C 
ATOM     42  O   UNL     1       4.994   2.587  -7.248  1.00  0.00    -0.246 OA
BRANCH  41  43
ATOM     43  C   UNL     1       3.969   0.455  -7.239  1.00  0.00     0.060 A 
ATOM     44  C   UNL     1       5.072  -0.034  -7.932  1.00  0.00     0.016 A 
ATOM     45  C   UNL     1       2.720  -0.183  -7.241  1.00  0.00     0.016 A 
ATOM     46  C   UNL     1       4.811  -0.881  -8.970  1.00  0.00     0.010 A 
ATOM     47  C   UNL     1       2.460  -1.044  -8.273  1.00  0.00     0.010 A 
ATOM     48  C   UNL     1       3.476  -1.234  -9.201  1.00  0.00    -0.014 A 
BRANCH  48  49
ATOM     49  C   UNL     1       3.177  -1.678 -10.538  1.00  0.00     0.031 A 
ATOM     50  C   UNL     1       3.667  -3.031 -10.830  1.00  0.00     0.074 A 
ATOM     51  C   UNL     1       2.546  -0.874 -11.413  1.00  0.00     0.049 A 
ATOM     52  N   UNL     1       4.564  -3.389 -11.686  1.00  0.00    -0.248 NA
ATOM     53  C   UNL     1       3.196  -4.100  -9.939  1.00  0.00     0.031 C 
ATOM     54  C   UNL     1       1.811   0.371 -11.163  1.00  0.00     0.029 A 
ATOM     55  N   UNL     1       2.368  -1.074 -12.742  1.00  0.00    -0.354 N 
ATOM     56  C   UNL     1       4.663  -4.766 -11.550  1.00  0.00     0.074 A 
ATOM     57  C   UNL     1       3.912  -5.132 -10.377  1.00  0.00     0.031 C 
ATOM     58  C   UNL     1       1.079   0.677 -12.259  1.00  0.00     0.029 A 
ATOM     59  C   UNL     1       1.402  -0.268 -13.315  1.00  0.00     0.049 A 
ATOM     60  H   UNL     1       2.883  -1.738 -13.255  1.00  0.00     0.167 HD
ATOM     61  C   UNL     1       5.184  -5.543 -12.533  1.00  0.00     0.037 A 
ATOM     62  C   UNL     1       0.849  -0.462 -14.536  1.00  0.00     0.037 A 
ATOM     63  C   UNL     1       6.034  -4.798 -13.420  1.00  0.00     0.049 A 
ATOM     64  C   UNL     1       1.759  -1.354 -15.304  1.00  0.00     0.074 A 
ATOM     65  C   UNL     1       7.226  -4.120 -13.254  1.00  0.00     0.029 A 
ATOM     66  N   UNL     1       5.518  -4.354 -14.612  1.00  0.00    -0.354 N 
ATOM     67  N   UNL     1       2.940  -1.001 -15.732  1.00  0.00    -0.248 NA
ATOM     68  C   UNL     1       1.540  -2.792 -15.203  1.00  0.00     0.031 C 
ATOM     69  C   UNL     1       7.131  -2.978 -14.102  1.00  0.00     0.029 A 
ATOM     70  C   UNL     1       5.902  -3.043 -14.760  1.00  0.00     0.049 A 
ATOM     71  H   UNL     1       4.974  -4.877 -15.244  1.00  0.00     0.167 HD
ATOM     72  C   UNL     1       3.734  -2.129 -15.571  1.00  0.00     0.074 A 
ATOM     73  C   UNL     1       2.799  -3.222 -15.323  1.00  0.00     0.031 C 
ATOM     74  C   UNL     1       5.081  -2.025 -15.374  1.00  0.00     0.037 A 
BRANCH  61  75
ATOM     75  C   UNL     1       4.661  -6.915 -12.823  1.00  0.00     0.064 A 
ATOM     76  C   UNL     1       5.402  -7.798 -13.623  1.00  0.00     0.173 A 
ATOM     77  C   UNL     1       3.332  -7.306 -12.537  1.00  0.00     0.173 A 
ATOM     78  F   UNL     1       6.656  -7.496 -13.990  1.00  0.00    -0.203 F 
ATOM     79  C   UNL     1       4.843  -8.978 -14.118  1.00  0.00     0.198 A 
ATOM     80  C   UNL     1       2.798  -8.510 -12.980  1.00  0.00     0.198 A 
ATOM     81  F   UNL     1       2.474  -6.491 -11.909  1.00  0.00    -0.203 F 
ATOM     82  F   UNL     1       5.549  -9.746 -14.958  1.00  0.00    -0.200 F 
ATOM     83  C   UNL     1       3.545  -9.336 -13.792  1.00  0.00     0.200 A 
ATOM     84  F   UNL     1       1.533  -8.825 -12.671  1.00  0.00    -0.200 F 
ATOM     85  F   UNL     1       2.997 -10.448 -14.298  1.00  0.00    -0.200 F 
ENDBRANCH  61  75
BRANCH  62  86
ATOM     86  C   UNL     1      -0.567  -0.247 -14.913  1.00  0.00     0.064 A 
ATOM     87  C   UNL     1      -0.952  -0.170 -16.259  1.00  0.00     0.173 A 
ATOM     88  C   UNL     1      -1.606  -0.379 -13.969  1.00  0.00     0.173 A 
ATOM     89  F   UNL     1      -0.021  -0.095 -17.222  1.00  0.00    -0.203 F 
ATOM     90  C   UNL     1      -2.296  -0.237 -16.640  1.00  0.00     0.198 A 
ATOM     91  C   UNL     1      -2.946  -0.435 -14.349  1.00  0.00     0.198 A 
ATOM     92  F   UNL     1      -1.338  -0.552 -12.666  1.00  0.00    -0.203 F 
ATOM     93  F   UNL     1      -2.624  -0.220 -17.939  1.00  0.00    -0.200 F 
ATOM     94  C   UNL     1      -3.291  -0.377 -15.685  1.00  0.00     0.200 A 
ATOM     95  F   UNL     1      -3.894  -0.609 -13.417  1.00  0.00    -0.200 F 
ATOM     96  F   UNL     1      -4.573  -0.498 -16.054  1.00  0.00    -0.200 F 
ENDBRANCH  62  86
BRANCH  74  97
ATOM     97  C   UNL     1       5.706  -0.670 -15.566  1.00  0.00     0.064 A 
ATOM     98  C   UNL     1       5.398   0.446 -14.766  1.00  0.00     0.173 A 
ATOM     99  C   UNL     1       6.751  -0.530 -16.488  1.00  0.00     0.173 A 
ATOM    100  F   UNL     1       4.487   0.360 -13.789  1.00  0.00    -0.203 F 
ATOM    101  C   UNL     1       6.071   1.657 -14.921  1.00  0.00     0.198 A 
ATOM    102  C   UNL     1       7.448   0.670 -16.614  1.00  0.00     0.198 A 
ATOM    103  F   UNL     1       7.133  -1.577 -17.235  1.00  0.00    -0.203 F 
ATOM    104  F   UNL     1       5.746   2.710 -14.156  1.00  0.00    -0.200 F 
ATOM    105  C   UNL     1       7.100   1.766 -15.840  1.00  0.00     0.200 A 
ATOM    106  F   UNL     1       8.477   0.756 -17.468  1.00  0.00    -0.200 F 
ATOM    107  F   UNL     1       7.776   2.917 -15.961  1.00  0.00    -0.200 F 
ENDBRANCH  74  97
ENDBRANCH  48  49
ENDBRANCH  41  43
ENDBRANCH  40  41
ENDBRANCH  39  40
ENDBRANCH  38  39
ENDBRANCH  37  38
ENDBRANCH  36  37
ENDBRANCH  35  36
ENDBRANCH  34  35
ENDBRANCH  33  34
ENDBRANCH   1  33
TORSDOF 26
