REMARK SMILES Cc1cc(C(=O)N[C@H]2C=C[C@H](C(=O)OCCOCCOCCOCCOC(=O)c3ccc(-c4c5nc(c(-c6c(F)c(F)c(F)c(F)c6F)c6ccc([nH]6)c(-c6c(F)c(F)c(F)c(F)c6F)c6nc(c(-c7c(F)c(F)c(F)c(F)c7F)c7ccc4[nH]7)C=C6)C=C5)cc3)C2)ccc1F
REMARK SMILES IDX 20 1 19 2 18 3 17 4 16 5 15 6 14 7 12 8 13 9 11 10 8 11 9 12
REMARK SMILES IDX 92 13 10 14 7 15 5 16 6 17 4 19 1 20 2 21 3 22 95 23 94 24
REMARK SMILES IDX 96 25 93 26 21 27 22 28 23 29 24 30 25 31 26 32 27 33 28 34
REMARK SMILES IDX 29 35 30 36 91 37 31 38 90 39 32 40 33 41 34 42 84 43 35 44
REMARK SMILES IDX 89 45 83 46 85 47 36 48 88 49 82 50 81 51 37 53 69 54 49 55
REMARK SMILES IDX 68 56 50 57 53 58 67 59 86 60 51 61 52 62 66 64 87 65 54 66
REMARK SMILES IDX 38 67 39 68 47 69 40 70 41 71 45 72 48 73 42 74 43 75 46 76
REMARK SMILES IDX 44 77 70 78 71 79 79 80 72 81 73 82 77 83 80 84 74 85 75 86
REMARK SMILES IDX 78 87 76 88 55 89 56 90 64 91 57 92 58 93 62 94 65 95 59 96
REMARK SMILES IDX 60 97 63 98 61 99
REMARK H PARENT 7 18 85 52 53 63
REMARK Flexibility Score: inf
ROOT
ATOM      1  O   UNL     1       1.464   6.095   3.059  1.00  0.00    -0.377 OA
ENDROOT
BRANCH   1   2
ATOM      2  C   UNL     1       0.844   4.834   3.276  1.00  0.00     0.188 C 
BRANCH   2   3
ATOM      3  C   UNL     1       1.309   3.628   2.434  1.00  0.00     0.188 C 
BRANCH   3   4
ATOM      4  O   UNL     1       2.627   3.700   1.930  1.00  0.00    -0.376 OA
BRANCH   4   5
ATOM      5  C   UNL     1       2.893   4.165   0.616  1.00  0.00     0.202 C 
BRANCH   5   6
ATOM      6  C   UNL     1       2.080   5.277  -0.081  1.00  0.00     0.261 C 
BRANCH   6   7
ATOM      7  O   UNL     1       0.786   5.535   0.469  1.00  0.00    -0.463 OA
BRANCH   7   8
ATOM      8  C   UNL     1      -0.273   4.998  -0.179  1.00  0.00     0.312 C 
ATOM      9  O   UNL     1      -0.187   4.403  -1.245  1.00  0.00    -0.252 OA
BRANCH   8  10
ATOM     10  C   UNL     1      -1.542   5.083   0.684  1.00  0.00     0.124 C 
ATOM     11  C   UNL     1      -2.838   3.370  -0.348  1.00  0.00     0.106 C 
ATOM     12  C   UNL     1      -3.506   4.696  -0.541  1.00  0.00    -0.006 C 
ATOM     13  C   UNL     1      -2.057   3.659   0.934  1.00  0.00     0.048 C 
ATOM     14  C   UNL     1      -2.731   5.665  -0.024  1.00  0.00    -0.014 C 
BRANCH  11  15
ATOM     15  N   UNL     1      -3.722   2.255  -0.261  1.00  0.00    -0.346 N 
ATOM     16  C   UNL     1      -3.442   0.907  -0.330  1.00  0.00     0.251 C 
ATOM     17  O   UNL     1      -4.412   0.146  -0.359  1.00  0.00    -0.269 OA
ATOM     18  H   UNL     1      -4.672   2.481  -0.132  1.00  0.00     0.164 HD
BRANCH  16  19
ATOM     19  C   UNL     1      -2.058   0.299  -0.307  1.00  0.00     0.040 A 
ATOM     20  C   UNL     1       1.679   1.048  -0.606  1.00  0.00     0.047 C 
ATOM     21  C   UNL     1       0.395   0.297  -0.444  1.00  0.00    -0.015 A 
ATOM     22  C   UNL     1      -0.848   0.942  -0.606  1.00  0.00     0.020 A 
ATOM     23  C   UNL     1       0.418  -1.033  -0.041  1.00  0.00     0.126 A 
ATOM     24  C   UNL     1      -0.761  -1.722   0.190  1.00  0.00     0.040 A 
ATOM     25  F   UNL     1       1.590  -1.661   0.133  1.00  0.00    -0.207 F 
ATOM     26  C   UNL     1      -1.987  -1.057   0.066  1.00  0.00     0.017 A 
ENDBRANCH  16  19
ENDBRANCH  11  15
ENDBRANCH   8  10
ENDBRANCH   7   8
ENDBRANCH   6   7
ENDBRANCH   5   6
ENDBRANCH   4   5
ENDBRANCH   3   4
ENDBRANCH   2   3
ENDBRANCH   1   2
BRANCH   1  27
ATOM     27  C   UNL     1       2.890   6.158   3.077  1.00  0.00     0.188 C 
BRANCH  27  28
ATOM     28  C   UNL     1       3.720   5.190   3.958  1.00  0.00     0.188 C 
BRANCH  28  29
ATOM     29  O   UNL     1       2.963   4.290   4.760  1.00  0.00    -0.376 OA
BRANCH  29  30
ATOM     30  C   UNL     1       2.819   4.564   6.144  1.00  0.00     0.202 C 
BRANCH  30  31
ATOM     31  C   UNL     1       1.765   5.595   6.607  1.00  0.00     0.261 C 
BRANCH  31  32
ATOM     32  O   UNL     1       1.568   6.784   5.842  1.00  0.00    -0.460 OA
BRANCH  32  33
ATOM     33  C   UNL     1       2.683   7.495   5.609  1.00  0.00     0.338 C 
ATOM     34  O   UNL     1       3.822   7.161   5.854  1.00  0.00    -0.246 OA
BRANCH  33  35
ATOM     35  C   UNL     1       2.415   8.846   5.076  1.00  0.00     0.060 A 
ATOM     36  C   UNL     1       3.632   9.498   4.782  1.00  0.00     0.016 A 
ATOM     37  C   UNL     1       1.387   9.468   5.770  1.00  0.00     0.016 A 
ATOM     38  C   UNL     1       4.027  10.499   5.631  1.00  0.00     0.010 A 
ATOM     39  C   UNL     1       1.773  10.470   6.614  1.00  0.00     0.010 A 
ATOM     40  C   UNL     1       3.116  10.882   6.605  1.00  0.00    -0.014 A 
BRANCH  40  41
ATOM     41  C   UNL     1       3.448  11.866   7.590  1.00  0.00     0.031 A 
ATOM     42  C   UNL     1       3.404  13.249   7.104  1.00  0.00     0.074 A 
ATOM     43  C   UNL     1       3.637  11.466   8.864  1.00  0.00     0.049 A 
ATOM     44  N   UNL     1       4.048  14.220   7.637  1.00  0.00    -0.248 NA
ATOM     45  C   UNL     1       2.712  13.626   5.867  1.00  0.00     0.031 C 
ATOM     46  C   UNL     1       3.494  12.276  10.059  1.00  0.00     0.029 A 
ATOM     47  N   UNL     1       4.067  10.212   9.336  1.00  0.00    -0.354 N 
ATOM     48  C   UNL     1       3.578  15.373   7.048  1.00  0.00     0.074 A 
ATOM     49  C   UNL     1       2.884  14.950   5.859  1.00  0.00     0.031 C 
ATOM     50  C   UNL     1       4.013  11.609  11.104  1.00  0.00     0.029 A 
ATOM     51  C   UNL     1       4.677  10.421  10.593  1.00  0.00     0.049 A 
ATOM     52  H   UNL     1       3.963   9.349   8.875  1.00  0.00     0.167 HD
ATOM     53  C   UNL     1       3.659  16.530   7.760  1.00  0.00     0.037 A 
ATOM     54  C   UNL     1       6.008  10.163  10.807  1.00  0.00     0.037 A 
ATOM     55  C   UNL     1       4.302  16.265   9.045  1.00  0.00     0.049 A 
ATOM     56  C   UNL     1       6.832  11.398  10.974  1.00  0.00     0.074 A 
ATOM     57  C   UNL     1       3.768  15.915  10.276  1.00  0.00     0.029 A 
ATOM     58  N   UNL     1       5.639  15.887   9.072  1.00  0.00    -0.354 N 
ATOM     59  N   UNL     1       6.442  12.578  10.589  1.00  0.00    -0.248 NA
ATOM     60  C   UNL     1       8.159  11.392  11.569  1.00  0.00     0.031 C 
ATOM     61  C   UNL     1       4.787  15.278  11.028  1.00  0.00     0.029 A 
ATOM     62  C   UNL     1       5.944  15.261  10.268  1.00  0.00     0.049 A 
ATOM     63  H   UNL     1       6.281  16.042   8.342  1.00  0.00     0.167 HD
ATOM     64  C   UNL     1       7.423  13.482  10.869  1.00  0.00     0.074 A 
ATOM     65  C   UNL     1       8.467  12.697  11.503  1.00  0.00     0.031 C 
ATOM     66  C   UNL     1       7.296  14.799  10.544  1.00  0.00     0.037 A 
BRANCH  53  67
ATOM     67  C   UNL     1       2.854  17.767   7.455  1.00  0.00     0.064 A 
ATOM     68  C   UNL     1       2.419  18.605   8.504  1.00  0.00     0.173 A 
ATOM     69  C   UNL     1       2.452  18.171   6.167  1.00  0.00     0.173 A 
ATOM     70  F   UNL     1       2.773  18.378   9.775  1.00  0.00    -0.203 F 
ATOM     71  C   UNL     1       1.595  19.711   8.291  1.00  0.00     0.198 A 
ATOM     72  C   UNL     1       1.589  19.253   5.958  1.00  0.00     0.198 A 
ATOM     73  F   UNL     1       2.919  17.565   5.068  1.00  0.00    -0.203 F 
ATOM     74  F   UNL     1       1.220  20.468   9.331  1.00  0.00    -0.200 F 
ATOM     75  C   UNL     1       1.160  20.022   7.021  1.00  0.00     0.200 A 
ATOM     76  F   UNL     1       1.181  19.548   4.715  1.00  0.00    -0.200 F 
ATOM     77  F   UNL     1       0.351  21.071   6.819  1.00  0.00    -0.200 F 
ENDBRANCH  53  67
BRANCH  54  78
ATOM     78  C   UNL     1       6.534   8.909  10.201  1.00  0.00     0.064 A 
ATOM     79  C   UNL     1       5.987   7.757  10.780  1.00  0.00     0.173 A 
ATOM     80  C   UNL     1       6.759   8.927   8.819  1.00  0.00     0.173 A 
ATOM     81  F   UNL     1       5.905   7.641  12.113  1.00  0.00    -0.203 F 
ATOM     82  C   UNL     1       5.268   6.889   9.988  1.00  0.00     0.198 A 
ATOM     83  C   UNL     1       6.048   8.047   8.018  1.00  0.00     0.198 A 
ATOM     84  F   UNL     1       7.462   9.922   8.258  1.00  0.00    -0.203 F 
ATOM     85  F   UNL     1       4.472   5.965  10.541  1.00  0.00    -0.200 F 
ATOM     86  C   UNL     1       5.227   7.099   8.625  1.00  0.00     0.200 A 
ATOM     87  F   UNL     1       6.062   8.220   6.690  1.00  0.00    -0.200 F 
ATOM     88  F   UNL     1       4.297   6.424   7.955  1.00  0.00    -0.200 F 
ENDBRANCH  54  78
BRANCH  66  89
ATOM     89  C   UNL     1       8.419  15.796  10.564  1.00  0.00     0.064 A 
ATOM     90  C   UNL     1       9.770  15.454  10.408  1.00  0.00     0.173 A 
ATOM     91  C   UNL     1       8.140  17.183  10.615  1.00  0.00     0.173 A 
ATOM     92  F   UNL     1      10.154  14.190  10.183  1.00  0.00    -0.203 F 
ATOM     93  C   UNL     1      10.777  16.417  10.415  1.00  0.00     0.198 A 
ATOM     94  C   UNL     1       9.140  18.144  10.527  1.00  0.00     0.198 A 
ATOM     95  F   UNL     1       6.887  17.650  10.722  1.00  0.00    -0.203 F 
ATOM     96  F   UNL     1      12.059  16.032  10.348  1.00  0.00    -0.200 F 
ATOM     97  C   UNL     1      10.462  17.761  10.461  1.00  0.00     0.200 A 
ATOM     98  F   UNL     1       8.809  19.442  10.492  1.00  0.00    -0.200 F 
ATOM     99  F   UNL     1      11.429  18.685  10.417  1.00  0.00    -0.200 F 
ENDBRANCH  66  89
ENDBRANCH  40  41
ENDBRANCH  33  35
ENDBRANCH  32  33
ENDBRANCH  31  32
ENDBRANCH  30  31
ENDBRANCH  29  30
ENDBRANCH  28  29
ENDBRANCH  27  28
ENDBRANCH   1  27
TORSDOF 22
