REMARK SMILES C[C@@H]1CN(C(=O)N2CC(CC(=O)OCCOCCOCCOCCOC(=O)c3ccc(-c4c5nc(c(-c6c(F)c(F)c(F)c(F)c6F)c6ccc([nH]6)c(-c6c(F)c(F)c(F)c(F)c6F)c6nc(c(-c7c(F)c(F)c(F)c(F)c7F)c7ccc4[nH]7)C=C6)C=C5)cc3)C2)C[C@H]1C
REMARK SMILES IDX 20 1 19 2 18 3 17 4 16 5 15 6 14 7 13 8 11 9 12 10 10 11
REMARK SMILES IDX 9 12 1 13 2 14 3 15 93 16 4 17 92 18 94 19 5 20 6 21 7 22
REMARK SMILES IDX 8 23 91 24 21 25 22 26 23 27 24 28 25 29 26 30 27 31 28 32
REMARK SMILES IDX 29 33 90 34 30 35 89 36 31 37 32 38 33 39 83 40 34 41 88 42
REMARK SMILES IDX 82 43 84 44 35 45 87 46 81 47 80 48 36 50 68 51 48 52 67 53
REMARK SMILES IDX 49 54 52 55 66 56 85 57 50 58 51 59 65 61 86 62 53 63 37 64
REMARK SMILES IDX 38 65 46 66 39 67 40 68 44 69 47 70 41 71 42 72 45 73 43 74
REMARK SMILES IDX 69 75 70 76 78 77 71 78 72 79 76 80 79 81 73 82 74 83 77 84
REMARK SMILES IDX 75 85 54 86 55 87 63 88 56 89 57 90 61 91 64 92 58 93 59 94
REMARK SMILES IDX 62 95 60 96
REMARK H PARENT 84 49 52 60
REMARK Flexibility Score: inf
ROOT
ATOM      1  C   UNL     1       1.071  -2.668   9.084  1.00  0.00     0.188 C 
ENDROOT
BRANCH   1   2
ATOM      2  O   UNL     1       2.237  -2.205   8.418  1.00  0.00    -0.377 OA
BRANCH   2   3
ATOM      3  C   UNL     1       3.445  -2.898   8.653  1.00  0.00     0.188 C 
BRANCH   3   4
ATOM      4  C   UNL     1       4.373  -2.288   9.708  1.00  0.00     0.188 C 
BRANCH   4   5
ATOM      5  O   UNL     1       3.857  -1.366  10.649  1.00  0.00    -0.376 OA
BRANCH   5   6
ATOM      6  C   UNL     1       3.086  -0.257  10.214  1.00  0.00     0.202 C 
BRANCH   6   7
ATOM      7  C   UNL     1       3.423   0.559   8.947  1.00  0.00     0.261 C 
BRANCH   7   8
ATOM      8  O   UNL     1       3.724  -0.158   7.729  1.00  0.00    -0.463 OA
BRANCH   8   9
ATOM      9  C   UNL     1       4.992  -0.043   7.271  1.00  0.00     0.306 C 
ATOM     10  O   UNL     1       5.869   0.600   7.841  1.00  0.00    -0.252 OA
BRANCH   9  11
ATOM     11  C   UNL     1       5.271  -0.714   5.947  1.00  0.00     0.130 C 
BRANCH  11  12
ATOM     12  C   UNL     1       4.383  -1.827   5.406  1.00  0.00     0.039 C 
ATOM     13  C   UNL     1       0.949   0.036  -0.153  1.00  0.00     0.010 C 
ATOM     14  C   UNL     1       0.528  -1.130   0.731  1.00  0.00     0.010 C 
ATOM     15  C   UNL     1       1.394  -1.218   1.987  1.00  0.00     0.125 C 
ATOM     16  C   UNL     1       0.726  -2.504   0.064  1.00  0.00     0.010 C 
ATOM     17  N   UNL     1       1.585  -2.637   2.229  1.00  0.00    -0.324 N 
ATOM     18  C   UNL     1       0.855  -3.441   1.267  1.00  0.00     0.125 C 
ATOM     19  C   UNL     1      -0.402  -2.882  -0.881  1.00  0.00     0.010 C 
ATOM     20  C   UNL     1       2.610  -3.154   2.997  1.00  0.00     0.320 C 
ATOM     21  O   UNL     1       2.905  -4.346   3.012  1.00  0.00    -0.248 OA
ATOM     22  N   UNL     1       3.352  -2.192   3.644  1.00  0.00    -0.324 N 
ATOM     23  C   UNL     1       4.758  -2.280   3.993  1.00  0.00     0.127 C 
ATOM     24  C   UNL     1       2.975  -1.508   4.883  1.00  0.00     0.127 C 
ENDBRANCH  11  12
ENDBRANCH   9  11
ENDBRANCH   8   9
ENDBRANCH   7   8
ENDBRANCH   6   7
ENDBRANCH   5   6
ENDBRANCH   4   5
ENDBRANCH   3   4
ENDBRANCH   2   3
ENDBRANCH   1   2
BRANCH   1  25
ATOM     25  C   UNL     1       1.220  -3.404  10.430  1.00  0.00     0.188 C 
BRANCH  25  26
ATOM     26  O   UNL     1       2.207  -4.425  10.440  1.00  0.00    -0.376 OA
BRANCH  26  27
ATOM     27  C   UNL     1       1.819  -5.763  10.163  1.00  0.00     0.202 C 
BRANCH  27  28
ATOM     28  C   UNL     1       1.260  -6.088   8.766  1.00  0.00     0.261 C 
BRANCH  28  29
ATOM     29  O   UNL     1       0.067  -5.390   8.372  1.00  0.00    -0.460 OA
BRANCH  29  30
ATOM     30  C   UNL     1      -1.024  -5.500   9.153  1.00  0.00     0.338 C 
ATOM     31  O   UNL     1      -1.154  -6.195  10.149  1.00  0.00    -0.246 OA
BRANCH  30  32
ATOM     32  C   UNL     1      -1.995  -4.473   8.723  1.00  0.00     0.060 A 
ATOM     33  C   UNL     1      -2.395  -3.495   9.643  1.00  0.00     0.016 A 
ATOM     34  C   UNL     1      -2.512  -4.473   7.425  1.00  0.00     0.016 A 
ATOM     35  C   UNL     1      -3.344  -2.539   9.282  1.00  0.00     0.010 A 
ATOM     36  C   UNL     1      -3.481  -3.528   7.071  1.00  0.00     0.010 A 
ATOM     37  C   UNL     1      -3.927  -2.580   8.010  1.00  0.00    -0.014 A 
BRANCH  37  38
ATOM     38  C   UNL     1      -5.137  -1.766   7.732  1.00  0.00     0.031 A 
ATOM     39  C   UNL     1      -6.483  -2.427   7.840  1.00  0.00     0.074 A 
ATOM     40  C   UNL     1      -5.049  -0.462   7.418  1.00  0.00     0.049 A 
ATOM     41  N   UNL     1      -7.674  -1.941   7.598  1.00  0.00    -0.248 NA
ATOM     42  C   UNL     1      -6.484  -3.832   8.278  1.00  0.00     0.031 C 
ATOM     43  C   UNL     1      -3.809   0.304   7.329  1.00  0.00     0.029 A 
ATOM     44  N   UNL     1      -6.031   0.446   7.104  1.00  0.00    -0.354 N 
ATOM     45  C   UNL     1      -8.562  -2.982   7.844  1.00  0.00     0.074 A 
ATOM     46  C   UNL     1      -7.772  -4.133   8.224  1.00  0.00     0.031 C 
ATOM     47  C   UNL     1      -4.102   1.566   6.967  1.00  0.00     0.029 A 
ATOM     48  C   UNL     1      -5.546   1.684   6.763  1.00  0.00     0.049 A 
ATOM     49  H   UNL     1      -6.991   0.229   7.122  1.00  0.00     0.167 HD
ATOM     50  C   UNL     1      -9.913  -2.975   7.765  1.00  0.00     0.037 A 
ATOM     51  C   UNL     1      -6.193   2.777   6.309  1.00  0.00     0.037 A 
ATOM     52  C   UNL     1     -10.694  -1.827   7.385  1.00  0.00     0.049 A 
ATOM     53  C   UNL     1      -7.694   2.736   6.153  1.00  0.00     0.074 A 
ATOM     54  C   UNL     1     -12.070  -1.711   7.298  1.00  0.00     0.029 A 
ATOM     55  N   UNL     1     -10.165  -0.600   7.013  1.00  0.00    -0.354 N 
ATOM     56  N   UNL     1      -8.530   1.760   6.415  1.00  0.00    -0.248 NA
ATOM     57  C   UNL     1      -8.341   3.952   5.640  1.00  0.00     0.031 C 
ATOM     58  C   UNL     1     -12.371  -0.437   6.807  1.00  0.00     0.029 A 
ATOM     59  C   UNL     1     -11.187   0.267   6.659  1.00  0.00     0.049 A 
ATOM     60  H   UNL     1      -9.206  -0.378   7.001  1.00  0.00     0.167 HD
ATOM     61  C   UNL     1      -9.798   2.252   6.130  1.00  0.00     0.074 A 
ATOM     62  C   UNL     1      -9.623   3.620   5.689  1.00  0.00     0.031 C 
ATOM     63  C   UNL     1     -10.999   1.630   6.226  1.00  0.00     0.037 A 
BRANCH  50  64
ATOM     64  C   UNL     1     -10.633  -4.261   8.057  1.00  0.00     0.064 A 
ATOM     65  C   UNL     1     -10.686  -4.808   9.348  1.00  0.00     0.173 A 
ATOM     66  C   UNL     1     -11.303  -4.943   7.029  1.00  0.00     0.173 A 
ATOM     67  F   UNL     1     -10.050  -4.205  10.364  1.00  0.00    -0.203 F 
ATOM     68  C   UNL     1     -11.357  -6.004   9.593  1.00  0.00     0.198 A 
ATOM     69  C   UNL     1     -12.003  -6.119   7.284  1.00  0.00     0.198 A 
ATOM     70  F   UNL     1     -11.288  -4.463   5.777  1.00  0.00    -0.203 F 
ATOM     71  F   UNL     1     -11.348  -6.536  10.823  1.00  0.00    -0.200 F 
ATOM     72  C   UNL     1     -12.022  -6.654   8.563  1.00  0.00     0.200 A 
ATOM     73  F   UNL     1     -12.657  -6.737   6.291  1.00  0.00    -0.200 F 
ATOM     74  F   UNL     1     -12.674  -7.800   8.802  1.00  0.00    -0.200 F 
ENDBRANCH  50  64
BRANCH  51  75
ATOM     75  C   UNL     1      -5.426   3.999   5.945  1.00  0.00     0.064 A 
ATOM     76  C   UNL     1      -5.569   5.191   6.669  1.00  0.00     0.173 A 
ATOM     77  C   UNL     1      -4.551   4.006   4.848  1.00  0.00     0.173 A 
ATOM     78  F   UNL     1      -6.413   5.245   7.710  1.00  0.00    -0.203 F 
ATOM     79  C   UNL     1      -4.884   6.347   6.298  1.00  0.00     0.198 A 
ATOM     80  C   UNL     1      -3.842   5.152   4.498  1.00  0.00     0.198 A 
ATOM     81  F   UNL     1      -4.379   2.894   4.118  1.00  0.00    -0.203 F 
ATOM     82  F   UNL     1      -5.081   7.486   6.975  1.00  0.00    -0.200 F 
ATOM     83  C   UNL     1      -4.016   6.325   5.217  1.00  0.00     0.200 A 
ATOM     84  F   UNL     1      -2.993   5.122   3.461  1.00  0.00    -0.200 F 
ATOM     85  F   UNL     1      -3.354   7.435   4.863  1.00  0.00    -0.200 F 
ENDBRANCH  51  75
BRANCH  63  86
ATOM     86  C   UNL     1     -12.227   2.430   5.889  1.00  0.00     0.064 A 
ATOM     87  C   UNL     1     -12.519   2.823   4.574  1.00  0.00     0.173 A 
ATOM     88  C   UNL     1     -13.149   2.769   6.893  1.00  0.00     0.173 A 
ATOM     89  F   UNL     1     -11.666   2.536   3.579  1.00  0.00    -0.203 F 
ATOM     90  C   UNL     1     -13.670   3.551   4.282  1.00  0.00     0.198 A 
ATOM     91  C   UNL     1     -14.317   3.464   6.591  1.00  0.00     0.198 A 
ATOM     92  F   UNL     1     -12.926   2.410   8.166  1.00  0.00    -0.203 F 
ATOM     93  F   UNL     1     -13.900   3.962   3.028  1.00  0.00    -0.200 F 
ATOM     94  C   UNL     1     -14.572   3.863   5.289  1.00  0.00     0.200 A 
ATOM     95  F   UNL     1     -15.196   3.748   7.563  1.00  0.00    -0.200 F 
ATOM     96  F   UNL     1     -15.684   4.554   5.004  1.00  0.00    -0.200 F 
ENDBRANCH  63  86
ENDBRANCH  37  38
ENDBRANCH  30  32
ENDBRANCH  29  30
ENDBRANCH  28  29
ENDBRANCH  27  28
ENDBRANCH  26  27
ENDBRANCH  25  26
ENDBRANCH   1  25
TORSDOF 21
