REMARK SMILES O=C(Cc1cccn(C(F)F)c1=O)OCCOCCOCCOCCOC(=O)c1ccc(-c2c3nc(c(-c4c(F)c(F)c(F)c(F)c4F)c4ccc([nH]4)c(-c4c(F)c(F)c(F)c(F)c4F)c4nc(c(-c5c(F)c(F)c(F)c(F)c5F)c5ccc2[nH]5)C=C4)C=C3)cc1
REMARK SMILES IDX 20 1 19 2 18 3 17 4 16 5 15 6 14 7 2 8 1 9 3 10 4 11 5 12
REMARK SMILES IDX 12 13 6 14 8 15 13 16 7 17 9 18 10 19 11 20 21 21 22 22
REMARK SMILES IDX 23 23 24 24 25 25 26 26 27 27 28 28 29 29 30 30 91 31 31 32
REMARK SMILES IDX 90 33 32 34 33 35 34 36 84 37 35 38 89 39 83 40 85 41 36 42
REMARK SMILES IDX 88 43 82 44 81 45 37 47 69 48 49 49 68 50 50 51 53 52 67 53
REMARK SMILES IDX 86 54 51 55 52 56 66 58 87 59 54 60 38 61 39 62 47 63 40 64
REMARK SMILES IDX 41 65 45 66 48 67 42 68 43 69 46 70 44 71 70 72 71 73 79 74
REMARK SMILES IDX 72 75 73 76 77 77 80 78 74 79 75 80 78 81 76 82 55 83 56 84
REMARK SMILES IDX 64 85 57 86 58 87 62 88 65 89 59 90 60 91 63 92 61 93
REMARK H PARENT 85 46 53 57
REMARK Flexibility Score: inf
ROOT
ATOM      1  O   UNL     1       2.685   3.325   1.774  1.00  0.00    -0.377 OA
ENDROOT
BRANCH   1   2
ATOM      2  C   UNL     1       2.094   2.192   1.149  1.00  0.00     0.188 C 
BRANCH   2   3
ATOM      3  C   UNL     1       2.678   0.860   1.621  1.00  0.00     0.188 C 
BRANCH   3   4
ATOM      4  O   UNL     1       4.084   0.731   1.469  1.00  0.00    -0.376 OA
BRANCH   4   5
ATOM      5  C   UNL     1       4.726   0.472   0.234  1.00  0.00     0.202 C 
BRANCH   5   6
ATOM      6  C   UNL     1       3.993   0.666  -1.089  1.00  0.00     0.261 C 
BRANCH   6   7
ATOM      7  O   UNL     1       2.669   0.116  -1.204  1.00  0.00    -0.463 OA
BRANCH   7   8
ATOM      8  C   UNL     1       2.378  -1.205  -1.248  1.00  0.00     0.310 C 
ATOM      9  O   UNL     1       1.514  -1.616  -2.017  1.00  0.00    -0.252 OA
BRANCH   8  10
ATOM     10  C   UNL     1       3.018  -2.104  -0.217  1.00  0.00     0.164 C 
BRANCH  10  11
ATOM     11  C   UNL     1       4.008  -3.059  -0.801  1.00  0.00     0.029 A 
ATOM     12  C   UNL     1       5.171  -2.723  -1.386  1.00  0.00     0.011 A 
ATOM     13  C   UNL     1       3.671  -4.511  -0.655  1.00  0.00     0.258 A 
ATOM     14  C   UNL     1       6.088  -3.718  -1.871  1.00  0.00     0.019 A 
ATOM     15  N   UNL     1       4.579  -5.401  -1.190  1.00  0.00    -0.258 N 
ATOM     16  O   UNL     1       2.646  -4.854  -0.071  1.00  0.00    -0.269 OA
ATOM     17  C   UNL     1       5.766  -5.010  -1.777  1.00  0.00     0.095 A 
BRANCH  15  18
ATOM     18  C   UNL     1       4.209  -6.790  -1.178  1.00  0.00     0.451 C 
ATOM     19  F   UNL     1       3.904  -7.173  -2.446  1.00  0.00    -0.185 F 
ATOM     20  F   UNL     1       5.270  -7.548  -0.795  1.00  0.00    -0.185 F 
ENDBRANCH  15  18
ENDBRANCH  10  11
ENDBRANCH   8  10
ENDBRANCH   7   8
ENDBRANCH   6   7
ENDBRANCH   5   6
ENDBRANCH   4   5
ENDBRANCH   3   4
ENDBRANCH   2   3
ENDBRANCH   1   2
BRANCH   1  21
ATOM     21  C   UNL     1       4.052   3.523   1.455  1.00  0.00     0.188 C 
BRANCH  21  22
ATOM     22  C   UNL     1       5.088   3.180   2.553  1.00  0.00     0.188 C 
BRANCH  22  23
ATOM     23  O   UNL     1       4.706   2.637   3.807  1.00  0.00    -0.376 OA
BRANCH  23  24
ATOM     24  C   UNL     1       3.542   3.112   4.464  1.00  0.00     0.202 C 
BRANCH  24  25
ATOM     25  C   UNL     1       3.447   4.603   4.813  1.00  0.00     0.261 C 
BRANCH  25  26
ATOM     26  O   UNL     1       3.602   5.481   3.687  1.00  0.00    -0.460 OA
BRANCH  26  27
ATOM     27  C   UNL     1       4.757   6.189   3.628  1.00  0.00     0.338 C 
ATOM     28  O   UNL     1       5.652   6.221   4.456  1.00  0.00    -0.246 OA
BRANCH  27  29
ATOM     29  C   UNL     1       4.892   6.746   2.262  1.00  0.00     0.060 A 
ATOM     30  C   UNL     1       3.825   7.389   1.630  1.00  0.00     0.016 A 
ATOM     31  C   UNL     1       6.089   6.514   1.565  1.00  0.00     0.016 A 
ATOM     32  C   UNL     1       3.966   7.823   0.309  1.00  0.00     0.010 A 
ATOM     33  C   UNL     1       6.219   6.920   0.236  1.00  0.00     0.010 A 
ATOM     34  C   UNL     1       5.167   7.603  -0.390  1.00  0.00    -0.014 A 
BRANCH  34  35
ATOM     35  C   UNL     1       5.407   8.307  -1.671  1.00  0.00     0.031 A 
ATOM     36  C   UNL     1       5.163   7.682  -3.006  1.00  0.00     0.074 A 
ATOM     37  C   UNL     1       5.857   9.572  -1.587  1.00  0.00     0.049 A 
ATOM     38  N   UNL     1       5.229   8.233  -4.192  1.00  0.00    -0.248 NA
ATOM     39  C   UNL     1       4.806   6.258  -3.018  1.00  0.00     0.031 C 
ATOM     40  C   UNL     1       6.144  10.270  -0.333  1.00  0.00     0.029 A 
ATOM     41  N   UNL     1       6.135  10.495  -2.559  1.00  0.00    -0.354 N 
ATOM     42  C   UNL     1       4.885   7.238  -5.095  1.00  0.00     0.074 A 
ATOM     43  C   UNL     1       4.670   6.030  -4.320  1.00  0.00     0.031 C 
ATOM     44  C   UNL     1       6.523  11.524  -0.609  1.00  0.00     0.029 A 
ATOM     45  C   UNL     1       6.522  11.710  -2.056  1.00  0.00     0.049 A 
ATOM     46  H   UNL     1       6.064  10.305  -3.523  1.00  0.00     0.167 HD
ATOM     47  C   UNL     1       4.745   7.337  -6.441  1.00  0.00     0.037 A 
ATOM     48  C   UNL     1       6.822  12.859  -2.687  1.00  0.00     0.037 A 
ATOM     49  C   UNL     1       5.003   8.536  -7.204  1.00  0.00     0.049 A 
ATOM     50  C   UNL     1       6.721  12.923  -4.181  1.00  0.00     0.074 A 
ATOM     51  C   UNL     1       4.874   8.739  -8.568  1.00  0.00     0.029 A 
ATOM     52  N   UNL     1       5.461   9.735  -6.671  1.00  0.00    -0.354 N 
ATOM     53  N   UNL     1       6.336  11.995  -5.023  1.00  0.00    -0.248 NA
ATOM     54  C   UNL     1       7.089  14.196  -4.810  1.00  0.00     0.031 C 
ATOM     55  C   UNL     1       5.303  10.038  -8.866  1.00  0.00     0.029 A 
ATOM     56  C   UNL     1       5.649  10.668  -7.682  1.00  0.00     0.049 A 
ATOM     57  H   UNL     1       5.629   9.898  -5.715  1.00  0.00     0.167 HD
ATOM     58  C   UNL     1       6.398  12.575  -6.281  1.00  0.00     0.074 A 
ATOM     59  C   UNL     1       6.841  13.942  -6.088  1.00  0.00     0.031 C 
ATOM     60  C   UNL     1       6.113  12.020  -7.485  1.00  0.00     0.037 A 
BRANCH  47  61
ATOM     61  C   UNL     1       4.281   6.114  -7.183  1.00  0.00     0.064 A 
ATOM     62  C   UNL     1       2.969   5.635  -7.049  1.00  0.00     0.173 A 
ATOM     63  C   UNL     1       5.131   5.447  -8.079  1.00  0.00     0.173 A 
ATOM     64  F   UNL     1       2.116   6.232  -6.203  1.00  0.00    -0.203 F 
ATOM     65  C   UNL     1       2.533   4.521  -7.763  1.00  0.00     0.198 A 
ATOM     66  C   UNL     1       4.683   4.350  -8.812  1.00  0.00     0.198 A 
ATOM     67  F   UNL     1       6.392   5.867  -8.256  1.00  0.00    -0.203 F 
ATOM     68  F   UNL     1       1.288   4.058  -7.584  1.00  0.00    -0.200 F 
ATOM     69  C   UNL     1       3.388   3.883  -8.648  1.00  0.00     0.200 A 
ATOM     70  F   UNL     1       5.507   3.743  -9.678  1.00  0.00    -0.200 F 
ATOM     71  F   UNL     1       2.966   2.814  -9.338  1.00  0.00    -0.200 F 
ENDBRANCH  47  61
BRANCH  48  72
ATOM     72  C   UNL     1       7.169  14.049  -1.876  1.00  0.00     0.064 A 
ATOM     73  C   UNL     1       6.252  15.097  -1.725  1.00  0.00     0.173 A 
ATOM     74  C   UNL     1       8.377  14.123  -1.167  1.00  0.00     0.173 A 
ATOM     75  F   UNL     1       5.089  15.069  -2.393  1.00  0.00    -0.203 F 
ATOM     76  C   UNL     1       6.529  16.176  -0.891  1.00  0.00     0.198 A 
ATOM     77  C   UNL     1       8.642  15.191  -0.315  1.00  0.00     0.198 A 
ATOM     78  F   UNL     1       9.277  13.135  -1.271  1.00  0.00    -0.203 F 
ATOM     79  F   UNL     1       5.641  17.172  -0.772  1.00  0.00    -0.200 F 
ATOM     80  C   UNL     1       7.718  16.217  -0.178  1.00  0.00     0.200 A 
ATOM     81  F   UNL     1       9.782  15.217   0.388  1.00  0.00    -0.200 F 
ATOM     82  F   UNL     1       7.972  17.243   0.645  1.00  0.00    -0.200 F 
ENDBRANCH  48  72
BRANCH  60  83
ATOM     83  C   UNL     1       6.277  12.896  -8.695  1.00  0.00     0.064 A 
ATOM     84  C   UNL     1       7.545  13.282  -9.155  1.00  0.00     0.173 A 
ATOM     85  C   UNL     1       5.157  13.335  -9.418  1.00  0.00     0.173 A 
ATOM     86  F   UNL     1       8.648  12.905  -8.489  1.00  0.00    -0.203 F 
ATOM     87  C   UNL     1       7.685  14.095 -10.277  1.00  0.00     0.198 A 
ATOM     88  C   UNL     1       5.302  14.122 -10.558  1.00  0.00     0.198 A 
ATOM     89  F   UNL     1       3.921  12.992  -9.025  1.00  0.00    -0.203 F 
ATOM     90  F   UNL     1       8.905  14.492 -10.667  1.00  0.00    -0.200 F 
ATOM     91  C   UNL     1       6.565  14.508 -10.982  1.00  0.00     0.200 A 
ATOM     92  F   UNL     1       4.219  14.511 -11.245  1.00  0.00    -0.200 F 
ATOM     93  F   UNL     1       6.702  15.286 -12.065  1.00  0.00    -0.200 F 
ENDBRANCH  60  83
ENDBRANCH  34  35
ENDBRANCH  27  29
ENDBRANCH  26  27
ENDBRANCH  25  26
ENDBRANCH  24  25
ENDBRANCH  23  24
ENDBRANCH  22  23
ENDBRANCH  21  22
ENDBRANCH   1  21
TORSDOF 22
