REMARK SMILES COc1cc([C@H]2CC(OCCOCCOCCOCCOC(=O)c3ccc(-c4c5nc(c(-c6c(F)c(F)c(F)c(F)c6F)c6ccc([nH]6)c(-c6c(F)c(F)c(F)c(F)c6F)c6nc(c(-c7c(F)c(F)c(F)c(F)c7F)c7ccc4[nH]7)C=C6)C=C5)cc3)=Nc3c(C(=O)[O-])cn(-c4cccc(Cl)c4)c32)ccc1O
REMARK SMILES IDX 16 1 15 2 14 3 13 4 12 5 11 6 10 7 9 8 8 9 6 10 7 11 102 12
REMARK SMILES IDX 88 13 94 14 87 15 89 16 93 17 5 18 3 19 4 20 105 21 104 22
REMARK SMILES IDX 103 23 2 24 1 25 106 26 95 28 96 29 101 30 97 31 99 32 98 33
REMARK SMILES IDX 100 34 90 35 91 36 92 37 17 38 18 39 19 40 20 41 21 42 22 43
REMARK SMILES IDX 23 44 24 45 25 46 86 47 26 48 85 49 27 50 28 51 29 52 79 53
REMARK SMILES IDX 30 54 84 55 78 56 80 57 31 58 83 59 77 60 76 61 32 63 64 64
REMARK SMILES IDX 44 65 63 66 45 67 48 68 62 69 81 70 46 71 47 72 61 74 82 75
REMARK SMILES IDX 49 76 33 77 34 78 42 79 35 80 36 81 40 82 43 83 37 84 38 85
REMARK SMILES IDX 41 86 39 87 65 88 66 89 74 90 67 91 68 92 72 93 75 94 69 95
REMARK SMILES IDX 70 96 73 97 71 98 50 99 51 100 59 101 52 102 53 103 57 104
REMARK SMILES IDX 60 105 54 106 55 107 58 108 56 109
REMARK H PARENT 106 27 80 62 48 73
REMARK Flexibility Score: inf
ROOT
ATOM      1  C   UNL     1      -5.392  -1.368  -5.847  1.00  0.00     0.188 C 
ENDROOT
BRANCH   1   2
ATOM      2  O   UNL     1      -4.200  -1.741  -6.503  1.00  0.00    -0.377 OA
BRANCH   2   3
ATOM      3  C   UNL     1      -3.360  -0.640  -6.827  1.00  0.00     0.188 C 
BRANCH   3   4
ATOM      4  C   UNL     1      -2.874   0.197  -5.640  1.00  0.00     0.188 C 
BRANCH   4   5
ATOM      5  O   UNL     1      -3.774   0.809  -4.747  1.00  0.00    -0.376 OA
BRANCH   5   6
ATOM      6  C   UNL     1      -4.697   1.842  -5.009  1.00  0.00     0.201 C 
BRANCH   6   7
ATOM      7  C   UNL     1      -4.785   2.717  -6.271  1.00  0.00     0.259 C 
BRANCH   7   8
ATOM      8  O   UNL     1      -3.877   2.490  -7.346  1.00  0.00    -0.478 OA
BRANCH   8   9
ATOM      9  C   UNL     1      -2.547   2.659  -7.247  1.00  0.00     0.189 C 
ATOM     10  C   UNL     1      -0.635   2.848  -5.547  1.00  0.00     0.078 C 
ATOM     11  C   UNL     1      -1.999   3.385  -6.043  1.00  0.00     0.111 C 
ATOM     12  C   UNL     1       0.083   2.226  -6.706  1.00  0.00     0.057 A 
ATOM     13  C   UNL     1      -0.497   1.964  -7.926  1.00  0.00     0.098 A 
ATOM     14  N   UNL     1       1.387   1.776  -6.780  1.00  0.00    -0.317 N 
ATOM     15  N   UNL     1      -1.855   2.103  -8.188  1.00  0.00    -0.215 NA
ATOM     16  C   UNL     1       0.447   1.394  -8.805  1.00  0.00     0.041 A 
ATOM     17  C   UNL     1       1.626   1.359  -8.075  1.00  0.00     0.104 A 
BRANCH  10  18
ATOM     18  C   UNL     1      -0.007   4.046  -4.856  1.00  0.00    -0.034 A 
ATOM     19  C   UNL     1      -0.131   5.665  -3.034  1.00  0.00     0.160 A 
ATOM     20  C   UNL     1      -0.502   4.441  -3.591  1.00  0.00     0.054 A 
ATOM     21  C   UNL     1       0.813   6.448  -3.698  1.00  0.00     0.157 A 
ATOM     22  C   UNL     1       1.310   6.075  -4.941  1.00  0.00     0.050 A 
ATOM     23  C   UNL     1       0.888   4.888  -5.527  1.00  0.00     0.008 A 
BRANCH  19  24
ATOM     24  O   UNL     1      -0.652   5.991  -1.811  1.00  0.00    -0.493 OA
ATOM     25  C   UNL     1      -1.387   7.220  -1.802  1.00  0.00     0.278 C 
ENDBRANCH  19  24
BRANCH  21  26
ATOM     26  O   UNL     1       1.338   7.577  -3.142  1.00  0.00    -0.504 OA
ATOM     27  H   UNL     1       1.037   7.871  -2.305  1.00  0.00     0.293 HD
ENDBRANCH  21  26
ENDBRANCH  10  18
BRANCH  14  28
ATOM     28  C   UNL     1       2.376   1.834  -5.777  1.00  0.00     0.047 A 
ATOM     29  C   UNL     1       2.204   1.175  -4.556  1.00  0.00     0.027 A 
ATOM     30  C   UNL     1       3.506   2.620  -6.022  1.00  0.00     0.047 A 
ATOM     31  C   UNL     1       3.179   1.320  -3.566  1.00  0.00     0.004 A 
ATOM     32  C   UNL     1       4.432   2.808  -5.003  1.00  0.00     0.043 A 
ATOM     33  C   UNL     1       4.280   2.155  -3.780  1.00  0.00     0.020 A 
ATOM     34  Cl  UNL     1       5.746   3.892  -5.243  1.00  0.00    -0.084 Cl
ENDBRANCH  14  28
BRANCH  16  35
ATOM     35  C   UNL     1       0.300   0.912 -10.162  1.00  0.00     0.075 C 
ATOM     36  O   UNL     1       1.230   0.554 -10.884  1.00  0.00    -0.545 OA
ATOM     37  O   UNL     1      -0.963   0.838 -10.626  1.00  0.00    -0.545 OA
ENDBRANCH  16  35
ENDBRANCH   8   9
ENDBRANCH   7   8
ENDBRANCH   6   7
ENDBRANCH   5   6
ENDBRANCH   4   5
ENDBRANCH   3   4
ENDBRANCH   2   3
ENDBRANCH   1   2
BRANCH   1  38
ATOM     38  C   UNL     1      -5.419  -1.648  -4.331  1.00  0.00     0.188 C 
BRANCH  38  39
ATOM     39  O   UNL     1      -4.265  -1.944  -3.550  1.00  0.00    -0.376 OA
BRANCH  39  40
ATOM     40  C   UNL     1      -3.145  -2.684  -4.004  1.00  0.00     0.202 C 
BRANCH  40  41
ATOM     41  C   UNL     1      -3.244  -4.102  -4.527  1.00  0.00     0.261 C 
BRANCH  41  42
ATOM     42  O   UNL     1      -4.264  -4.264  -5.483  1.00  0.00    -0.460 OA
BRANCH  42  43
ATOM     43  C   UNL     1      -5.438  -4.619  -4.940  1.00  0.00     0.338 C 
ATOM     44  O   UNL     1      -5.726  -4.683  -3.756  1.00  0.00    -0.246 OA
BRANCH  43  45
ATOM     45  C   UNL     1      -6.291  -5.126  -6.011  1.00  0.00     0.060 A 
ATOM     46  C   UNL     1      -7.489  -5.681  -5.581  1.00  0.00     0.016 A 
ATOM     47  C   UNL     1      -5.756  -5.372  -7.288  1.00  0.00     0.016 A 
ATOM     48  C   UNL     1      -8.002  -6.712  -6.322  1.00  0.00     0.010 A 
ATOM     49  C   UNL     1      -6.278  -6.400  -8.034  1.00  0.00     0.010 A 
ATOM     50  C   UNL     1      -7.335  -7.119  -7.492  1.00  0.00    -0.014 A 
BRANCH  50  51
ATOM     51  C   UNL     1      -7.939  -8.205  -8.228  1.00  0.00     0.031 A 
ATOM     52  C   UNL     1      -9.274  -7.809  -8.711  1.00  0.00     0.074 A 
ATOM     53  C   UNL     1      -7.387  -9.416  -8.420  1.00  0.00     0.049 A 
ATOM     54  N   UNL     1     -10.395  -8.189  -8.200  1.00  0.00    -0.248 NA
ATOM     55  C   UNL     1      -9.384  -6.694  -9.663  1.00  0.00     0.031 C 
ATOM     56  C   UNL     1      -6.017  -9.854  -8.162  1.00  0.00     0.029 A 
ATOM     57  N   UNL     1      -7.964 -10.527  -8.959  1.00  0.00    -0.354 N 
ATOM     58  C   UNL     1     -11.371  -7.531  -8.927  1.00  0.00     0.074 A 
ATOM     59  C   UNL     1     -10.704  -6.492  -9.667  1.00  0.00     0.031 C 
ATOM     60  C   UNL     1      -5.814 -11.054  -8.758  1.00  0.00     0.029 A 
ATOM     61  C   UNL     1      -7.070 -11.530  -9.315  1.00  0.00     0.049 A 
ATOM     62  H   UNL     1      -8.937 -10.612  -9.085  1.00  0.00     0.167 HD
ATOM     63  C   UNL     1     -12.577  -8.133  -9.091  1.00  0.00     0.037 A 
ATOM     64  C   UNL     1      -7.355 -12.632 -10.059  1.00  0.00     0.037 A 
ATOM     65  C   UNL     1     -12.816  -9.100  -8.042  1.00  0.00     0.049 A 
ATOM     66  C   UNL     1      -8.819 -12.869  -9.956  1.00  0.00     0.074 A 
ATOM     67  C   UNL     1     -12.832  -9.039  -6.659  1.00  0.00     0.029 A 
ATOM     68  N   UNL     1     -12.672 -10.431  -8.349  1.00  0.00    -0.354 N 
ATOM     69  N   UNL     1      -9.406 -13.271  -8.864  1.00  0.00    -0.248 NA
ATOM     70  C   UNL     1      -9.678 -12.191 -10.916  1.00  0.00     0.031 C 
ATOM     71  C   UNL     1     -12.217 -10.250  -6.224  1.00  0.00     0.029 A 
ATOM     72  C   UNL     1     -11.943 -11.021  -7.352  1.00  0.00     0.049 A 
ATOM     73  H   UNL     1     -13.032 -10.882  -9.148  1.00  0.00     0.167 HD
ATOM     74  C   UNL     1     -10.548 -12.491  -8.782  1.00  0.00     0.074 A 
ATOM     75  C   UNL     1     -10.702 -11.897 -10.110  1.00  0.00     0.031 C 
ATOM     76  C   UNL     1     -11.086 -12.161  -7.572  1.00  0.00     0.037 A 
BRANCH  63  77
ATOM     77  C   UNL     1     -13.250  -8.207 -10.438  1.00  0.00     0.064 A 
ATOM     78  C   UNL     1     -14.517  -8.812 -10.521  1.00  0.00     0.173 A 
ATOM     79  C   UNL     1     -12.580  -8.024 -11.670  1.00  0.00     0.173 A 
ATOM     80  F   UNL     1     -15.226  -9.062  -9.409  1.00  0.00    -0.203 F 
ATOM     81  C   UNL     1     -15.027  -9.283 -11.732  1.00  0.00     0.198 A 
ATOM     82  C   UNL     1     -13.117  -8.444 -12.882  1.00  0.00     0.198 A 
ATOM     83  F   UNL     1     -11.333  -7.548 -11.754  1.00  0.00    -0.203 F 
ATOM     84  F   UNL     1     -16.168  -9.985 -11.741  1.00  0.00    -0.200 F 
ATOM     85  C   UNL     1     -14.324  -9.105 -12.909  1.00  0.00     0.200 A 
ATOM     86  F   UNL     1     -12.404  -8.286 -14.006  1.00  0.00    -0.200 F 
ATOM     87  F   UNL     1     -14.780  -9.615 -14.060  1.00  0.00    -0.200 F 
ENDBRANCH  63  77
BRANCH  64  88
ATOM     88  C   UNL     1      -6.533 -13.290 -11.109  1.00  0.00     0.064 A 
ATOM     89  C   UNL     1      -6.933 -14.515 -11.678  1.00  0.00     0.173 A 
ATOM     90  C   UNL     1      -5.514 -12.597 -11.789  1.00  0.00     0.173 A 
ATOM     91  F   UNL     1      -7.929 -15.224 -11.127  1.00  0.00    -0.203 F 
ATOM     92  C   UNL     1      -6.375 -14.993 -12.870  1.00  0.00     0.198 A 
ATOM     93  C   UNL     1      -4.954 -13.078 -12.975  1.00  0.00     0.198 A 
ATOM     94  F   UNL     1      -5.107 -11.389 -11.375  1.00  0.00    -0.203 F 
ATOM     95  F   UNL     1      -6.835 -16.128 -13.417  1.00  0.00    -0.200 F 
ATOM     96  C   UNL     1      -5.395 -14.268 -13.524  1.00  0.00     0.200 A 
ATOM     97  F   UNL     1      -4.032 -12.347 -13.617  1.00  0.00    -0.200 F 
ATOM     98  F   UNL     1      -4.907 -14.689 -14.699  1.00  0.00    -0.200 F 
ENDBRANCH  64  88
BRANCH  76  99
ATOM     99  C   UNL     1     -10.615 -12.906  -6.355  1.00  0.00     0.064 A 
ATOM    100  C   UNL     1      -9.289 -12.931  -5.889  1.00  0.00     0.173 A 
ATOM    101  C   UNL     1     -11.591 -13.519  -5.555  1.00  0.00     0.173 A 
ATOM    102  F   UNL     1      -8.311 -12.288  -6.542  1.00  0.00    -0.203 F 
ATOM    103  C   UNL     1      -8.957 -13.580  -4.698  1.00  0.00     0.198 A 
ATOM    104  C   UNL     1     -11.263 -14.128  -4.349  1.00  0.00     0.198 A 
ATOM    105  F   UNL     1     -12.880 -13.488  -5.927  1.00  0.00    -0.203 F 
ATOM    106  F   UNL     1      -7.683 -13.608  -4.279  1.00  0.00    -0.200 F 
ATOM    107  C   UNL     1      -9.946 -14.169  -3.926  1.00  0.00     0.200 A 
ATOM    108  F   UNL     1     -12.231 -14.653  -3.585  1.00  0.00    -0.200 F 
ATOM    109  F   UNL     1      -9.633 -14.757  -2.763  1.00  0.00    -0.200 F 
ENDBRANCH  76  99
ENDBRANCH  50  51
ENDBRANCH  43  45
ENDBRANCH  42  43
ENDBRANCH  41  42
ENDBRANCH  40  41
ENDBRANCH  39  40
ENDBRANCH  38  39
ENDBRANCH   1  38
TORSDOF 24
