REMARK SMILES Cc1n[nH]c(C(=O)N2CCC(CCC(=O)OCCOCCOCCOCCOC(=O)c3ccc(-c4c5nc(c(-c6c(F)c(F)c(F)c(F)c6F)c6ccc([nH]6)c(-c6c(F)c(F)c(F)c(F)c6F)c6nc(c(-c7c(F)c(F)c(F)c(F)c7F)c7ccc4[nH]7)C=C6)C=C5)cc3)CC2)n1
REMARK SMILES IDX 21 1 20 2 19 3 18 4 17 5 16 6 14 7 15 8 13 9 12 10 11 11
REMARK SMILES IDX 6 12 7 13 8 14 9 15 95 16 10 17 94 18 5 19 1 20 2 21 3 22
REMARK SMILES IDX 96 23 4 24 22 26 23 27 24 28 25 29 26 30 27 31 28 32 29 33
REMARK SMILES IDX 30 34 31 35 32 36 93 37 33 38 92 39 34 40 35 41 36 42 86 43
REMARK SMILES IDX 37 44 91 45 85 46 87 47 38 48 90 49 84 50 83 51 39 53 71 54
REMARK SMILES IDX 51 55 70 56 52 57 55 58 69 59 88 60 53 61 54 62 68 64 89 65
REMARK SMILES IDX 56 66 40 67 41 68 49 69 42 70 43 71 47 72 50 73 44 74 45 75
REMARK SMILES IDX 48 76 46 77 72 78 73 79 81 80 74 81 75 82 79 83 82 84 76 85
REMARK SMILES IDX 77 86 80 87 78 88 57 89 58 90 66 91 59 92 60 93 64 94 67 95
REMARK SMILES IDX 61 96 62 97 65 98 63 99
REMARK H PARENT 4 25 87 52 55 63
REMARK Flexibility Score: inf
ROOT
ATOM      1  C   UNL     1      -0.287   8.649   8.011  1.00  0.00     0.188 C 
ENDROOT
BRANCH   1   2
ATOM      2  C   UNL     1      -0.858  10.050   8.311  1.00  0.00     0.188 C 
BRANCH   2   3
ATOM      3  O   UNL     1      -2.245  10.213   8.589  1.00  0.00    -0.376 OA
BRANCH   3   4
ATOM      4  C   UNL     1      -3.201   9.513   7.805  1.00  0.00     0.202 C 
BRANCH   4   5
ATOM      5  C   UNL     1      -3.142   9.645   6.277  1.00  0.00     0.261 C 
BRANCH   5   6
ATOM      6  O   UNL     1      -1.834   9.446   5.703  1.00  0.00    -0.463 OA
BRANCH   6   7
ATOM      7  C   UNL     1      -1.380  10.427   4.890  1.00  0.00     0.305 C 
ATOM      8  O   UNL     1      -2.011  11.445   4.619  1.00  0.00    -0.252 OA
BRANCH   7   9
ATOM      9  C   UNL     1       0.022  10.217   4.342  1.00  0.00     0.123 C 
BRANCH   9  10
ATOM     10  C   UNL     1       0.811   8.909   4.487  1.00  0.00     0.015 C 
BRANCH  10  11
ATOM     11  C   UNL     1       0.062   7.586   4.266  1.00  0.00    -0.007 C 
ATOM     12  C   UNL     1       0.240   4.554   1.717  1.00  0.00     0.291 C 
ATOM     13  O   UNL     1       0.520   5.273   0.759  1.00  0.00    -0.265 OA
ATOM     14  N   UNL     1      -0.369   5.095   2.856  1.00  0.00    -0.336 N 
ATOM     15  C   UNL     1      -1.288   6.207   2.663  1.00  0.00     0.120 C 
ATOM     16  C   UNL     1       0.297   5.050   4.155  1.00  0.00     0.120 C 
ATOM     17  C   UNL     1      -0.596   7.544   2.882  1.00  0.00     0.025 C 
ATOM     18  C   UNL     1       1.012   6.378   4.442  1.00  0.00     0.025 C 
BRANCH  12  19
ATOM     19  C   UNL     1       0.367   3.111   1.703  1.00  0.00     0.214 A 
ATOM     20  C   UNL     1       1.008  -0.020   0.196  1.00  0.00     0.092 C 
ATOM     21  C   UNL     1       0.642   1.108   1.075  1.00  0.00     0.148 A 
ATOM     22  N   UNL     1      -0.079   0.966   2.195  1.00  0.00    -0.159 NA
ATOM     23  N   UNL     1       0.965   2.402   0.763  1.00  0.00    -0.207 NA
ATOM     24  N   UNL     1      -0.255   2.247   2.557  1.00  0.00    -0.255 N 
ATOM     25  H   UNL     1      -0.773   2.530   3.345  1.00  0.00     0.192 HD
ENDBRANCH  12  19
ENDBRANCH  10  11
ENDBRANCH   9  10
ENDBRANCH   7   9
ENDBRANCH   6   7
ENDBRANCH   5   6
ENDBRANCH   4   5
ENDBRANCH   3   4
ENDBRANCH   2   3
ENDBRANCH   1   2
BRANCH   1  26
ATOM     26  O   UNL     1      -1.235   7.599   7.937  1.00  0.00    -0.377 OA
BRANCH  26  27
ATOM     27  C   UNL     1      -1.365   6.803   9.108  1.00  0.00     0.188 C 
BRANCH  27  28
ATOM     28  C   UNL     1      -1.448   7.524  10.469  1.00  0.00     0.188 C 
BRANCH  28  29
ATOM     29  O   UNL     1      -0.399   8.465  10.706  1.00  0.00    -0.376 OA
BRANCH  29  30
ATOM     30  C   UNL     1       0.624   8.099  11.623  1.00  0.00     0.202 C 
BRANCH  30  31
ATOM     31  C   UNL     1       1.781   7.345  10.966  1.00  0.00     0.261 C 
BRANCH  31  32
ATOM     32  O   UNL     1       1.401   6.136  10.312  1.00  0.00    -0.460 OA
BRANCH  32  33
ATOM     33  C   UNL     1       0.799   5.214  11.091  1.00  0.00     0.338 C 
ATOM     34  O   UNL     1       0.469   5.335  12.256  1.00  0.00    -0.246 OA
BRANCH  33  35
ATOM     35  C   UNL     1       0.676   3.954  10.347  1.00  0.00     0.060 A 
ATOM     36  C   UNL     1       0.059   2.906  11.033  1.00  0.00     0.016 A 
ATOM     37  C   UNL     1       1.400   3.745   9.163  1.00  0.00     0.016 A 
ATOM     38  C   UNL     1       0.402   1.621  10.690  1.00  0.00     0.010 A 
ATOM     39  C   UNL     1       1.743   2.455   8.820  1.00  0.00     0.010 A 
ATOM     40  C   UNL     1       1.333   1.427   9.664  1.00  0.00    -0.014 A 
BRANCH  40  41
ATOM     41  C   UNL     1       1.983   0.136   9.634  1.00  0.00     0.031 A 
ATOM     42  C   UNL     1       1.218  -0.970   9.040  1.00  0.00     0.074 A 
ATOM     43  C   UNL     1       3.216  -0.041  10.143  1.00  0.00     0.049 A 
ATOM     44  N   UNL     1       0.779  -2.032   9.629  1.00  0.00    -0.248 NA
ATOM     45  C   UNL     1       0.845  -0.846   7.628  1.00  0.00     0.031 C 
ATOM     46  C   UNL     1       4.203   0.977  10.511  1.00  0.00     0.029 A 
ATOM     47  N   UNL     1       3.875  -1.212  10.351  1.00  0.00    -0.354 N 
ATOM     48  C   UNL     1       0.191  -2.793   8.631  1.00  0.00     0.074 A 
ATOM     49  C   UNL     1       0.167  -1.978   7.440  1.00  0.00     0.031 C 
ATOM     50  C   UNL     1       5.400   0.378  10.695  1.00  0.00     0.029 A 
ATOM     51  C   UNL     1       5.230  -1.062  10.578  1.00  0.00     0.049 A 
ATOM     52  H   UNL     1       3.427  -2.089  10.340  1.00  0.00     0.167 HD
ATOM     53  C   UNL     1      -0.074  -4.115   8.794  1.00  0.00     0.037 A 
ATOM     54  C   UNL     1       6.150  -2.054  10.577  1.00  0.00     0.037 A 
ATOM     55  C   UNL     1      -0.070  -4.520  10.171  1.00  0.00     0.049 A 
ATOM     56  C   UNL     1       5.441  -3.341  10.788  1.00  0.00     0.074 A 
ATOM     57  C   UNL     1      -0.811  -4.172  11.283  1.00  0.00     0.029 A 
ATOM     58  N   UNL     1       1.016  -5.208  10.651  1.00  0.00    -0.354 N 
ATOM     59  N   UNL     1       4.899  -3.712  11.915  1.00  0.00    -0.248 NA
ATOM     60  C   UNL     1       4.996  -4.079   9.614  1.00  0.00     0.031 C 
ATOM     61  C   UNL     1       0.089  -4.267  12.384  1.00  0.00     0.029 A 
ATOM     62  C   UNL     1       1.323  -4.669  11.875  1.00  0.00     0.049 A 
ATOM     63  H   UNL     1       1.485  -5.949  10.203  1.00  0.00     0.167 HD
ATOM     64  C   UNL     1       3.770  -4.430  11.547  1.00  0.00     0.074 A 
ATOM     65  C   UNL     1       3.947  -4.722  10.131  1.00  0.00     0.031 C 
ATOM     66  C   UNL     1       2.671  -4.478  12.355  1.00  0.00     0.037 A 
BRANCH  53  67
ATOM     67  C   UNL     1      -0.062  -5.089   7.659  1.00  0.00     0.064 A 
ATOM     68  C   UNL     1      -0.722  -6.322   7.777  1.00  0.00     0.173 A 
ATOM     69  C   UNL     1       0.796  -4.943   6.547  1.00  0.00     0.173 A 
ATOM     70  F   UNL     1      -1.514  -6.572   8.829  1.00  0.00    -0.203 F 
ATOM     71  C   UNL     1      -0.522  -7.347   6.849  1.00  0.00     0.198 A 
ATOM     72  C   UNL     1       0.949  -5.945   5.595  1.00  0.00     0.198 A 
ATOM     73  F   UNL     1       1.583  -3.866   6.408  1.00  0.00    -0.203 F 
ATOM     74  F   UNL     1      -1.095  -8.542   7.046  1.00  0.00    -0.200 F 
ATOM     75  C   UNL     1       0.307  -7.155   5.757  1.00  0.00     0.200 A 
ATOM     76  F   UNL     1       1.777  -5.750   4.558  1.00  0.00    -0.200 F 
ATOM     77  F   UNL     1       0.527  -8.150   4.888  1.00  0.00    -0.200 F 
ENDBRANCH  53  67
BRANCH  54  78
ATOM     78  C   UNL     1       7.560  -1.977  10.138  1.00  0.00     0.064 A 
ATOM     79  C   UNL     1       8.483  -2.972  10.492  1.00  0.00     0.173 A 
ATOM     80  C   UNL     1       7.976  -1.056   9.155  1.00  0.00     0.173 A 
ATOM     81  F   UNL     1       8.148  -3.918  11.382  1.00  0.00    -0.203 F 
ATOM     82  C   UNL     1       9.742  -3.050   9.888  1.00  0.00     0.198 A 
ATOM     83  C   UNL     1       9.237  -1.124   8.566  1.00  0.00     0.198 A 
ATOM     84  F   UNL     1       7.135  -0.127   8.678  1.00  0.00    -0.203 F 
ATOM     85  F   UNL     1      10.574  -4.050  10.207  1.00  0.00    -0.200 F 
ATOM     86  C   UNL     1      10.116  -2.129   8.923  1.00  0.00     0.200 A 
ATOM     87  F   UNL     1       9.571  -0.246   7.610  1.00  0.00    -0.200 F 
ATOM     88  F   UNL     1      11.302  -2.232   8.309  1.00  0.00    -0.200 F 
ENDBRANCH  54  78
BRANCH  66  89
ATOM     89  C   UNL     1       2.831  -4.015  13.773  1.00  0.00     0.064 A 
ATOM     90  C   UNL     1       3.153  -2.693  14.124  1.00  0.00     0.173 A 
ATOM     91  C   UNL     1       2.522  -4.905  14.810  1.00  0.00     0.173 A 
ATOM     92  F   UNL     1       3.352  -1.760  13.183  1.00  0.00    -0.203 F 
ATOM     93  C   UNL     1       3.220  -2.300  15.459  1.00  0.00     0.198 A 
ATOM     94  C   UNL     1       2.554  -4.499  16.142  1.00  0.00     0.198 A 
ATOM     95  F   UNL     1       2.145  -6.163  14.529  1.00  0.00    -0.203 F 
ATOM     96  F   UNL     1       3.547  -1.037  15.772  1.00  0.00    -0.200 F 
ATOM     97  C   UNL     1       2.915  -3.201  16.466  1.00  0.00     0.200 A 
ATOM     98  F   UNL     1       2.209  -5.359  17.110  1.00  0.00    -0.200 F 
ATOM     99  F   UNL     1       2.943  -2.812  17.749  1.00  0.00    -0.200 F 
ENDBRANCH  66  89
ENDBRANCH  40  41
ENDBRANCH  33  35
ENDBRANCH  32  33
ENDBRANCH  31  32
ENDBRANCH  30  31
ENDBRANCH  29  30
ENDBRANCH  28  29
ENDBRANCH  27  28
ENDBRANCH  26  27
ENDBRANCH   1  26
TORSDOF 23
