REMARK SMILES CCCCCCNC(=O)Oc1cccc(-c2ccc(CC(=O)OCCOCCOCCOCCOC(=O)c3ccc(-c4c5nc(c(-c6c(F)c(F)c(F)c(F)c6F)c6ccc([nH]6)c(-c6c(F)c(F)c(F)c(F)c6F)c6nc(c(-c7c(F)c(F)c(F)c(F)c7F)c7ccc4[nH]7)C=C6)C=C5)cc3)cc2F)c1
REMARK SMILES IDX 25 1 24 2 23 3 21 4 22 5 20 6 19 7 16 8 17 9 102 10 18 11
REMARK SMILES IDX 101 12 103 13 15 14 11 15 12 16 104 17 13 18 14 19 10 20
REMARK SMILES IDX 8 21 7 22 9 24 6 25 5 26 4 27 3 28 2 29 1 30 26 31 27 32
REMARK SMILES IDX 28 33 29 34 30 35 31 36 32 37 33 38 34 39 35 40 36 41 37 42
REMARK SMILES IDX 38 43 39 44 100 45 40 46 99 47 41 48 42 49 43 50 93 51 44 52
REMARK SMILES IDX 98 53 92 54 94 55 45 56 97 57 91 58 90 59 46 61 78 62 58 63
REMARK SMILES IDX 77 64 59 65 62 66 76 67 95 68 60 69 61 70 75 72 96 73 63 74
REMARK SMILES IDX 47 75 48 76 56 77 49 78 50 79 54 80 57 81 51 82 52 83 55 84
REMARK SMILES IDX 53 85 79 86 80 87 88 88 81 89 82 90 86 91 89 92 83 93 84 94
REMARK SMILES IDX 87 95 85 96 64 97 65 98 73 99 66 100 67 101 71 102 74 103
REMARK SMILES IDX 68 104 69 105 72 106 70 107
REMARK H PARENT 7 23 94 60 62 71
REMARK Flexibility Score: inf
ROOT
ATOM      1  C   UNL     1      -7.309  12.973  -9.740  1.00  0.00     0.202 C 
ENDROOT
BRANCH   1   2
ATOM      2  C   UNL     1      -7.001  11.536 -10.203  1.00  0.00     0.261 C 
BRANCH   2   3
ATOM      3  O   UNL     1      -6.081  10.779  -9.383  1.00  0.00    -0.463 OA
BRANCH   3   4
ATOM      4  C   UNL     1      -4.780  10.797  -9.761  1.00  0.00     0.310 C 
ATOM      5  O   UNL     1      -4.387  11.311 -10.806  1.00  0.00    -0.252 OA
BRANCH   4   6
ATOM      6  C   UNL     1      -3.799  10.119  -8.816  1.00  0.00     0.158 C 
BRANCH   6   7
ATOM      7  C   UNL     1      -4.175   9.690  -7.406  1.00  0.00    -0.034 A 
ATOM      8  C   UNL     1      -4.687   8.786  -4.738  1.00  0.00     0.018 A 
ATOM      9  C   UNL     1      -4.084  10.029  -4.973  1.00  0.00     0.012 A 
ATOM     10  C   UNL     1      -5.035   8.018  -5.859  1.00  0.00     0.131 A 
ATOM     11  C   UNL     1      -3.815  10.465  -6.285  1.00  0.00     0.005 A 
ATOM     12  C   UNL     1      -4.797   8.458  -7.169  1.00  0.00     0.044 A 
ATOM     13  F   UNL     1      -5.583   6.805  -5.690  1.00  0.00    -0.206 F 
BRANCH   8  14
ATOM     14  C   UNL     1      -4.880   8.274  -3.373  1.00  0.00    -0.012 A 
ATOM     15  C   UNL     1      -4.130   6.871  -1.532  1.00  0.00     0.133 A 
ATOM     16  C   UNL     1      -5.262   7.192  -0.789  1.00  0.00     0.047 A 
ATOM     17  C   UNL     1      -3.942   7.390  -2.816  1.00  0.00     0.056 A 
ATOM     18  C   UNL     1      -6.198   8.077  -1.324  1.00  0.00     0.004 A 
ATOM     19  C   UNL     1      -6.007   8.617  -2.604  1.00  0.00     0.009 A 
BRANCH  15  20
ATOM     20  O   UNL     1      -3.257   5.907  -0.999  1.00  0.00    -0.410 OA
BRANCH  20  21
ATOM     21  C   UNL     1      -1.902   6.208  -0.981  1.00  0.00     0.412 C 
ATOM     22  N   UNL     1      -1.117   5.158  -0.594  1.00  0.00    -0.321 N 
ATOM     23  H   UNL     1      -0.148   5.329  -0.553  1.00  0.00     0.167 HD
ATOM     24  O   UNL     1      -1.400   7.289  -1.268  1.00  0.00    -0.224 OA
BRANCH  22  25
ATOM     25  C   UNL     1      -1.549   3.822  -0.236  1.00  0.00     0.119 C 
BRANCH  25  26
ATOM     26  C   UNL     1      -0.932   2.757  -1.144  1.00  0.00     0.021 C 
BRANCH  26  27
ATOM     27  C   UNL     1       0.599   2.663  -1.085  1.00  0.00     0.002 C 
BRANCH  27  28
ATOM     28  C   UNL     1       1.189   2.355   0.296  1.00  0.00    -0.000 C 
BRANCH  28  29
ATOM     29  C   UNL     1       0.722   1.044   0.932  1.00  0.00    -0.003 C 
ATOM     30  C   UNL     1       1.117  -0.188   0.132  1.00  0.00     0.004 C 
ENDBRANCH  28  29
ENDBRANCH  27  28
ENDBRANCH  26  27
ENDBRANCH  25  26
ENDBRANCH  22  25
ENDBRANCH  20  21
ENDBRANCH  15  20
ENDBRANCH   8  14
ENDBRANCH   6   7
ENDBRANCH   4   6
ENDBRANCH   3   4
ENDBRANCH   2   3
ENDBRANCH   1   2
BRANCH   1  31
ATOM     31  O   UNL     1      -6.277  13.684  -9.080  1.00  0.00    -0.376 OA
BRANCH  31  32
ATOM     32  C   UNL     1      -5.778  13.208  -7.832  1.00  0.00     0.188 C 
BRANCH  32  33
ATOM     33  C   UNL     1      -6.560  12.170  -6.994  1.00  0.00     0.188 C 
BRANCH  33  34
ATOM     34  O   UNL     1      -7.944  12.102  -7.287  1.00  0.00    -0.377 OA
BRANCH  34  35
ATOM     35  C   UNL     1      -8.793  12.664  -6.308  1.00  0.00     0.188 C 
BRANCH  35  36
ATOM     36  C   UNL     1      -8.503  14.132  -5.962  1.00  0.00     0.188 C 
BRANCH  36  37
ATOM     37  O   UNL     1      -7.155  14.329  -5.559  1.00  0.00    -0.376 OA
BRANCH  37  38
ATOM     38  C   UNL     1      -6.842  14.501  -4.190  1.00  0.00     0.202 C 
BRANCH  38  39
ATOM     39  C   UNL     1      -7.010  13.316  -3.223  1.00  0.00     0.261 C 
BRANCH  39  40
ATOM     40  O   UNL     1      -8.197  12.525  -3.347  1.00  0.00    -0.460 OA
BRANCH  40  41
ATOM     41  C   UNL     1      -9.370  13.095  -2.983  1.00  0.00     0.338 C 
ATOM     42  O   UNL     1      -9.539  14.211  -2.554  1.00  0.00    -0.246 OA
BRANCH  41  43
ATOM     43  C   UNL     1     -10.454  12.168  -3.398  1.00  0.00     0.060 A 
ATOM     44  C   UNL     1     -11.418  12.629  -4.305  1.00  0.00     0.016 A 
ATOM     45  C   UNL     1     -10.493  10.850  -2.936  1.00  0.00     0.016 A 
ATOM     46  C   UNL     1     -12.437  11.779  -4.737  1.00  0.00     0.010 A 
ATOM     47  C   UNL     1     -11.535  10.009  -3.341  1.00  0.00     0.010 A 
ATOM     48  C   UNL     1     -12.528  10.481  -4.219  1.00  0.00    -0.014 A 
BRANCH  48  49
ATOM     49  C   UNL     1     -13.776   9.705  -4.412  1.00  0.00     0.031 A 
ATOM     50  C   UNL     1     -14.821   9.774  -3.335  1.00  0.00     0.074 A 
ATOM     51  C   UNL     1     -13.992   8.977  -5.520  1.00  0.00     0.049 A 
ATOM     52  N   UNL     1     -15.977   9.168  -3.249  1.00  0.00    -0.248 NA
ATOM     53  C   UNL     1     -14.512  10.649  -2.192  1.00  0.00     0.031 C 
ATOM     54  C   UNL     1     -13.080   8.871  -6.654  1.00  0.00     0.029 A 
ATOM     55  N   UNL     1     -15.057   8.181  -5.865  1.00  0.00    -0.354 N 
ATOM     56  C   UNL     1     -16.529   9.584  -2.044  1.00  0.00     0.074 A 
ATOM     57  C   UNL     1     -15.566  10.461  -1.415  1.00  0.00     0.031 C 
ATOM     58  C   UNL     1     -13.621   8.049  -7.571  1.00  0.00     0.029 A 
ATOM     59  C   UNL     1     -14.900   7.546  -7.071  1.00  0.00     0.049 A 
ATOM     60  H   UNL     1     -15.857   8.076  -5.300  1.00  0.00     0.167 HD
ATOM     61  C   UNL     1     -17.734   9.269  -1.513  1.00  0.00     0.037 A 
ATOM     62  C   UNL     1     -15.694   6.647  -7.686  1.00  0.00     0.037 A 
ATOM     63  C   UNL     1     -18.679   8.380  -2.135  1.00  0.00     0.049 A 
ATOM     64  C   UNL     1     -16.987   6.232  -7.030  1.00  0.00     0.074 A 
ATOM     65  C   UNL     1     -19.932   8.001  -1.690  1.00  0.00     0.029 A 
ATOM     66  N   UNL     1     -18.462   7.712  -3.333  1.00  0.00    -0.354 N 
ATOM     67  N   UNL     1     -17.520   6.649  -5.907  1.00  0.00    -0.248 NA
ATOM     68  C   UNL     1     -17.790   5.222  -7.733  1.00  0.00     0.031 C 
ATOM     69  C   UNL     1     -20.444   7.052  -2.581  1.00  0.00     0.029 A 
ATOM     70  C   UNL     1     -19.543   6.895  -3.623  1.00  0.00     0.049 A 
ATOM     71  H   UNL     1     -17.659   7.806  -3.894  1.00  0.00     0.167 HD
ATOM     72  C   UNL     1     -18.732   5.979  -5.784  1.00  0.00     0.074 A 
ATOM     73  C   UNL     1     -18.860   5.136  -6.955  1.00  0.00     0.031 C 
ATOM     74  C   UNL     1     -19.658   6.060  -4.794  1.00  0.00     0.037 A 
BRANCH  61  75
ATOM     75  C   UNL     1     -18.065   9.857  -0.170  1.00  0.00     0.064 A 
ATOM     76  C   UNL     1     -18.271  11.234   0.009  1.00  0.00     0.173 A 
ATOM     77  C   UNL     1     -18.157   9.030   0.960  1.00  0.00     0.173 A 
ATOM     78  F   UNL     1     -18.178  12.073  -1.034  1.00  0.00    -0.203 F 
ATOM     79  C   UNL     1     -18.509  11.766   1.274  1.00  0.00     0.198 A 
ATOM     80  C   UNL     1     -18.433   9.561   2.218  1.00  0.00     0.198 A 
ATOM     81  F   UNL     1     -17.972   7.707   0.848  1.00  0.00    -0.203 F 
ATOM     82  F   UNL     1     -18.625  13.092   1.431  1.00  0.00    -0.200 F 
ATOM     83  C   UNL     1     -18.594  10.929   2.376  1.00  0.00     0.200 A 
ATOM     84  F   UNL     1     -18.529   8.748   3.279  1.00  0.00    -0.200 F 
ATOM     85  F   UNL     1     -18.817  11.442   3.594  1.00  0.00    -0.200 F 
ENDBRANCH  61  75
BRANCH  62  86
ATOM     86  C   UNL     1     -15.290   6.081  -9.001  1.00  0.00     0.064 A 
ATOM     87  C   UNL     1     -16.002   6.389 -10.168  1.00  0.00     0.173 A 
ATOM     88  C   UNL     1     -14.187   5.222  -9.118  1.00  0.00     0.173 A 
ATOM     89  F   UNL     1     -17.081   7.183 -10.103  1.00  0.00    -0.203 F 
ATOM     90  C   UNL     1     -15.633   5.854 -11.400  1.00  0.00     0.198 A 
ATOM     91  C   UNL     1     -13.801   4.710 -10.356  1.00  0.00     0.198 A 
ATOM     92  F   UNL     1     -13.476   4.889  -8.032  1.00  0.00    -0.203 F 
ATOM     93  F   UNL     1     -16.356   6.134 -12.493  1.00  0.00    -0.200 F 
ATOM     94  C   UNL     1     -14.528   5.022 -11.495  1.00  0.00     0.200 A 
ATOM     95  F   UNL     1     -12.726   3.915 -10.444  1.00  0.00    -0.200 F 
ATOM     96  F   UNL     1     -14.168   4.515 -12.682  1.00  0.00    -0.200 F 
ENDBRANCH  62  86
BRANCH  74  97
ATOM     97  C   UNL     1     -20.914   5.247  -4.950  1.00  0.00     0.064 A 
ATOM     98  C   UNL     1     -20.910   3.848  -4.852  1.00  0.00     0.173 A 
ATOM     99  C   UNL     1     -22.148   5.885  -5.155  1.00  0.00     0.173 A 
ATOM    100  F   UNL     1     -19.758   3.187  -4.669  1.00  0.00    -0.203 F 
ATOM    101  C   UNL     1     -22.089   3.117  -4.983  1.00  0.00     0.198 A 
ATOM    102  C   UNL     1     -23.329   5.154  -5.248  1.00  0.00     0.198 A 
ATOM    103  F   UNL     1     -22.212   7.222  -5.247  1.00  0.00    -0.203 F 
ATOM    104  F   UNL     1     -22.053   1.778  -4.940  1.00  0.00    -0.200 F 
ATOM    105  C   UNL     1     -23.298   3.771  -5.172  1.00  0.00     0.200 A 
ATOM    106  F   UNL     1     -24.498   5.790  -5.411  1.00  0.00    -0.200 F 
ATOM    107  F   UNL     1     -24.432   3.066  -5.287  1.00  0.00    -0.200 F 
ENDBRANCH  74  97
ENDBRANCH  48  49
ENDBRANCH  41  43
ENDBRANCH  40  41
ENDBRANCH  39  40
ENDBRANCH  38  39
ENDBRANCH  37  38
ENDBRANCH  36  37
ENDBRANCH  35  36
ENDBRANCH  34  35
ENDBRANCH  33  34
ENDBRANCH  32  33
ENDBRANCH  31  32
ENDBRANCH   1  31
TORSDOF 29
