REMARK SMILES Cc1ncc(CO)c([C@H]2[NH2+][C@@H](C(=O)OCCOCCOCCOCCOC(=O)c3ccc(-c4c5nc(c(-c6c(F)c(F)c(F)c(F)c6F)c6ccc([nH]6)c(-c6c(F)c(F)c(F)c(F)c6F)c6nc(c(-c7c(F)c(F)c(F)c(F)c7F)c7ccc4[nH]7)C=C6)C=C5)cc3)Cc3[nH]cnc32)c1O
REMARK SMILES IDX 19 1 18 2 17 3 16 4 15 5 14 6 12 7 13 8 11 9 9 10 10 11
REMARK SMILES IDX 97 12 93 15 96 16 92 17 94 18 95 19 8 21 1 22 2 23 3 24
REMARK SMILES IDX 98 25 4 26 5 27 99 28 6 30 7 31 20 33 21 34 22 35 23 36
REMARK SMILES IDX 24 37 25 38 26 39 27 40 28 41 29 42 30 43 91 44 31 45 90 46
REMARK SMILES IDX 32 47 33 48 34 49 84 50 35 51 89 52 83 53 85 54 36 55 88 56
REMARK SMILES IDX 82 57 81 58 37 60 69 61 49 62 68 63 50 64 53 65 67 66 86 67
REMARK SMILES IDX 51 68 52 69 66 71 87 72 54 73 38 74 39 75 47 76 40 77 41 78
REMARK SMILES IDX 45 79 48 80 42 81 43 82 46 83 44 84 70 85 71 86 79 87 72 88
REMARK SMILES IDX 73 89 77 90 80 91 74 92 75 93 78 94 76 95 55 96 56 97 64 98
REMARK SMILES IDX 57 99 58 100 62 101 65 102 59 103 60 104 63 105 61 106
REMARK H PARENT 10 13 10 14 94 20 99 29 7 32 85 59 53 70
REMARK Flexibility Score: inf
ROOT
ATOM      1  C   UNL     1      -3.209   1.343   2.423  1.00  0.00     0.188 C 
ENDROOT
BRANCH   1   2
ATOM      2  C   UNL     1      -2.489   1.923   3.674  1.00  0.00     0.188 C 
BRANCH   2   3
ATOM      3  O   UNL     1      -3.228   2.410   4.786  1.00  0.00    -0.376 OA
BRANCH   3   4
ATOM      4  C   UNL     1      -4.449   3.095   4.578  1.00  0.00     0.202 C 
BRANCH   4   5
ATOM      5  C   UNL     1      -4.530   4.253   3.570  1.00  0.00     0.261 C 
BRANCH   5   6
ATOM      6  O   UNL     1      -3.693   4.159   2.406  1.00  0.00    -0.459 OA
BRANCH   6   7
ATOM      7  C   UNL     1      -2.501   4.828   2.446  1.00  0.00     0.365 C 
ATOM      8  O   UNL     1      -2.104   5.491   3.393  1.00  0.00    -0.245 OA
BRANCH   7   9
ATOM      9  C   UNL     1      -1.745   4.607   1.125  1.00  0.00     0.300 C 
ATOM     10  C   UNL     1      -0.274   3.183  -0.190  1.00  0.00     0.270 C 
ATOM     11  N   UNL     1      -0.746   3.478   1.185  1.00  0.00    -0.323 N 
ATOM     12  C   UNL     1       0.455   4.397  -0.671  1.00  0.00     0.124 A 
ATOM     13  H   UNL     1       0.045   3.750   1.768  1.00  0.00     0.347 HD
ATOM     14  H   UNL     1      -1.185   2.649   1.585  1.00  0.00     0.347 HD
ATOM     15  C   UNL     1       0.012   5.655  -0.288  1.00  0.00     0.051 A 
ATOM     16  N   UNL     1       1.418   4.513  -1.635  1.00  0.00    -0.235 NA
ATOM     17  C   UNL     1      -1.069   5.940   0.701  1.00  0.00     0.133 C 
ATOM     18  N   UNL     1       0.753   6.550  -0.991  1.00  0.00    -0.348 N 
ATOM     19  C   UNL     1       1.591   5.813  -1.788  1.00  0.00     0.197 A 
ATOM     20  H   UNL     1       0.699   7.531  -0.939  1.00  0.00     0.167 HD
BRANCH  10  21
ATOM     21  C   UNL     1       0.339   1.798  -0.309  1.00  0.00     0.066 A 
ATOM     22  C   UNL     1      -1.033  -1.768  -0.853  1.00  0.00     0.071 C 
ATOM     23  C   UNL     1      -0.107  -0.622  -0.556  1.00  0.00     0.079 A 
ATOM     24  N   UNL     1       1.179  -0.946  -0.338  1.00  0.00    -0.257 NA
ATOM     25  C   UNL     1      -0.555   0.708  -0.554  1.00  0.00     0.146 A 
ATOM     26  C   UNL     1       2.027   0.077  -0.105  1.00  0.00     0.118 A 
ATOM     27  C   UNL     1       1.683   1.442  -0.055  1.00  0.00     0.009 A 
BRANCH  25  28
ATOM     28  O   UNL     1      -1.911   0.850  -0.745  1.00  0.00    -0.505 OA
ATOM     29  H   UNL     1      -2.443   0.095  -0.901  1.00  0.00     0.293 HD
ENDBRANCH  25  28
BRANCH  27  30
ATOM     30  C   UNL     1       2.816   2.392   0.223  1.00  0.00     0.194 C 
BRANCH  30  31
ATOM     31  O   UNL     1       3.600   1.913   1.319  1.00  0.00    -0.392 OA
ATOM     32  H   UNL     1       3.043   1.847   2.111  1.00  0.00     0.211 HD
ENDBRANCH  30  31
ENDBRANCH  27  30
ENDBRANCH  10  21
ENDBRANCH   7   9
ENDBRANCH   6   7
ENDBRANCH   5   6
ENDBRANCH   4   5
ENDBRANCH   3   4
ENDBRANCH   2   3
ENDBRANCH   1   2
BRANCH   1  33
ATOM     33  O   UNL     1      -4.626   1.352   2.481  1.00  0.00    -0.377 OA
BRANCH  33  34
ATOM     34  C   UNL     1      -5.226   0.129   2.895  1.00  0.00     0.188 C 
BRANCH  34  35
ATOM     35  C   UNL     1      -4.678  -0.537   4.180  1.00  0.00     0.188 C 
BRANCH  35  36
ATOM     36  O   UNL     1      -3.260  -0.533   4.275  1.00  0.00    -0.376 OA
BRANCH  36  37
ATOM     37  C   UNL     1      -2.495  -1.721   4.182  1.00  0.00     0.202 C 
BRANCH  37  38
ATOM     38  C   UNL     1      -2.282  -2.260   2.770  1.00  0.00     0.261 C 
BRANCH  38  39
ATOM     39  O   UNL     1      -3.460  -2.245   1.984  1.00  0.00    -0.460 OA
BRANCH  39  40
ATOM     40  C   UNL     1      -4.425  -3.068   2.410  1.00  0.00     0.338 C 
ATOM     41  O   UNL     1      -4.452  -3.710   3.462  1.00  0.00    -0.246 OA
BRANCH  40  42
ATOM     42  C   UNL     1      -5.422  -3.204   1.358  1.00  0.00     0.060 A 
ATOM     43  C   UNL     1      -6.541  -3.968   1.680  1.00  0.00     0.016 A 
ATOM     44  C   UNL     1      -5.036  -2.935   0.036  1.00  0.00     0.016 A 
ATOM     45  C   UNL     1      -7.086  -4.728   0.681  1.00  0.00     0.010 A 
ATOM     46  C   UNL     1      -5.565  -3.711  -0.957  1.00  0.00     0.010 A 
ATOM     47  C   UNL     1      -6.502  -4.670  -0.590  1.00  0.00    -0.014 A 
BRANCH  47  48
ATOM     48  C   UNL     1      -6.948  -5.634  -1.560  1.00  0.00     0.031 A 
ATOM     49  C   UNL     1      -8.282  -5.306  -2.090  1.00  0.00     0.074 A 
ATOM     50  C   UNL     1      -6.173  -6.665  -1.939  1.00  0.00     0.049 A 
ATOM     51  N   UNL     1      -9.380  -5.958  -1.908  1.00  0.00    -0.248 NA
ATOM     52  C   UNL     1      -8.452  -3.989  -2.724  1.00  0.00     0.031 C 
ATOM     53  C   UNL     1      -4.754  -6.891  -1.653  1.00  0.00     0.029 A 
ATOM     54  N   UNL     1      -6.489  -7.699  -2.759  1.00  0.00    -0.354 N 
ATOM     55  C   UNL     1     -10.350  -5.230  -2.584  1.00  0.00     0.074 A 
ATOM     56  C   UNL     1      -9.774  -3.947  -2.881  1.00  0.00     0.031 C 
ATOM     57  C   UNL     1      -4.286  -7.858  -2.476  1.00  0.00     0.029 A 
ATOM     58  C   UNL     1      -5.394  -8.394  -3.247  1.00  0.00     0.049 A 
ATOM     59  H   UNL     1      -7.417  -7.935  -2.987  1.00  0.00     0.167 HD
ATOM     60  C   UNL     1     -11.442  -5.854  -3.097  1.00  0.00     0.037 A 
ATOM     61  C   UNL     1      -5.417  -9.268  -4.284  1.00  0.00     0.037 A 
ATOM     62  C   UNL     1     -11.668  -7.119  -2.444  1.00  0.00     0.049 A 
ATOM     63  C   UNL     1      -6.831  -9.685  -4.485  1.00  0.00     0.074 A 
ATOM     64  C   UNL     1     -11.938  -7.500  -1.144  1.00  0.00     0.029 A 
ATOM     65  N   UNL     1     -11.254  -8.257  -3.092  1.00  0.00    -0.354 N 
ATOM     66  N   UNL     1      -7.498 -10.423  -3.641  1.00  0.00    -0.248 NA
ATOM     67  C   UNL     1      -7.648  -8.891  -5.393  1.00  0.00     0.031 C 
ATOM     68  C   UNL     1     -11.246  -8.733  -0.964  1.00  0.00     0.029 A 
ATOM     69  C   UNL     1     -10.637  -9.066  -2.174  1.00  0.00     0.049 A 
ATOM     70  H   UNL     1     -11.377  -8.456  -4.048  1.00  0.00     0.167 HD
ATOM     71  C   UNL     1      -8.772  -9.874  -3.617  1.00  0.00     0.074 A 
ATOM     72  C   UNL     1      -8.830  -8.992  -4.779  1.00  0.00     0.031 C 
ATOM     73  C   UNL     1      -9.550  -9.961  -2.498  1.00  0.00     0.037 A 
BRANCH  60  74
ATOM     74  C   UNL     1     -12.024  -5.514  -4.446  1.00  0.00     0.064 A 
ATOM     75  C   UNL     1     -13.203  -6.167  -4.852  1.00  0.00     0.173 A 
ATOM     76  C   UNL     1     -11.327  -4.827  -5.466  1.00  0.00     0.173 A 
ATOM     77  F   UNL     1     -13.938  -6.860  -3.970  1.00  0.00    -0.203 F 
ATOM     78  C   UNL     1     -13.598  -6.206  -6.191  1.00  0.00     0.198 A 
ATOM     79  C   UNL     1     -11.755  -4.822  -6.791  1.00  0.00     0.198 A 
ATOM     80  F   UNL     1     -10.149  -4.228  -5.262  1.00  0.00    -0.203 F 
ATOM     81  F   UNL     1     -14.649  -6.955  -6.549  1.00  0.00    -0.200 F 
ATOM     82  C   UNL     1     -12.869  -5.542  -7.160  1.00  0.00     0.200 A 
ATOM     83  F   UNL     1     -11.024  -4.184  -7.715  1.00  0.00    -0.200 F 
ATOM     84  F   UNL     1     -13.207  -5.634  -8.452  1.00  0.00    -0.200 F 
ENDBRANCH  60  74
BRANCH  61  85
ATOM     85  C   UNL     1      -4.370  -9.476  -5.311  1.00  0.00     0.064 A 
ATOM     86  C   UNL     1      -4.370 -10.617  -6.129  1.00  0.00     0.173 A 
ATOM     87  C   UNL     1      -3.499  -8.434  -5.692  1.00  0.00     0.173 A 
ATOM     88  F   UNL     1      -5.209 -11.630  -5.870  1.00  0.00    -0.203 F 
ATOM     89  C   UNL     1      -3.559 -10.704  -7.266  1.00  0.00     0.198 A 
ATOM     90  C   UNL     1      -2.684  -8.527  -6.820  1.00  0.00     0.198 A 
ATOM     91  F   UNL     1      -3.493  -7.267  -5.033  1.00  0.00    -0.203 F 
ATOM     92  F   UNL     1      -3.629 -11.785  -8.056  1.00  0.00    -0.200 F 
ATOM     93  C   UNL     1      -2.721  -9.657  -7.614  1.00  0.00     0.200 A 
ATOM     94  F   UNL     1      -1.910  -7.488  -7.167  1.00  0.00    -0.200 F 
ATOM     95  F   UNL     1      -1.986  -9.717  -8.732  1.00  0.00    -0.200 F 
ENDBRANCH  61  85
BRANCH  73  96
ATOM     96  C   UNL     1      -9.108 -10.903  -1.414  1.00  0.00     0.064 A 
ATOM     97  C   UNL     1      -7.917 -10.758  -0.681  1.00  0.00     0.173 A 
ATOM     98  C   UNL     1      -9.998 -11.905  -1.005  1.00  0.00     0.173 A 
ATOM     99  F   UNL     1      -7.062  -9.761  -0.945  1.00  0.00    -0.203 F 
ATOM    100  C   UNL     1      -7.615 -11.607   0.383  1.00  0.00     0.198 A 
ATOM    101  C   UNL     1      -9.713 -12.726   0.082  1.00  0.00     0.198 A 
ATOM    102  F   UNL     1     -11.176 -12.053  -1.632  1.00  0.00    -0.203 F 
ATOM    103  F   UNL     1      -6.467 -11.457   1.059  1.00  0.00    -0.200 F 
ATOM    104  C   UNL     1      -8.518 -12.585   0.768  1.00  0.00     0.200 A 
ATOM    105  F   UNL     1     -10.613 -13.635   0.482  1.00  0.00    -0.200 F 
ATOM    106  F   UNL     1      -8.250 -13.372   1.819  1.00  0.00    -0.200 F 
ENDBRANCH  73  96
ENDBRANCH  47  48
ENDBRANCH  40  42
ENDBRANCH  39  40
ENDBRANCH  38  39
ENDBRANCH  37  38
ENDBRANCH  36  37
ENDBRANCH  35  36
ENDBRANCH  34  35
ENDBRANCH  33  34
ENDBRANCH   1  33
TORSDOF 24
