REMARK SMILES O=C(CC1(C[S@](=O)C[C@H]2Cc3ccccc3S2)CC1)OCCOCCOCCOCCOC(=O)c1ccc(-c2c3nc(c(-c4c(F)c(F)c(F)c(F)c4F)c4ccc([nH]4)c(-c4c(F)c(F)c(F)c(F)c4F)c4nc(c(-c5c(F)c(F)c(F)c(F)c5F)c5ccc2[nH]5)C=C4)C=C3)cc1
REMARK SMILES IDX 24 1 23 2 22 3 21 4 20 5 2 6 1 7 3 8 4 9 18 10 19 11 5 12
REMARK SMILES IDX 6 13 7 14 8 15 9 16 10 17 17 18 11 19 16 20 12 21 15 22
REMARK SMILES IDX 13 23 14 24 25 25 26 26 27 27 28 28 29 29 30 30 31 31 32 32
REMARK SMILES IDX 33 33 34 34 35 35 36 36 97 37 37 38 96 39 38 40 39 41 40 42
REMARK SMILES IDX 90 43 41 44 95 45 89 46 91 47 42 48 94 49 88 50 87 51 43 53
REMARK SMILES IDX 75 54 55 55 74 56 56 57 59 58 73 59 92 60 57 61 58 62 72 64
REMARK SMILES IDX 93 65 60 66 44 67 45 68 53 69 46 70 47 71 51 72 54 73 48 74
REMARK SMILES IDX 49 75 52 76 50 77 76 78 77 79 85 80 78 81 79 82 83 83 86 84
REMARK SMILES IDX 80 85 81 86 84 87 82 88 61 89 62 90 70 91 63 92 64 93 68 94
REMARK SMILES IDX 71 95 65 96 66 97 69 98 67 99
REMARK H PARENT 91 52 59 63
REMARK Flexibility Score: inf
ROOT
ATOM      1  C   UNL     1       5.861  -0.839   1.901  1.00  0.00     0.188 C 
ENDROOT
BRANCH   1   2
ATOM      2  O   UNL     1       5.224  -2.031   2.342  1.00  0.00    -0.376 OA
BRANCH   2   3
ATOM      3  C   UNL     1       3.840  -2.229   2.540  1.00  0.00     0.202 C 
BRANCH   3   4
ATOM      4  C   UNL     1       2.793  -1.684   1.570  1.00  0.00     0.261 C 
BRANCH   4   5
ATOM      5  O   UNL     1       2.850  -0.311   1.160  1.00  0.00    -0.463 OA
BRANCH   5   6
ATOM      6  C   UNL     1       3.301   0.749   1.852  1.00  0.00     0.306 C 
ATOM      7  O   UNL     1       3.832   1.686   1.259  1.00  0.00    -0.252 OA
BRANCH   6   8
ATOM      8  C   UNL     1       3.227   0.708   3.347  1.00  0.00     0.130 C 
BRANCH   8   9
ATOM      9  C   UNL     1       1.884   0.803   4.035  1.00  0.00    -0.008 C 
ATOM     10  C   UNL     1       1.866  -0.031   5.320  1.00  0.00     0.009 C 
ATOM     11  C   UNL     1       1.781   1.452   5.412  1.00  0.00     0.009 C 
BRANCH   9  12
ATOM     12  C   UNL     1       0.629   0.821   3.197  1.00  0.00     0.112 C 
BRANCH  12  13
ATOM     13  S   UNL     1       0.252   2.035   1.935  1.00  0.00     0.023 S 
ATOM     14  O   UNL     1       0.937   1.747   0.642  1.00  0.00    -0.260 OA
BRANCH  13  15
ATOM     15  C   UNL     1       0.728   3.639   2.600  1.00  0.00     0.120 C 
BRANCH  15  16
ATOM     16  C   UNL     1       2.130   4.197   2.263  1.00  0.00     0.068 C 
ATOM     17  C   UNL     1       2.131   5.752   2.254  1.00  0.00     0.052 C 
ATOM     18  S   UNL     1       3.328   3.897   3.612  1.00  0.00    -0.121 SA
ATOM     19  C   UNL     1       2.122   6.175   3.703  1.00  0.00    -0.033 A 
ATOM     20  C   UNL     1       2.710   5.237   4.550  1.00  0.00     0.011 A 
ATOM     21  C   UNL     1       1.617   7.349   4.231  1.00  0.00     0.005 A 
ATOM     22  C   UNL     1       2.719   5.373   5.925  1.00  0.00     0.015 A 
ATOM     23  C   UNL     1       1.633   7.516   5.621  1.00  0.00     0.000 A 
ATOM     24  C   UNL     1       2.156   6.524   6.465  1.00  0.00     0.001 A 
ENDBRANCH  15  16
ENDBRANCH  13  15
ENDBRANCH  12  13
ENDBRANCH   9  12
ENDBRANCH   8   9
ENDBRANCH   6   8
ENDBRANCH   5   6
ENDBRANCH   4   5
ENDBRANCH   3   4
ENDBRANCH   2   3
ENDBRANCH   1   2
BRANCH   1  25
ATOM     25  C   UNL     1       5.785  -0.575   0.391  1.00  0.00     0.188 C 
BRANCH  25  26
ATOM     26  O   UNL     1       6.433  -1.568  -0.391  1.00  0.00    -0.377 OA
BRANCH  26  27
ATOM     27  C   UNL     1       5.953  -2.885  -0.186  1.00  0.00     0.188 C 
BRANCH  27  28
ATOM     28  C   UNL     1       6.790  -3.765   0.774  1.00  0.00     0.188 C 
BRANCH  28  29
ATOM     29  O   UNL     1       8.153  -3.498   1.083  1.00  0.00    -0.376 OA
BRANCH  29  30
ATOM     30  C   UNL     1       8.907  -2.590   0.304  1.00  0.00     0.202 C 
BRANCH  30  31
ATOM     31  C   UNL     1       9.271  -3.019  -1.124  1.00  0.00     0.261 C 
BRANCH  31  32
ATOM     32  O   UNL     1       8.205  -3.605  -1.885  1.00  0.00    -0.460 OA
BRANCH  32  33
ATOM     33  C   UNL     1       8.085  -4.955  -1.823  1.00  0.00     0.338 C 
ATOM     34  O   UNL     1       8.828  -5.740  -1.258  1.00  0.00    -0.246 OA
BRANCH  33  35
ATOM     35  C   UNL     1       6.766  -5.337  -2.391  1.00  0.00     0.060 A 
ATOM     36  C   UNL     1       6.292  -4.761  -3.574  1.00  0.00     0.016 A 
ATOM     37  C   UNL     1       5.954  -6.227  -1.671  1.00  0.00     0.016 A 
ATOM     38  C   UNL     1       5.033  -5.121  -4.062  1.00  0.00     0.010 A 
ATOM     39  C   UNL     1       4.681  -6.560  -2.139  1.00  0.00     0.010 A 
ATOM     40  C   UNL     1       4.236  -6.049  -3.366  1.00  0.00    -0.014 A 
BRANCH  40  41
ATOM     41  C   UNL     1       3.131  -6.734  -4.080  1.00  0.00     0.031 A 
ATOM     42  C   UNL     1       1.697  -6.331  -3.971  1.00  0.00     0.074 A 
ATOM     43  C   UNL     1       3.490  -7.777  -4.853  1.00  0.00     0.049 A 
ATOM     44  N   UNL     1       0.668  -6.797  -4.636  1.00  0.00    -0.248 NA
ATOM     45  C   UNL     1       1.362  -5.288  -2.994  1.00  0.00     0.031 C 
ATOM     46  C   UNL     1       4.862  -8.274  -4.993  1.00  0.00     0.029 A 
ATOM     47  N   UNL     1       2.753  -8.596  -5.665  1.00  0.00    -0.354 N 
ATOM     48  C   UNL     1      -0.434  -6.087  -4.184  1.00  0.00     0.074 A 
ATOM     49  C   UNL     1       0.045  -5.190  -3.149  1.00  0.00     0.031 C 
ATOM     50  C   UNL     1       4.872  -9.295  -5.859  1.00  0.00     0.029 A 
ATOM     51  C   UNL     1       3.511  -9.531  -6.324  1.00  0.00     0.049 A 
ATOM     52  H   UNL     1       1.776  -8.522  -5.766  1.00  0.00     0.167 HD
ATOM     53  C   UNL     1      -1.717  -6.172  -4.614  1.00  0.00     0.037 A 
ATOM     54  C   UNL     1       3.156 -10.467  -7.221  1.00  0.00     0.037 A 
ATOM     55  C   UNL     1      -2.177  -7.085  -5.635  1.00  0.00     0.049 A 
ATOM     56  C   UNL     1       1.726 -10.553  -7.657  1.00  0.00     0.074 A 
ATOM     57  C   UNL     1      -3.447  -7.204  -6.176  1.00  0.00     0.029 A 
ATOM     58  N   UNL     1      -1.391  -8.043  -6.260  1.00  0.00    -0.354 N 
ATOM     59  N   UNL     1       0.709  -9.812  -7.293  1.00  0.00    -0.248 NA
ATOM     60  C   UNL     1       1.395 -11.595  -8.636  1.00  0.00     0.031 C 
ATOM     61  C   UNL     1      -3.442  -8.266  -7.086  1.00  0.00     0.029 A 
ATOM     62  C   UNL     1      -2.156  -8.778  -7.153  1.00  0.00     0.049 A 
ATOM     63  H   UNL     1      -0.430  -8.181  -6.093  1.00  0.00     0.167 HD
ATOM     64  C   UNL     1      -0.380 -10.285  -8.008  1.00  0.00     0.074 A 
ATOM     65  C   UNL     1       0.105 -11.365  -8.843  1.00  0.00     0.031 C 
ATOM     66  C   UNL     1      -1.667  -9.860  -7.971  1.00  0.00     0.037 A 
BRANCH  53  67
ATOM     67  C   UNL     1      -2.732  -5.245  -4.008  1.00  0.00     0.064 A 
ATOM     68  C   UNL     1      -2.747  -3.879  -4.324  1.00  0.00     0.173 A 
ATOM     69  C   UNL     1      -3.769  -5.742  -3.203  1.00  0.00     0.173 A 
ATOM     70  F   UNL     1      -1.781  -3.354  -5.093  1.00  0.00    -0.203 F 
ATOM     71  C   UNL     1      -3.755  -3.043  -3.849  1.00  0.00     0.198 A 
ATOM     72  C   UNL     1      -4.789  -4.908  -2.749  1.00  0.00     0.198 A 
ATOM     73  F   UNL     1      -3.813  -7.044  -2.884  1.00  0.00    -0.203 F 
ATOM     74  F   UNL     1      -3.739  -1.737  -4.152  1.00  0.00    -0.200 F 
ATOM     75  C   UNL     1      -4.780  -3.559  -3.071  1.00  0.00     0.200 A 
ATOM     76  F   UNL     1      -5.788  -5.412  -2.013  1.00  0.00    -0.200 F 
ATOM     77  F   UNL     1      -5.761  -2.758  -2.633  1.00  0.00    -0.200 F 
ENDBRANCH  53  67
BRANCH  54  78
ATOM     78  C   UNL     1       4.202 -11.344  -7.800  1.00  0.00     0.064 A 
ATOM     79  C   UNL     1       4.623 -11.175  -9.125  1.00  0.00     0.173 A 
ATOM     80  C   UNL     1       4.844 -12.321  -7.025  1.00  0.00     0.173 A 
ATOM     81  F   UNL     1       4.032 -10.258  -9.903  1.00  0.00    -0.203 F 
ATOM     82  C   UNL     1       5.644 -11.958  -9.657  1.00  0.00     0.198 A 
ATOM     83  C   UNL     1       5.882 -13.085  -7.550  1.00  0.00     0.198 A 
ATOM     84  F   UNL     1       4.485 -12.507  -5.746  1.00  0.00    -0.203 F 
ATOM     85  F   UNL     1       6.012 -11.795 -10.935  1.00  0.00    -0.200 F 
ATOM     86  C   UNL     1       6.279 -12.906  -8.867  1.00  0.00     0.200 A 
ATOM     87  F   UNL     1       6.506 -13.985  -6.779  1.00  0.00    -0.200 F 
ATOM     88  F   UNL     1       7.271 -13.648  -9.376  1.00  0.00    -0.200 F 
ENDBRANCH  54  78
BRANCH  66  89
ATOM     89  C   UNL     1      -2.647 -10.569  -8.858  1.00  0.00     0.064 A 
ATOM     90  C   UNL     1      -3.084 -11.870  -8.570  1.00  0.00     0.173 A 
ATOM     91  C   UNL     1      -3.196  -9.924  -9.977  1.00  0.00     0.173 A 
ATOM     92  F   UNL     1      -2.575 -12.536  -7.521  1.00  0.00    -0.203 F 
ATOM     93  C   UNL     1      -4.023 -12.505  -9.377  1.00  0.00     0.198 A 
ATOM     94  C   UNL     1      -4.155 -10.551 -10.766  1.00  0.00     0.198 A 
ATOM     95  F   UNL     1      -2.814  -8.677 -10.294  1.00  0.00    -0.203 F 
ATOM     96  F   UNL     1      -4.398 -13.763  -9.104  1.00  0.00    -0.200 F 
ATOM     97  C   UNL     1      -4.565 -11.842 -10.468  1.00  0.00     0.200 A 
ATOM     98  F   UNL     1      -4.687  -9.905 -11.813  1.00  0.00    -0.200 F 
ATOM     99  F   UNL     1      -5.479 -12.450 -11.237  1.00  0.00    -0.200 F 
ENDBRANCH  66  89
ENDBRANCH  40  41
ENDBRANCH  33  35
ENDBRANCH  32  33
ENDBRANCH  31  32
ENDBRANCH  30  31
ENDBRANCH  29  30
ENDBRANCH  28  29
ENDBRANCH  27  28
ENDBRANCH  26  27
ENDBRANCH  25  26
ENDBRANCH   1  25
TORSDOF 25
