REMARK SMILES Cc1ccc(CNC(=O)NC[C@@H](CC(C)C)C(=O)OCCOCCOCCOCCOC(=O)c2ccc(-c3c4nc(c(-c5c(F)c(F)c(F)c(F)c5F)c5ccc([nH]5)c(-c5c(F)c(F)c(F)c(F)c5F)c5nc(c(-c6c(F)c(F)c(F)c(F)c6F)c6ccc3[nH]6)C=C5)C=C4)cc2)s1
REMARK SMILES IDX 24 1 23 2 22 3 21 4 20 5 19 6 17 7 18 8 12 9 11 10 10 11
REMARK SMILES IDX 7 12 8 13 9 15 6 17 5 18 1 19 2 20 3 21 97 22 4 23 13 24
REMARK SMILES IDX 14 25 15 26 16 27 25 28 26 29 27 30 28 31 29 32 30 33 31 34
REMARK SMILES IDX 32 35 33 36 34 37 35 38 96 39 36 40 95 41 37 42 38 43 39 44
REMARK SMILES IDX 89 45 40 46 94 47 88 48 90 49 41 50 93 51 87 52 86 53 42 55
REMARK SMILES IDX 74 56 54 57 73 58 55 59 58 60 72 61 91 62 56 63 57 64 71 66
REMARK SMILES IDX 92 67 59 68 43 69 44 70 52 71 45 72 46 73 50 74 53 75 47 76
REMARK SMILES IDX 48 77 51 78 49 79 75 80 76 81 84 82 77 83 78 84 82 85 85 86
REMARK SMILES IDX 79 87 80 88 83 89 81 90 60 91 61 92 69 93 62 94 63 95 67 96
REMARK SMILES IDX 70 97 64 98 65 99 68 100 66 101
REMARK H PARENT 7 14 10 16 90 54 58 65
REMARK Flexibility Score: inf
ROOT
ATOM      1  C   UNL     1      -3.932  -0.263  -2.678  1.00  0.00     0.188 C 
ENDROOT
BRANCH   1   2
ATOM      2  C   UNL     1      -5.000  -0.579  -3.734  1.00  0.00     0.188 C 
BRANCH   2   3
ATOM      3  O   UNL     1      -4.507  -0.781  -5.034  1.00  0.00    -0.376 OA
BRANCH   3   4
ATOM      4  C   UNL     1      -4.540   0.263  -5.983  1.00  0.00     0.202 C 
BRANCH   4   5
ATOM      5  C   UNL     1      -4.596   1.760  -5.630  1.00  0.00     0.261 C 
BRANCH   5   6
ATOM      6  O   UNL     1      -4.214   2.193  -4.313  1.00  0.00    -0.463 OA
BRANCH   6   7
ATOM      7  C   UNL     1      -5.231   2.679  -3.559  1.00  0.00     0.310 C 
ATOM      8  O   UNL     1      -6.416   2.529  -3.849  1.00  0.00    -0.252 OA
BRANCH   7   9
ATOM      9  C   UNL     1      -4.827   3.548  -2.377  1.00  0.00     0.119 C 
BRANCH   9  10
ATOM     10  C   UNL     1      -3.514   3.282  -1.629  1.00  0.00     0.133 C 
BRANCH  10  11
ATOM     11  N   UNL     1      -3.628   3.738  -0.232  1.00  0.00    -0.337 N 
ATOM     12  N   UNL     1      -3.052   2.047   1.343  1.00  0.00    -0.333 N 
ATOM     13  C   UNL     1      -3.450   3.270   1.004  1.00  0.00     0.315 C 
ATOM     14  H   UNL     1      -2.919   1.953   2.314  1.00  0.00     0.165 HD
ATOM     15  O   UNL     1      -3.684   4.056   1.929  1.00  0.00    -0.249 OA
ATOM     16  H   UNL     1      -3.927   4.675  -0.203  1.00  0.00     0.165 HD
BRANCH  12  17
ATOM     17  C   UNL     1      -2.771   0.831   0.633  1.00  0.00     0.164 C 
BRANCH  17  18
ATOM     18  C   UNL     1      -1.407   0.308   0.962  1.00  0.00     0.024 A 
ATOM     19  C   UNL     1       2.485  -0.002   0.606  1.00  0.00     0.056 C 
ATOM     20  C   UNL     1       1.027  -0.105   0.891  1.00  0.00     0.002 A 
ATOM     21  C   UNL     1       0.336  -1.165   1.439  1.00  0.00     0.015 A 
ATOM     22  S   UNL     1      -0.012   1.197   0.512  1.00  0.00    -0.144 S 
ATOM     23  C   UNL     1      -1.067  -0.917   1.505  1.00  0.00     0.017 A 
ENDBRANCH  17  18
ENDBRANCH  12  17
ENDBRANCH  10  11
ENDBRANCH   9  10
BRANCH   9  24
ATOM     24  C   UNL     1      -5.050   5.026  -2.764  1.00  0.00     0.020 C 
BRANCH  24  25
ATOM     25  C   UNL     1      -3.941   5.763  -3.549  1.00  0.00    -0.017 C 
ATOM     26  C   UNL     1      -3.475   5.058  -4.820  1.00  0.00     0.007 C 
ATOM     27  C   UNL     1      -4.448   7.161  -3.917  1.00  0.00     0.007 C 
ENDBRANCH  24  25
ENDBRANCH   9  24
ENDBRANCH   7   9
ENDBRANCH   6   7
ENDBRANCH   5   6
ENDBRANCH   4   5
ENDBRANCH   3   4
ENDBRANCH   2   3
ENDBRANCH   1   2
BRANCH   1  28
ATOM     28  O   UNL     1      -2.688   0.326  -3.037  1.00  0.00    -0.377 OA
BRANCH  28  29
ATOM     29  C   UNL     1      -1.894  -0.202  -4.095  1.00  0.00     0.188 C 
BRANCH  29  30
ATOM     30  C   UNL     1      -1.937  -1.704  -4.438  1.00  0.00     0.188 C 
BRANCH  30  31
ATOM     31  O   UNL     1      -2.623  -2.503  -3.494  1.00  0.00    -0.376 OA
BRANCH  31  32
ATOM     32  C   UNL     1      -1.855  -3.117  -2.470  1.00  0.00     0.202 C 
BRANCH  32  33
ATOM     33  C   UNL     1      -0.880  -2.239  -1.680  1.00  0.00     0.261 C 
BRANCH  33  34
ATOM     34  O   UNL     1       0.148  -1.574  -2.427  1.00  0.00    -0.460 OA
BRANCH  34  35
ATOM     35  C   UNL     1       1.040  -2.323  -3.096  1.00  0.00     0.338 C 
ATOM     36  O   UNL     1       1.117  -3.541  -3.137  1.00  0.00    -0.246 OA
BRANCH  35  37
ATOM     37  C   UNL     1       1.834  -1.395  -3.920  1.00  0.00     0.060 A 
ATOM     38  C   UNL     1       1.709  -1.424  -5.313  1.00  0.00     0.016 A 
ATOM     39  C   UNL     1       2.700  -0.491  -3.302  1.00  0.00     0.016 A 
ATOM     40  C   UNL     1       2.490  -0.575  -6.096  1.00  0.00     0.010 A 
ATOM     41  C   UNL     1       3.487   0.354  -4.085  1.00  0.00     0.010 A 
ATOM     42  C   UNL     1       3.416   0.282  -5.486  1.00  0.00    -0.014 A 
BRANCH  42  43
ATOM     43  C   UNL     1       4.470   0.926  -6.304  1.00  0.00     0.031 A 
ATOM     44  C   UNL     1       5.829   0.280  -6.334  1.00  0.00     0.074 A 
ATOM     45  C   UNL     1       4.224   2.037  -7.018  1.00  0.00     0.049 A 
ATOM     46  N   UNL     1       6.928   0.671  -6.925  1.00  0.00    -0.248 NA
ATOM     47  C   UNL     1       5.965  -0.981  -5.585  1.00  0.00     0.031 C 
ATOM     48  C   UNL     1       2.936   2.721  -7.097  1.00  0.00     0.029 A 
ATOM     49  N   UNL     1       5.056   2.788  -7.809  1.00  0.00    -0.354 N 
ATOM     50  C   UNL     1       7.882  -0.289  -6.614  1.00  0.00     0.074 A 
ATOM     51  C   UNL     1       7.249  -1.256  -5.747  1.00  0.00     0.031 C 
ATOM     52  C   UNL     1       3.063   3.797  -7.894  1.00  0.00     0.029 A 
ATOM     53  C   UNL     1       4.450   3.896  -8.347  1.00  0.00     0.049 A 
ATOM     54  H   UNL     1       5.997   2.554  -7.976  1.00  0.00     0.167 HD
ATOM     55  C   UNL     1       9.169  -0.364  -7.027  1.00  0.00     0.037 A 
ATOM     56  C   UNL     1       4.970   4.884  -9.102  1.00  0.00     0.037 A 
ATOM     57  C   UNL     1       9.790   0.608  -7.886  1.00  0.00     0.049 A 
ATOM     58  C   UNL     1       6.430   4.827  -9.477  1.00  0.00     0.074 A 
ATOM     59  C   UNL     1      11.084   0.632  -8.372  1.00  0.00     0.029 A 
ATOM     60  N   UNL     1       9.154   1.738  -8.382  1.00  0.00    -0.354 N 
ATOM     61  N   UNL     1       7.323   3.908  -9.197  1.00  0.00    -0.248 NA
ATOM     62  C   UNL     1       6.953   5.944 -10.276  1.00  0.00     0.031 C 
ATOM     63  C   UNL     1      11.249   1.806  -9.112  1.00  0.00     0.029 A 
ATOM     64  C   UNL     1      10.038   2.480  -9.147  1.00  0.00     0.049 A 
ATOM     65  H   UNL     1       8.213   1.977  -8.215  1.00  0.00     0.167 HD
ATOM     66  C   UNL     1       8.500   4.314  -9.816  1.00  0.00     0.074 A 
ATOM     67  C   UNL     1       8.204   5.559 -10.492  1.00  0.00     0.031 C 
ATOM     68  C   UNL     1       9.714   3.710  -9.827  1.00  0.00     0.037 A 
BRANCH  55  69
ATOM     69  C   UNL     1       9.992  -1.517  -6.526  1.00  0.00     0.064 A 
ATOM     70  C   UNL     1       9.737  -2.838  -6.926  1.00  0.00     0.173 A 
ATOM     71  C   UNL     1      11.055  -1.298  -5.637  1.00  0.00     0.173 A 
ATOM     72  F   UNL     1       8.722  -3.107  -7.762  1.00  0.00    -0.203 F 
ATOM     73  C   UNL     1      10.491  -3.898  -6.428  1.00  0.00     0.198 A 
ATOM     74  C   UNL     1      11.830  -2.355  -5.168  1.00  0.00     0.198 A 
ATOM     75  F   UNL     1      11.344  -0.055  -5.221  1.00  0.00    -0.203 F 
ATOM     76  F   UNL     1      10.188  -5.156  -6.776  1.00  0.00    -0.200 F 
ATOM     77  C   UNL     1      11.541  -3.655  -5.555  1.00  0.00     0.200 A 
ATOM     78  F   UNL     1      12.852  -2.117  -4.335  1.00  0.00    -0.200 F 
ATOM     79  F   UNL     1      12.268  -4.675  -5.079  1.00  0.00    -0.200 F 
ENDBRANCH  55  69
BRANCH  56  80
ATOM     80  C   UNL     1       4.110   6.012  -9.553  1.00  0.00     0.064 A 
ATOM     81  C   UNL     1       3.810   6.194 -10.910  1.00  0.00     0.173 A 
ATOM     82  C   UNL     1       3.583   6.939  -8.641  1.00  0.00     0.173 A 
ATOM     83  F   UNL     1       4.308   5.350 -11.825  1.00  0.00    -0.203 F 
ATOM     84  C   UNL     1       3.034   7.270 -11.340  1.00  0.00     0.198 A 
ATOM     85  C   UNL     1       2.781   7.996  -9.068  1.00  0.00     0.198 A 
ATOM     86  F   UNL     1       3.839   6.813  -7.331  1.00  0.00    -0.203 F 
ATOM     87  F   UNL     1       2.804   7.447 -12.648  1.00  0.00    -0.200 F 
ATOM     88  C   UNL     1       2.515   8.166 -10.418  1.00  0.00     0.200 A 
ATOM     89  F   UNL     1       2.269   8.851  -8.172  1.00  0.00    -0.200 F 
ATOM     90  F   UNL     1       1.764   9.196 -10.831  1.00  0.00    -0.200 F 
ENDBRANCH  56  80
BRANCH  68  91
ATOM     91  C   UNL     1      10.802   4.353 -10.639  1.00  0.00     0.064 A 
ATOM     92  C   UNL     1      11.411   5.553 -10.246  1.00  0.00     0.173 A 
ATOM     93  C   UNL     1      11.280   3.724 -11.800  1.00  0.00     0.173 A 
ATOM     94  F   UNL     1      10.983   6.202  -9.152  1.00  0.00    -0.203 F 
ATOM     95  C   UNL     1      12.442   6.112 -10.998  1.00  0.00     0.198 A 
ATOM     96  C   UNL     1      12.334   4.266 -12.528  1.00  0.00     0.198 A 
ATOM     97  F   UNL     1      10.739   2.568 -12.215  1.00  0.00    -0.203 F 
ATOM     98  F   UNL     1      12.978   7.284 -10.629  1.00  0.00    -0.200 F 
ATOM     99  C   UNL     1      12.909   5.463 -12.131  1.00  0.00     0.200 A 
ATOM    100  F   UNL     1      12.796   3.627 -13.612  1.00  0.00    -0.200 F 
ATOM    101  F   UNL     1      13.911   5.995 -12.845  1.00  0.00    -0.200 F 
ENDBRANCH  68  91
ENDBRANCH  42  43
ENDBRANCH  35  37
ENDBRANCH  34  35
ENDBRANCH  33  34
ENDBRANCH  32  33
ENDBRANCH  31  32
ENDBRANCH  30  31
ENDBRANCH  29  30
ENDBRANCH  28  29
ENDBRANCH   1  28
TORSDOF 26
