REMARK SMILES CCOc1ccc2[nH]c(C)c/c(=N\c3cccc(C(=O)OCCOCCOCCOCCOC(=O)c4ccc(-c5c6nc(c(-c7c(F)c(F)c(F)c(F)c7F)c7ccc([nH]7)c(-c7c(F)c(F)c(F)c(F)c7F)c7nc(c(-c8c(F)c(F)c(F)c(F)c8F)c8ccc5[nH]8)C=C7)C=C6)cc4)c3)c2c1
REMARK SMILES IDX 26 1 25 2 24 3 23 4 22 5 21 6 19 7 20 8 18 9 14 10 15 11
REMARK SMILES IDX 99 12 16 13 17 14 13 15 4 16 5 17 101 18 6 19 100 20 7 21
REMARK SMILES IDX 12 22 8 23 11 24 9 25 10 27 3 28 2 29 1 30 27 31 28 32 29 33
REMARK SMILES IDX 30 34 31 35 32 36 33 37 34 38 35 39 36 40 37 41 98 42 38 43
REMARK SMILES IDX 97 44 39 45 40 46 41 47 91 48 42 49 96 50 90 51 92 52 43 53
REMARK SMILES IDX 95 54 89 55 88 56 44 58 76 59 56 60 75 61 57 62 60 63 74 64
REMARK SMILES IDX 93 65 58 66 59 67 73 69 94 70 61 71 45 72 46 73 54 74 47 75
REMARK SMILES IDX 48 76 52 77 55 78 49 79 50 80 53 81 51 82 77 83 78 84 86 85
REMARK SMILES IDX 79 86 80 87 84 88 87 89 81 90 82 91 85 92 83 93 62 94 63 95
REMARK SMILES IDX 71 96 64 97 65 98 69 99 72 100 66 101 67 102 70 103 68 104
REMARK H PARENT 8 26 92 57 60 68
REMARK Flexibility Score: inf
ROOT
ATOM      1  C   UNL     1       7.755   6.719  -5.571  1.00  0.00     0.188 C 
ENDROOT
BRANCH   1   2
ATOM      2  C   UNL     1       7.962   7.830  -6.617  1.00  0.00     0.188 C 
BRANCH   2   3
ATOM      3  O   UNL     1       7.713   9.145  -6.133  1.00  0.00    -0.376 OA
BRANCH   3   4
ATOM      4  C   UNL     1       6.594   9.815  -6.699  1.00  0.00     0.202 C 
BRANCH   4   5
ATOM      5  C   UNL     1       5.234   9.340  -6.170  1.00  0.00     0.261 C 
BRANCH   5   6
ATOM      6  O   UNL     1       4.980   7.939  -6.356  1.00  0.00    -0.460 OA
BRANCH   6   7
ATOM      7  C   UNL     1       4.788   7.522  -7.628  1.00  0.00     0.338 C 
ATOM      8  O   UNL     1       4.750   8.229  -8.620  1.00  0.00    -0.246 OA
BRANCH   7   9
ATOM      9  C   UNL     1       4.851   6.039  -7.659  1.00  0.00     0.062 A 
ATOM     10  C   UNL     1       4.545   3.860  -6.630  1.00  0.00     0.065 A 
ATOM     11  C   UNL     1       5.120   3.272  -7.766  1.00  0.00     0.028 A 
ATOM     12  C   UNL     1       4.391   5.248  -6.595  1.00  0.00     0.044 A 
ATOM     13  C   UNL     1       5.607   4.054  -8.815  1.00  0.00     0.003 A 
ATOM     14  C   UNL     1       5.470   5.439  -8.763  1.00  0.00     0.016 A 
BRANCH  10  15
ATOM     15  N   UNL     1       4.069   3.078  -5.563  1.00  0.00    -0.248 NA
ATOM     16  C   UNL     1       2.398   0.615  -2.514  1.00  0.00     0.120 A 
ATOM     17  C   UNL     1       3.223  -0.318  -1.890  1.00  0.00     0.048 A 
ATOM     18  C   UNL     1       2.910   1.484  -3.479  1.00  0.00     0.059 A 
ATOM     19  C   UNL     1       4.584  -0.352  -2.185  1.00  0.00     0.030 A 
ATOM     20  C   UNL     1       4.278   1.444  -3.788  1.00  0.00     0.027 A 
ATOM     21  C   UNL     1       5.121   0.523  -3.134  1.00  0.00     0.048 A 
ATOM     22  C   UNL     1       4.867   2.332  -4.851  1.00  0.00     0.075 A 
ATOM     23  N   UNL     1       6.485   0.464  -3.440  1.00  0.00    -0.359 N 
ATOM     24  C   UNL     1       6.360   2.247  -5.009  1.00  0.00     0.050 A 
ATOM     25  C   UNL     1       7.066   1.322  -4.339  1.00  0.00     0.014 A 
ATOM     26  H   UNL     1       7.044  -0.215  -2.998  1.00  0.00     0.166 HD
ATOM     27  C   UNL     1       8.547   1.170  -4.554  1.00  0.00     0.064 C 
BRANCH  16  28
ATOM     28  O   UNL     1       1.050   0.589  -2.283  1.00  0.00    -0.494 OA
BRANCH  28  29
ATOM     29  C   UNL     1       0.681   1.233  -1.056  1.00  0.00     0.226 C 
ATOM     30  C   UNL     1       0.682   0.267   0.120  1.00  0.00     0.049 C 
ENDBRANCH  28  29
ENDBRANCH  16  28
ENDBRANCH  10  15
ENDBRANCH   7   9
ENDBRANCH   6   7
ENDBRANCH   5   6
ENDBRANCH   4   5
ENDBRANCH   3   4
ENDBRANCH   2   3
ENDBRANCH   1   2
BRANCH   1  31
ATOM     31  O   UNL     1       7.205   7.068  -4.312  1.00  0.00    -0.377 OA
BRANCH  31  32
ATOM     32  C   UNL     1       7.776   8.140  -3.570  1.00  0.00     0.188 C 
BRANCH  32  33
ATOM     33  C   UNL     1       9.242   8.582  -3.774  1.00  0.00     0.188 C 
BRANCH  33  34
ATOM     34  O   UNL     1      10.060   7.654  -4.472  1.00  0.00    -0.376 OA
BRANCH  34  35
ATOM     35  C   UNL     1      11.067   7.005  -3.709  1.00  0.00     0.202 C 
BRANCH  35  36
ATOM     36  C   UNL     1      10.534   5.896  -2.796  1.00  0.00     0.261 C 
BRANCH  36  37
ATOM     37  O   UNL     1       9.612   6.332  -1.786  1.00  0.00    -0.460 OA
BRANCH  37  38
ATOM     38  C   UNL     1      10.062   7.216  -0.869  1.00  0.00     0.338 C 
ATOM     39  O   UNL     1      11.186   7.676  -0.771  1.00  0.00    -0.246 OA
BRANCH  38  40
ATOM     40  C   UNL     1       8.893   7.680  -0.096  1.00  0.00     0.060 A 
ATOM     41  C   UNL     1       8.016   6.753   0.474  1.00  0.00     0.016 A 
ATOM     42  C   UNL     1       8.652   9.055   0.024  1.00  0.00     0.016 A 
ATOM     43  C   UNL     1       6.911   7.205   1.195  1.00  0.00     0.010 A 
ATOM     44  C   UNL     1       7.540   9.505   0.740  1.00  0.00     0.010 A 
ATOM     45  C   UNL     1       6.678   8.583   1.353  1.00  0.00    -0.014 A 
BRANCH  45  46
ATOM     46  C   UNL     1       5.656   9.038   2.324  1.00  0.00     0.031 A 
ATOM     47  C   UNL     1       4.301   9.509   1.902  1.00  0.00     0.074 A 
ATOM     48  C   UNL     1       5.987   9.006   3.628  1.00  0.00     0.049 A 
ATOM     49  N   UNL     1       3.277   9.833   2.653  1.00  0.00    -0.248 NA
ATOM     50  C   UNL     1       4.060   9.645   0.460  1.00  0.00     0.031 C 
ATOM     51  C   UNL     1       7.293   8.597   4.147  1.00  0.00     0.029 A 
ATOM     52  N   UNL     1       5.260   9.309   4.750  1.00  0.00    -0.354 N 
ATOM     53  C   UNL     1       2.261  10.187   1.779  1.00  0.00     0.074 A 
ATOM     54  C   UNL     1       2.807  10.086   0.440  1.00  0.00     0.031 C 
ATOM     55  C   UNL     1       7.267   8.645   5.486  1.00  0.00     0.029 A 
ATOM     56  C   UNL     1       5.951   9.106   5.919  1.00  0.00     0.049 A 
ATOM     57  H   UNL     1       4.333   9.639   4.721  1.00  0.00     0.167 HD
ATOM     58  C   UNL     1       0.987  10.543   2.075  1.00  0.00     0.037 A 
ATOM     59  C   UNL     1       5.566   9.262   7.199  1.00  0.00     0.037 A 
ATOM     60  C   UNL     1       0.460  10.655   3.414  1.00  0.00     0.049 A 
ATOM     61  C   UNL     1       4.160   9.695   7.496  1.00  0.00     0.074 A 
ATOM     62  C   UNL     1      -0.833  10.960   3.808  1.00  0.00     0.029 A 
ATOM     63  N   UNL     1       1.198  10.483   4.576  1.00  0.00    -0.354 N 
ATOM     64  N   UNL     1       3.179   9.939   6.662  1.00  0.00    -0.248 NA
ATOM     65  C   UNL     1       3.804   9.866   8.911  1.00  0.00     0.031 C 
ATOM     66  C   UNL     1      -0.863  11.027   5.205  1.00  0.00     0.029 A 
ATOM     67  C   UNL     1       0.397  10.710   5.686  1.00  0.00     0.049 A 
ATOM     68  H   UNL     1       2.151  10.237   4.608  1.00  0.00     0.167 HD
ATOM     69  C   UNL     1       2.086  10.275   7.448  1.00  0.00     0.074 A 
ATOM     70  C   UNL     1       2.519  10.185   8.827  1.00  0.00     0.031 C 
ATOM     71  C   UNL     1       0.837  10.627   7.056  1.00  0.00     0.037 A 
BRANCH  58  72
ATOM     72  C   UNL     1       0.051  10.825   0.935  1.00  0.00     0.064 A 
ATOM     73  C   UNL     1      -0.440   9.791   0.124  1.00  0.00     0.173 A 
ATOM     74  C   UNL     1      -0.439  12.122   0.713  1.00  0.00     0.173 A 
ATOM     75  F   UNL     1      -0.005   8.534   0.296  1.00  0.00    -0.203 F 
ATOM     76  C   UNL     1      -1.377  10.046  -0.875  1.00  0.00     0.198 A 
ATOM     77  C   UNL     1      -1.395  12.369  -0.270  1.00  0.00     0.198 A 
ATOM     78  F   UNL     1      -0.014  13.145   1.469  1.00  0.00    -0.203 F 
ATOM     79  F   UNL     1      -1.815   9.046  -1.651  1.00  0.00    -0.200 F 
ATOM     80  C   UNL     1      -1.861  11.332  -1.064  1.00  0.00     0.200 A 
ATOM     81  F   UNL     1      -1.875  13.608  -0.439  1.00  0.00    -0.200 F 
ATOM     82  F   UNL     1      -2.778  11.572  -2.012  1.00  0.00    -0.200 F 
ENDBRANCH  58  72
BRANCH  59  83
ATOM     83  C   UNL     1       6.526   8.951   8.286  1.00  0.00     0.064 A 
ATOM     84  C   UNL     1       6.361   7.811   9.083  1.00  0.00     0.173 A 
ATOM     85  C   UNL     1       7.651   9.756   8.518  1.00  0.00     0.173 A 
ATOM     86  F   UNL     1       5.292   7.020   8.906  1.00  0.00    -0.203 F 
ATOM     87  C   UNL     1       7.283   7.489  10.075  1.00  0.00     0.198 A 
ATOM     88  C   UNL     1       8.587   9.419   9.492  1.00  0.00     0.198 A 
ATOM     89  F   UNL     1       7.857  10.853   7.774  1.00  0.00    -0.203 F 
ATOM     90  F   UNL     1       7.090   6.406  10.840  1.00  0.00    -0.200 F 
ATOM     91  C   UNL     1       8.400   8.288  10.273  1.00  0.00     0.200 A 
ATOM     92  F   UNL     1       9.674  10.182   9.668  1.00  0.00    -0.200 F 
ATOM     93  F   UNL     1       9.296   7.967  11.216  1.00  0.00    -0.200 F 
ENDBRANCH  59  83
BRANCH  71  94
ATOM     94  C   UNL     1      -0.162  10.942   8.131  1.00  0.00     0.064 A 
ATOM     95  C   UNL     1      -0.085  12.127   8.877  1.00  0.00     0.173 A 
ATOM     96  C   UNL     1      -1.246  10.084   8.372  1.00  0.00     0.173 A 
ATOM     97  F   UNL     1       0.941  12.973   8.695  1.00  0.00    -0.203 F 
ATOM     98  C   UNL     1      -1.049  12.436   9.833  1.00  0.00     0.198 A 
ATOM     99  C   UNL     1      -2.223  10.409   9.309  1.00  0.00     0.198 A 
ATOM    100  F   UNL     1      -1.369   8.939   7.684  1.00  0.00    -0.203 F 
ATOM    101  F   UNL     1      -0.936  13.557  10.558  1.00  0.00    -0.200 F 
ATOM    102  C   UNL     1      -2.122  11.582  10.041  1.00  0.00     0.200 A 
ATOM    103  F   UNL     1      -3.267   9.590   9.499  1.00  0.00    -0.200 F 
ATOM    104  F   UNL     1      -3.058  11.890  10.950  1.00  0.00    -0.200 F 
ENDBRANCH  71  94
ENDBRANCH  45  46
ENDBRANCH  38  40
ENDBRANCH  37  38
ENDBRANCH  36  37
ENDBRANCH  35  36
ENDBRANCH  34  35
ENDBRANCH  33  34
ENDBRANCH  32  33
ENDBRANCH  31  32
ENDBRANCH   1  31
TORSDOF 23
