REMARK SMILES COc1ccc(-c2nc(NCC(=O)OCCOCCOCCOCCOC(=O)c3ccc(-c4c5nc(c(-c6c(F)c(F)c(F)c(F)c6F)c6ccc([nH]6)c(-c6c(F)c(F)c(F)c(F)c6F)c6nc(c(-c7c(F)c(F)c(F)c(F)c7F)c7ccc4[nH]7)C=C6)C=C5)cc3)sc2-c2ccc(OC)cc2)cc1
REMARK SMILES IDX 19 1 18 2 17 3 16 4 15 5 14 6 12 7 13 8 11 9 10 10 9 12 7 13
REMARK SMILES IDX 8 14 93 15 92 16 6 17 3 18 4 19 103 20 5 21 102 22 2 23 1 24
REMARK SMILES IDX 94 25 95 26 101 27 96 28 100 29 97 30 98 31 99 32 20 33
REMARK SMILES IDX 21 34 22 35 23 36 24 37 25 38 26 39 27 40 28 41 29 42 30 43
REMARK SMILES IDX 91 44 31 45 90 46 32 47 33 48 34 49 84 50 35 51 89 52 83 53
REMARK SMILES IDX 85 54 36 55 88 56 82 57 81 58 37 60 69 61 49 62 68 63 50 64
REMARK SMILES IDX 53 65 67 66 86 67 51 68 52 69 66 71 87 72 54 73 38 74 39 75
REMARK SMILES IDX 47 76 40 77 41 78 45 79 48 80 42 81 43 82 46 83 44 84 70 85
REMARK SMILES IDX 71 86 79 87 72 88 73 89 77 90 80 91 74 92 75 93 78 94 76 95
REMARK SMILES IDX 55 96 56 97 64 98 57 99 58 100 62 101 65 102 59 103 60 104
REMARK SMILES IDX 63 105 61 106
REMARK H PARENT 10 11 85 59 53 70
REMARK Flexibility Score: inf
ROOT
ATOM      1  C   UNL     1       6.866   5.045   8.435  1.00  0.00     0.188 C 
ENDROOT
BRANCH   1   2
ATOM      2  C   UNL     1       7.210   5.576   9.835  1.00  0.00     0.188 C 
BRANCH   2   3
ATOM      3  O   UNL     1       8.149   4.894  10.652  1.00  0.00    -0.376 OA
BRANCH   3   4
ATOM      4  C   UNL     1       8.045   3.490  10.856  1.00  0.00     0.202 C 
BRANCH   4   5
ATOM      5  C   UNL     1       6.693   2.791  11.102  1.00  0.00     0.261 C 
BRANCH   5   6
ATOM      6  O   UNL     1       5.593   3.247  10.296  1.00  0.00    -0.462 OA
BRANCH   6   7
ATOM      7  C   UNL     1       4.538   3.795  10.949  1.00  0.00     0.325 C 
ATOM      8  O   UNL     1       4.443   3.844  12.173  1.00  0.00    -0.250 OA
BRANCH   7   9
ATOM      9  C   UNL     1       3.518   4.495  10.047  1.00  0.00     0.238 C 
BRANCH   9  10
ATOM     10  N   UNL     1       3.591   4.256   8.609  1.00  0.00    -0.351 N 
ATOM     11  H   UNL     1       4.238   4.795   8.099  1.00  0.00     0.163 HD
BRANCH  10  12
ATOM     12  C   UNL     1       2.856   3.368   7.916  1.00  0.00     0.184 A 
ATOM     13  C   UNL     1       1.855   2.513   6.130  1.00  0.00     0.091 A 
ATOM     14  N   UNL     1       2.826   3.383   6.598  1.00  0.00    -0.220 NA
ATOM     15  C   UNL     1       1.171   1.832   7.124  1.00  0.00     0.064 A 
ATOM     16  S   UNL     1       1.849   2.195   8.650  1.00  0.00    -0.096 S 
BRANCH  13  17
ATOM     17  C   UNL     1       1.571   2.332   4.709  1.00  0.00     0.002 A 
ATOM     18  C   UNL     1       0.922   1.658   2.051  1.00  0.00     0.118 A 
ATOM     19  C   UNL     1      -0.025   2.262   2.877  1.00  0.00     0.047 A 
ATOM     20  C   UNL     1       2.215   1.448   2.533  1.00  0.00     0.047 A 
ATOM     21  C   UNL     1       0.292   2.593   4.198  1.00  0.00     0.014 A 
ATOM     22  C   UNL     1       2.540   1.791   3.856  1.00  0.00     0.014 A 
BRANCH  18  23
ATOM     23  O   UNL     1       0.496   1.363   0.785  1.00  0.00    -0.497 OA
ATOM     24  C   UNL     1       1.052   0.184   0.211  1.00  0.00     0.278 C 
ENDBRANCH  18  23
ENDBRANCH  13  17
BRANCH  15  25
ATOM     25  C   UNL     1       0.073   0.887   7.068  1.00  0.00    -0.006 A 
ATOM     26  C   UNL     1      -1.164   1.216   7.635  1.00  0.00     0.013 A 
ATOM     27  C   UNL     1       0.249  -0.358   6.461  1.00  0.00     0.013 A 
ATOM     28  C   UNL     1      -2.204   0.291   7.618  1.00  0.00     0.047 A 
ATOM     29  C   UNL     1      -0.795  -1.280   6.445  1.00  0.00     0.047 A 
ATOM     30  C   UNL     1      -2.023  -0.961   7.028  1.00  0.00     0.118 A 
BRANCH  30  31
ATOM     31  O   UNL     1      -3.114  -1.782   7.092  1.00  0.00    -0.497 OA
ATOM     32  C   UNL     1      -2.991  -3.039   6.442  1.00  0.00     0.278 C 
ENDBRANCH  30  31
ENDBRANCH  15  25
ENDBRANCH  10  12
ENDBRANCH   9  10
ENDBRANCH   7   9
ENDBRANCH   6   7
ENDBRANCH   5   6
ENDBRANCH   4   5
ENDBRANCH   3   4
ENDBRANCH   2   3
ENDBRANCH   1   2
BRANCH   1  33
ATOM     33  O   UNL     1       7.180   3.684   8.226  1.00  0.00    -0.377 OA
BRANCH  33  34
ATOM     34  C   UNL     1       8.373   3.397   7.514  1.00  0.00     0.188 C 
BRANCH  34  35
ATOM     35  C   UNL     1       9.576   4.344   7.692  1.00  0.00     0.188 C 
BRANCH  35  36
ATOM     36  O   UNL     1       9.275   5.721   7.509  1.00  0.00    -0.376 OA
BRANCH  36  37
ATOM     37  C   UNL     1       9.482   6.304   6.229  1.00  0.00     0.202 C 
BRANCH  37  38
ATOM     38  C   UNL     1       8.647   5.783   5.047  1.00  0.00     0.261 C 
BRANCH  38  39
ATOM     39  O   UNL     1       8.789   4.390   4.721  1.00  0.00    -0.460 OA
BRANCH  39  40
ATOM     40  C   UNL     1      10.019   3.917   4.441  1.00  0.00     0.338 C 
ATOM     41  O   UNL     1      11.053   4.558   4.349  1.00  0.00    -0.246 OA
BRANCH  40  42
ATOM     42  C   UNL     1       9.950   2.440   4.464  1.00  0.00     0.060 A 
ATOM     43  C   UNL     1      10.739   1.740   5.386  1.00  0.00     0.016 A 
ATOM     44  C   UNL     1       9.105   1.749   3.592  1.00  0.00     0.016 A 
ATOM     45  C   UNL     1      10.706   0.345   5.422  1.00  0.00     0.010 A 
ATOM     46  C   UNL     1       9.094   0.350   3.610  1.00  0.00     0.010 A 
ATOM     47  C   UNL     1       9.914  -0.359   4.506  1.00  0.00    -0.014 A 
BRANCH  47  48
ATOM     48  C   UNL     1      10.071  -1.828   4.366  1.00  0.00     0.031 A 
ATOM     49  C   UNL     1      10.939  -2.355   3.257  1.00  0.00     0.074 A 
ATOM     50  C   UNL     1       9.467  -2.681   5.212  1.00  0.00     0.049 A 
ATOM     51  N   UNL     1      11.162  -3.590   2.887  1.00  0.00    -0.248 NA
ATOM     52  C   UNL     1      11.650  -1.348   2.453  1.00  0.00     0.031 C 
ATOM     53  C   UNL     1       8.644  -2.296   6.356  1.00  0.00     0.029 A 
ATOM     54  N   UNL     1       9.445  -4.055   5.226  1.00  0.00    -0.354 N 
ATOM     55  C   UNL     1      12.030  -3.508   1.805  1.00  0.00     0.074 A 
ATOM     56  C   UNL     1      12.271  -2.103   1.560  1.00  0.00     0.031 C 
ATOM     57  C   UNL     1       8.181  -3.409   6.952  1.00  0.00     0.029 A 
ATOM     58  C   UNL     1       8.641  -4.581   6.208  1.00  0.00     0.049 A 
ATOM     59  H   UNL     1       9.957  -4.609   4.594  1.00  0.00     0.167 HD
ATOM     60  C   UNL     1      12.579  -4.515   1.085  1.00  0.00     0.037 A 
ATOM     61  C   UNL     1       8.292  -5.860   6.452  1.00  0.00     0.037 A 
ATOM     62  C   UNL     1      12.334  -5.913   1.330  1.00  0.00     0.049 A 
ATOM     63  C   UNL     1       8.845  -6.958   5.577  1.00  0.00     0.074 A 
ATOM     64  C   UNL     1      12.857  -7.009   0.667  1.00  0.00     0.029 A 
ATOM     65  N   UNL     1      11.484  -6.406   2.309  1.00  0.00    -0.354 N 
ATOM     66  N   UNL     1       9.681  -6.878   4.570  1.00  0.00    -0.248 NA
ATOM     67  C   UNL     1       8.404  -8.329   5.875  1.00  0.00     0.031 C 
ATOM     68  C   UNL     1      12.272  -8.162   1.200  1.00  0.00     0.029 A 
ATOM     69  C   UNL     1      11.440  -7.790   2.244  1.00  0.00     0.049 A 
ATOM     70  H   UNL     1      10.985  -5.855   2.955  1.00  0.00     0.167 HD
ATOM     71  C   UNL     1       9.889  -8.182   4.137  1.00  0.00     0.074 A 
ATOM     72  C   UNL     1       9.105  -9.037   5.002  1.00  0.00     0.031 C 
ATOM     73  C   UNL     1      10.658  -8.631   3.114  1.00  0.00     0.037 A 
BRANCH  60  74
ATOM     74  C   UNL     1      13.473  -4.144  -0.063  1.00  0.00     0.064 A 
ATOM     75  C   UNL     1      14.742  -3.580   0.137  1.00  0.00     0.173 A 
ATOM     76  C   UNL     1      13.068  -4.396  -1.383  1.00  0.00     0.173 A 
ATOM     77  F   UNL     1      15.171  -3.305   1.377  1.00  0.00    -0.203 F 
ATOM     78  C   UNL     1      15.562  -3.260  -0.943  1.00  0.00     0.198 A 
ATOM     79  C   UNL     1      13.904  -4.106  -2.458  1.00  0.00     0.198 A 
ATOM     80  F   UNL     1      11.866  -4.936  -1.631  1.00  0.00    -0.203 F 
ATOM     81  F   UNL     1      16.750  -2.678  -0.731  1.00  0.00    -0.200 F 
ATOM     82  C   UNL     1      15.146  -3.531  -2.238  1.00  0.00     0.200 A 
ATOM     83  F   UNL     1      13.506  -4.383  -3.708  1.00  0.00    -0.200 F 
ATOM     84  F   UNL     1      15.941  -3.234  -3.275  1.00  0.00    -0.200 F 
ENDBRANCH  60  74
BRANCH  61  85
ATOM     85  C   UNL     1       7.344  -6.179   7.555  1.00  0.00     0.064 A 
ATOM     86  C   UNL     1       7.752  -6.926   8.669  1.00  0.00     0.173 A 
ATOM     87  C   UNL     1       6.001  -5.778   7.497  1.00  0.00     0.173 A 
ATOM     88  F   UNL     1       9.018  -7.360   8.758  1.00  0.00    -0.203 F 
ATOM     89  C   UNL     1       6.848  -7.279   9.670  1.00  0.00     0.198 A 
ATOM     90  C   UNL     1       5.106  -6.102   8.515  1.00  0.00     0.198 A 
ATOM     91  F   UNL     1       5.555  -5.068   6.450  1.00  0.00    -0.203 F 
ATOM     92  F   UNL     1       7.251  -8.046  10.693  1.00  0.00    -0.200 F 
ATOM     93  C   UNL     1       5.528  -6.862   9.595  1.00  0.00     0.200 A 
ATOM     94  F   UNL     1       3.834  -5.688   8.443  1.00  0.00    -0.200 F 
ATOM     95  F   UNL     1       4.659  -7.204  10.557  1.00  0.00    -0.200 F 
ENDBRANCH  61  85
BRANCH  73  96
ATOM     96  C   UNL     1      10.724 -10.118   2.895  1.00  0.00     0.064 A 
ATOM     97  C   UNL     1       9.625 -10.845   2.413  1.00  0.00     0.173 A 
ATOM     98  C   UNL     1      11.917 -10.819   3.133  1.00  0.00     0.173 A 
ATOM     99  F   UNL     1       8.457 -10.227   2.180  1.00  0.00    -0.203 F 
ATOM    100  C   UNL     1       9.709 -12.220   2.207  1.00  0.00     0.198 A 
ATOM    101  C   UNL     1      12.009 -12.187   2.891  1.00  0.00     0.198 A 
ATOM    102  F   UNL     1      13.003 -10.173   3.585  1.00  0.00    -0.203 F 
ATOM    103  F   UNL     1       8.630 -12.901   1.799  1.00  0.00    -0.200 F 
ATOM    104  C   UNL     1      10.902 -12.888   2.438  1.00  0.00     0.200 A 
ATOM    105  F   UNL     1      13.168 -12.826   3.098  1.00  0.00    -0.200 F 
ATOM    106  F   UNL     1      10.983 -14.209   2.231  1.00  0.00    -0.200 F 
ENDBRANCH  73  96
ENDBRANCH  47  48
ENDBRANCH  40  42
ENDBRANCH  39  40
ENDBRANCH  38  39
ENDBRANCH  37  38
ENDBRANCH  36  37
ENDBRANCH  35  36
ENDBRANCH  34  35
ENDBRANCH  33  34
ENDBRANCH   1  33
TORSDOF 26
