REMARK SMILES Cc1ccc(-c2nc(NC(=O)[C@H]3[C@@H](C(=O)OCCOCCOCCOCCOC(=O)c4ccc(-c5c6nc(c(-c7c(F)c(F)c(F)c(F)c7F)c7ccc([nH]7)c(-c7c(F)c(F)c(F)c(F)c7F)c7nc(c(-c8c(F)c(F)c(F)c(F)c8F)c8ccc5[nH]8)C=C7)C=C6)cc4)[C@@H]4CC[C@H]3O4)sc2C)cc1
REMARK SMILES IDX 21 1 20 2 19 3 18 4 17 5 16 6 14 7 15 8 13 9 12 10 97 11
REMARK SMILES IDX 94 12 96 13 98 14 95 15 10 16 9 17 11 19 8 20 6 21 7 22
REMARK SMILES IDX 100 23 99 24 101 25 5 26 1 27 2 28 3 29 103 30 4 31 102 32
REMARK SMILES IDX 22 33 23 34 24 35 25 36 26 37 27 38 28 39 29 40 30 41 31 42
REMARK SMILES IDX 32 43 93 44 33 45 92 46 34 47 35 48 36 49 86 50 37 51 91 52
REMARK SMILES IDX 85 53 87 54 38 55 90 56 84 57 83 58 39 60 71 61 51 62 70 63
REMARK SMILES IDX 52 64 55 65 69 66 88 67 53 68 54 69 68 71 89 72 56 73 40 74
REMARK SMILES IDX 41 75 49 76 42 77 43 78 47 79 50 80 44 81 45 82 48 83 46 84
REMARK SMILES IDX 72 85 73 86 81 87 74 88 75 89 79 90 82 91 76 92 77 93 80 94
REMARK SMILES IDX 78 95 57 96 58 97 66 98 59 99 60 100 64 101 67 102 61 103
REMARK SMILES IDX 62 104 65 105 63 106
REMARK H PARENT 9 18 87 59 55 70
REMARK Flexibility Score: inf
ROOT
ATOM      1  C   UNL     1      -9.952   0.702  -3.872  1.00  0.00     0.188 C 
ENDROOT
BRANCH   1   2
ATOM      2  C   UNL     1      -9.884   2.249  -3.948  1.00  0.00     0.188 C 
BRANCH   2   3
ATOM      3  O   UNL     1      -8.729   2.905  -3.425  1.00  0.00    -0.376 OA
BRANCH   3   4
ATOM      4  C   UNL     1      -7.930   2.135  -2.580  1.00  0.00     0.202 C 
BRANCH   4   5
ATOM      5  C   UNL     1      -8.439   1.782  -1.236  1.00  0.00     0.261 C 
BRANCH   5   6
ATOM      6  O   UNL     1      -9.713   2.315  -0.945  1.00  0.00    -0.463 OA
BRANCH   6   7
ATOM      7  C   UNL     1     -10.841   1.621  -0.783  1.00  0.00     0.312 C 
ATOM      8  O   UNL     1     -11.887   2.107  -1.222  1.00  0.00    -0.252 OA
BRANCH   7   9
ATOM      9  C   UNL     1     -10.938   0.375   0.077  1.00  0.00     0.143 C 
ATOM     10  C   UNL     1      -9.799  -0.518   0.583  1.00  0.00     0.124 C 
ATOM     11  C   UNL     1      -9.908  -1.716  -0.455  1.00  0.00     0.132 C 
ATOM     12  C   UNL     1     -11.751  -0.617  -0.768  1.00  0.00     0.133 C 
ATOM     13  C   UNL     1     -10.960  -2.727  -0.006  1.00  0.00     0.035 C 
ATOM     14  O   UNL     1     -10.672  -1.157  -1.552  1.00  0.00    -0.373 OA
ATOM     15  C   UNL     1     -12.202  -1.835   0.051  1.00  0.00     0.036 C 
BRANCH  10  16
ATOM     16  C   UNL     1      -8.351  -0.104   0.866  1.00  0.00     0.232 C 
ATOM     17  N   UNL     1      -7.855   1.010   1.475  1.00  0.00    -0.302 N 
ATOM     18  H   UNL     1      -6.923   0.893   1.768  1.00  0.00     0.172 HD
ATOM     19  O   UNL     1      -7.465  -0.883   0.475  1.00  0.00    -0.274 OA
BRANCH  17  20
ATOM     20  C   UNL     1      -8.346   2.256   1.776  1.00  0.00     0.190 A 
ATOM     21  C   UNL     1      -8.374   4.584   1.619  1.00  0.00     0.086 A 
ATOM     22  N   UNL     1      -7.638   3.374   1.734  1.00  0.00    -0.220 NA
ATOM     23  C   UNL     1      -9.844   4.019   1.507  1.00  0.00     0.031 A 
ATOM     24  S   UNL     1      -9.908   2.421   2.265  1.00  0.00    -0.101 S 
ATOM     25  C   UNL     1     -11.321   4.377   1.104  1.00  0.00     0.059 C 
BRANCH  21  26
ATOM     26  C   UNL     1      -7.599   6.324   1.643  1.00  0.00     0.001 A 
ATOM     27  C   UNL     1      -7.433  10.794   0.943  1.00  0.00     0.044 C 
ATOM     28  C   UNL     1      -7.218   9.356   1.274  1.00  0.00    -0.051 A 
ATOM     29  C   UNL     1      -6.653   8.432   0.432  1.00  0.00     0.004 A 
ATOM     30  C   UNL     1      -7.669   8.838   2.449  1.00  0.00     0.004 A 
ATOM     31  C   UNL     1      -6.811   7.012   0.653  1.00  0.00     0.010 A 
ATOM     32  C   UNL     1      -7.804   7.430   2.612  1.00  0.00     0.010 A 
ENDBRANCH  21  26
ENDBRANCH  17  20
ENDBRANCH  10  16
ENDBRANCH   7   9
ENDBRANCH   6   7
ENDBRANCH   5   6
ENDBRANCH   4   5
ENDBRANCH   3   4
ENDBRANCH   2   3
ENDBRANCH   1   2
BRANCH   1  33
ATOM     33  O   UNL     1      -9.257  -0.098  -4.832  1.00  0.00    -0.377 OA
BRANCH  33  34
ATOM     34  C   UNL     1      -7.850  -0.303  -4.680  1.00  0.00     0.188 C 
BRANCH  34  35
ATOM     35  C   UNL     1      -7.020   0.871  -5.181  1.00  0.00     0.188 C 
BRANCH  35  36
ATOM     36  O   UNL     1      -7.833   1.828  -5.842  1.00  0.00    -0.376 OA
BRANCH  36  37
ATOM     37  C   UNL     1      -8.182   1.474  -7.171  1.00  0.00     0.202 C 
BRANCH  37  38
ATOM     38  C   UNL     1      -6.894   1.481  -7.989  1.00  0.00     0.261 C 
BRANCH  38  39
ATOM     39  O   UNL     1      -6.208   2.734  -7.665  1.00  0.00    -0.460 OA
BRANCH  39  40
ATOM     40  C   UNL     1      -5.098   2.669  -6.881  1.00  0.00     0.338 C 
ATOM     41  O   UNL     1      -4.189   1.837  -7.040  1.00  0.00    -0.246 OA
BRANCH  40  42
ATOM     42  C   UNL     1      -5.176   3.541  -5.650  1.00  0.00     0.060 A 
ATOM     43  C   UNL     1      -4.262   3.368  -4.598  1.00  0.00     0.016 A 
ATOM     44  C   UNL     1      -6.287   4.349  -5.405  1.00  0.00     0.016 A 
ATOM     45  C   UNL     1      -4.549   3.858  -3.302  1.00  0.00     0.010 A 
ATOM     46  C   UNL     1      -6.585   4.797  -4.105  1.00  0.00     0.010 A 
ATOM     47  C   UNL     1      -5.791   4.468  -3.004  1.00  0.00    -0.014 A 
BRANCH  47  48
ATOM     48  C   UNL     1      -6.326   4.614  -1.585  1.00  0.00     0.031 A 
ATOM     49  C   UNL     1      -7.809   5.459  -1.297  1.00  0.00     0.074 A 
ATOM     50  C   UNL     1      -5.635   3.955  -0.573  1.00  0.00     0.049 A 
ATOM     51  N   UNL     1      -8.783   5.223  -0.433  1.00  0.00    -0.248 NA
ATOM     52  C   UNL     1      -8.149   6.721  -1.949  1.00  0.00     0.031 C 
ATOM     53  C   UNL     1      -5.466   4.525   0.707  1.00  0.00     0.029 A 
ATOM     54  N   UNL     1      -4.940   2.708  -0.355  1.00  0.00    -0.354 N 
ATOM     55  C   UNL     1      -9.544   6.422   0.001  1.00  0.00     0.074 A 
ATOM     56  C   UNL     1      -9.226   7.178  -1.255  1.00  0.00     0.031 C 
ATOM     57  C   UNL     1      -5.164   3.622   1.605  1.00  0.00     0.029 A 
ATOM     58  C   UNL     1      -4.810   2.406   1.044  1.00  0.00     0.049 A 
ATOM     59  H   UNL     1      -4.597   2.135  -1.078  1.00  0.00     0.167 HD
ATOM     60  C   UNL     1     -10.119   6.812   1.422  1.00  0.00     0.037 A 
ATOM     61  C   UNL     1      -4.447   1.445   1.963  1.00  0.00     0.037 A 
ATOM     62  C   UNL     1      -9.959   5.935   3.021  1.00  0.00     0.049 A 
ATOM     63  C   UNL     1      -4.981   1.773   3.542  1.00  0.00     0.074 A 
ATOM     64  C   UNL     1     -10.788   5.379   4.042  1.00  0.00     0.029 A 
ATOM     65  N   UNL     1      -8.675   5.381   3.750  1.00  0.00    -0.354 N 
ATOM     66  N   UNL     1      -5.247   2.985   4.059  1.00  0.00    -0.248 NA
ATOM     67  C   UNL     1      -5.477   0.801   4.531  1.00  0.00     0.031 C 
ATOM     68  C   UNL     1     -10.025   4.476   5.037  1.00  0.00     0.029 A 
ATOM     69  C   UNL     1      -8.666   4.418   4.750  1.00  0.00     0.049 A 
ATOM     70  H   UNL     1      -7.806   5.750   3.472  1.00  0.00     0.167 HD
ATOM     71  C   UNL     1      -6.465   2.928   4.787  1.00  0.00     0.074 A 
ATOM     72  C   UNL     1      -6.333   1.552   5.279  1.00  0.00     0.031 C 
ATOM     73  C   UNL     1      -7.221   4.001   5.315  1.00  0.00     0.037 A 
BRANCH  60  74
ATOM     74  C   UNL     1     -11.035   8.144   1.469  1.00  0.00     0.064 A 
ATOM     75  C   UNL     1     -11.780   8.472   2.621  1.00  0.00     0.173 A 
ATOM     76  C   UNL     1     -11.269   9.088   0.432  1.00  0.00     0.173 A 
ATOM     77  F   UNL     1     -11.585   7.843   3.781  1.00  0.00    -0.203 F 
ATOM     78  C   UNL     1     -12.740   9.508   2.670  1.00  0.00     0.198 A 
ATOM     79  C   UNL     1     -12.240  10.103   0.460  1.00  0.00     0.198 A 
ATOM     80  F   UNL     1     -10.497   9.212  -0.634  1.00  0.00    -0.203 F 
ATOM     81  F   UNL     1     -13.412   9.731   3.808  1.00  0.00    -0.200 F 
ATOM     82  C   UNL     1     -12.998  10.301   1.577  1.00  0.00     0.200 A 
ATOM     83  F   UNL     1     -12.386  10.908  -0.605  1.00  0.00    -0.200 F 
ATOM     84  F   UNL     1     -13.914  11.278   1.616  1.00  0.00    -0.200 F 
ENDBRANCH  60  74
BRANCH  61  85
ATOM     85  C   UNL     1      -3.825   0.258   1.238  1.00  0.00     0.064 A 
ATOM     86  C   UNL     1      -4.524  -0.912   0.910  1.00  0.00     0.173 A 
ATOM     87  C   UNL     1      -2.829   0.640   0.294  1.00  0.00     0.173 A 
ATOM     88  F   UNL     1      -5.314  -1.494   1.821  1.00  0.00    -0.203 F 
ATOM     89  C   UNL     1      -4.471  -1.454  -0.396  1.00  0.00     0.198 A 
ATOM     90  C   UNL     1      -2.844   0.168  -1.024  1.00  0.00     0.198 A 
ATOM     91  F   UNL     1      -2.031   1.685   0.566  1.00  0.00    -0.203 F 
ATOM     92  F   UNL     1      -5.236  -2.503  -0.734  1.00  0.00    -0.200 F 
ATOM     93  C   UNL     1      -3.710  -0.844  -1.382  1.00  0.00     0.200 A 
ATOM     94  F   UNL     1      -2.157   0.824  -1.972  1.00  0.00    -0.200 F 
ATOM     95  F   UNL     1      -3.852  -1.184  -2.673  1.00  0.00    -0.200 F 
ENDBRANCH  61  85
BRANCH  73  96
ATOM     96  C   UNL     1      -6.403   5.170   5.965  1.00  0.00     0.064 A 
ATOM     97  C   UNL     1      -5.106   5.021   6.512  1.00  0.00     0.173 A 
ATOM     98  C   UNL     1      -6.978   6.448   6.195  1.00  0.00     0.173 A 
ATOM     99  F   UNL     1      -4.453   3.852   6.458  1.00  0.00    -0.203 F 
ATOM    100  C   UNL     1      -4.458   6.059   7.208  1.00  0.00     0.198 A 
ATOM    101  C   UNL     1      -6.321   7.485   6.861  1.00  0.00     0.198 A 
ATOM    102  F   UNL     1      -8.232   6.740   5.834  1.00  0.00    -0.203 F 
ATOM    103  F   UNL     1      -3.251   5.846   7.753  1.00  0.00    -0.200 F 
ATOM    104  C   UNL     1      -5.067   7.286   7.386  1.00  0.00     0.200 A 
ATOM    105  F   UNL     1      -6.942   8.662   7.024  1.00  0.00    -0.200 F 
ATOM    106  F   UNL     1      -4.475   8.254   8.100  1.00  0.00    -0.200 F 
ENDBRANCH  73  96
ENDBRANCH  47  48
ENDBRANCH  40  42
ENDBRANCH  39  40
ENDBRANCH  38  39
ENDBRANCH  37  38
ENDBRANCH  36  37
ENDBRANCH  35  36
ENDBRANCH  34  35
ENDBRANCH  33  34
ENDBRANCH   1  33
TORSDOF 23
