REMARK SMILES O=C(COc1ccc(Br)cc1/C=C1\C(=O)Nc2ccc(Br)cc21)OCCOCCOCCOCCOC(=O)c1ccc(-c2c3nc(c(-c4c(F)c(F)c(F)c(F)c4F)c4ccc([nH]4)c(-c4c(F)c(F)c(F)c(F)c4F)c4nc(c(-c5c(F)c(F)c(F)c(F)c5F)c5ccc2[nH]5)C=C4)C=C3)cc1
REMARK SMILES IDX 29 1 28 2 27 3 26 4 25 5 24 6 2 7 1 8 3 9 4 10 5 11 6 12
REMARK SMILES IDX 11 13 7 14 10 15 8 16 9 17 12 18 13 19 14 20 23 21 15 22
REMARK SMILES IDX 16 23 17 24 22 25 18 27 20 28 19 29 21 30 30 31 31 32 32 33
REMARK SMILES IDX 33 34 34 35 35 36 36 37 37 38 38 39 39 40 40 41 101 42 41 43
REMARK SMILES IDX 100 44 42 45 43 46 44 47 94 48 45 49 99 50 93 51 95 52 46 53
REMARK SMILES IDX 98 54 92 55 91 56 47 58 79 59 59 60 78 61 60 62 63 63 77 64
REMARK SMILES IDX 96 65 61 66 62 67 76 69 97 70 64 71 48 72 49 73 57 74 50 75
REMARK SMILES IDX 51 76 55 77 58 78 52 79 53 80 56 81 54 82 80 83 81 84 89 85
REMARK SMILES IDX 82 86 83 87 87 88 90 89 84 90 85 91 88 92 86 93 65 94 66 95
REMARK SMILES IDX 74 96 67 97 68 98 72 99 75 100 69 101 70 102 73 103 71 104
REMARK H PARENT 16 26 95 57 63 68
REMARK Flexibility Score: inf
ROOT
ATOM      1  C   UNL     1       2.338   2.006   0.730  1.00  0.00     0.188 C 
ENDROOT
BRANCH   1   2
ATOM      2  C   UNL     1       2.998   1.010   1.697  1.00  0.00     0.188 C 
BRANCH   2   3
ATOM      3  O   UNL     1       4.391   0.806   1.497  1.00  0.00    -0.376 OA
BRANCH   3   4
ATOM      4  C   UNL     1       4.949  -0.002   0.481  1.00  0.00     0.202 C 
BRANCH   4   5
ATOM      5  C   UNL     1       4.205  -0.244  -0.828  1.00  0.00     0.261 C 
BRANCH   5   6
ATOM      6  O   UNL     1       2.826  -0.645  -0.714  1.00  0.00    -0.461 OA
BRANCH   6   7
ATOM      7  C   UNL     1       2.348  -1.659   0.041  1.00  0.00     0.344 C 
ATOM      8  O   UNL     1       1.140  -1.735   0.257  1.00  0.00    -0.248 OA
BRANCH   7   9
ATOM      9  C   UNL     1       3.334  -2.664   0.626  1.00  0.00     0.351 C 
BRANCH   9  10
ATOM     10  O   UNL     1       4.332  -3.173  -0.276  1.00  0.00    -0.481 OA
BRANCH  10  11
ATOM     11  C   UNL     1       3.702  -4.099  -1.090  1.00  0.00     0.127 A 
ATOM     12  C   UNL     1       2.951  -3.584  -2.161  1.00  0.00     0.048 A 
ATOM     13  C   UNL     1       3.619  -5.443  -0.685  1.00  0.00     0.018 A 
ATOM     14  C   UNL     1       1.919  -4.335  -2.700  1.00  0.00     0.019 A 
ATOM     15  C   UNL     1       2.509  -6.131  -1.189  1.00  0.00     0.027 A 
ATOM     16  C   UNL     1       1.669  -5.588  -2.169  1.00  0.00     0.018 A 
ATOM     17  Br  UNL     1       0.155  -6.565  -2.742  1.00  0.00    -0.051 Br
BRANCH  13  18
ATOM     18  C   UNL     1       4.593  -6.009   0.300  1.00  0.00     0.026 C 
ATOM     19  C   UNL     1       4.696  -7.254   0.809  1.00  0.00     0.050 C 
ATOM     20  C   UNL     1       3.759  -8.406   0.583  1.00  0.00     0.256 C 
ATOM     21  C   UNL     1       5.424  -7.598   2.044  1.00  0.00     0.012 A 
ATOM     22  O   UNL     1       3.339  -8.856  -0.463  1.00  0.00    -0.269 OA
ATOM     23  N   UNL     1       3.572  -8.938   1.845  1.00  0.00    -0.321 N 
ATOM     24  C   UNL     1       4.578  -8.504   2.702  1.00  0.00     0.049 A 
ATOM     25  C   UNL     1       6.681  -7.338   2.558  1.00  0.00     0.026 A 
ATOM     26  H   UNL     1       2.834  -9.538   2.100  1.00  0.00     0.170 HD
ATOM     27  C   UNL     1       4.838  -9.014   3.954  1.00  0.00     0.028 A 
ATOM     28  C   UNL     1       7.010  -7.937   3.784  1.00  0.00     0.018 A 
ATOM     29  C   UNL     1       6.082  -8.717   4.504  1.00  0.00     0.018 A 
ATOM     30  Br  UNL     1       8.772  -7.780   4.462  1.00  0.00    -0.051 Br
ENDBRANCH  13  18
ENDBRANCH  10  11
ENDBRANCH   9  10
ENDBRANCH   7   9
ENDBRANCH   6   7
ENDBRANCH   5   6
ENDBRANCH   4   5
ENDBRANCH   3   4
ENDBRANCH   2   3
ENDBRANCH   1   2
BRANCH   1  31
ATOM     31  O   UNL     1       2.860   3.334   0.782  1.00  0.00    -0.377 OA
BRANCH  31  32
ATOM     32  C   UNL     1       4.242   3.436   0.450  1.00  0.00     0.188 C 
BRANCH  32  33
ATOM     33  C   UNL     1       5.176   3.500   1.674  1.00  0.00     0.188 C 
BRANCH  33  34
ATOM     34  O   UNL     1       4.508   3.272   2.910  1.00  0.00    -0.376 OA
BRANCH  34  35
ATOM     35  C   UNL     1       4.244   4.424   3.702  1.00  0.00     0.202 C 
BRANCH  35  36
ATOM     36  C   UNL     1       3.188   5.389   3.145  1.00  0.00     0.261 C 
BRANCH  36  37
ATOM     37  O   UNL     1       3.511   6.019   1.893  1.00  0.00    -0.460 OA
BRANCH  37  38
ATOM     38  C   UNL     1       4.655   6.726   1.785  1.00  0.00     0.338 C 
ATOM     39  O   UNL     1       5.462   6.983   2.661  1.00  0.00    -0.246 OA
BRANCH  38  40
ATOM     40  C   UNL     1       4.876   6.938   0.338  1.00  0.00     0.060 A 
ATOM     41  C   UNL     1       3.838   7.412  -0.470  1.00  0.00     0.016 A 
ATOM     42  C   UNL     1       6.098   6.552  -0.231  1.00  0.00     0.016 A 
ATOM     43  C   UNL     1       4.026   7.513  -1.848  1.00  0.00     0.010 A 
ATOM     44  C   UNL     1       6.277   6.632  -1.614  1.00  0.00     0.010 A 
ATOM     45  C   UNL     1       5.248   7.132  -2.427  1.00  0.00    -0.014 A 
BRANCH  45  46
ATOM     46  C   UNL     1       5.512   7.469  -3.843  1.00  0.00     0.031 A 
ATOM     47  C   UNL     1       5.269   6.507  -4.962  1.00  0.00     0.074 A 
ATOM     48  C   UNL     1       5.956   8.713  -4.099  1.00  0.00     0.049 A 
ATOM     49  N   UNL     1       5.360   6.711  -6.252  1.00  0.00    -0.248 NA
ATOM     50  C   UNL     1       4.878   5.141  -4.591  1.00  0.00     0.031 C 
ATOM     51  C   UNL     1       6.218   9.728  -3.077  1.00  0.00     0.029 A 
ATOM     52  N   UNL     1       6.245   9.339  -5.281  1.00  0.00    -0.354 N 
ATOM     53  C   UNL     1       5.003   5.514  -6.854  1.00  0.00     0.074 A 
ATOM     54  C   UNL     1       4.746   4.570  -5.783  1.00  0.00     0.031 C 
ATOM     55  C   UNL     1       6.604  10.861  -3.679  1.00  0.00     0.029 A 
ATOM     56  C   UNL     1       6.631  10.645  -5.122  1.00  0.00     0.049 A 
ATOM     57  H   UNL     1       6.181   8.896  -6.158  1.00  0.00     0.167 HD
ATOM     58  C   UNL     1       4.885   5.243  -8.178  1.00  0.00     0.037 A 
ATOM     59  C   UNL     1       6.956  11.574  -6.038  1.00  0.00     0.037 A 
ATOM     60  C   UNL     1       5.177   6.183  -9.234  1.00  0.00     0.049 A 
ATOM     61  C   UNL     1       6.887  11.223  -7.493  1.00  0.00     0.074 A 
ATOM     62  C   UNL     1       5.080   6.003 -10.604  1.00  0.00     0.029 A 
ATOM     63  N   UNL     1       5.638   7.479  -9.038  1.00  0.00    -0.354 N 
ATOM     64  N   UNL     1       6.506  10.102  -8.054  1.00  0.00    -0.248 NA
ATOM     65  C   UNL     1       7.288  12.269  -8.442  1.00  0.00     0.031 C 
ATOM     66  C   UNL     1       5.526   7.170 -11.236  1.00  0.00     0.029 A 
ATOM     67  C   UNL     1       5.855   8.098 -10.261  1.00  0.00     0.049 A 
ATOM     68  H   UNL     1       5.789   7.897  -8.160  1.00  0.00     0.167 HD
ATOM     69  C   UNL     1       6.602  10.310  -9.422  1.00  0.00     0.074 A 
ATOM     70  C   UNL     1       7.062  11.673  -9.604  1.00  0.00     0.031 C 
ATOM     71  C   UNL     1       6.332   9.448 -10.433  1.00  0.00     0.037 A 
BRANCH  58  72
ATOM     72  C   UNL     1       4.409   3.873  -8.569  1.00  0.00     0.064 A 
ATOM     73  C   UNL     1       3.075   3.483  -8.372  1.00  0.00     0.173 A 
ATOM     74  C   UNL     1       5.266   2.968  -9.213  1.00  0.00     0.173 A 
ATOM     75  F   UNL     1       2.214   4.309  -7.758  1.00  0.00    -0.203 F 
ATOM     76  C   UNL     1       2.623   2.232  -8.787  1.00  0.00     0.198 A 
ATOM     77  C   UNL     1       4.805   1.728  -9.649  1.00  0.00     0.198 A 
ATOM     78  F   UNL     1       6.549   3.293  -9.435  1.00  0.00    -0.203 F 
ATOM     79  F   UNL     1       1.353   1.870  -8.558  1.00  0.00    -0.200 F 
ATOM     80  C   UNL     1       3.486   1.359  -9.432  1.00  0.00     0.200 A 
ATOM     81  F   UNL     1       5.637   0.890 -10.284  1.00  0.00    -0.200 F 
ATOM     82  F   UNL     1       3.047   0.160  -9.840  1.00  0.00    -0.200 F 
ENDBRANCH  58  72
BRANCH  59  83
ATOM     83  C   UNL     1       7.311  12.939  -5.583  1.00  0.00     0.064 A 
ATOM     84  C   UNL     1       6.418  14.003  -5.758  1.00  0.00     0.173 A 
ATOM     85  C   UNL     1       8.513  13.193  -4.906  1.00  0.00     0.173 A 
ATOM     86  F   UNL     1       5.263  13.806  -6.410  1.00  0.00    -0.203 F 
ATOM     87  C   UNL     1       6.713  15.274  -5.273  1.00  0.00     0.198 A 
ATOM     88  C   UNL     1       8.797  14.459  -4.401  1.00  0.00     0.198 A 
ATOM     89  F   UNL     1       9.393  12.201  -4.706  1.00  0.00    -0.203 F 
ATOM     90  F   UNL     1       5.850  16.279  -5.468  1.00  0.00    -0.200 F 
ATOM     91  C   UNL     1       7.898  15.498  -4.587  1.00  0.00     0.200 A 
ATOM     92  F   UNL     1       9.933  14.668  -3.723  1.00  0.00    -0.200 F 
ATOM     93  F   UNL     1       8.172  16.717  -4.102  1.00  0.00    -0.200 F 
ENDBRANCH  59  83
BRANCH  71  94
ATOM     94  C   UNL     1       6.527   9.957 -11.832  1.00  0.00     0.064 A 
ATOM     95  C   UNL     1       7.809  10.172 -12.359  1.00  0.00     0.173 A 
ATOM     96  C   UNL     1       5.425  10.207 -12.662  1.00  0.00     0.173 A 
ATOM     97  F   UNL     1       8.895   9.965 -11.599  1.00  0.00    -0.203 F 
ATOM     98  C   UNL     1       7.979  10.643 -13.659  1.00  0.00     0.198 A 
ATOM     99  C   UNL     1       5.599  10.651 -13.971  1.00  0.00     0.198 A 
ATOM    100  F   UNL     1       4.178  10.014 -12.208  1.00  0.00    -0.203 F 
ATOM    101  F   UNL     1       9.212  10.888 -14.125  1.00  0.00    -0.200 F 
ATOM    102  C   UNL     1       6.875  10.876 -14.465  1.00  0.00     0.200 A 
ATOM    103  F   UNL     1       4.532  10.865 -14.752  1.00  0.00    -0.200 F 
ATOM    104  F   UNL     1       7.041  11.325 -15.717  1.00  0.00    -0.200 F 
ENDBRANCH  71  94
ENDBRANCH  45  46
ENDBRANCH  38  40
ENDBRANCH  37  38
ENDBRANCH  36  37
ENDBRANCH  35  36
ENDBRANCH  34  35
ENDBRANCH  33  34
ENDBRANCH  32  33
ENDBRANCH  31  32
ENDBRANCH   1  31
TORSDOF 23
