REMARK SMILES COc1ccc(C(=O)N(C)C)cc1NC(=O)[C@H]1[C@@H](C(=O)OCCOCCOCCOCCOC(=O)c2ccc(-c3c4nc(c(-c5c(F)c(F)c(F)c(F)c5F)c5ccc([nH]5)c(-c5c(F)c(F)c(F)c(F)c5F)c5nc(c(-c6c(F)c(F)c(F)c(F)c6F)c6ccc3[nH]6)C=C5)C=C4)cc2)[C@H]2C=C[C@@H]1C2
REMARK SMILES IDX 26 1 25 2 24 3 23 4 22 5 21 6 19 7 20 8 18 9 17 10 102 11
REMARK SMILES IDX 99 12 101 13 103 14 100 15 15 16 14 17 16 19 13 20 3 21 4 22
REMARK SMILES IDX 5 23 12 24 6 25 2 26 1 27 7 28 8 29 9 30 10 31 11 32 27 33
REMARK SMILES IDX 28 34 29 35 30 36 31 37 32 38 33 39 34 40 35 41 36 42 37 43
REMARK SMILES IDX 98 44 38 45 97 46 39 47 40 48 41 49 91 50 42 51 96 52 90 53
REMARK SMILES IDX 92 54 43 55 95 56 89 57 88 58 44 60 76 61 56 62 75 63 57 64
REMARK SMILES IDX 60 65 74 66 93 67 58 68 59 69 73 71 94 72 61 73 45 74 46 75
REMARK SMILES IDX 54 76 47 77 48 78 52 79 55 80 49 81 50 82 53 83 51 84 77 85
REMARK SMILES IDX 78 86 86 87 79 88 80 89 84 90 87 91 81 92 82 93 85 94 83 95
REMARK SMILES IDX 62 96 63 97 71 98 64 99 65 100 69 101 72 102 66 103 67 104
REMARK SMILES IDX 70 105 68 106
REMARK H PARENT 14 18 92 59 60 70
REMARK Flexibility Score: inf
ROOT
ATOM      1  C   UNL     1       2.827  -0.439  -6.312  1.00  0.00     0.188 C 
ENDROOT
BRANCH   1   2
ATOM      2  C   UNL     1       3.277  -1.389  -7.421  1.00  0.00     0.188 C 
BRANCH   2   3
ATOM      3  O   UNL     1       2.317  -2.179  -8.088  1.00  0.00    -0.376 OA
BRANCH   3   4
ATOM      4  C   UNL     1       1.365  -2.889  -7.307  1.00  0.00     0.202 C 
BRANCH   4   5
ATOM      5  C   UNL     1       1.811  -3.743  -6.100  1.00  0.00     0.261 C 
BRANCH   5   6
ATOM      6  O   UNL     1       2.514  -3.051  -5.029  1.00  0.00    -0.463 OA
BRANCH   6   7
ATOM      7  C   UNL     1       3.824  -3.358  -4.916  1.00  0.00     0.310 C 
ATOM      8  O   UNL     1       4.322  -4.232  -5.626  1.00  0.00    -0.252 OA
BRANCH   7   9
ATOM      9  C   UNL     1       4.594  -2.717  -3.737  1.00  0.00     0.119 C 
ATOM     10  C   UNL     1       5.068  -1.210  -3.376  1.00  0.00     0.100 C 
ATOM     11  C   UNL     1       6.573  -1.323  -3.540  1.00  0.00     0.025 C 
ATOM     12  C   UNL     1       6.018  -3.423  -3.852  1.00  0.00     0.027 C 
ATOM     13  C   UNL     1       6.931  -1.640  -4.964  1.00  0.00    -0.027 C 
ATOM     14  C   UNL     1       6.872  -2.656  -2.871  1.00  0.00     0.017 C 
ATOM     15  C   UNL     1       6.665  -2.935  -5.137  1.00  0.00    -0.027 C 
BRANCH  10  16
ATOM     16  C   UNL     1       4.467   0.191  -3.665  1.00  0.00     0.229 C 
ATOM     17  N   UNL     1       5.023   1.230  -4.378  1.00  0.00    -0.323 N 
ATOM     18  H   UNL     1       4.362   1.938  -4.550  1.00  0.00     0.170 HD
ATOM     19  O   UNL     1       3.333   0.426  -3.217  1.00  0.00    -0.274 OA
BRANCH  17  20
ATOM     20  C   UNL     1       6.283   1.561  -4.931  1.00  0.00     0.084 A 
ATOM     21  C   UNL     1       6.318   2.107  -6.224  1.00  0.00     0.142 A 
ATOM     22  C   UNL     1       7.525   2.217  -6.912  1.00  0.00     0.049 A 
ATOM     23  C   UNL     1       8.709   1.821  -6.287  1.00  0.00     0.018 A 
ATOM     24  C   UNL     1       7.498   1.411  -4.252  1.00  0.00     0.044 A 
ATOM     25  C   UNL     1       8.720   1.407  -4.940  1.00  0.00     0.042 A 
BRANCH  21  26
ATOM     26  O   UNL     1       5.149   2.399  -6.878  1.00  0.00    -0.495 OA
ATOM     27  C   UNL     1       4.969   3.816  -6.980  1.00  0.00     0.278 C 
ENDBRANCH  21  26
BRANCH  25  28
ATOM     28  C   UNL     1      10.006   0.783  -4.448  1.00  0.00     0.253 C 
ATOM     29  O   UNL     1      10.963   0.813  -5.230  1.00  0.00    -0.269 OA
ATOM     30  N   UNL     1      10.116   0.058  -3.253  1.00  0.00    -0.345 N 
ATOM     31  C   UNL     1       9.484   0.370  -1.984  1.00  0.00     0.146 C 
ATOM     32  C   UNL     1      11.196  -0.917  -3.179  1.00  0.00     0.146 C 
ENDBRANCH  25  28
ENDBRANCH  17  20
ENDBRANCH  10  16
ENDBRANCH   7   9
ENDBRANCH   6   7
ENDBRANCH   5   6
ENDBRANCH   4   5
ENDBRANCH   3   4
ENDBRANCH   2   3
ENDBRANCH   1   2
BRANCH   1  33
ATOM     33  O   UNL     1       1.687  -0.790  -5.553  1.00  0.00    -0.377 OA
BRANCH  33  34
ATOM     34  C   UNL     1       0.508  -0.004  -5.592  1.00  0.00     0.188 C 
BRANCH  34  35
ATOM     35  C   UNL     1       0.397   1.005  -6.730  1.00  0.00     0.188 C 
BRANCH  35  36
ATOM     36  O   UNL     1       1.233   2.166  -6.694  1.00  0.00    -0.376 OA
BRANCH  36  37
ATOM     37  C   UNL     1       1.754   2.612  -5.445  1.00  0.00     0.202 C 
BRANCH  37  38
ATOM     38  C   UNL     1       0.983   3.764  -4.822  1.00  0.00     0.261 C 
BRANCH  38  39
ATOM     39  O   UNL     1      -0.183   3.250  -4.174  1.00  0.00    -0.460 OA
BRANCH  39  40
ATOM     40  C   UNL     1      -1.286   3.217  -4.946  1.00  0.00     0.338 C 
ATOM     41  O   UNL     1      -1.462   3.762  -6.026  1.00  0.00    -0.246 OA
BRANCH  40  42
ATOM     42  C   UNL     1      -2.211   2.228  -4.373  1.00  0.00     0.060 A 
ATOM     43  C   UNL     1      -2.915   1.409  -5.264  1.00  0.00     0.016 A 
ATOM     44  C   UNL     1      -2.386   2.105  -2.990  1.00  0.00     0.016 A 
ATOM     45  C   UNL     1      -3.835   0.493  -4.781  1.00  0.00     0.010 A 
ATOM     46  C   UNL     1      -3.331   1.208  -2.504  1.00  0.00     0.010 A 
ATOM     47  C   UNL     1      -4.087   0.443  -3.406  1.00  0.00    -0.014 A 
BRANCH  47  48
ATOM     48  C   UNL     1      -5.340  -0.187  -2.959  1.00  0.00     0.031 A 
ATOM     49  C   UNL     1      -6.546   0.697  -2.833  1.00  0.00     0.074 A 
ATOM     50  C   UNL     1      -5.404  -1.508  -2.744  1.00  0.00     0.049 A 
ATOM     51  N   UNL     1      -7.761   0.400  -2.455  1.00  0.00    -0.248 NA
ATOM     52  C   UNL     1      -6.355   2.115  -3.187  1.00  0.00     0.031 C 
ATOM     53  C   UNL     1      -4.297  -2.446  -2.914  1.00  0.00     0.029 A 
ATOM     54  N   UNL     1      -6.454  -2.285  -2.338  1.00  0.00    -0.354 N 
ATOM     55  C   UNL     1      -8.473   1.589  -2.529  1.00  0.00     0.074 A 
ATOM     56  C   UNL     1      -7.553   2.621  -2.946  1.00  0.00     0.031 C 
ATOM     57  C   UNL     1      -4.728  -3.682  -2.608  1.00  0.00     0.029 A 
ATOM     58  C   UNL     1      -6.126  -3.607  -2.188  1.00  0.00     0.049 A 
ATOM     59  H   UNL     1      -7.357  -1.930  -2.171  1.00  0.00     0.167 HD
ATOM     60  C   UNL     1      -9.787   1.794  -2.279  1.00  0.00     0.037 A 
ATOM     61  C   UNL     1      -6.879  -4.627  -1.737  1.00  0.00     0.037 A 
ATOM     62  C   UNL     1     -10.678   0.754  -1.842  1.00  0.00     0.049 A 
ATOM     63  C   UNL     1      -8.311  -4.350  -1.355  1.00  0.00     0.074 A 
ATOM     64  C   UNL     1     -12.023   0.839  -1.537  1.00  0.00     0.029 A 
ATOM     65  N   UNL     1     -10.299  -0.566  -1.637  1.00  0.00    -0.354 N 
ATOM     66  N   UNL     1      -8.989  -3.229  -1.428  1.00  0.00    -0.248 NA
ATOM     67  C   UNL     1      -9.082  -5.483  -0.830  1.00  0.00     0.031 C 
ATOM     68  C   UNL     1     -12.442  -0.418  -1.087  1.00  0.00     0.029 A 
ATOM     69  C   UNL     1     -11.378  -1.302  -1.179  1.00  0.00     0.049 A 
ATOM     70  H   UNL     1      -9.395  -0.925  -1.793  1.00  0.00     0.167 HD
ATOM     71  C   UNL     1     -10.273  -3.527  -0.993  1.00  0.00     0.074 A 
ATOM     72  C   UNL     1     -10.280  -4.940  -0.669  1.00  0.00     0.031 C 
ATOM     73  C   UNL     1     -11.352  -2.712  -0.874  1.00  0.00     0.037 A 
BRANCH  60  74
ATOM     74  C   UNL     1     -10.305   3.196  -2.426  1.00  0.00     0.064 A 
ATOM     75  C   UNL     1     -10.389   3.829  -3.677  1.00  0.00     0.173 A 
ATOM     76  C   UNL     1     -10.706   3.925  -1.298  1.00  0.00     0.173 A 
ATOM     77  F   UNL     1      -9.995   3.186  -4.787  1.00  0.00    -0.203 F 
ATOM     78  C   UNL     1     -10.820   5.149  -3.787  1.00  0.00     0.198 A 
ATOM     79  C   UNL     1     -11.171   5.232  -1.415  1.00  0.00     0.198 A 
ATOM     80  F   UNL     1     -10.642   3.372  -0.077  1.00  0.00    -0.203 F 
ATOM     81  F   UNL     1     -10.828   5.753  -4.983  1.00  0.00    -0.200 F 
ATOM     82  C   UNL     1     -11.217   5.847  -2.656  1.00  0.00     0.200 A 
ATOM     83  F   UNL     1     -11.563   5.902  -0.322  1.00  0.00    -0.200 F 
ATOM     84  F   UNL     1     -11.631   7.117  -2.762  1.00  0.00    -0.200 F 
ENDBRANCH  60  74
BRANCH  61  85
ATOM     85  C   UNL     1      -6.296  -5.989  -1.623  1.00  0.00     0.064 A 
ATOM     86  C   UNL     1      -6.750  -7.038  -2.434  1.00  0.00     0.173 A 
ATOM     87  C   UNL     1      -5.279  -6.272  -0.699  1.00  0.00     0.173 A 
ATOM     88  F   UNL     1      -7.734  -6.823  -3.319  1.00  0.00    -0.203 F 
ATOM     89  C   UNL     1      -6.222  -8.322  -2.311  1.00  0.00     0.198 A 
ATOM     90  C   UNL     1      -4.732  -7.549  -0.598  1.00  0.00     0.198 A 
ATOM     91  F   UNL     1      -4.809  -5.304   0.101  1.00  0.00    -0.203 F 
ATOM     92  F   UNL     1      -6.707  -9.317  -3.067  1.00  0.00    -0.200 F 
ATOM     93  C   UNL     1      -5.210  -8.575  -1.398  1.00  0.00     0.200 A 
ATOM     94  F   UNL     1      -3.743  -7.785   0.275  1.00  0.00    -0.200 F 
ATOM     95  F   UNL     1      -4.700  -9.809  -1.284  1.00  0.00    -0.200 F 
ENDBRANCH  61  85
BRANCH  73  96
ATOM     96  C   UNL     1     -12.638  -3.340  -0.418  1.00  0.00     0.064 A 
ATOM     97  C   UNL     1     -12.816  -3.793   0.897  1.00  0.00     0.173 A 
ATOM     98  C   UNL     1     -13.722  -3.448  -1.303  1.00  0.00     0.173 A 
ATOM     99  F   UNL     1     -11.806  -3.723   1.778  1.00  0.00    -0.203 F 
ATOM    100  C   UNL     1     -14.021  -4.362   1.300  1.00  0.00     0.198 A 
ATOM    101  C   UNL     1     -14.938  -3.981  -0.886  1.00  0.00     0.198 A 
ATOM    102  F   UNL     1     -13.608  -3.019  -2.569  1.00  0.00    -0.203 F 
ATOM    103  F   UNL     1     -14.149  -4.841   2.545  1.00  0.00    -0.200 F 
ATOM    104  C   UNL     1     -15.083  -4.447   0.412  1.00  0.00     0.200 A 
ATOM    105  F   UNL     1     -15.968  -4.044  -1.740  1.00  0.00    -0.200 F 
ATOM    106  F   UNL     1     -16.245  -4.986   0.805  1.00  0.00    -0.200 F 
ENDBRANCH  73  96
ENDBRANCH  47  48
ENDBRANCH  40  42
ENDBRANCH  39  40
ENDBRANCH  38  39
ENDBRANCH  37  38
ENDBRANCH  36  37
ENDBRANCH  35  36
ENDBRANCH  34  35
ENDBRANCH  33  34
ENDBRANCH   1  33
TORSDOF 24
