REMARK SMILES O=C(OCCOCCOCCOCCOC(=O)c1ccc(-c2ccc(Cl)cc2)cc1F)c1ccc(-c2c3nc(c(-c4c(F)c(F)c(F)c(F)c4F)c4ccc([nH]4)c(-c4c(F)c(F)c(F)c(F)c4F)c4nc(c(-c5c(F)c(F)c(F)c(F)c5F)c5ccc2[nH]5)C=C4)C=C3)cc1
REMARK SMILES IDX 8 1 7 2 6 3 5 4 4 5 3 6 2 7 1 8 32 9 33 10 94 11 34 12 93 13
REMARK SMILES IDX 35 14 36 15 37 16 87 17 38 18 92 19 86 20 88 21 39 22 91 23
REMARK SMILES IDX 85 24 84 25 40 27 72 28 52 29 71 30 53 31 56 32 70 33 89 34
REMARK SMILES IDX 54 35 55 36 69 38 90 39 57 40 41 41 42 42 50 43 43 44 44 45
REMARK SMILES IDX 48 46 51 47 45 48 46 49 49 50 47 51 73 52 74 53 82 54 75 55
REMARK SMILES IDX 76 56 80 57 83 58 77 59 78 60 81 61 79 62 58 63 59 64 67 65
REMARK SMILES IDX 60 66 61 67 65 68 68 69 62 70 63 71 66 72 64 73 9 74 10 75
REMARK SMILES IDX 11 76 12 77 13 78 14 79 15 80 16 81 17 82 18 83 19 84 30 85
REMARK SMILES IDX 20 86 29 87 31 88 21 89 22 90 23 91 28 92 24 93 27 94 25 95
REMARK SMILES IDX 26 96
REMARK H PARENT 88 26 56 37
REMARK Flexibility Score: inf
ROOT
ATOM      1  C   UNL     1       1.796   2.682  -0.700  1.00  0.00     0.188 C 
ENDROOT
BRANCH   1   2
ATOM      2  C   UNL     1       2.279   1.249  -0.930  1.00  0.00     0.188 C 
BRANCH   2   3
ATOM      3  O   UNL     1       3.611   1.057  -0.454  1.00  0.00    -0.376 OA
BRANCH   3   4
ATOM      4  C   UNL     1       4.478   0.261  -1.258  1.00  0.00     0.202 C 
BRANCH   4   5
ATOM      5  C   UNL     1       4.155  -1.233  -1.298  1.00  0.00     0.261 C 
BRANCH   5   6
ATOM      6  O   UNL     1       2.789  -1.543  -0.983  1.00  0.00    -0.460 OA
BRANCH   6   7
ATOM      7  C   UNL     1       2.218  -1.742   0.230  1.00  0.00     0.338 C 
ATOM      8  O   UNL     1       1.029  -2.056   0.270  1.00  0.00    -0.246 OA
BRANCH   7   9
ATOM      9  C   UNL     1       2.937  -1.607   1.533  1.00  0.00     0.060 A 
ATOM     10  C   UNL     1       4.045  -0.796   1.762  1.00  0.00     0.016 A 
ATOM     11  C   UNL     1       2.397  -2.293   2.633  1.00  0.00     0.016 A 
ATOM     12  C   UNL     1       4.659  -0.717   2.996  1.00  0.00     0.010 A 
ATOM     13  C   UNL     1       2.988  -2.204   3.897  1.00  0.00     0.010 A 
ATOM     14  C   UNL     1       4.145  -1.437   4.065  1.00  0.00    -0.014 A 
BRANCH  14  15
ATOM     15  C   UNL     1       4.987  -1.519   5.265  1.00  0.00     0.031 A 
ATOM     16  C   UNL     1       5.765  -2.783   5.466  1.00  0.00     0.074 A 
ATOM     17  C   UNL     1       5.201  -0.418   6.008  1.00  0.00     0.049 A 
ATOM     18  N   UNL     1       6.540  -3.130   6.455  1.00  0.00    -0.248 NA
ATOM     19  C   UNL     1       5.676  -3.789   4.390  1.00  0.00     0.031 C 
ATOM     20  C   UNL     1       4.627   0.904   5.740  1.00  0.00     0.029 A 
ATOM     21  N   UNL     1       5.995  -0.220   7.103  1.00  0.00    -0.354 N 
ATOM     22  C   UNL     1       6.999  -4.400   6.136  1.00  0.00     0.074 A 
ATOM     23  C   UNL     1       6.420  -4.773   4.869  1.00  0.00     0.031 C 
ATOM     24  C   UNL     1       5.112   1.782   6.632  1.00  0.00     0.029 A 
ATOM     25  C   UNL     1       5.956   1.067   7.582  1.00  0.00     0.049 A 
ATOM     26  H   UNL     1       6.541  -0.931   7.510  1.00  0.00     0.167 HD
ATOM     27  C   UNL     1       7.836  -5.176   6.856  1.00  0.00     0.037 A 
ATOM     28  C   UNL     1       6.512   1.581   8.694  1.00  0.00     0.037 A 
ATOM     29  C   UNL     1       8.401  -4.752   8.105  1.00  0.00     0.049 A 
ATOM     30  C   UNL     1       7.318   0.645   9.556  1.00  0.00     0.074 A 
ATOM     31  C   UNL     1       9.182  -5.467   8.989  1.00  0.00     0.029 A 
ATOM     32  N   UNL     1       8.243  -3.477   8.637  1.00  0.00    -0.354 N 
ATOM     33  N   UNL     1       7.657  -0.603   9.326  1.00  0.00    -0.248 NA
ATOM     34  C   UNL     1       7.798   1.171  10.838  1.00  0.00     0.031 C 
ATOM     35  C   UNL     1       9.458  -4.638  10.081  1.00  0.00     0.029 A 
ATOM     36  C   UNL     1       8.902  -3.388   9.847  1.00  0.00     0.049 A 
ATOM     37  H   UNL     1       7.737  -2.747   8.213  1.00  0.00     0.167 HD
ATOM     38  C   UNL     1       8.407  -1.006  10.419  1.00  0.00     0.074 A 
ATOM     39  C   UNL     1       8.489   0.140  11.306  1.00  0.00     0.031 C 
ATOM     40  C   UNL     1       8.972  -2.211  10.678  1.00  0.00     0.037 A 
BRANCH  27  41
ATOM     41  C   UNL     1       8.125  -6.554   6.346  1.00  0.00     0.064 A 
ATOM     42  C   UNL     1       7.576  -7.672   6.993  1.00  0.00     0.173 A 
ATOM     43  C   UNL     1       8.949  -6.778   5.234  1.00  0.00     0.173 A 
ATOM     44  F   UNL     1       6.767  -7.510   8.050  1.00  0.00    -0.203 F 
ATOM     45  C   UNL     1       7.859  -8.963   6.558  1.00  0.00     0.198 A 
ATOM     46  C   UNL     1       9.209  -8.072   4.785  1.00  0.00     0.198 A 
ATOM     47  F   UNL     1       9.467  -5.742   4.557  1.00  0.00    -0.203 F 
ATOM     48  F   UNL     1       7.340 -10.015   7.207  1.00  0.00    -0.200 F 
ATOM     49  C   UNL     1       8.673  -9.162   5.454  1.00  0.00     0.200 A 
ATOM     50  F   UNL     1       9.967  -8.262   3.696  1.00  0.00    -0.200 F 
ATOM     51  F   UNL     1       8.934 -10.406   5.028  1.00  0.00    -0.200 F 
ENDBRANCH  27  41
BRANCH  28  52
ATOM     52  C   UNL     1       6.283   3.002   9.073  1.00  0.00     0.064 A 
ATOM     53  C   UNL     1       4.995   3.485   9.361  1.00  0.00     0.173 A 
ATOM     54  C   UNL     1       7.346   3.911   9.170  1.00  0.00     0.173 A 
ATOM     55  F   UNL     1       3.937   2.663   9.292  1.00  0.00    -0.203 F 
ATOM     56  C   UNL     1       4.779   4.817   9.710  1.00  0.00     0.198 A 
ATOM     57  C   UNL     1       7.133   5.236   9.553  1.00  0.00     0.198 A 
ATOM     58  F   UNL     1       8.600   3.502   8.927  1.00  0.00    -0.203 F 
ATOM     59  F   UNL     1       3.534   5.252   9.948  1.00  0.00    -0.200 F 
ATOM     60  C   UNL     1       5.849   5.689   9.816  1.00  0.00     0.200 A 
ATOM     61  F   UNL     1       8.175   6.068   9.683  1.00  0.00    -0.200 F 
ATOM     62  F   UNL     1       5.646   6.963  10.180  1.00  0.00    -0.200 F 
ENDBRANCH  28  52
BRANCH  40  63
ATOM     63  C   UNL     1       9.761  -2.338  11.944  1.00  0.00     0.064 A 
ATOM     64  C   UNL     1      11.154  -2.501  11.888  1.00  0.00     0.173 A 
ATOM     65  C   UNL     1       9.133  -2.408  13.194  1.00  0.00     0.173 A 
ATOM     66  F   UNL     1      11.794  -2.455  10.710  1.00  0.00    -0.203 F 
ATOM     67  C   UNL     1      11.887  -2.756  13.040  1.00  0.00     0.198 A 
ATOM     68  C   UNL     1       9.875  -2.626  14.349  1.00  0.00     0.198 A 
ATOM     69  F   UNL     1       7.805  -2.246  13.293  1.00  0.00    -0.203 F 
ATOM     70  F   UNL     1      13.209  -2.961  12.959  1.00  0.00    -0.200 F 
ATOM     71  C   UNL     1      11.248  -2.814  14.270  1.00  0.00     0.200 A 
ATOM     72  F   UNL     1       9.262  -2.658  15.540  1.00  0.00    -0.200 F 
ATOM     73  F   UNL     1      11.956  -3.054  15.381  1.00  0.00    -0.200 F 
ENDBRANCH  40  63
ENDBRANCH  14  15
ENDBRANCH   7   9
ENDBRANCH   6   7
ENDBRANCH   5   6
ENDBRANCH   4   5
ENDBRANCH   3   4
ENDBRANCH   2   3
ENDBRANCH   1   2
BRANCH   1  74
ATOM     74  O   UNL     1       2.493   3.690  -1.428  1.00  0.00    -0.377 OA
BRANCH  74  75
ATOM     75  C   UNL     1       3.913   3.597  -1.442  1.00  0.00     0.188 C 
BRANCH  75  76
ATOM     76  C   UNL     1       4.677   3.673  -0.098  1.00  0.00     0.188 C 
BRANCH  76  77
ATOM     77  O   UNL     1       3.846   3.547   1.041  1.00  0.00    -0.376 OA
BRANCH  77  78
ATOM     78  C   UNL     1       3.525   4.736   1.750  1.00  0.00     0.202 C 
BRANCH  78  79
ATOM     79  C   UNL     1       2.982   5.981   1.017  1.00  0.00     0.261 C 
BRANCH  79  80
ATOM     80  O   UNL     1       3.467   6.233  -0.310  1.00  0.00    -0.460 OA
BRANCH  80  81
ATOM     81  C   UNL     1       4.640   6.895  -0.461  1.00  0.00     0.341 C 
ATOM     82  O   UNL     1       5.367   7.297   0.415  1.00  0.00    -0.246 OA
BRANCH  81  83
ATOM     83  C   UNL     1       5.024   6.788  -1.889  1.00  0.00     0.095 A 
ATOM     84  C   UNL     1       6.213   6.118  -2.219  1.00  0.00     0.019 A 
ATOM     85  C   UNL     1       4.182   7.229  -2.903  1.00  0.00     0.138 A 
ATOM     86  C   UNL     1       6.546   5.900  -3.560  1.00  0.00     0.010 A 
ATOM     87  C   UNL     1       4.533   7.049  -4.243  1.00  0.00     0.049 A 
ATOM     88  F   UNL     1       3.035   7.862  -2.618  1.00  0.00    -0.206 F 
ATOM     89  C   UNL     1       5.733   6.403  -4.588  1.00  0.00    -0.015 A 
BRANCH  89  90
ATOM     90  C   UNL     1       6.223   6.423  -5.970  1.00  0.00    -0.018 A 
ATOM     91  C   UNL     1       6.787   7.619  -6.450  1.00  0.00     0.010 A 
ATOM     92  C   UNL     1       6.198   5.307  -6.818  1.00  0.00     0.010 A 
ATOM     93  C   UNL     1       7.313   7.706  -7.738  1.00  0.00     0.021 A 
ATOM     94  C   UNL     1       6.723   5.393  -8.116  1.00  0.00     0.021 A 
ATOM     95  C   UNL     1       7.279   6.591  -8.567  1.00  0.00     0.041 A 
ATOM     96  Cl  UNL     1       7.932   6.696 -10.155  1.00  0.00    -0.084 Cl
ENDBRANCH  89  90
ENDBRANCH  81  83
ENDBRANCH  80  81
ENDBRANCH  79  80
ENDBRANCH  78  79
ENDBRANCH  77  78
ENDBRANCH  76  77
ENDBRANCH  75  76
ENDBRANCH  74  75
ENDBRANCH   1  74
TORSDOF 21
