REMARK SMILES CCC[N@@H+]1CC2(CC[NH+](C(=O)Cn3nnnc3C)CC2)C[C@H]1C(=O)OCCOCCOCCOCCOC(=O)c1ccc(-c2c3nc(c(-c4c(F)c(F)c(F)c(F)c4F)c4ccc([nH]4)c(-c4c(F)c(F)c(F)c(F)c4F)c4nc(c(-c5c(F)c(F)c(F)c(F)c5F)c5ccc2[nH]5)C=C4)C=C3)cc1
REMARK SMILES IDX 30 1 29 2 28 3 27 4 26 5 25 6 23 7 24 8 22 9 4 10 5 11 6 13
REMARK SMILES IDX 21 14 7 15 20 16 8 17 19 18 9 19 3 21 2 22 1 23 10 24 11 25
REMARK SMILES IDX 12 26 13 27 14 28 17 29 15 30 16 31 18 32 31 33 32 34 33 35
REMARK SMILES IDX 34 36 35 37 36 38 37 39 38 40 39 41 40 42 41 43 102 44 42 45
REMARK SMILES IDX 101 46 43 47 44 48 45 49 95 50 46 51 100 52 94 53 96 54
REMARK SMILES IDX 47 55 99 56 93 57 92 58 48 60 80 61 60 62 79 63 61 64 64 65
REMARK SMILES IDX 78 66 97 67 62 68 63 69 77 71 98 72 65 73 49 74 50 75 58 76
REMARK SMILES IDX 51 77 52 78 56 79 59 80 53 81 54 82 57 83 55 84 81 85 82 86
REMARK SMILES IDX 90 87 83 88 84 89 88 90 91 91 85 92 86 93 89 94 87 95 66 96
REMARK SMILES IDX 67 97 75 98 68 99 69 100 73 101 76 102 70 103 71 104 74 105
REMARK SMILES IDX 72 106
REMARK H PARENT 4 12 9 20 96 59 64 70
REMARK Flexibility Score: inf
ROOT
ATOM      1  C   UNL     1      -2.389   2.504   1.957  1.00  0.00     0.188 C 
ENDROOT
BRANCH   1   2
ATOM      2  C   UNL     1      -2.852   2.649   3.424  1.00  0.00     0.188 C 
BRANCH   2   3
ATOM      3  O   UNL     1      -3.463   3.846   3.901  1.00  0.00    -0.376 OA
BRANCH   3   4
ATOM      4  C   UNL     1      -3.065   5.109   3.392  1.00  0.00     0.202 C 
BRANCH   4   5
ATOM      5  C   UNL     1      -1.583   5.511   3.414  1.00  0.00     0.261 C 
BRANCH   5   6
ATOM      6  O   UNL     1      -0.651   4.440   3.208  1.00  0.00    -0.459 OA
BRANCH   6   7
ATOM      7  C   UNL     1      -0.101   3.906   4.326  1.00  0.00     0.365 C 
ATOM      8  O   UNL     1      -0.265   4.363   5.456  1.00  0.00    -0.245 OA
BRANCH   7   9
ATOM      9  C   UNL     1       0.806   2.683   4.077  1.00  0.00     0.295 C 
ATOM     10  N   UNL     1       0.717   2.039   2.734  1.00  0.00    -0.323 N 
ATOM     11  C   UNL     1       1.592   2.824   1.862  1.00  0.00     0.270 C 
ATOM     12  H   UNL     1      -0.247   2.045   2.401  1.00  0.00     0.348 HD
ATOM     13  C   UNL     1       2.691   3.434   2.753  1.00  0.00     0.036 C 
ATOM     14  C   UNL     1       2.243   3.142   4.196  1.00  0.00     0.091 C 
ATOM     15  C   UNL     1       2.791   4.950   2.472  1.00  0.00     0.075 C 
ATOM     16  C   UNL     1       4.069   2.773   2.531  1.00  0.00     0.075 C 
ATOM     17  C   UNL     1       3.390   5.215   1.092  1.00  0.00     0.271 C 
ATOM     18  C   UNL     1       4.672   3.111   1.175  1.00  0.00     0.271 C 
ATOM     19  N   UNL     1       4.693   4.555   0.983  1.00  0.00    -0.270 N 
ATOM     20  H   UNL     1       5.468   4.895   0.479  1.00  0.00     0.356 HD
BRANCH  10  21
ATOM     21  C   UNL     1       1.057   0.607   2.739  1.00  0.00     0.262 C 
BRANCH  21  22
ATOM     22  C   UNL     1       0.455  -0.220   1.579  1.00  0.00     0.058 C 
ATOM     23  C   UNL     1       0.904   0.129   0.166  1.00  0.00     0.010 C 
ENDBRANCH  21  22
ENDBRANCH  10  21
BRANCH  19  24
ATOM     24  C   UNL     1       5.897   5.173   0.677  1.00  0.00     0.333 C 
ATOM     25  O   UNL     1       6.964   4.553   0.652  1.00  0.00    -0.229 OA
BRANCH  24  26
ATOM     26  C   UNL     1       5.910   6.665   0.457  1.00  0.00     0.293 C 
BRANCH  26  27
ATOM     27  N   UNL     1       5.295   7.095  -0.778  1.00  0.00    -0.216 N 
ATOM     28  N   UNL     1       4.777   6.235  -1.672  1.00  0.00    -0.044 NA
ATOM     29  C   UNL     1       5.037   8.380  -1.181  1.00  0.00     0.149 A 
ATOM     30  N   UNL     1       4.195   6.989  -2.590  1.00  0.00    -0.024 NA
ATOM     31  N   UNL     1       4.345   8.320  -2.300  1.00  0.00    -0.114 NA
ATOM     32  C   UNL     1       5.467   9.602  -0.471  1.00  0.00     0.091 C 
ENDBRANCH  26  27
ENDBRANCH  24  26
ENDBRANCH  19  24
ENDBRANCH   7   9
ENDBRANCH   6   7
ENDBRANCH   5   6
ENDBRANCH   4   5
ENDBRANCH   3   4
ENDBRANCH   2   3
ENDBRANCH   1   2
BRANCH   1  33
ATOM     33  O   UNL     1      -2.452   3.682   1.174  1.00  0.00    -0.377 OA
BRANCH  33  34
ATOM     34  C   UNL     1      -3.538   3.736   0.262  1.00  0.00     0.188 C 
BRANCH  34  35
ATOM     35  C   UNL     1      -4.944   3.393   0.815  1.00  0.00     0.188 C 
BRANCH  35  36
ATOM     36  O   UNL     1      -4.988   2.279   1.704  1.00  0.00    -0.376 OA
BRANCH  36  37
ATOM     37  C   UNL     1      -5.505   1.020   1.303  1.00  0.00     0.202 C 
BRANCH  37  38
ATOM     38  C   UNL     1      -4.666   0.183   0.337  1.00  0.00     0.261 C 
BRANCH  38  39
ATOM     39  O   UNL     1      -4.115   0.929  -0.730  1.00  0.00    -0.460 OA
BRANCH  39  40
ATOM     40  C   UNL     1      -5.021   1.459  -1.572  1.00  0.00     0.338 C 
ATOM     41  O   UNL     1      -6.230   1.457  -1.458  1.00  0.00    -0.246 OA
BRANCH  40  42
ATOM     42  C   UNL     1      -4.305   1.945  -2.754  1.00  0.00     0.060 A 
ATOM     43  C   UNL     1      -5.109   2.533  -3.726  1.00  0.00     0.016 A 
ATOM     44  C   UNL     1      -3.038   1.406  -3.030  1.00  0.00     0.016 A 
ATOM     45  C   UNL     1      -4.805   2.249  -5.029  1.00  0.00     0.010 A 
ATOM     46  C   UNL     1      -2.747   1.105  -4.330  1.00  0.00     0.010 A 
ATOM     47  C   UNL     1      -3.701   1.427  -5.286  1.00  0.00    -0.014 A 
BRANCH  47  48
ATOM     48  C   UNL     1      -3.548   0.938  -6.629  1.00  0.00     0.031 A 
ATOM     49  C   UNL     1      -3.017   1.970  -7.528  1.00  0.00     0.074 A 
ATOM     50  C   UNL     1      -3.836  -0.328  -6.974  1.00  0.00     0.049 A 
ATOM     51  N   UNL     1      -3.668   2.626  -8.427  1.00  0.00    -0.248 NA
ATOM     52  C   UNL     1      -1.670   2.484  -7.245  1.00  0.00     0.031 C 
ATOM     53  C   UNL     1      -4.104  -1.483  -6.116  1.00  0.00     0.029 A 
ATOM     54  N   UNL     1      -3.870  -0.856  -8.222  1.00  0.00    -0.354 N 
ATOM     55  C   UNL     1      -2.743   3.506  -8.968  1.00  0.00     0.074 A 
ATOM     56  C   UNL     1      -1.621   3.529  -8.069  1.00  0.00     0.031 C 
ATOM     57  C   UNL     1      -4.049  -2.611  -6.864  1.00  0.00     0.029 A 
ATOM     58  C   UNL     1      -3.879  -2.240  -8.260  1.00  0.00     0.049 A 
ATOM     59  H   UNL     1      -3.888  -0.301  -9.034  1.00  0.00     0.167 HD
ATOM     60  C   UNL     1      -2.858   3.908 -10.260  1.00  0.00     0.037 A 
ATOM     61  C   UNL     1      -3.664  -2.989  -9.370  1.00  0.00     0.037 A 
ATOM     62  C   UNL     1      -4.201   3.709 -10.749  1.00  0.00     0.049 A 
ATOM     63  C   UNL     1      -3.912  -2.112 -10.550  1.00  0.00     0.074 A 
ATOM     64  C   UNL     1      -5.446   4.177 -10.373  1.00  0.00     0.029 A 
ATOM     65  N   UNL     1      -4.442   2.612 -11.542  1.00  0.00    -0.354 N 
ATOM     66  N   UNL     1      -5.090  -1.661 -10.882  1.00  0.00    -0.248 NA
ATOM     67  C   UNL     1      -2.785  -1.356 -11.080  1.00  0.00     0.031 C 
ATOM     68  C   UNL     1      -6.335   3.079 -10.567  1.00  0.00     0.029 A 
ATOM     69  C   UNL     1      -5.598   2.021 -11.100  1.00  0.00     0.049 A 
ATOM     70  H   UNL     1      -3.884   2.306 -12.293  1.00  0.00     0.167 HD
ATOM     71  C   UNL     1      -4.869  -0.352 -11.289  1.00  0.00     0.074 A 
ATOM     72  C   UNL     1      -3.423  -0.248 -11.469  1.00  0.00     0.031 C 
ATOM     73  C   UNL     1      -5.840   0.598 -11.156  1.00  0.00     0.037 A 
BRANCH  60  74
ATOM     74  C   UNL     1      -1.671   4.079 -11.173  1.00  0.00     0.064 A 
ATOM     75  C   UNL     1      -1.884   4.600 -12.462  1.00  0.00     0.173 A 
ATOM     76  C   UNL     1      -0.406   3.485 -10.958  1.00  0.00     0.173 A 
ATOM     77  F   UNL     1      -3.055   5.170 -12.782  1.00  0.00    -0.203 F 
ATOM     78  C   UNL     1      -0.939   4.454 -13.479  1.00  0.00     0.198 A 
ATOM     79  C   UNL     1       0.557   3.395 -11.958  1.00  0.00     0.198 A 
ATOM     80  F   UNL     1      -0.083   2.861  -9.820  1.00  0.00    -0.203 F 
ATOM     81  F   UNL     1      -1.242   4.841 -14.725  1.00  0.00    -0.200 F 
ATOM     82  C   UNL     1       0.278   3.846 -13.228  1.00  0.00     0.200 A 
ATOM     83  F   UNL     1       1.720   2.783 -11.696  1.00  0.00    -0.200 F 
ATOM     84  F   UNL     1       1.157   3.645 -14.217  1.00  0.00    -0.200 F 
ENDBRANCH  60  74
BRANCH  61  85
ATOM     85  C   UNL     1      -2.920  -4.266  -9.475  1.00  0.00     0.064 A 
ATOM     86  C   UNL     1      -3.007  -5.058 -10.632  1.00  0.00     0.173 A 
ATOM     87  C   UNL     1      -1.892  -4.593  -8.569  1.00  0.00     0.173 A 
ATOM     88  F   UNL     1      -3.927  -4.783 -11.568  1.00  0.00    -0.203 F 
ATOM     89  C   UNL     1      -2.103  -6.097 -10.880  1.00  0.00     0.198 A 
ATOM     90  C   UNL     1      -0.996  -5.635  -8.813  1.00  0.00     0.198 A 
ATOM     91  F   UNL     1      -1.673  -3.849  -7.476  1.00  0.00    -0.203 F 
ATOM     92  F   UNL     1      -2.178  -6.789 -12.025  1.00  0.00    -0.200 F 
ATOM     93  C   UNL     1      -1.093  -6.377  -9.975  1.00  0.00     0.200 A 
ATOM     94  F   UNL     1       0.000  -5.870  -7.948  1.00  0.00    -0.200 F 
ATOM     95  F   UNL     1      -0.189  -7.331 -10.241  1.00  0.00    -0.200 F 
ENDBRANCH  61  85
BRANCH  73  96
ATOM     96  C   UNL     1      -7.228   0.131 -10.812  1.00  0.00     0.064 A 
ATOM     97  C   UNL     1      -7.564  -0.522  -9.613  1.00  0.00     0.173 A 
ATOM     98  C   UNL     1      -8.278   0.477 -11.672  1.00  0.00     0.173 A 
ATOM     99  F   UNL     1      -6.631  -0.796  -8.692  1.00  0.00    -0.203 F 
ATOM    100  C   UNL     1      -8.885  -0.853  -9.315  1.00  0.00     0.198 A 
ATOM    101  C   UNL     1      -9.600   0.180 -11.355  1.00  0.00     0.198 A 
ATOM    102  F   UNL     1      -8.023   1.151 -12.805  1.00  0.00    -0.203 F 
ATOM    103  F   UNL     1      -9.178  -1.490  -8.171  1.00  0.00    -0.200 F 
ATOM    104  C   UNL     1      -9.902  -0.495 -10.184  1.00  0.00     0.200 A 
ATOM    105  F   UNL     1     -10.585   0.573 -12.174  1.00  0.00    -0.200 F 
ATOM    106  F   UNL     1     -11.178  -0.776  -9.880  1.00  0.00    -0.200 F 
ENDBRANCH  73  96
ENDBRANCH  47  48
ENDBRANCH  40  42
ENDBRANCH  39  40
ENDBRANCH  38  39
ENDBRANCH  37  38
ENDBRANCH  36  37
ENDBRANCH  35  36
ENDBRANCH  34  35
ENDBRANCH  33  34
ENDBRANCH   1  33
TORSDOF 25
