REMARK SMILES Cc1cccc2c1[C@H]1c3c(C)cccc3[C@H](CC(=O)OCCOCCOCCOCCOC(=O)c3ccc(-c4c5nc(c(-c6c(F)c(F)c(F)c(F)c6F)c6ccc([nH]6)c(-c6c(F)c(F)c(F)c(F)c6F)c6nc(c(-c7c(F)c(F)c(F)c(F)c7F)c7ccc4[nH]7)C=C6)C=C5)cc3)C[C@H]1CC2
REMARK SMILES IDX 27 1 26 2 25 3 24 4 23 5 22 6 21 7 20 8 18 9 19 10 17 11
REMARK SMILES IDX 16 12 1 13 2 14 3 15 7 16 4 17 6 18 8 19 5 20 101 21 9 22
REMARK SMILES IDX 99 23 100 24 10 25 15 26 98 27 12 28 11 29 14 30 13 31 28 32
REMARK SMILES IDX 29 33 30 34 31 35 32 36 33 37 34 38 35 39 36 40 97 41 37 42
REMARK SMILES IDX 96 43 38 44 39 45 40 46 90 47 41 48 95 49 89 50 91 51 42 52
REMARK SMILES IDX 94 53 88 54 87 55 43 57 75 58 55 59 74 60 56 61 59 62 73 63
REMARK SMILES IDX 92 64 57 65 58 66 72 68 93 69 60 70 44 71 45 72 53 73 46 74
REMARK SMILES IDX 47 75 51 76 54 77 48 78 49 79 52 80 50 81 76 82 77 83 85 84
REMARK SMILES IDX 78 85 79 86 83 87 86 88 80 89 81 90 84 91 82 92 61 93 62 94
REMARK SMILES IDX 70 95 63 96 64 97 68 98 71 99 65 100 66 101 69 102 67 103
REMARK H PARENT 91 56 59 67
REMARK Flexibility Score: inf
ROOT
ATOM      1  C   UNL     1      -3.266  -2.967   2.047  1.00  0.00     0.188 C 
ENDROOT
BRANCH   1   2
ATOM      2  O   UNL     1      -2.678  -4.115   1.445  1.00  0.00    -0.377 OA
BRANCH   2   3
ATOM      3  C   UNL     1      -3.313  -5.362   1.653  1.00  0.00     0.188 C 
BRANCH   3   4
ATOM      4  C   UNL     1      -2.618  -6.270   2.668  1.00  0.00     0.188 C 
BRANCH   4   5
ATOM      5  O   UNL     1      -2.209  -5.665   3.883  1.00  0.00    -0.376 OA
BRANCH   5   6
ATOM      6  C   UNL     1      -1.063  -4.814   3.844  1.00  0.00     0.202 C 
BRANCH   6   7
ATOM      7  C   UNL     1       0.162  -5.186   2.986  1.00  0.00     0.261 C 
BRANCH   7   8
ATOM      8  O   UNL     1      -0.047  -5.280   1.550  1.00  0.00    -0.463 OA
BRANCH   8   9
ATOM      9  C   UNL     1       0.740  -6.204   0.935  1.00  0.00     0.306 C 
ATOM     10  O   UNL     1       1.539  -6.914   1.547  1.00  0.00    -0.252 OA
BRANCH   9  11
ATOM     11  C   UNL     1       0.458  -6.493  -0.534  1.00  0.00     0.131 C 
BRANCH  11  12
ATOM     12  C   UNL     1       0.346  -5.457  -1.673  1.00  0.00     0.031 C 
ATOM     13  C   UNL     1       1.936   0.007  -0.589  1.00  0.00     0.044 C 
ATOM     14  C   UNL     1       1.334   0.018  -1.965  1.00  0.00    -0.047 A 
ATOM     15  C   UNL     1       1.175   1.270  -2.587  1.00  0.00     0.004 A 
ATOM     16  C   UNL     1       0.947  -1.159  -2.650  1.00  0.00    -0.034 A 
ATOM     17  C   UNL     1       0.645   1.369  -3.867  1.00  0.00     0.001 A 
ATOM     18  C   UNL     1       0.536  -1.056  -3.997  1.00  0.00    -0.044 A 
ATOM     19  C   UNL     1       0.871  -2.527  -1.962  1.00  0.00     0.053 C 
ATOM     20  C   UNL     1       0.350   0.211  -4.577  1.00  0.00     0.004 A 
ATOM     21  C   UNL     1       0.312  -2.274  -4.860  1.00  0.00     0.036 C 
ATOM     22  C   UNL     1      -0.541  -3.042  -1.605  1.00  0.00    -0.034 A 
ATOM     23  C   UNL     1       1.506  -3.542  -2.939  1.00  0.00     0.002 C 
ATOM     24  C   UNL     1       0.665  -3.637  -4.239  1.00  0.00     0.009 C 
ATOM     25  C   UNL     1      -1.657  -2.204  -1.470  1.00  0.00    -0.047 A 
ATOM     26  C   UNL     1      -0.770  -4.446  -1.563  1.00  0.00    -0.040 A 
ATOM     27  C   UNL     1       1.678  -4.872  -2.174  1.00  0.00     0.013 C 
ATOM     28  C   UNL     1      -2.942  -2.737  -1.636  1.00  0.00     0.004 A 
ATOM     29  C   UNL     1      -1.594  -0.747  -1.152  1.00  0.00     0.044 C 
ATOM     30  C   UNL     1      -2.081  -4.951  -1.644  1.00  0.00     0.004 A 
ATOM     31  C   UNL     1      -3.161  -4.097  -1.740  1.00  0.00     0.001 A 
ENDBRANCH  11  12
ENDBRANCH   9  11
ENDBRANCH   8   9
ENDBRANCH   7   8
ENDBRANCH   6   7
ENDBRANCH   5   6
ENDBRANCH   4   5
ENDBRANCH   3   4
ENDBRANCH   2   3
ENDBRANCH   1   2
BRANCH   1  32
ATOM     32  C   UNL     1      -4.766  -2.753   1.855  1.00  0.00     0.188 C 
BRANCH  32  33
ATOM     33  O   UNL     1      -5.113  -2.771   0.475  1.00  0.00    -0.376 OA
BRANCH  33  34
ATOM     34  C   UNL     1      -6.369  -2.155   0.208  1.00  0.00     0.202 C 
BRANCH  34  35
ATOM     35  C   UNL     1      -6.187  -0.986  -0.770  1.00  0.00     0.261 C 
BRANCH  35  36
ATOM     36  O   UNL     1      -5.079  -0.114  -0.461  1.00  0.00    -0.460 OA
BRANCH  36  37
ATOM     37  C   UNL     1      -5.101   0.505   0.744  1.00  0.00     0.338 C 
ATOM     38  O   UNL     1      -5.997   0.483   1.556  1.00  0.00    -0.246 OA
BRANCH  37  39
ATOM     39  C   UNL     1      -3.782   1.142   0.995  1.00  0.00     0.060 A 
ATOM     40  C   UNL     1      -3.191   0.977   2.255  1.00  0.00     0.016 A 
ATOM     41  C   UNL     1      -3.142   1.914   0.020  1.00  0.00     0.016 A 
ATOM     42  C   UNL     1      -1.998   1.640   2.567  1.00  0.00     0.010 A 
ATOM     43  C   UNL     1      -1.931   2.550   0.321  1.00  0.00     0.010 A 
ATOM     44  C   UNL     1      -1.392   2.476   1.620  1.00  0.00    -0.014 A 
BRANCH  44  45
ATOM     45  C   UNL     1      -0.424   3.519   2.061  1.00  0.00     0.031 A 
ATOM     46  C   UNL     1      -0.953   4.922   2.220  1.00  0.00     0.074 A 
ATOM     47  C   UNL     1       0.864   3.267   2.356  1.00  0.00     0.049 A 
ATOM     48  N   UNL     1      -0.323   6.026   2.533  1.00  0.00    -0.248 NA
ATOM     49  C   UNL     1      -2.398   5.099   1.999  1.00  0.00     0.031 C 
ATOM     50  C   UNL     1       1.499   1.955   2.347  1.00  0.00     0.029 A 
ATOM     51  N   UNL     1       1.879   4.127   2.708  1.00  0.00    -0.354 N 
ATOM     52  C   UNL     1      -1.299   7.013   2.563  1.00  0.00     0.074 A 
ATOM     53  C   UNL     1      -2.541   6.404   2.148  1.00  0.00     0.031 C 
ATOM     54  C   UNL     1       2.809   2.100   2.620  1.00  0.00     0.029 A 
ATOM     55  C   UNL     1       3.102   3.517   2.838  1.00  0.00     0.049 A 
ATOM     56  H   UNL     1       1.741   5.091   2.852  1.00  0.00     0.167 HD
ATOM     57  C   UNL     1      -1.192   8.304   2.953  1.00  0.00     0.037 A 
ATOM     58  C   UNL     1       4.316   4.041   3.100  1.00  0.00     0.037 A 
ATOM     59  C   UNL     1       0.030   8.924   3.374  1.00  0.00     0.049 A 
ATOM     60  C   UNL     1       4.451   5.517   3.379  1.00  0.00     0.074 A 
ATOM     61  C   UNL     1       0.236  10.226   3.793  1.00  0.00     0.029 A 
ATOM     62  N   UNL     1       1.258   8.284   3.426  1.00  0.00    -0.354 N 
ATOM     63  N   UNL     1       3.520   6.438   3.431  1.00  0.00    -0.248 NA
ATOM     64  C   UNL     1       5.804   6.022   3.663  1.00  0.00     0.031 C 
ATOM     65  C   UNL     1       1.600  10.386   4.055  1.00  0.00     0.029 A 
ATOM     66  C   UNL     1       2.234   9.172   3.845  1.00  0.00     0.049 A 
ATOM     67  H   UNL     1       1.414   7.339   3.198  1.00  0.00     0.167 HD
ATOM     68  C   UNL     1       4.162   7.615   3.797  1.00  0.00     0.074 A 
ATOM     69  C   UNL     1       5.566   7.296   3.946  1.00  0.00     0.031 C 
ATOM     70  C   UNL     1       3.629   8.844   4.005  1.00  0.00     0.037 A 
BRANCH  57  71
ATOM     71  C   UNL     1      -2.452   9.117   2.942  1.00  0.00     0.064 A 
ATOM     72  C   UNL     1      -3.483   8.875   3.864  1.00  0.00     0.173 A 
ATOM     73  C   UNL     1      -2.641  10.131   1.994  1.00  0.00     0.173 A 
ATOM     74  F   UNL     1      -3.358   7.899   4.777  1.00  0.00    -0.203 F 
ATOM     75  C   UNL     1      -4.674   9.592   3.809  1.00  0.00     0.198 A 
ATOM     76  C   UNL     1      -3.821  10.868   1.963  1.00  0.00     0.198 A 
ATOM     77  F   UNL     1      -1.686  10.400   1.091  1.00  0.00    -0.203 F 
ATOM     78  F   UNL     1      -5.671   9.296   4.655  1.00  0.00    -0.200 F 
ATOM     79  C   UNL     1      -4.840  10.591   2.862  1.00  0.00     0.200 A 
ATOM     80  F   UNL     1      -3.978  11.839   1.053  1.00  0.00    -0.200 F 
ATOM     81  F   UNL     1      -5.989  11.278   2.807  1.00  0.00    -0.200 F 
ENDBRANCH  57  71
BRANCH  58  82
ATOM     82  C   UNL     1       5.506   3.153   3.153  1.00  0.00     0.064 A 
ATOM     83  C   UNL     1       6.106   2.829   4.377  1.00  0.00     0.173 A 
ATOM     84  C   UNL     1       6.064   2.610   1.987  1.00  0.00     0.173 A 
ATOM     85  F   UNL     1       5.624   3.348   5.515  1.00  0.00    -0.203 F 
ATOM     86  C   UNL     1       7.222   1.996   4.433  1.00  0.00     0.198 A 
ATOM     87  C   UNL     1       7.171   1.763   2.046  1.00  0.00     0.198 A 
ATOM     88  F   UNL     1       5.532   2.897   0.790  1.00  0.00    -0.203 F 
ATOM     89  F   UNL     1       7.792   1.723   5.615  1.00  0.00    -0.200 F 
ATOM     90  C   UNL     1       7.749   1.458   3.269  1.00  0.00     0.200 A 
ATOM     91  F   UNL     1       7.676   1.243   0.919  1.00  0.00    -0.200 F 
ATOM     92  F   UNL     1       8.818   0.652   3.325  1.00  0.00    -0.200 F 
ENDBRANCH  58  82
BRANCH  70  93
ATOM     93  C   UNL     1       4.543   9.947   4.452  1.00  0.00     0.064 A 
ATOM     94  C   UNL     1       5.447  10.555   3.571  1.00  0.00     0.173 A 
ATOM     95  C   UNL     1       4.436  10.472   5.751  1.00  0.00     0.173 A 
ATOM     96  F   UNL     1       5.594  10.085   2.324  1.00  0.00    -0.203 F 
ATOM     97  C   UNL     1       6.215  11.645   3.975  1.00  0.00     0.198 A 
ATOM     98  C   UNL     1       5.184  11.579   6.141  1.00  0.00     0.198 A 
ATOM     99  F   UNL     1       3.578   9.932   6.629  1.00  0.00    -0.203 F 
ATOM    100  F   UNL     1       7.091  12.197   3.123  1.00  0.00    -0.200 F 
ATOM    101  C   UNL     1       6.074  12.164   5.254  1.00  0.00     0.200 A 
ATOM    102  F   UNL     1       5.032  12.089   7.371  1.00  0.00    -0.200 F 
ATOM    103  F   UNL     1       6.796  13.228   5.631  1.00  0.00    -0.200 F 
ENDBRANCH  70  93
ENDBRANCH  44  45
ENDBRANCH  37  39
ENDBRANCH  36  37
ENDBRANCH  35  36
ENDBRANCH  34  35
ENDBRANCH  33  34
ENDBRANCH  32  33
ENDBRANCH   1  32
TORSDOF 21
