REMARK SMILES CCC[NH2+][C@@]1(C(=O)OCCOCCOCCOCCOC(=O)c2ccc(-c3c4nc(c(-c5c(F)c(F)c(F)c(F)c5F)c5ccc([nH]5)c(-c5c(F)c(F)c(F)c(F)c5F)c5nc(c(-c6c(F)c(F)c(F)c(F)c6F)c6ccc3[nH]6)C=C5)C=C4)cc2)CCC[C@@H]1CCOC
REMARK SMILES IDX 13 1 12 2 11 3 10 4 9 5 8 6 6 7 7 8 5 9 86 10 89 11 87 12
REMARK SMILES IDX 88 13 4 14 3 17 2 18 1 19 90 20 91 21 92 22 93 23 14 24
REMARK SMILES IDX 15 25 16 26 17 27 18 28 19 29 20 30 21 31 22 32 23 33 24 34
REMARK SMILES IDX 85 35 25 36 84 37 26 38 27 39 28 40 78 41 29 42 83 43 77 44
REMARK SMILES IDX 79 45 30 46 82 47 76 48 75 49 31 51 63 52 43 53 62 54 44 55
REMARK SMILES IDX 47 56 61 57 80 58 45 59 46 60 60 62 81 63 48 64 32 65 33 66
REMARK SMILES IDX 41 67 34 68 35 69 39 70 42 71 36 72 37 73 40 74 38 75 64 76
REMARK SMILES IDX 65 77 73 78 66 79 67 80 71 81 74 82 68 83 69 84 72 85 70 86
REMARK SMILES IDX 49 87 50 88 58 89 51 90 52 91 56 92 59 93 53 94 54 95 57 96
REMARK SMILES IDX 55 97
REMARK H PARENT 4 15 4 16 79 50 47 61
REMARK Flexibility Score: inf
ROOT
ATOM      1  C   UNL     1       1.181  -0.144   4.873  1.00  0.00     0.188 C 
ENDROOT
BRANCH   1   2
ATOM      2  C   UNL     1      -0.302  -0.488   4.704  1.00  0.00     0.188 C 
BRANCH   2   3
ATOM      3  O   UNL     1      -1.001  -0.838   5.898  1.00  0.00    -0.376 OA
BRANCH   3   4
ATOM      4  C   UNL     1      -0.463  -1.887   6.700  1.00  0.00     0.202 C 
BRANCH   4   5
ATOM      5  C   UNL     1      -0.358  -3.300   6.091  1.00  0.00     0.261 C 
BRANCH   5   6
ATOM      6  O   UNL     1       0.480  -3.435   4.916  1.00  0.00    -0.459 OA
BRANCH   6   7
ATOM      7  C   UNL     1      -0.188  -3.701   3.764  1.00  0.00     0.368 C 
ATOM      8  O   UNL     1      -1.412  -3.830   3.718  1.00  0.00    -0.245 OA
BRANCH   7   9
ATOM      9  C   UNL     1       0.697  -3.788   2.462  1.00  0.00     0.197 C 
ATOM     10  C   UNL     1       0.314  -5.174   1.874  1.00  0.00     0.081 C 
ATOM     11  C   UNL     1       2.241  -3.997   2.521  1.00  0.00     0.065 C 
ATOM     12  C   UNL     1       1.122  -6.155   2.728  1.00  0.00     0.008 C 
ATOM     13  C   UNL     1       2.417  -5.420   3.079  1.00  0.00     0.011 C 
BRANCH   9  14
ATOM     14  N   UNL     1       0.317  -2.600   1.659  1.00  0.00    -0.332 N 
ATOM     15  H   UNL     1      -0.642  -2.360   1.911  1.00  0.00     0.347 HD
ATOM     16  H   UNL     1       1.029  -1.906   1.887  1.00  0.00     0.347 HD
BRANCH  14  17
ATOM     17  C   UNL     1       0.368  -2.696   0.210  1.00  0.00     0.261 C 
BRANCH  17  18
ATOM     18  C   UNL     1      -0.182  -1.441  -0.489  1.00  0.00     0.058 C 
ATOM     19  C   UNL     1       0.399  -0.103  -0.051  1.00  0.00     0.010 C 
ENDBRANCH  17  18
ENDBRANCH  14  17
ENDBRANCH   9  14
BRANCH  11  20
ATOM     20  C   UNL     1       3.141  -2.954   3.197  1.00  0.00     0.039 C 
BRANCH  20  21
ATOM     21  C   UNL     1       4.513  -2.779   2.514  1.00  0.00     0.160 C 
BRANCH  21  22
ATOM     22  O   UNL     1       4.622  -1.548   1.789  1.00  0.00    -0.385 OA
ATOM     23  C   UNL     1       3.821  -1.506   0.619  1.00  0.00     0.194 C 
ENDBRANCH  21  22
ENDBRANCH  20  21
ENDBRANCH  11  20
ENDBRANCH   7   9
ENDBRANCH   6   7
ENDBRANCH   5   6
ENDBRANCH   4   5
ENDBRANCH   3   4
ENDBRANCH   2   3
ENDBRANCH   1   2
BRANCH   1  24
ATOM     24  O   UNL     1       1.903  -1.266   5.364  1.00  0.00    -0.377 OA
BRANCH  24  25
ATOM     25  C   UNL     1       2.921  -1.104   6.344  1.00  0.00     0.188 C 
BRANCH  25  26
ATOM     26  C   UNL     1       3.175   0.304   6.874  1.00  0.00     0.188 C 
BRANCH  26  27
ATOM     27  O   UNL     1       3.631   1.266   5.923  1.00  0.00    -0.376 OA
BRANCH  27  28
ATOM     28  C   UNL     1       4.468   0.818   4.856  1.00  0.00     0.202 C 
BRANCH  28  29
ATOM     29  C   UNL     1       5.939   0.605   5.217  1.00  0.00     0.261 C 
BRANCH  29  30
ATOM     30  O   UNL     1       6.125  -0.486   6.136  1.00  0.00    -0.460 OA
BRANCH  30  31
ATOM     31  C   UNL     1       6.328  -0.112   7.420  1.00  0.00     0.338 C 
ATOM     32  O   UNL     1       6.393   1.020   7.863  1.00  0.00    -0.246 OA
BRANCH  31  33
ATOM     33  C   UNL     1       6.310  -1.297   8.297  1.00  0.00     0.060 A 
ATOM     34  C   UNL     1       5.522  -1.233   9.453  1.00  0.00     0.016 A 
ATOM     35  C   UNL     1       7.142  -2.393   8.060  1.00  0.00     0.016 A 
ATOM     36  C   UNL     1       5.621  -2.229  10.414  1.00  0.00     0.010 A 
ATOM     37  C   UNL     1       7.250  -3.391   9.033  1.00  0.00     0.010 A 
ATOM     38  C   UNL     1       6.530  -3.279  10.236  1.00  0.00    -0.014 A 
BRANCH  38  39
ATOM     39  C   UNL     1       6.854  -4.123  11.408  1.00  0.00     0.031 A 
ATOM     40  C   UNL     1       8.086  -3.802  12.209  1.00  0.00     0.074 A 
ATOM     41  C   UNL     1       6.004  -5.082  11.808  1.00  0.00     0.049 A 
ATOM     42  N   UNL     1       8.526  -4.348  13.313  1.00  0.00    -0.248 NA
ATOM     43  C   UNL     1       8.934  -2.711  11.699  1.00  0.00     0.031 C 
ATOM     44  C   UNL     1       4.759  -5.439  11.131  1.00  0.00     0.029 A 
ATOM     45  N   UNL     1       6.053  -5.919  12.892  1.00  0.00    -0.354 N 
ATOM     46  C   UNL     1       9.697  -3.669  13.629  1.00  0.00     0.074 A 
ATOM     47  C   UNL     1       9.921  -2.698  12.581  1.00  0.00     0.031 C 
ATOM     48  C   UNL     1       4.155  -6.421  11.821  1.00  0.00     0.029 A 
ATOM     49  C   UNL     1       4.986  -6.777  12.970  1.00  0.00     0.049 A 
ATOM     50  H   UNL     1       6.784  -5.906  13.552  1.00  0.00     0.167 HD
ATOM     51  C   UNL     1      10.503  -3.834  14.704  1.00  0.00     0.037 A 
ATOM     52  C   UNL     1       4.719  -7.745  13.867  1.00  0.00     0.037 A 
ATOM     53  C   UNL     1      10.270  -4.806  15.740  1.00  0.00     0.049 A 
ATOM     54  C   UNL     1       5.666  -7.948  15.021  1.00  0.00     0.074 A 
ATOM     55  C   UNL     1      11.020  -5.059  16.875  1.00  0.00     0.029 A 
ATOM     56  N   UNL     1       9.202  -5.694  15.761  1.00  0.00    -0.354 N 
ATOM     57  N   UNL     1       6.761  -7.292  15.323  1.00  0.00    -0.248 NA
ATOM     58  C   UNL     1       5.328  -9.018  15.968  1.00  0.00     0.031 C 
ATOM     59  C   UNL     1      10.440  -6.138  17.551  1.00  0.00     0.029 A 
ATOM     60  C   UNL     1       9.289  -6.513  16.876  1.00  0.00     0.049 A 
ATOM     61  H   UNL     1       8.489  -5.736  15.084  1.00  0.00     0.167 HD
ATOM     62  C   UNL     1       7.226  -7.848  16.508  1.00  0.00     0.074 A 
ATOM     63  C   UNL     1       6.279  -8.879  16.880  1.00  0.00     0.031 C 
ATOM     64  C   UNL     1       8.335  -7.535  17.226  1.00  0.00     0.037 A 
BRANCH  51  65
ATOM     65  C   UNL     1      11.729  -2.970  14.793  1.00  0.00     0.064 A 
ATOM     66  C   UNL     1      11.651  -1.590  15.038  1.00  0.00     0.173 A 
ATOM     67  C   UNL     1      13.006  -3.537  14.653  1.00  0.00     0.173 A 
ATOM     68  F   UNL     1      10.456  -0.993  15.162  1.00  0.00    -0.203 F 
ATOM     69  C   UNL     1      12.801  -0.807  15.113  1.00  0.00     0.198 A 
ATOM     70  C   UNL     1      14.155  -2.757  14.761  1.00  0.00     0.198 A 
ATOM     71  F   UNL     1      13.141  -4.850  14.418  1.00  0.00    -0.203 F 
ATOM     72  F   UNL     1      12.699   0.516  15.295  1.00  0.00    -0.200 F 
ATOM     73  C   UNL     1      14.052  -1.392  14.983  1.00  0.00     0.200 A 
ATOM     74  F   UNL     1      15.362  -3.327  14.648  1.00  0.00    -0.200 F 
ATOM     75  F   UNL     1      15.158  -0.640  15.062  1.00  0.00    -0.200 F 
ENDBRANCH  51  65
BRANCH  52  76
ATOM     76  C   UNL     1       3.508  -8.591  13.709  1.00  0.00     0.064 A 
ATOM     77  C   UNL     1       2.454  -8.536  14.631  1.00  0.00     0.173 A 
ATOM     78  C   UNL     1       3.387  -9.487  12.635  1.00  0.00     0.173 A 
ATOM     79  F   UNL     1       2.530  -7.712  15.686  1.00  0.00    -0.203 F 
ATOM     80  C   UNL     1       1.337  -9.360  14.499  1.00  0.00     0.198 A 
ATOM     81  C   UNL     1       2.256 -10.286  12.485  1.00  0.00     0.198 A 
ATOM     82  F   UNL     1       4.365  -9.577  11.722  1.00  0.00    -0.203 F 
ATOM     83  F   UNL     1       0.369  -9.325  15.424  1.00  0.00    -0.200 F 
ATOM     84  C   UNL     1       1.236 -10.229  13.423  1.00  0.00     0.200 A 
ATOM     85  F   UNL     1       2.156 -11.111  11.435  1.00  0.00    -0.200 F 
ATOM     86  F   UNL     1       0.161 -11.018  13.294  1.00  0.00    -0.200 F 
ENDBRANCH  52  76
BRANCH  64  87
ATOM     87  C   UNL     1       8.553  -8.293  18.507  1.00  0.00     0.064 A 
ATOM     88  C   UNL     1       8.870  -9.659  18.516  1.00  0.00     0.173 A 
ATOM     89  C   UNL     1       8.444  -7.638  19.744  1.00  0.00     0.173 A 
ATOM     90  F   UNL     1       8.976 -10.336  17.362  1.00  0.00    -0.203 F 
ATOM     91  C   UNL     1       9.018 -10.353  19.714  1.00  0.00     0.198 A 
ATOM     92  C   UNL     1       8.632  -8.326  20.939  1.00  0.00     0.198 A 
ATOM     93  F   UNL     1       8.155  -6.329  19.794  1.00  0.00    -0.203 F 
ATOM     94  F   UNL     1       9.245 -11.674  19.698  1.00  0.00    -0.200 F 
ATOM     95  C   UNL     1       8.904  -9.685  20.924  1.00  0.00     0.200 A 
ATOM     96  F   UNL     1       8.540  -7.674  22.107  1.00  0.00    -0.200 F 
ATOM     97  F   UNL     1       9.043 -10.355  22.076  1.00  0.00    -0.200 F 
ENDBRANCH  64  87
ENDBRANCH  38  39
ENDBRANCH  31  33
ENDBRANCH  30  31
ENDBRANCH  29  30
ENDBRANCH  28  29
ENDBRANCH  27  28
ENDBRANCH  26  27
ENDBRANCH  25  26
ENDBRANCH  24  25
ENDBRANCH   1  24
TORSDOF 26
