REMARK SMILES O=C(OCCOCCOCCOCCOC(=O)c1ccc(-c2c3nc(c(-c4c(F)c(F)c(F)c(F)c4F)c4ccc([nH]4)c(-c4c(F)c(F)c(F)c(F)c4F)c4nc(c(-c5c(F)c(F)c(F)c(F)c5F)c5ccc2[nH]5)C=C4)C=C3)cc1)C1=C[C@H]2C=C[C@@H]1[C@@H]1C=C[C@H]21
REMARK SMILES IDX 10 1 9 2 8 3 7 4 6 5 5 6 4 7 3 8 2 9 1 10 81 11 82 12 86 13
REMARK SMILES IDX 83 14 85 15 87 16 84 17 90 18 88 19 89 20 11 21 12 22 13 23
REMARK SMILES IDX 14 24 15 25 16 26 17 27 18 28 19 29 80 30 20 31 79 32 21 33
REMARK SMILES IDX 22 34 23 35 73 36 24 37 78 38 72 39 74 40 25 41 77 42 71 43
REMARK SMILES IDX 70 44 26 46 58 47 38 48 57 49 39 50 42 51 56 52 75 53 40 54
REMARK SMILES IDX 41 55 55 57 76 58 43 59 27 60 28 61 36 62 29 63 30 64 34 65
REMARK SMILES IDX 37 66 31 67 32 68 35 69 33 70 59 71 60 72 68 73 61 74 62 75
REMARK SMILES IDX 66 76 69 77 63 78 64 79 67 80 65 81 44 82 45 83 53 84 46 85
REMARK SMILES IDX 47 86 51 87 54 88 48 89 49 90 52 91 50 92
REMARK H PARENT 74 45 42 56
REMARK Flexibility Score: inf
ROOT
ATOM      1  C   UNL     1       4.576  -0.345   3.316  1.00  0.00     0.188 C 
ENDROOT
BRANCH   1   2
ATOM      2  O   UNL     1       3.217   0.014   3.511  1.00  0.00    -0.377 OA
BRANCH   2   3
ATOM      3  C   UNL     1       2.262  -0.567   2.644  1.00  0.00     0.188 C 
BRANCH   3   4
ATOM      4  C   UNL     1       2.506  -0.517   1.131  1.00  0.00     0.188 C 
BRANCH   4   5
ATOM      5  O   UNL     1       3.741  -1.021   0.645  1.00  0.00    -0.376 OA
BRANCH   5   6
ATOM      6  C   UNL     1       4.687  -0.228  -0.059  1.00  0.00     0.202 C 
BRANCH   6   7
ATOM      7  C   UNL     1       4.331   1.187  -0.469  1.00  0.00     0.261 C 
BRANCH   7   8
ATOM      8  O   UNL     1       3.268   1.419  -1.424  1.00  0.00    -0.460 OA
BRANCH   8   9
ATOM      9  C   UNL     1       2.488   0.597  -2.143  1.00  0.00     0.334 C 
ATOM     10  O   UNL     1       1.383   0.972  -2.525  1.00  0.00    -0.247 OA
BRANCH   9  11
ATOM     11  C   UNL     1       2.919  -0.754  -2.491  1.00  0.00     0.041 C 
ATOM     12  C   UNL     1       3.664  -1.116  -3.566  1.00  0.00    -0.007 C 
ATOM     13  C   UNL     1       2.164  -1.917  -1.865  1.00  0.00     0.056 C 
ATOM     14  C   UNL     1       3.658  -2.644  -3.848  1.00  0.00     0.042 C 
ATOM     15  C   UNL     1       3.203  -2.998  -1.520  1.00  0.00    -0.022 C 
ATOM     16  C   UNL     1       1.262  -2.402  -3.034  1.00  0.00     0.031 C 
ATOM     17  C   UNL     1       4.010  -3.342  -2.544  1.00  0.00    -0.022 C 
ATOM     18  C   UNL     1       2.158  -3.015  -4.155  1.00  0.00     0.030 C 
ATOM     19  C   UNL     1       0.601  -3.752  -2.930  1.00  0.00    -0.026 C 
ATOM     20  C   UNL     1       1.534  -4.353  -3.698  1.00  0.00    -0.026 C 
ENDBRANCH   9  11
ENDBRANCH   8   9
ENDBRANCH   7   8
ENDBRANCH   6   7
ENDBRANCH   5   6
ENDBRANCH   4   5
ENDBRANCH   3   4
ENDBRANCH   2   3
ENDBRANCH   1   2
BRANCH   1  21
ATOM     21  C   UNL     1       4.994  -1.824   3.099  1.00  0.00     0.188 C 
BRANCH  21  22
ATOM     22  O   UNL     1       3.970  -2.696   2.639  1.00  0.00    -0.376 OA
BRANCH  22  23
ATOM     23  C   UNL     1       3.796  -3.906   3.363  1.00  0.00     0.202 C 
BRANCH  23  24
ATOM     24  C   UNL     1       2.935  -3.745   4.625  1.00  0.00     0.261 C 
BRANCH  24  25
ATOM     25  O   UNL     1       3.348  -2.672   5.487  1.00  0.00    -0.460 OA
BRANCH  25  26
ATOM     26  C   UNL     1       4.521  -2.858   6.134  1.00  0.00     0.338 C 
ATOM     27  O   UNL     1       5.209  -3.857   6.129  1.00  0.00    -0.246 OA
BRANCH  26  28
ATOM     28  C   UNL     1       4.965  -1.549   6.664  1.00  0.00     0.060 A 
ATOM     29  C   UNL     1       6.276  -1.138   6.382  1.00  0.00     0.016 A 
ATOM     30  C   UNL     1       4.113  -0.736   7.415  1.00  0.00     0.016 A 
ATOM     31  C   UNL     1       6.753   0.067   6.887  1.00  0.00     0.010 A 
ATOM     32  C   UNL     1       4.604   0.456   7.955  1.00  0.00     0.010 A 
ATOM     33  C   UNL     1       5.941   0.832   7.733  1.00  0.00    -0.014 A 
BRANCH  33  34
ATOM     34  C   UNL     1       6.602   1.818   8.619  1.00  0.00     0.031 A 
ATOM     35  C   UNL     1       7.030   1.337   9.980  1.00  0.00     0.074 A 
ATOM     36  C   UNL     1       6.896   3.062   8.209  1.00  0.00     0.049 A 
ATOM     37  N   UNL     1       7.675   1.968  10.926  1.00  0.00    -0.248 NA
ATOM     38  C   UNL     1       6.684  -0.055  10.317  1.00  0.00     0.031 C 
ATOM     39  C   UNL     1       6.579   3.622   6.899  1.00  0.00     0.029 A 
ATOM     40  N   UNL     1       7.546   4.079   8.864  1.00  0.00    -0.354 N 
ATOM     41  C   UNL     1       7.806   1.054  11.964  1.00  0.00     0.074 A 
ATOM     42  C   UNL     1       7.141  -0.161  11.553  1.00  0.00     0.031 C 
ATOM     43  C   UNL     1       7.036   4.886   6.844  1.00  0.00     0.029 A 
ATOM     44  C   UNL     1       7.657   5.228   8.124  1.00  0.00     0.049 A 
ATOM     45  H   UNL     1       7.898   3.991   9.780  1.00  0.00     0.167 HD
ATOM     46  C   UNL     1       8.435   1.208  13.152  1.00  0.00     0.037 A 
ATOM     47  C   UNL     1       8.195   6.419   8.454  1.00  0.00     0.037 A 
ATOM     48  C   UNL     1       9.092   2.420  13.559  1.00  0.00     0.049 A 
ATOM     49  C   UNL     1       8.828   6.588   9.815  1.00  0.00     0.074 A 
ATOM     50  C   UNL     1       9.767   2.681  14.736  1.00  0.00     0.029 A 
ATOM     51  N   UNL     1       9.144   3.579  12.799  1.00  0.00    -0.354 N 
ATOM     52  N   UNL     1       8.975   5.713  10.780  1.00  0.00    -0.248 NA
ATOM     53  C   UNL     1       9.382   7.914  10.123  1.00  0.00     0.031 C 
ATOM     54  C   UNL     1      10.171   4.020  14.717  1.00  0.00     0.029 A 
ATOM     55  C   UNL     1       9.818   4.569  13.494  1.00  0.00     0.049 A 
ATOM     56  H   UNL     1       8.758   3.683  11.899  1.00  0.00     0.167 HD
ATOM     57  C   UNL     1       9.678   6.365  11.787  1.00  0.00     0.074 A 
ATOM     58  C   UNL     1       9.934   7.707  11.310  1.00  0.00     0.031 C 
ATOM     59  C   UNL     1      10.081   5.895  12.995  1.00  0.00     0.037 A 
BRANCH  46  60
ATOM     60  C   UNL     1       8.400   0.050  14.106  1.00  0.00     0.064 A 
ATOM     61  C   UNL     1       9.093  -1.145  13.854  1.00  0.00     0.173 A 
ATOM     62  C   UNL     1       7.663   0.140  15.297  1.00  0.00     0.173 A 
ATOM     63  F   UNL     1       9.794  -1.294  12.720  1.00  0.00    -0.203 F 
ATOM     64  C   UNL     1       9.024  -2.215  14.743  1.00  0.00     0.198 A 
ATOM     65  C   UNL     1       7.626  -0.917  16.201  1.00  0.00     0.198 A 
ATOM     66  F   UNL     1       6.980   1.258  15.586  1.00  0.00    -0.203 F 
ATOM     67  F   UNL     1       9.644  -3.367  14.453  1.00  0.00    -0.200 F 
ATOM     68  C   UNL     1       8.298  -2.097  15.919  1.00  0.00     0.200 A 
ATOM     69  F   UNL     1       6.934  -0.797  17.341  1.00  0.00    -0.200 F 
ATOM     70  F   UNL     1       8.237  -3.125  16.777  1.00  0.00    -0.200 F 
ENDBRANCH  46  60
BRANCH  47  71
ATOM     71  C   UNL     1       8.171   7.549   7.486  1.00  0.00     0.064 A 
ATOM     72  C   UNL     1       9.356   8.063   6.939  1.00  0.00     0.173 A 
ATOM     73  C   UNL     1       6.965   8.165   7.118  1.00  0.00     0.173 A 
ATOM     74  F   UNL     1      10.537   7.527   7.279  1.00  0.00    -0.203 F 
ATOM     75  C   UNL     1       9.338   9.166   6.087  1.00  0.00     0.198 A 
ATOM     76  C   UNL     1       6.946   9.247   6.240  1.00  0.00     0.198 A 
ATOM     77  F   UNL     1       5.803   7.717   7.614  1.00  0.00    -0.203 F 
ATOM     78  F   UNL     1      10.491   9.673   5.628  1.00  0.00    -0.200 F 
ATOM     79  C   UNL     1       8.133   9.754   5.734  1.00  0.00     0.200 A 
ATOM     80  F   UNL     1       5.779   9.805   5.892  1.00  0.00    -0.200 F 
ATOM     81  F   UNL     1       8.117  10.815   4.916  1.00  0.00    -0.200 F 
ENDBRANCH  47  71
BRANCH  59  82
ATOM     82  C   UNL     1      10.906   6.812  13.856  1.00  0.00     0.064 A 
ATOM     83  C   UNL     1      10.372   7.966  14.447  1.00  0.00     0.173 A 
ATOM     84  C   UNL     1      12.254   6.509  14.113  1.00  0.00     0.173 A 
ATOM     85  F   UNL     1       9.093   8.306  14.229  1.00  0.00    -0.203 F 
ATOM     86  C   UNL     1      11.166   8.805  15.225  1.00  0.00     0.198 A 
ATOM     87  C   UNL     1      13.033   7.328  14.925  1.00  0.00     0.198 A 
ATOM     88  F   UNL     1      12.814   5.410  13.586  1.00  0.00    -0.203 F 
ATOM     89  F   UNL     1      10.652   9.938  15.723  1.00  0.00    -0.200 F 
ATOM     90  C   UNL     1      12.493   8.482  15.469  1.00  0.00     0.200 A 
ATOM     91  F   UNL     1      14.308   7.001  15.176  1.00  0.00    -0.200 F 
ATOM     92  F   UNL     1      13.254   9.290  16.220  1.00  0.00    -0.200 F 
ENDBRANCH  59  82
ENDBRANCH  33  34
ENDBRANCH  26  28
ENDBRANCH  25  26
ENDBRANCH  24  25
ENDBRANCH  23  24
ENDBRANCH  22  23
ENDBRANCH  21  22
ENDBRANCH   1  21
TORSDOF 20
