REMARK SMILES O=C(OCCOCCOCCOCCOC(=O)c1ccccc1-c1ccccc1C(=O)NCCc1ccccc1)c1ccc(-c2c3nc(c(-c4c(F)c(F)c(F)c(F)c4F)c4ccc([nH]4)c(-c4c(F)c(F)c(F)c(F)c4F)c4nc(c(-c5c(F)c(F)c(F)c(F)c5F)c5ccc2[nH]5)C=C4)C=C3)cc1
REMARK SMILES IDX 10 1 9 2 8 3 7 4 6 5 5 6 4 7 3 8 2 9 1 10 41 11 42 12 103 13
REMARK SMILES IDX 43 14 102 15 44 16 45 17 46 18 96 19 47 20 101 21 95 22
REMARK SMILES IDX 97 23 48 24 100 25 94 26 93 27 49 29 81 30 61 31 80 32 62 33
REMARK SMILES IDX 65 34 79 35 98 36 63 37 64 38 78 40 99 41 66 42 50 43 51 44
REMARK SMILES IDX 59 45 52 46 53 47 57 48 60 49 54 50 55 51 58 52 56 53 82 54
REMARK SMILES IDX 83 55 91 56 84 57 85 58 89 59 92 60 86 61 87 62 90 63 88 64
REMARK SMILES IDX 67 65 68 66 76 67 69 68 70 69 74 70 77 71 71 72 72 73 75 74
REMARK SMILES IDX 73 75 11 76 12 77 13 78 14 79 15 80 16 81 17 82 18 83 19 84
REMARK SMILES IDX 23 85 20 86 22 87 21 88 24 89 25 90 29 91 26 92 28 93 27 94
REMARK SMILES IDX 30 95 31 96 32 97 33 99 34 100 35 101 36 102 40 103 37 104
REMARK SMILES IDX 39 105 38 106
REMARK H PARENT 97 28 65 39 32 98
REMARK Flexibility Score: inf
ROOT
ATOM      1  C   UNL     1       3.501   3.145  -0.810  1.00  0.00     0.188 C 
ENDROOT
BRANCH   1   2
ATOM      2  O   UNL     1       2.085   3.166  -0.712  1.00  0.00    -0.377 OA
BRANCH   2   3
ATOM      3  C   UNL     1       1.485   2.000  -0.165  1.00  0.00     0.188 C 
BRANCH   3   4
ATOM      4  C   UNL     1       1.988   0.705  -0.795  1.00  0.00     0.188 C 
BRANCH   4   5
ATOM      5  O   UNL     1       3.332   0.445  -0.375  1.00  0.00    -0.376 OA
BRANCH   5   6
ATOM      6  C   UNL     1       4.200  -0.085  -1.375  1.00  0.00     0.202 C 
BRANCH   6   7
ATOM      7  C   UNL     1       4.125  -1.604  -1.503  1.00  0.00     0.261 C 
BRANCH   7   8
ATOM      8  O   UNL     1       2.821  -2.117  -1.196  1.00  0.00    -0.460 OA
BRANCH   8   9
ATOM      9  C   UNL     1       2.291  -2.395   0.022  1.00  0.00     0.338 C 
ATOM     10  O   UNL     1       1.125  -2.789   0.062  1.00  0.00    -0.246 OA
BRANCH   9  11
ATOM     11  C   UNL     1       3.027  -2.287   1.325  1.00  0.00     0.060 A 
ATOM     12  C   UNL     1       4.179  -1.535   1.561  1.00  0.00     0.016 A 
ATOM     13  C   UNL     1       2.481  -2.994   2.414  1.00  0.00     0.016 A 
ATOM     14  C   UNL     1       4.817  -1.538   2.790  1.00  0.00     0.010 A 
ATOM     15  C   UNL     1       3.115  -3.010   3.661  1.00  0.00     0.010 A 
ATOM     16  C   UNL     1       4.316  -2.316   3.827  1.00  0.00    -0.014 A 
BRANCH  16  17
ATOM     17  C   UNL     1       5.239  -2.586   4.940  1.00  0.00     0.031 A 
ATOM     18  C   UNL     1       6.025  -3.863   4.873  1.00  0.00     0.074 A 
ATOM     19  C   UNL     1       5.533  -1.617   5.823  1.00  0.00     0.049 A 
ATOM     20  N   UNL     1       6.904  -4.347   5.707  1.00  0.00    -0.248 NA
ATOM     21  C   UNL     1       5.814  -4.697   3.674  1.00  0.00     0.031 C 
ATOM     22  C   UNL     1       4.949  -0.274   5.822  1.00  0.00     0.029 A 
ATOM     23  N   UNL     1       6.431  -1.593   6.854  1.00  0.00    -0.354 N 
ATOM     24  C   UNL     1       7.331  -5.542   5.144  1.00  0.00     0.074 A 
ATOM     25  C   UNL     1       6.622  -5.718   3.900  1.00  0.00     0.031 C 
ATOM     26  C   UNL     1       5.519   0.450   6.800  1.00  0.00     0.029 A 
ATOM     27  C   UNL     1       6.449  -0.401   7.535  1.00  0.00     0.049 A 
ATOM     28  H   UNL     1       7.008  -2.356   7.085  1.00  0.00     0.167 HD
ATOM     29  C   UNL     1       8.235  -6.417   5.639  1.00  0.00     0.037 A 
ATOM     30  C   UNL     1       7.117  -0.069   8.655  1.00  0.00     0.037 A 
ATOM     31  C   UNL     1       8.907  -6.212   6.890  1.00  0.00     0.049 A 
ATOM     32  C   UNL     1       8.013  -1.117   9.264  1.00  0.00     0.074 A 
ATOM     33  C   UNL     1       9.727  -7.071   7.593  1.00  0.00     0.029 A 
ATOM     34  N   UNL     1       8.825  -5.034   7.625  1.00  0.00    -0.354 N 
ATOM     35  N   UNL     1       8.314  -2.313   8.811  1.00  0.00    -0.248 NA
ATOM     36  C   UNL     1       8.645  -0.785  10.546  1.00  0.00     0.031 C 
ATOM     37  C   UNL     1      10.115  -6.423   8.772  1.00  0.00     0.029 A 
ATOM     38  C   UNL     1       9.576  -5.144   8.779  1.00  0.00     0.049 A 
ATOM     39  H   UNL     1       8.308  -4.239   7.361  1.00  0.00     0.167 HD
ATOM     40  C   UNL     1       9.173  -2.874   9.744  1.00  0.00     0.074 A 
ATOM     41  C   UNL     1       9.369  -1.872  10.775  1.00  0.00     0.031 C 
ATOM     42  C   UNL     1       9.741  -4.106   9.765  1.00  0.00     0.037 A 
BRANCH  29  43
ATOM     43  C   UNL     1       8.452  -7.679   4.861  1.00  0.00     0.064 A 
ATOM     44  C   UNL     1       9.153  -7.691   3.645  1.00  0.00     0.173 A 
ATOM     45  C   UNL     1       7.883  -8.884   5.301  1.00  0.00     0.173 A 
ATOM     46  F   UNL     1       9.680  -6.556   3.159  1.00  0.00    -0.203 F 
ATOM     47  C   UNL     1       9.252  -8.855   2.886  1.00  0.00     0.198 A 
ATOM     48  C   UNL     1       8.004 -10.051   4.551  1.00  0.00     0.198 A 
ATOM     49  F   UNL     1       7.187  -8.923   6.446  1.00  0.00    -0.203 F 
ATOM     50  F   UNL     1       9.870  -8.828   1.697  1.00  0.00    -0.200 F 
ATOM     51  C   UNL     1       8.679 -10.034   3.340  1.00  0.00     0.200 A 
ATOM     52  F   UNL     1       7.444 -11.187   4.988  1.00  0.00    -0.200 F 
ATOM     53  F   UNL     1       8.760 -11.149   2.600  1.00  0.00    -0.200 F 
ENDBRANCH  29  43
BRANCH  30  54
ATOM     54  C   UNL     1       6.899   1.253   9.306  1.00  0.00     0.064 A 
ATOM     55  C   UNL     1       7.942   2.174   9.475  1.00  0.00     0.173 A 
ATOM     56  C   UNL     1       5.636   1.609   9.809  1.00  0.00     0.173 A 
ATOM     57  F   UNL     1       9.175   1.878   9.039  1.00  0.00    -0.203 F 
ATOM     58  C   UNL     1       7.736   3.384  10.139  1.00  0.00     0.198 A 
ATOM     59  C   UNL     1       5.423   2.833  10.440  1.00  0.00     0.198 A 
ATOM     60  F   UNL     1       4.601   0.765   9.686  1.00  0.00    -0.203 F 
ATOM     61  F   UNL     1       8.765   4.219  10.340  1.00  0.00    -0.200 F 
ATOM     62  C   UNL     1       6.476   3.715  10.616  1.00  0.00     0.200 A 
ATOM     63  F   UNL     1       4.200   3.149  10.888  1.00  0.00    -0.200 F 
ATOM     64  F   UNL     1       6.281   4.875  11.258  1.00  0.00    -0.200 F 
ENDBRANCH  30  54
BRANCH  42  65
ATOM     65  C   UNL     1      10.639  -4.410  10.923  1.00  0.00     0.064 A 
ATOM     66  C   UNL     1      10.123  -4.661  12.201  1.00  0.00     0.173 A 
ATOM     67  C   UNL     1      12.026  -4.495  10.736  1.00  0.00     0.173 A 
ATOM     68  F   UNL     1       8.803  -4.576  12.426  1.00  0.00    -0.203 F 
ATOM     69  C   UNL     1      10.970  -4.964  13.262  1.00  0.00     0.198 A 
ATOM     70  C   UNL     1      12.866  -4.827  11.792  1.00  0.00     0.198 A 
ATOM     71  F   UNL     1      12.560  -4.270   9.526  1.00  0.00    -0.203 F 
ATOM     72  F   UNL     1      10.463  -5.156  14.487  1.00  0.00    -0.200 F 
ATOM     73  C   UNL     1      12.339  -5.054  13.054  1.00  0.00     0.200 A 
ATOM     74  F   UNL     1      14.187  -4.927  11.588  1.00  0.00    -0.200 F 
ATOM     75  F   UNL     1      13.152  -5.354  14.076  1.00  0.00    -0.200 F 
ENDBRANCH  42  65
ENDBRANCH  16  17
ENDBRANCH   9  11
ENDBRANCH   8   9
ENDBRANCH   7   8
ENDBRANCH   6   7
ENDBRANCH   5   6
ENDBRANCH   4   5
ENDBRANCH   3   4
ENDBRANCH   2   3
ENDBRANCH   1   2
BRANCH   1  76
ATOM     76  C   UNL     1       4.340   2.997   0.478  1.00  0.00     0.188 C 
BRANCH  76  77
ATOM     77  O   UNL     1       3.571   2.919   1.669  1.00  0.00    -0.376 OA
BRANCH  77  78
ATOM     78  C   UNL     1       3.527   4.106   2.452  1.00  0.00     0.202 C 
BRANCH  78  79
ATOM     79  C   UNL     1       2.720   5.276   1.867  1.00  0.00     0.261 C 
BRANCH  79  80
ATOM     80  O   UNL     1       3.071   5.716   0.543  1.00  0.00    -0.460 OA
BRANCH  80  81
ATOM     81  C   UNL     1       4.335   6.102   0.310  1.00  0.00     0.338 C 
ATOM     82  O   UNL     1       5.270   6.090   1.111  1.00  0.00    -0.246 OA
BRANCH  81  83
ATOM     83  C   UNL     1       4.480   6.429  -1.130  1.00  0.00     0.067 A 
ATOM     84  C   UNL     1       5.338   5.652  -1.936  1.00  0.00     0.016 A 
ATOM     85  C   UNL     1       3.877   7.579  -1.655  1.00  0.00    -0.003 A 
ATOM     86  C   UNL     1       5.498   5.939  -3.290  1.00  0.00     0.001 A 
ATOM     87  C   UNL     1       4.019   7.830  -3.037  1.00  0.00     0.009 A 
ATOM     88  C   UNL     1       4.816   7.015  -3.846  1.00  0.00     0.001 A 
BRANCH  85  89
ATOM     89  C   UNL     1       3.095   8.477  -0.805  1.00  0.00    -0.005 A 
ATOM     90  C   UNL     1       1.706   8.516  -1.130  1.00  0.00     0.009 A 
ATOM     91  C   UNL     1       3.563   9.145   0.356  1.00  0.00     0.047 A 
ATOM     92  C   UNL     1       0.766   9.135  -0.318  1.00  0.00     0.001 A 
ATOM     93  C   UNL     1       2.557   9.745   1.167  1.00  0.00     0.014 A 
ATOM     94  C   UNL     1       1.192   9.734   0.849  1.00  0.00     0.001 A 
BRANCH  91  95
ATOM     95  C   UNL     1       4.962   9.285   0.969  1.00  0.00     0.251 C 
ATOM     96  O   UNL     1       5.018   9.694   2.139  1.00  0.00    -0.269 OA
ATOM     97  N   UNL     1       6.211   9.057   0.426  1.00  0.00    -0.352 N 
ATOM     98  H   UNL     1       6.940   9.409   0.986  1.00  0.00     0.163 HD
BRANCH  97  99
ATOM     99  C   UNL     1       6.688   8.418  -0.778  1.00  0.00     0.121 C 
BRANCH  99 100
ATOM    100  C   UNL     1       8.171   8.538  -1.149  1.00  0.00     0.057 C 
BRANCH 100 101
ATOM    101  C   UNL     1       9.114   7.516  -0.535  1.00  0.00    -0.046 A 
ATOM    102  C   UNL     1       8.944   6.131  -0.719  1.00  0.00     0.004 A 
ATOM    103  C   UNL     1      10.258   7.951   0.143  1.00  0.00     0.004 A 
ATOM    104  C   UNL     1       9.874   5.212  -0.219  1.00  0.00     0.000 A 
ATOM    105  C   UNL     1      11.195   7.035   0.631  1.00  0.00     0.000 A 
ATOM    106  C   UNL     1      11.003   5.666   0.454  1.00  0.00     0.000 A 
ENDBRANCH 100 101
ENDBRANCH  99 100
ENDBRANCH  97  99
ENDBRANCH  91  95
ENDBRANCH  85  89
ENDBRANCH  81  83
ENDBRANCH  80  81
ENDBRANCH  79  80
ENDBRANCH  78  79
ENDBRANCH  77  78
ENDBRANCH  76  77
ENDBRANCH   1  76
TORSDOF 25
