REMARK SMILES Cc1cc(C(=O)Nc2ccn(C)n2)sc1/C=C/C(=O)OCCOCCOCCOCCOC(=O)c1ccc(-c2c3nc(c(-c4c(F)c(F)c(F)c(F)c4F)c4ccc([nH]4)c(-c4c(F)c(F)c(F)c(F)c4F)c4nc(c(-c5c(F)c(F)c(F)c(F)c5F)c5ccc2[nH]5)C=C4)C=C3)cc1
REMARK SMILES IDX 25 1 24 2 23 3 22 4 21 5 20 6 18 7 19 8 17 9 16 10 15 11
REMARK SMILES IDX 1 12 2 13 3 14 4 15 14 16 5 17 6 18 7 19 8 21 9 22 13 23
REMARK SMILES IDX 10 24 11 25 12 26 26 27 27 28 28 29 29 30 30 31 31 32 32 33
REMARK SMILES IDX 33 34 34 35 35 36 36 37 97 38 37 39 96 40 38 41 39 42 40 43
REMARK SMILES IDX 90 44 41 45 95 46 89 47 91 48 42 49 94 50 88 51 87 52 43 54
REMARK SMILES IDX 75 55 55 56 74 57 56 58 59 59 73 60 92 61 57 62 58 63 72 65
REMARK SMILES IDX 93 66 60 67 44 68 45 69 53 70 46 71 47 72 51 73 54 74 48 75
REMARK SMILES IDX 49 76 52 77 50 78 76 79 77 80 85 81 78 82 79 83 83 84 86 85
REMARK SMILES IDX 80 86 81 87 84 88 82 89 61 90 62 91 70 92 63 93 64 94 68 95
REMARK SMILES IDX 71 96 65 97 66 98 69 99 67 100
REMARK H PARENT 7 20 91 53 59 64
REMARK Flexibility Score: inf
ROOT
ATOM      1  C   UNL     1      -0.264  -4.915   1.947  1.00  0.00     0.188 C 
ENDROOT
BRANCH   1   2
ATOM      2  C   UNL     1      -1.113  -5.882   1.098  1.00  0.00     0.188 C 
BRANCH   2   3
ATOM      3  O   UNL     1      -0.520  -7.158   0.940  1.00  0.00    -0.376 OA
BRANCH   3   4
ATOM      4  C   UNL     1       0.059  -7.516  -0.299  1.00  0.00     0.202 C 
BRANCH   4   5
ATOM      5  C   UNL     1       1.136  -6.627  -0.942  1.00  0.00     0.261 C 
BRANCH   5   6
ATOM      6  O   UNL     1       0.938  -5.211  -0.870  1.00  0.00    -0.460 OA
BRANCH   6   7
ATOM      7  C   UNL     1       0.017  -4.690  -1.707  1.00  0.00     0.330 C 
ATOM      8  O   UNL     1      -0.676  -5.318  -2.492  1.00  0.00    -0.247 OA
BRANCH   7   9
ATOM      9  C   UNL     1      -0.185  -3.249  -1.447  1.00  0.00     0.095 C 
ATOM     10  C   UNL     1       0.727  -2.430  -0.892  1.00  0.00     0.027 C 
BRANCH  10  11
ATOM     11  C   UNL     1       0.478  -1.042  -0.610  1.00  0.00     0.031 A 
ATOM     12  C   UNL     1       2.804  -0.235   0.169  1.00  0.00     0.046 C 
ATOM     13  C   UNL     1       1.338  -0.076  -0.085  1.00  0.00    -0.032 A 
ATOM     14  C   UNL     1       0.646   1.159   0.191  1.00  0.00     0.029 A 
ATOM     15  C   UNL     1      -0.692   1.137  -0.152  1.00  0.00     0.093 A 
ATOM     16  S   UNL     1      -1.032  -0.307  -0.986  1.00  0.00    -0.130 S 
BRANCH  15  17
ATOM     17  C   UNL     1      -1.643   2.248  -0.048  1.00  0.00     0.266 C 
ATOM     18  O   UNL     1      -1.249   3.413   0.058  1.00  0.00    -0.268 OA
ATOM     19  N   UNL     1      -3.001   2.054  -0.180  1.00  0.00    -0.304 N 
ATOM     20  H   UNL     1      -3.506   2.834  -0.503  1.00  0.00     0.171 HD
BRANCH  19  21
ATOM     21  C   UNL     1      -3.750   0.935   0.072  1.00  0.00     0.154 A 
ATOM     22  C   UNL     1      -3.546  -0.083   1.033  1.00  0.00     0.068 A 
ATOM     23  N   UNL     1      -4.854   0.710  -0.642  1.00  0.00    -0.155 NA
ATOM     24  C   UNL     1      -4.501  -1.033   0.756  1.00  0.00     0.110 A 
ATOM     25  N   UNL     1      -5.197  -0.548  -0.312  1.00  0.00    -0.274 N 
ATOM     26  C   UNL     1      -6.135  -1.269  -1.138  1.00  0.00     0.173 C 
ENDBRANCH  19  21
ENDBRANCH  15  17
ENDBRANCH  10  11
ENDBRANCH   7   9
ENDBRANCH   6   7
ENDBRANCH   5   6
ENDBRANCH   4   5
ENDBRANCH   3   4
ENDBRANCH   2   3
ENDBRANCH   1   2
BRANCH   1  27
ATOM     27  O   UNL     1       1.106  -5.238   2.140  1.00  0.00    -0.377 OA
BRANCH  27  28
ATOM     28  C   UNL     1       1.472  -6.486   2.730  1.00  0.00     0.188 C 
BRANCH  28  29
ATOM     29  C   UNL     1       0.465  -7.404   3.467  1.00  0.00     0.188 C 
BRANCH  29  30
ATOM     30  O   UNL     1      -0.760  -6.781   3.809  1.00  0.00    -0.376 OA
BRANCH  30  31
ATOM     31  C   UNL     1      -1.010  -6.528   5.179  1.00  0.00     0.202 C 
BRANCH  31  32
ATOM     32  C   UNL     1      -0.093  -5.501   5.856  1.00  0.00     0.261 C 
BRANCH  32  33
ATOM     33  O   UNL     1       1.319  -5.738   5.729  1.00  0.00    -0.460 OA
BRANCH  33  34
ATOM     34  C   UNL     1       1.826  -6.811   6.370  1.00  0.00     0.338 C 
ATOM     35  O   UNL     1       1.218  -7.621   7.053  1.00  0.00    -0.246 OA
BRANCH  34  36
ATOM     36  C   UNL     1       3.237  -6.952   5.959  1.00  0.00     0.060 A 
ATOM     37  C   UNL     1       3.644  -8.115   5.290  1.00  0.00     0.016 A 
ATOM     38  C   UNL     1       4.152  -5.932   6.227  1.00  0.00     0.016 A 
ATOM     39  C   UNL     1       4.980  -8.273   4.917  1.00  0.00     0.010 A 
ATOM     40  C   UNL     1       5.492  -6.100   5.870  1.00  0.00     0.010 A 
ATOM     41  C   UNL     1       5.919  -7.285   5.243  1.00  0.00    -0.014 A 
BRANCH  41  42
ATOM     42  C   UNL     1       7.370  -7.566   5.109  1.00  0.00     0.031 A 
ATOM     43  C   UNL     1       8.132  -7.980   6.337  1.00  0.00     0.074 A 
ATOM     44  C   UNL     1       7.999  -7.466   3.925  1.00  0.00     0.049 A 
ATOM     45  N   UNL     1       9.411  -8.211   6.488  1.00  0.00    -0.248 NA
ATOM     46  C   UNL     1       7.340  -8.151   7.566  1.00  0.00     0.031 C 
ATOM     47  C   UNL     1       7.364  -7.115   2.658  1.00  0.00     0.029 A 
ATOM     48  N   UNL     1       9.323  -7.640   3.604  1.00  0.00    -0.354 N 
ATOM     49  C   UNL     1       9.577  -8.546   7.826  1.00  0.00     0.074 A 
ATOM     50  C   UNL     1       8.276  -8.454   8.452  1.00  0.00     0.031 C 
ATOM     51  C   UNL     1       8.303  -7.085   1.695  1.00  0.00     0.029 A 
ATOM     52  C   UNL     1       9.609  -7.377   2.287  1.00  0.00     0.049 A 
ATOM     53  H   UNL     1      10.002  -7.926   4.257  1.00  0.00     0.167 HD
ATOM     54  C   UNL     1      10.711  -8.907   8.472  1.00  0.00     0.037 A 
ATOM     55  C   UNL     1      10.793  -7.349   1.644  1.00  0.00     0.037 A 
ATOM     56  C   UNL     1      12.004  -8.991   7.847  1.00  0.00     0.049 A 
ATOM     57  C   UNL     1      12.056  -7.673   2.405  1.00  0.00     0.074 A 
ATOM     58  C   UNL     1      13.213  -9.361   8.411  1.00  0.00     0.029 A 
ATOM     59  N   UNL     1      12.259  -8.688   6.517  1.00  0.00    -0.354 N 
ATOM     60  N   UNL     1      12.204  -8.015   3.663  1.00  0.00    -0.248 NA
ATOM     61  C   UNL     1      13.318  -7.610   1.653  1.00  0.00     0.031 C 
ATOM     62  C   UNL     1      14.209  -9.219   7.440  1.00  0.00     0.029 A 
ATOM     63  C   UNL     1      13.612  -8.833   6.251  1.00  0.00     0.049 A 
ATOM     64  H   UNL     1      11.580  -8.411   5.861  1.00  0.00     0.167 HD
ATOM     65  C   UNL     1      13.563  -8.242   3.843  1.00  0.00     0.074 A 
ATOM     66  C   UNL     1      14.196  -8.011   2.562  1.00  0.00     0.031 C 
ATOM     67  C   UNL     1      14.228  -8.610   4.967  1.00  0.00     0.037 A 
BRANCH  54  68
ATOM     68  C   UNL     1      10.607  -9.207   9.940  1.00  0.00     0.064 A 
ATOM     69  C   UNL     1       9.935 -10.342  10.420  1.00  0.00     0.173 A 
ATOM     70  C   UNL     1      11.212  -8.359  10.881  1.00  0.00     0.173 A 
ATOM     71  F   UNL     1       9.326 -11.177   9.565  1.00  0.00    -0.203 F 
ATOM     72  C   UNL     1       9.848 -10.599  11.786  1.00  0.00     0.198 A 
ATOM     73  C   UNL     1      11.153  -8.638  12.243  1.00  0.00     0.198 A 
ATOM     74  F   UNL     1      11.870  -7.261  10.478  1.00  0.00    -0.203 F 
ATOM     75  F   UNL     1       9.154 -11.659  12.223  1.00  0.00    -0.200 F 
ATOM     76  C   UNL     1      10.463  -9.753  12.695  1.00  0.00     0.200 A 
ATOM     77  F   UNL     1      11.761  -7.827  13.119  1.00  0.00    -0.200 F 
ATOM     78  F   UNL     1      10.385 -10.006  14.009  1.00  0.00    -0.200 F 
ENDBRANCH  54  68
BRANCH  55  79
ATOM     79  C   UNL     1      10.851  -6.984   0.203  1.00  0.00     0.064 A 
ATOM     80  C   UNL     1      11.246  -7.918  -0.767  1.00  0.00     0.173 A 
ATOM     81  C   UNL     1      10.543  -5.687  -0.232  1.00  0.00     0.173 A 
ATOM     82  F   UNL     1      11.578  -9.164  -0.400  1.00  0.00    -0.203 F 
ATOM     83  C   UNL     1      11.351  -7.561  -2.110  1.00  0.00     0.198 A 
ATOM     84  C   UNL     1      10.615  -5.341  -1.580  1.00  0.00     0.198 A 
ATOM     85  F   UNL     1      10.164  -4.753   0.653  1.00  0.00    -0.203 F 
ATOM     86  F   UNL     1      11.784  -8.458  -3.007  1.00  0.00    -0.200 F 
ATOM     87  C   UNL     1      11.029  -6.275  -2.517  1.00  0.00     0.200 A 
ATOM     88  F   UNL     1      10.290  -4.101  -1.970  1.00  0.00    -0.200 F 
ATOM     89  F   UNL     1      11.127  -5.934  -3.809  1.00  0.00    -0.200 F 
ENDBRANCH  55  79
BRANCH  67  90
ATOM     90  C   UNL     1      15.711  -8.836   4.856  1.00  0.00     0.064 A 
ATOM     91  C   UNL     1      16.611  -7.779   4.654  1.00  0.00     0.173 A 
ATOM     92  C   UNL     1      16.241 -10.128   5.001  1.00  0.00     0.173 A 
ATOM     93  F   UNL     1      16.157  -6.526   4.498  1.00  0.00    -0.203 F 
ATOM     94  C   UNL     1      17.982  -8.012   4.571  1.00  0.00     0.198 A 
ATOM     95  C   UNL     1      17.614 -10.352   4.954  1.00  0.00     0.198 A 
ATOM     96  F   UNL     1      15.427 -11.175   5.206  1.00  0.00    -0.203 F 
ATOM     97  F   UNL     1      18.818  -6.994   4.323  1.00  0.00    -0.200 F 
ATOM     98  C   UNL     1      18.483  -9.295   4.729  1.00  0.00     0.200 A 
ATOM     99  F   UNL     1      18.096 -11.590   5.127  1.00  0.00    -0.200 F 
ATOM    100  F   UNL     1      19.803  -9.515   4.659  1.00  0.00    -0.200 F 
ENDBRANCH  67  90
ENDBRANCH  41  42
ENDBRANCH  34  36
ENDBRANCH  33  34
ENDBRANCH  32  33
ENDBRANCH  31  32
ENDBRANCH  30  31
ENDBRANCH  29  30
ENDBRANCH  28  29
ENDBRANCH  27  28
ENDBRANCH   1  27
TORSDOF 23
