REMARK SMILES O=C(CC1(CC(=O)OCCOCCOCCOCCOC(=O)c2ccc(-c3c4nc(c(-c5c(F)c(F)c(F)c(F)c5F)c5ccc([nH]5)c(-c5c(F)c(F)c(F)c(F)c5F)c5nc(c(-c6c(F)c(F)c(F)c(F)c6F)c6ccc3[nH]6)C=C5)C=C4)cc2)CCCCC1)NNC(=O)C1CC1
REMARK SMILES IDX 12 1 11 2 10 3 9 4 8 5 6 6 7 7 5 8 4 9 86 10 90 11 87 12
REMARK SMILES IDX 89 13 88 14 3 15 2 16 1 17 91 18 92 20 93 21 94 23 95 24
REMARK SMILES IDX 96 25 97 26 13 27 14 28 15 29 16 30 17 31 18 32 19 33 20 34
REMARK SMILES IDX 21 35 22 36 23 37 24 38 85 39 25 40 84 41 26 42 27 43 28 44
REMARK SMILES IDX 78 45 29 46 83 47 77 48 79 49 30 50 82 51 76 52 75 53 31 55
REMARK SMILES IDX 63 56 43 57 62 58 44 59 47 60 61 61 80 62 45 63 46 64 60 66
REMARK SMILES IDX 81 67 48 68 32 69 33 70 41 71 34 72 35 73 39 74 42 75 36 76
REMARK SMILES IDX 37 77 40 78 38 79 64 80 65 81 73 82 66 83 67 84 71 85 74 86
REMARK SMILES IDX 68 87 69 88 72 89 70 90 49 91 50 92 58 93 51 94 52 95 56 96
REMARK SMILES IDX 59 97 53 98 54 99 57 100 55 101
REMARK H PARENT 91 19 92 22 79 54 47 65
REMARK Flexibility Score: inf
ROOT
ATOM      1  C   UNL     1       1.909  -3.927  -2.764  1.00  0.00     0.188 C 
ENDROOT
BRANCH   1   2
ATOM      2  O   UNL     1       2.261  -4.728  -3.886  1.00  0.00    -0.376 OA
BRANCH   2   3
ATOM      3  C   UNL     1       3.612  -4.826  -4.305  1.00  0.00     0.202 C 
BRANCH   3   4
ATOM      4  C   UNL     1       4.323  -3.566  -4.828  1.00  0.00     0.261 C 
BRANCH   4   5
ATOM      5  O   UNL     1       4.215  -2.361  -4.036  1.00  0.00    -0.463 OA
BRANCH   5   6
ATOM      6  C   UNL     1       3.315  -1.450  -4.469  1.00  0.00     0.306 C 
ATOM      7  O   UNL     1       2.609  -1.615  -5.462  1.00  0.00    -0.252 OA
BRANCH   6   8
ATOM      8  C   UNL     1       3.276  -0.119  -3.721  1.00  0.00     0.130 C 
BRANCH   8   9
ATOM      9  C   UNL     1       3.814   0.230  -2.283  1.00  0.00    -0.010 C 
ATOM     10  C   UNL     1       3.922   1.794  -2.238  1.00  0.00     0.008 C 
ATOM     11  C   UNL     1       5.219  -0.345  -1.969  1.00  0.00     0.008 C 
ATOM     12  C   UNL     1       5.069   2.388  -3.059  1.00  0.00     0.001 C 
ATOM     13  C   UNL     1       6.328   0.217  -2.848  1.00  0.00     0.001 C 
ATOM     14  C   UNL     1       6.403   1.733  -2.728  1.00  0.00     0.000 C 
BRANCH   9  15
ATOM     15  C   UNL     1       2.817  -0.276  -1.175  1.00  0.00     0.109 C 
BRANCH  15  16
ATOM     16  C   UNL     1       2.167   0.771  -0.283  1.00  0.00     0.238 C 
ATOM     17  O   UNL     1       1.138   1.357  -0.613  1.00  0.00    -0.273 OA
ATOM     18  N   UNL     1       2.828   1.020   0.908  1.00  0.00    -0.268 N 
ATOM     19  H   UNL     1       3.623   0.502   1.172  1.00  0.00     0.191 HD
BRANCH  18  20
ATOM     20  N   UNL     1       2.321   2.034   1.716  1.00  0.00    -0.267 N 
ATOM     21  C   UNL     1       3.057   2.998   2.361  1.00  0.00     0.241 C 
ATOM     22  H   UNL     1       1.344   2.062   1.837  1.00  0.00     0.191 HD
ATOM     23  O   UNL     1       2.496   3.951   2.894  1.00  0.00    -0.273 OA
BRANCH  21  24
ATOM     24  C   UNL     1       4.534   2.880   2.503  1.00  0.00     0.080 C 
ATOM     25  C   UNL     1       5.533   2.352   1.510  1.00  0.00     0.014 C 
ATOM     26  C   UNL     1       5.379   3.831   1.674  1.00  0.00     0.014 C 
ENDBRANCH  21  24
ENDBRANCH  18  20
ENDBRANCH  15  16
ENDBRANCH   9  15
ENDBRANCH   8   9
ENDBRANCH   6   8
ENDBRANCH   5   6
ENDBRANCH   4   5
ENDBRANCH   3   4
ENDBRANCH   2   3
ENDBRANCH   1   2
BRANCH   1  27
ATOM     27  C   UNL     1       2.965  -3.536  -1.722  1.00  0.00     0.188 C 
BRANCH  27  28
ATOM     28  O   UNL     1       4.097  -4.370  -1.653  1.00  0.00    -0.377 OA
BRANCH  28  29
ATOM     29  C   UNL     1       4.091  -5.439  -0.729  1.00  0.00     0.188 C 
BRANCH  29  30
ATOM     30  C   UNL     1       2.761  -6.099  -0.348  1.00  0.00     0.188 C 
BRANCH  30  31
ATOM     31  O   UNL     1       1.756  -5.182   0.082  1.00  0.00    -0.376 OA
BRANCH  31  32
ATOM     32  C   UNL     1       1.559  -5.036   1.484  1.00  0.00     0.202 C 
BRANCH  32  33
ATOM     33  C   UNL     1       2.504  -4.032   2.162  1.00  0.00     0.261 C 
BRANCH  33  34
ATOM     34  O   UNL     1       3.890  -4.406   2.178  1.00  0.00    -0.460 OA
BRANCH  34  35
ATOM     35  C   UNL     1       4.204  -5.564   2.799  1.00  0.00     0.338 C 
ATOM     36  O   UNL     1       3.454  -6.312   3.399  1.00  0.00    -0.246 OA
BRANCH  35  37
ATOM     37  C   UNL     1       5.606  -5.883   2.476  1.00  0.00     0.060 A 
ATOM     38  C   UNL     1       5.881  -7.065   1.776  1.00  0.00     0.016 A 
ATOM     39  C   UNL     1       6.636  -5.014   2.845  1.00  0.00     0.016 A 
ATOM     40  C   UNL     1       7.199  -7.396   1.467  1.00  0.00     0.010 A 
ATOM     41  C   UNL     1       7.957  -5.359   2.558  1.00  0.00     0.010 A 
ATOM     42  C   UNL     1       8.244  -6.566   1.895  1.00  0.00    -0.014 A 
BRANCH  42  43
ATOM     43  C   UNL     1       9.636  -7.066   1.847  1.00  0.00     0.031 A 
ATOM     44  C   UNL     1      10.168  -7.786   3.052  1.00  0.00     0.074 A 
ATOM     45  C   UNL     1      10.405  -6.895   0.759  1.00  0.00     0.049 A 
ATOM     46  N   UNL     1      11.351  -8.303   3.260  1.00  0.00    -0.248 NA
ATOM     47  C   UNL     1       9.234  -7.939   4.179  1.00  0.00     0.031 C 
ATOM     48  C   UNL     1       9.989  -6.237  -0.476  1.00  0.00     0.029 A 
ATOM     49  N   UNL     1      11.709  -7.257   0.530  1.00  0.00    -0.354 N 
ATOM     50  C   UNL     1      11.300  -8.849   4.535  1.00  0.00     0.074 A 
ATOM     51  C   UNL     1       9.985  -8.567   5.069  1.00  0.00     0.031 C 
ATOM     52  C   UNL     1      11.027  -6.227  -1.332  1.00  0.00     0.029 A 
ATOM     53  C   UNL     1      12.183  -6.856  -0.693  1.00  0.00     0.049 A 
ATOM     54  H   UNL     1      12.252  -7.757   1.182  1.00  0.00     0.167 HD
ATOM     55  C   UNL     1      12.261  -9.533   5.200  1.00  0.00     0.037 A 
ATOM     56  C   UNL     1      13.416  -6.971  -1.224  1.00  0.00     0.037 A 
ATOM     57  C   UNL     1      13.575  -9.787   4.676  1.00  0.00     0.049 A 
ATOM     58  C   UNL     1      14.496  -7.669  -0.437  1.00  0.00     0.074 A 
ATOM     59  C   UNL     1      14.621 -10.477   5.262  1.00  0.00     0.029 A 
ATOM     60  N   UNL     1      14.030  -9.340   3.444  1.00  0.00    -0.354 N 
ATOM     61  N   UNL     1      14.432  -8.220   0.751  1.00  0.00    -0.248 NA
ATOM     62  C   UNL     1      15.820  -7.765  -1.069  1.00  0.00     0.031 C 
ATOM     63  C   UNL     1      15.726 -10.401   4.407  1.00  0.00     0.029 A 
ATOM     64  C   UNL     1      15.352  -9.712   3.263  1.00  0.00     0.049 A 
ATOM     65  H   UNL     1      13.493  -8.832   2.793  1.00  0.00     0.167 HD
ATOM     66  C   UNL     1      15.693  -8.748   1.000  1.00  0.00     0.074 A 
ATOM     67  C   UNL     1      16.500  -8.461  -0.168  1.00  0.00     0.031 C 
ATOM     68  C   UNL     1      16.141  -9.414   2.094  1.00  0.00     0.037 A 
BRANCH  55  69
ATOM     69  C   UNL     1      11.924 -10.013   6.581  1.00  0.00     0.064 A 
ATOM     70  C   UNL     1      10.997 -11.044   6.797  1.00  0.00     0.173 A 
ATOM     71  C   UNL     1      12.521  -9.421   7.703  1.00  0.00     0.173 A 
ATOM     72  F   UNL     1      10.381 -11.628   5.758  1.00  0.00    -0.203 F 
ATOM     73  C   UNL     1      10.652 -11.438   8.088  1.00  0.00     0.198 A 
ATOM     74  C   UNL     1      12.197  -9.839   8.991  1.00  0.00     0.198 A 
ATOM     75  F   UNL     1      13.412  -8.429   7.551  1.00  0.00    -0.203 F 
ATOM     76  F   UNL     1       9.716 -12.380   8.272  1.00  0.00    -0.200 F 
ATOM     77  C   UNL     1      11.256 -10.838   9.183  1.00  0.00     0.200 A 
ATOM     78  F   UNL     1      12.786  -9.262  10.048  1.00  0.00    -0.200 F 
ATOM     79  F   UNL     1      10.918 -11.213  10.424  1.00  0.00    -0.200 F 
ENDBRANCH  55  69
BRANCH  56  80
ATOM     80  C   UNL     1      13.694  -6.404  -2.568  1.00  0.00     0.064 A 
ATOM     81  C   UNL     1      13.932  -7.235  -3.672  1.00  0.00     0.173 A 
ATOM     82  C   UNL     1      13.722  -5.017  -2.778  1.00  0.00     0.173 A 
ATOM     83  F   UNL     1      13.942  -8.567  -3.517  1.00  0.00    -0.203 F 
ATOM     84  C   UNL     1      14.196  -6.700  -4.931  1.00  0.00     0.198 A 
ATOM     85  C   UNL     1      13.961  -4.484  -4.042  1.00  0.00     0.198 A 
ATOM     86  F   UNL     1      13.504  -4.179  -1.754  1.00  0.00    -0.203 F 
ATOM     87  F   UNL     1      14.455  -7.515  -5.962  1.00  0.00    -0.200 F 
ATOM     88  C   UNL     1      14.203  -5.325  -5.117  1.00  0.00     0.200 A 
ATOM     89  F   UNL     1      13.954  -3.155  -4.219  1.00  0.00    -0.200 F 
ATOM     90  F   UNL     1      14.446  -4.812  -6.331  1.00  0.00    -0.200 F 
ENDBRANCH  56  80
BRANCH  68  91
ATOM     91  C   UNL     1      17.561  -9.902   2.073  1.00  0.00     0.064 A 
ATOM     92  C   UNL     1      18.645  -9.021   2.191  1.00  0.00     0.173 A 
ATOM     93  C   UNL     1      17.838 -11.276   1.989  1.00  0.00     0.173 A 
ATOM     94  F   UNL     1      18.435  -7.697   2.261  1.00  0.00    -0.203 F 
ATOM     95  C   UNL     1      19.955  -9.495   2.203  1.00  0.00     0.198 A 
ATOM     96  C   UNL     1      19.146 -11.748   2.032  1.00  0.00     0.198 A 
ATOM     97  F   UNL     1      16.836 -12.162   1.884  1.00  0.00    -0.203 F 
ATOM     98  F   UNL     1      20.977  -8.631   2.274  1.00  0.00    -0.200 F 
ATOM     99  C   UNL     1      20.204 -10.857   2.133  1.00  0.00     0.200 A 
ATOM    100  F   UNL     1      19.384 -13.066   1.979  1.00  0.00    -0.200 F 
ATOM    101  F   UNL     1      21.464 -11.312   2.155  1.00  0.00    -0.200 F 
ENDBRANCH  68  91
ENDBRANCH  42  43
ENDBRANCH  35  37
ENDBRANCH  34  35
ENDBRANCH  33  34
ENDBRANCH  32  33
ENDBRANCH  31  32
ENDBRANCH  30  31
ENDBRANCH  29  30
ENDBRANCH  28  29
ENDBRANCH  27  28
ENDBRANCH   1  27
TORSDOF 25
