REMARK SMILES COc1cccc(-c2c(C(=O)OCCOCCOCCOCCOC(=O)c3ccc(-c4c5nc(c(-c6c(F)c(F)c(F)c(F)c6F)c6ccc([nH]6)c(-c6c(F)c(F)c(F)c(F)c6F)c6nc(c(-c7c(F)c(F)c(F)c(F)c7F)c7ccc4[nH]7)C=C6)C=C5)cc3)nnn2-c2ccc(OC(F)(F)F)cc2)c1
REMARK SMILES IDX 17 1 16 2 15 3 14 4 13 5 12 6 10 7 11 8 9 9 8 10 92 11 90 12
REMARK SMILES IDX 91 13 7 14 3 15 4 16 104 17 5 18 6 19 2 20 1 21 93 22 94 23
REMARK SMILES IDX 103 24 95 25 102 26 96 27 97 28 98 29 99 30 100 31 101 32
REMARK SMILES IDX 18 33 19 34 20 35 21 36 22 37 23 38 24 39 25 40 26 41 27 42
REMARK SMILES IDX 28 43 89 44 29 45 88 46 30 47 31 48 32 49 82 50 33 51 87 52
REMARK SMILES IDX 81 53 83 54 34 55 86 56 80 57 79 58 35 60 67 61 47 62 66 63
REMARK SMILES IDX 48 64 51 65 65 66 84 67 49 68 50 69 64 71 85 72 52 73 36 74
REMARK SMILES IDX 37 75 45 76 38 77 39 78 43 79 46 80 40 81 41 82 44 83 42 84
REMARK SMILES IDX 68 85 69 86 77 87 70 88 71 89 75 90 78 91 72 92 73 93 76 94
REMARK SMILES IDX 74 95 53 96 54 97 62 98 55 99 56 100 60 101 63 102 57 103
REMARK SMILES IDX 58 104 61 105 59 106
REMARK H PARENT 83 59 51 70
REMARK Flexibility Score: inf
ROOT
ATOM      1  C   UNL     1       4.291   0.028   5.613  1.00  0.00     0.188 C 
ENDROOT
BRANCH   1   2
ATOM      2  C   UNL     1       4.877   0.721   6.863  1.00  0.00     0.188 C 
BRANCH   2   3
ATOM      3  O   UNL     1       4.083   0.678   8.026  1.00  0.00    -0.376 OA
BRANCH   3   4
ATOM      4  C   UNL     1       3.143   1.668   8.368  1.00  0.00     0.202 C 
BRANCH   4   5
ATOM      5  C   UNL     1       2.528   2.691   7.400  1.00  0.00     0.261 C 
BRANCH   5   6
ATOM      6  O   UNL     1       3.014   2.707   6.062  1.00  0.00    -0.458 OA
BRANCH   6   7
ATOM      7  C   UNL     1       4.037   3.576   5.806  1.00  0.00     0.361 C 
ATOM      8  O   UNL     1       4.499   4.355   6.617  1.00  0.00    -0.244 OA
BRANCH   7   9
ATOM      9  C   UNL     1       4.599   3.357   4.482  1.00  0.00     0.198 A 
ATOM     10  C   UNL     1       3.958   3.142   3.270  1.00  0.00     0.109 A 
ATOM     11  N   UNL     1       5.027   3.097   2.379  1.00  0.00    -0.212 N 
ATOM     12  N   UNL     1       5.957   3.186   4.314  1.00  0.00    -0.122 NA
ATOM     13  N   UNL     1       6.182   2.889   3.043  1.00  0.00    -0.061 NA
BRANCH  10  14
ATOM     14  C   UNL     1       2.549   3.019   2.873  1.00  0.00     0.007 A 
ATOM     15  C   UNL     1       0.852   2.031   1.417  1.00  0.00     0.119 A 
ATOM     16  C   UNL     1      -0.084   2.930   1.927  1.00  0.00     0.046 A 
ATOM     17  C   UNL     1       2.160   2.063   1.907  1.00  0.00     0.056 A 
ATOM     18  C   UNL     1       0.270   3.837   2.925  1.00  0.00     0.005 A 
ATOM     19  C   UNL     1       1.583   3.885   3.393  1.00  0.00     0.011 A 
BRANCH  15  20
ATOM     20  O   UNL     1       0.381   1.229   0.415  1.00  0.00    -0.497 OA
ATOM     21  C   UNL     1       1.126   0.059   0.103  1.00  0.00     0.278 C 
ENDBRANCH  15  20
ENDBRANCH  10  14
BRANCH  11  22
ATOM     22  C   UNL     1       5.025   3.393   1.000  1.00  0.00     0.067 A 
ATOM     23  C   UNL     1       5.833   2.677   0.117  1.00  0.00     0.032 A 
ATOM     24  C   UNL     1       4.216   4.436   0.537  1.00  0.00     0.032 A 
ATOM     25  C   UNL     1       5.760   2.969  -1.249  1.00  0.00     0.049 A 
ATOM     26  C   UNL     1       4.187   4.749  -0.819  1.00  0.00     0.049 A 
ATOM     27  C   UNL     1       4.937   4.001  -1.725  1.00  0.00     0.129 A 
BRANCH  27  28
ATOM     28  O   UNL     1       4.954   4.174  -3.080  1.00  0.00    -0.406 OA
BRANCH  28  29
ATOM     29  C   UNL     1       4.123   5.194  -3.614  1.00  0.00     0.573 C 
ATOM     30  F   UNL     1       2.828   4.996  -3.288  1.00  0.00    -0.132 F 
ATOM     31  F   UNL     1       4.515   6.412  -3.181  1.00  0.00    -0.132 F 
ATOM     32  F   UNL     1       4.221   5.175  -4.961  1.00  0.00    -0.132 F 
ENDBRANCH  28  29
ENDBRANCH  27  28
ENDBRANCH  11  22
ENDBRANCH   7   9
ENDBRANCH   6   7
ENDBRANCH   5   6
ENDBRANCH   4   5
ENDBRANCH   3   4
ENDBRANCH   2   3
ENDBRANCH   1   2
BRANCH   1  33
ATOM     33  O   UNL     1       2.905  -0.251   5.538  1.00  0.00    -0.377 OA
BRANCH  33  34
ATOM     34  C   UNL     1       2.254  -1.026   6.539  1.00  0.00     0.188 C 
BRANCH  34  35
ATOM     35  C   UNL     1       2.993  -1.900   7.586  1.00  0.00     0.188 C 
BRANCH  35  36
ATOM     36  O   UNL     1       4.402  -1.882   7.535  1.00  0.00    -0.376 OA
BRANCH  36  37
ATOM     37  C   UNL     1       5.189  -2.913   6.985  1.00  0.00     0.202 C 
BRANCH  37  38
ATOM     38  C   UNL     1       4.851  -3.543   5.641  1.00  0.00     0.261 C 
BRANCH  38  39
ATOM     39  O   UNL     1       3.494  -3.460   5.262  1.00  0.00    -0.460 OA
BRANCH  39  40
ATOM     40  C   UNL     1       2.716  -4.402   5.826  1.00  0.00     0.338 C 
ATOM     41  O   UNL     1       2.970  -5.085   6.798  1.00  0.00    -0.246 OA
BRANCH  40  42
ATOM     42  C   UNL     1       1.558  -4.606   4.953  1.00  0.00     0.060 A 
ATOM     43  C   UNL     1       0.601  -5.502   5.418  1.00  0.00     0.016 A 
ATOM     44  C   UNL     1       1.644  -4.223   3.603  1.00  0.00     0.016 A 
ATOM     45  C   UNL     1      -0.097  -6.222   4.481  1.00  0.00     0.010 A 
ATOM     46  C   UNL     1       0.949  -4.948   2.668  1.00  0.00     0.010 A 
ATOM     47  C   UNL     1       0.170  -6.004   3.120  1.00  0.00    -0.014 A 
BRANCH  47  48
ATOM     48  C   UNL     1      -0.502  -6.862   2.173  1.00  0.00     0.031 A 
ATOM     49  C   UNL     1      -1.955  -6.619   2.164  1.00  0.00     0.074 A 
ATOM     50  C   UNL     1       0.133  -7.758   1.396  1.00  0.00     0.049 A 
ATOM     51  N   UNL     1      -2.862  -7.394   2.652  1.00  0.00    -0.248 NA
ATOM     52  C   UNL     1      -2.434  -5.283   1.779  1.00  0.00     0.031 C 
ATOM     53  C   UNL     1       1.569  -7.924   1.170  1.00  0.00     0.029 A 
ATOM     54  N   UNL     1      -0.415  -8.693   0.574  1.00  0.00    -0.354 N 
ATOM     55  C   UNL     1      -4.062  -6.732   2.442  1.00  0.00     0.074 A 
ATOM     56  C   UNL     1      -3.728  -5.378   2.088  1.00  0.00     0.031 C 
ATOM     57  C   UNL     1       1.760  -8.740   0.105  1.00  0.00     0.029 A 
ATOM     58  C   UNL     1       0.474  -9.256  -0.332  1.00  0.00     0.049 A 
ATOM     59  H   UNL     1      -1.364  -8.949   0.618  1.00  0.00     0.167 HD
ATOM     60  C   UNL     1      -5.204  -7.450   2.286  1.00  0.00     0.037 A 
ATOM     61  C   UNL     1       0.140 -10.034  -1.394  1.00  0.00     0.037 A 
ATOM     62  C   UNL     1      -5.064  -8.774   2.848  1.00  0.00     0.049 A 
ATOM     63  C   UNL     1      -1.210 -10.596  -1.125  1.00  0.00     0.074 A 
ATOM     64  C   UNL     1      -4.785  -9.270   4.108  1.00  0.00     0.029 A 
ATOM     65  N   UNL     1      -4.830  -9.814   1.983  1.00  0.00    -0.354 N 
ATOM     66  N   UNL     1      -1.448 -11.483  -0.200  1.00  0.00    -0.248 NA
ATOM     67  C   UNL     1      -2.365  -9.824  -1.559  1.00  0.00     0.031 C 
ATOM     68  C   UNL     1      -3.958 -10.413   3.888  1.00  0.00     0.029 A 
ATOM     69  C   UNL     1      -3.834 -10.593   2.510  1.00  0.00     0.049 A 
ATOM     70  H   UNL     1      -5.298  -9.973   1.131  1.00  0.00     0.167 HD
ATOM     71  C   UNL     1      -2.635 -11.067   0.384  1.00  0.00     0.074 A 
ATOM     72  C   UNL     1      -3.197 -10.094  -0.550  1.00  0.00     0.031 C 
ATOM     73  C   UNL     1      -2.895 -11.330   1.699  1.00  0.00     0.037 A 
BRANCH  60  74
ATOM     74  C   UNL     1      -6.233  -7.119   1.232  1.00  0.00     0.064 A 
ATOM     75  C   UNL     1      -7.413  -7.884   1.184  1.00  0.00     0.173 A 
ATOM     76  C   UNL     1      -5.972  -6.328   0.090  1.00  0.00     0.173 A 
ATOM     77  F   UNL     1      -7.750  -8.683   2.208  1.00  0.00    -0.203 F 
ATOM     78  C   UNL     1      -8.212  -7.930   0.040  1.00  0.00     0.198 A 
ATOM     79  C   UNL     1      -6.800  -6.337  -1.028  1.00  0.00     0.198 A 
ATOM     80  F   UNL     1      -4.854  -5.609  -0.052  1.00  0.00    -0.203 F 
ATOM     81  F   UNL     1      -9.244  -8.783  -0.013  1.00  0.00    -0.200 F 
ATOM     82  C   UNL     1      -7.899  -7.165  -1.068  1.00  0.00     0.200 A 
ATOM     83  F   UNL     1      -6.465  -5.602  -2.099  1.00  0.00    -0.200 F 
ATOM     84  F   UNL     1      -8.622  -7.263  -2.191  1.00  0.00    -0.200 F 
ENDBRANCH  60  74
BRANCH  61  85
ATOM     85  C   UNL     1       0.723 -10.027  -2.760  1.00  0.00     0.064 A 
ATOM     86  C   UNL     1       0.390 -11.027  -3.690  1.00  0.00     0.173 A 
ATOM     87  C   UNL     1       1.367  -8.886  -3.276  1.00  0.00     0.173 A 
ATOM     88  F   UNL     1      -0.265 -12.128  -3.292  1.00  0.00    -0.203 F 
ATOM     89  C   UNL     1       0.649 -10.877  -5.057  1.00  0.00     0.198 A 
ATOM     90  C   UNL     1       1.630  -8.739  -4.639  1.00  0.00     0.198 A 
ATOM     91  F   UNL     1       1.662  -7.843  -2.487  1.00  0.00    -0.203 F 
ATOM     92  F   UNL     1       0.250 -11.820  -5.922  1.00  0.00    -0.200 F 
ATOM     93  C   UNL     1       1.257  -9.727  -5.532  1.00  0.00     0.200 A 
ATOM     94  F   UNL     1       2.184  -7.605  -5.090  1.00  0.00    -0.200 F 
ATOM     95  F   UNL     1       1.442  -9.550  -6.847  1.00  0.00    -0.200 F 
ENDBRANCH  61  85
BRANCH  73  96
ATOM     96  C   UNL     1      -2.002 -12.323   2.393  1.00  0.00     0.064 A 
ATOM     97  C   UNL     1      -0.611 -12.174   2.549  1.00  0.00     0.173 A 
ATOM     98  C   UNL     1      -2.598 -13.438   2.998  1.00  0.00     0.173 A 
ATOM     99  F   UNL     1       0.022 -11.083   2.099  1.00  0.00    -0.203 F 
ATOM    100  C   UNL     1       0.150 -13.135   3.214  1.00  0.00     0.198 A 
ATOM    101  C   UNL     1      -1.842 -14.374   3.698  1.00  0.00     0.198 A 
ATOM    102  F   UNL     1      -3.928 -13.605   2.935  1.00  0.00    -0.203 F 
ATOM    103  F   UNL     1       1.479 -12.988   3.317  1.00  0.00    -0.200 F 
ATOM    104  C   UNL     1      -0.467 -14.233   3.789  1.00  0.00     0.200 A 
ATOM    105  F   UNL     1      -2.451 -15.407   4.296  1.00  0.00    -0.200 F 
ATOM    106  F   UNL     1       0.259 -15.145   4.450  1.00  0.00    -0.200 F 
ENDBRANCH  73  96
ENDBRANCH  47  48
ENDBRANCH  40  42
ENDBRANCH  39  40
ENDBRANCH  38  39
ENDBRANCH  37  38
ENDBRANCH  36  37
ENDBRANCH  35  36
ENDBRANCH  34  35
ENDBRANCH  33  34
ENDBRANCH   1  33
TORSDOF 25
