REMARK SMILES O=C(Cn1c2ccccc2c(=O)c2ccccc21)N[C@@H](Cc1ccccc1)C(=O)OCCOCCOCCOCCOC(=O)c1ccc(-c2c3nc(c(-c4c(F)c(F)c(F)c(F)c4F)c4ccc([nH]4)c(-c4c(F)c(F)c(F)c(F)c4F)c4nc(c(-c5c(F)c(F)c(F)c(F)c5F)c5ccc2[nH]5)C=C4)C=C3)cc1
REMARK SMILES IDX 35 1 34 2 33 3 32 4 31 5 30 6 28 7 29 8 20 9 19 10 1 11 2 12
REMARK SMILES IDX 3 14 4 15 5 16 18 17 6 18 10 19 13 20 17 21 7 22 9 23 11 24
REMARK SMILES IDX 14 25 16 26 8 27 12 28 15 29 21 30 22 31 23 32 27 33 24 34
REMARK SMILES IDX 26 35 25 36 36 37 37 38 38 39 39 40 40 41 41 42 42 43 43 44
REMARK SMILES IDX 44 45 45 46 46 47 107 48 47 49 106 50 48 51 49 52 50 53
REMARK SMILES IDX 100 54 51 55 105 56 99 57 101 58 52 59 104 60 98 61 97 62
REMARK SMILES IDX 53 64 85 65 65 66 84 67 66 68 69 69 83 70 102 71 67 72 68 73
REMARK SMILES IDX 82 75 103 76 70 77 54 78 55 79 63 80 56 81 57 82 61 83 64 84
REMARK SMILES IDX 58 85 59 86 62 87 60 88 86 89 87 90 95 91 88 92 89 93 93 94
REMARK SMILES IDX 96 95 90 96 91 97 94 98 92 99 71 100 72 101 80 102 73 103
REMARK SMILES IDX 74 104 78 105 81 106 75 107 76 108 79 109 77 110
REMARK H PARENT 19 13 101 63 69 74
REMARK Flexibility Score: inf
ROOT
ATOM      1  C   UNL     1       2.800  -3.186  -1.341  1.00  0.00     0.188 C 
ENDROOT
BRANCH   1   2
ATOM      2  C   UNL     1       1.833  -4.291  -1.742  1.00  0.00     0.188 C 
BRANCH   2   3
ATOM      3  O   UNL     1       2.338  -5.459  -2.360  1.00  0.00    -0.376 OA
BRANCH   3   4
ATOM      4  C   UNL     1       3.377  -5.316  -3.319  1.00  0.00     0.202 C 
BRANCH   4   5
ATOM      5  C   UNL     1       3.250  -4.205  -4.388  1.00  0.00     0.261 C 
BRANCH   5   6
ATOM      6  O   UNL     1       3.288  -2.846  -3.868  1.00  0.00    -0.462 OA
BRANCH   6   7
ATOM      7  C   UNL     1       2.250  -1.987  -4.079  1.00  0.00     0.329 C 
ATOM      8  O   UNL     1       1.339  -2.233  -4.864  1.00  0.00    -0.250 OA
BRANCH   7   9
ATOM      9  C   UNL     1       2.381  -0.575  -3.327  1.00  0.00     0.196 C 
BRANCH   9  10
ATOM     10  N   UNL     1       3.055  -0.304  -1.969  1.00  0.00    -0.341 N 
ATOM     11  O   UNL     1       1.100  -0.138  -0.802  1.00  0.00    -0.273 OA
ATOM     12  C   UNL     1       2.336  -0.103  -0.781  1.00  0.00     0.240 C 
ATOM     13  H   UNL     1       4.038  -0.270  -1.932  1.00  0.00     0.164 HD
BRANCH  12  14
ATOM     14  C   UNL     1       3.067   0.353   0.526  1.00  0.00     0.222 C 
BRANCH  14  15
ATOM     15  N   UNL     1       3.837  -0.591   1.416  1.00  0.00    -0.331 N 
ATOM     16  C   UNL     1       4.987  -0.057   2.064  1.00  0.00     0.053 A 
ATOM     17  C   UNL     1       3.350  -1.872   1.802  1.00  0.00     0.053 A 
ATOM     18  C   UNL     1       5.232   1.330   2.193  1.00  0.00     0.027 A 
ATOM     19  C   UNL     1       5.897  -0.881   2.742  1.00  0.00     0.046 A 
ATOM     20  C   UNL     1       4.553  -3.083   2.385  1.00  0.00     0.046 A 
ATOM     21  C   UNL     1       1.667  -2.347   1.595  1.00  0.00     0.027 A 
ATOM     22  C   UNL     1       6.324   1.851   2.916  1.00  0.00     0.002 A 
ATOM     23  C   UNL     1       7.029  -0.356   3.418  1.00  0.00     0.014 A 
ATOM     24  C   UNL     1       5.580  -2.272   3.090  1.00  0.00     0.197 A 
ATOM     25  C   UNL     1       3.997  -4.874   2.590  1.00  0.00     0.014 A 
ATOM     26  C   UNL     1       1.133  -4.020   1.771  1.00  0.00     0.002 A 
ATOM     27  C   UNL     1       7.238   1.006   3.514  1.00  0.00     0.001 A 
ATOM     28  O   UNL     1       5.988  -2.535   4.217  1.00  0.00    -0.288 OA
ATOM     29  C   UNL     1       2.256  -5.307   2.259  1.00  0.00     0.001 A 
ENDBRANCH  14  15
ENDBRANCH  12  14
ENDBRANCH   9  10
BRANCH   9  30
ATOM     30  C   UNL     1       2.924   0.395  -4.397  1.00  0.00     0.072 C 
BRANCH  30  31
ATOM     31  C   UNL     1       4.420   0.270  -4.593  1.00  0.00    -0.045 A 
ATOM     32  C   UNL     1       5.269   1.282  -4.141  1.00  0.00     0.004 A 
ATOM     33  C   UNL     1       4.990  -0.878  -5.162  1.00  0.00     0.004 A 
ATOM     34  C   UNL     1       6.653   1.113  -4.189  1.00  0.00     0.000 A 
ATOM     35  C   UNL     1       6.369  -1.079  -5.146  1.00  0.00     0.000 A 
ATOM     36  C   UNL     1       7.201  -0.080  -4.657  1.00  0.00     0.000 A 
ENDBRANCH  30  31
ENDBRANCH   9  30
ENDBRANCH   7   9
ENDBRANCH   6   7
ENDBRANCH   5   6
ENDBRANCH   4   5
ENDBRANCH   3   4
ENDBRANCH   2   3
ENDBRANCH   1   2
BRANCH   1  37
ATOM     37  O   UNL     1       4.186  -3.289  -1.604  1.00  0.00    -0.377 OA
BRANCH  37  38
ATOM     38  C   UNL     1       4.915  -3.808  -0.520  1.00  0.00     0.188 C 
BRANCH  38  39
ATOM     39  C   UNL     1       4.064  -4.670   0.398  1.00  0.00     0.188 C 
BRANCH  39  40
ATOM     40  O   UNL     1       3.067  -3.761   1.408  1.00  0.00    -0.376 OA
BRANCH  40  41
ATOM     41  C   UNL     1       2.763  -3.516   3.398  1.00  0.00     0.202 C 
BRANCH  41  42
ATOM     42  C   UNL     1       3.745  -4.331   4.761  1.00  0.00     0.261 C 
BRANCH  42  43
ATOM     43  O   UNL     1       5.286  -4.576   4.633  1.00  0.00    -0.460 OA
BRANCH  43  44
ATOM     44  C   UNL     1       6.061  -5.644   4.230  1.00  0.00     0.338 C 
ATOM     45  O   UNL     1       5.725  -6.816   4.355  1.00  0.00    -0.246 OA
BRANCH  44  46
ATOM     46  C   UNL     1       7.207  -5.258   3.231  1.00  0.00     0.060 A 
ATOM     47  C   UNL     1       8.044  -4.160   3.419  1.00  0.00     0.016 A 
ATOM     48  C   UNL     1       7.463  -6.011   2.057  1.00  0.00     0.016 A 
ATOM     49  C   UNL     1       9.065  -3.807   2.494  1.00  0.00     0.010 A 
ATOM     50  C   UNL     1       8.554  -5.718   1.170  1.00  0.00     0.010 A 
ATOM     51  C   UNL     1       9.411  -4.631   1.402  1.00  0.00    -0.014 A 
BRANCH  51  52
ATOM     52  C   UNL     1      10.807  -4.517   0.803  1.00  0.00     0.031 A 
ATOM     53  C   UNL     1      11.145  -4.175  -0.638  1.00  0.00     0.074 A 
ATOM     54  C   UNL     1      11.852  -4.753   1.632  1.00  0.00     0.049 A 
ATOM     55  N   UNL     1      12.330  -4.007  -1.193  1.00  0.00    -0.248 NA
ATOM     56  C   UNL     1      10.032  -4.011  -1.578  1.00  0.00     0.031 C 
ATOM     57  C   UNL     1      11.718  -5.141   3.036  1.00  0.00     0.029 A 
ATOM     58  N   UNL     1      13.217  -4.691   1.444  1.00  0.00    -0.354 N 
ATOM     59  C   UNL     1      12.111  -3.711  -2.537  1.00  0.00     0.074 A 
ATOM     60  C   UNL     1      10.670  -3.761  -2.720  1.00  0.00     0.031 C 
ATOM     61  C   UNL     1      12.929  -5.214   3.598  1.00  0.00     0.029 A 
ATOM     62  C   UNL     1      13.943  -4.958   2.583  1.00  0.00     0.049 A 
ATOM     63  H   UNL     1      13.633  -4.476   0.578  1.00  0.00     0.167 HD
ATOM     64  C   UNL     1      13.011  -3.418  -3.519  1.00  0.00     0.037 A 
ATOM     65  C   UNL     1      15.271  -5.013   2.817  1.00  0.00     0.037 A 
ATOM     66  C   UNL     1      14.452  -3.381  -3.355  1.00  0.00     0.049 A 
ATOM     67  C   UNL     1      16.243  -4.732   1.709  1.00  0.00     0.074 A 
ATOM     68  C   UNL     1      15.421  -3.044  -4.293  1.00  0.00     0.029 A 
ATOM     69  N   UNL     1      15.139  -3.706  -2.194  1.00  0.00    -0.354 N 
ATOM     70  N   UNL     1      16.003  -4.381   0.472  1.00  0.00    -0.248 NA
ATOM     71  C   UNL     1      17.673  -4.856   2.031  1.00  0.00     0.031 C 
ATOM     72  C   UNL     1      16.685  -3.234  -3.724  1.00  0.00     0.029 A 
ATOM     73  C   UNL     1      16.512  -3.617  -2.406  1.00  0.00     0.049 A 
ATOM     74  H   UNL     1      14.716  -3.963  -1.343  1.00  0.00     0.167 HD
ATOM     75  C   UNL     1      17.245  -4.225  -0.128  1.00  0.00     0.074 A 
ATOM     76  C   UNL     1      18.240  -4.495   0.887  1.00  0.00     0.031 C 
ATOM     77  C   UNL     1      17.521  -3.889  -1.411  1.00  0.00     0.037 A 
BRANCH  64  78
ATOM     78  C   UNL     1      12.483  -3.099  -4.901  1.00  0.00     0.064 A 
ATOM     79  C   UNL     1      11.769  -1.918  -5.159  1.00  0.00     0.173 A 
ATOM     80  C   UNL     1      12.784  -3.923  -6.000  1.00  0.00     0.173 A 
ATOM     81  F   UNL     1      11.466  -1.079  -4.156  1.00  0.00    -0.203 F 
ATOM     82  C   UNL     1      11.345  -1.595  -6.448  1.00  0.00     0.198 A 
ATOM     83  C   UNL     1      12.389  -3.580  -7.293  1.00  0.00     0.198 A 
ATOM     84  F   UNL     1      13.492  -5.050  -5.828  1.00  0.00    -0.203 F 
ATOM     85  F   UNL     1      10.625  -0.484  -6.654  1.00  0.00    -0.200 F 
ATOM     86  C   UNL     1      11.661  -2.422  -7.515  1.00  0.00     0.200 A 
ATOM     87  F   UNL     1      12.720  -4.368  -8.327  1.00  0.00    -0.200 F 
ATOM     88  F   UNL     1      11.262  -2.104  -8.754  1.00  0.00    -0.200 F 
ENDBRANCH  64  78
BRANCH  65  89
ATOM     89  C   UNL     1      15.751  -5.333   4.190  1.00  0.00     0.064 A 
ATOM     90  C   UNL     1      16.381  -4.359   4.977  1.00  0.00     0.173 A 
ATOM     91  C   UNL     1      15.543  -6.598   4.761  1.00  0.00     0.173 A 
ATOM     92  F   UNL     1      16.625  -3.142   4.468  1.00  0.00    -0.203 F 
ATOM     93  C   UNL     1      16.779  -4.636   6.283  1.00  0.00     0.198 A 
ATOM     94  C   UNL     1      15.909  -6.863   6.079  1.00  0.00     0.198 A 
ATOM     95  F   UNL     1      14.943  -7.565   4.051  1.00  0.00    -0.203 F 
ATOM     96  F   UNL     1      17.404  -3.696   7.004  1.00  0.00    -0.200 F 
ATOM     97  C   UNL     1      16.530  -5.883   6.837  1.00  0.00     0.200 A 
ATOM     98  F   UNL     1      15.647  -8.062   6.617  1.00  0.00    -0.200 F 
ATOM     99  F   UNL     1      16.889  -6.139   8.102  1.00  0.00    -0.200 F 
ENDBRANCH  65  89
BRANCH  77 100
ATOM    100  C   UNL     1      18.968  -3.778  -1.813  1.00  0.00     0.064 A 
ATOM    101  C   UNL     1      19.796  -4.908  -1.909  1.00  0.00     0.173 A 
ATOM    102  C   UNL     1      19.521  -2.536  -2.164  1.00  0.00     0.173 A 
ATOM    103  F   UNL     1      19.329  -6.118  -1.568  1.00  0.00    -0.203 F 
ATOM    104  C   UNL     1      21.121  -4.796  -2.328  1.00  0.00     0.198 A 
ATOM    105  C   UNL     1      20.836  -2.433  -2.615  1.00  0.00     0.198 A 
ATOM    106  F   UNL     1      18.779  -1.421  -2.093  1.00  0.00    -0.203 F 
ATOM    107  F   UNL     1      21.902  -5.885  -2.373  1.00  0.00    -0.200 F 
ATOM    108  C   UNL     1      21.636  -3.562  -2.692  1.00  0.00     0.200 A 
ATOM    109  F   UNL     1      21.326  -1.240  -2.981  1.00  0.00    -0.200 F 
ATOM    110  F   UNL     1      22.904  -3.459  -3.114  1.00  0.00    -0.200 F 
ENDBRANCH  77 100
ENDBRANCH  51  52
ENDBRANCH  44  46
ENDBRANCH  43  44
ENDBRANCH  42  43
ENDBRANCH  41  42
ENDBRANCH  40  41
ENDBRANCH  39  40
ENDBRANCH  38  39
ENDBRANCH  37  38
ENDBRANCH   1  37
TORSDOF 25
