REMARK SMILES COc1cccc([C@@H]2CC(c3cccc(C)c3)=NN2C(=O)CCC(=O)OCCOCCOCCOCCOC(=O)c2ccc(-c3c4nc(c(-c5c(F)c(F)c(F)c(F)c5F)c5ccc([nH]5)c(-c5c(F)c(F)c(F)c(F)c5F)c5nc(c(-c6c(F)c(F)c(F)c(F)c6F)c6ccc3[nH]6)C=C5)C=C4)cc2)c1
REMARK SMILES IDX 30 1 29 2 28 3 27 4 26 5 24 6 25 7 23 8 22 9 20 10 21 11
REMARK SMILES IDX 19 12 8 13 9 14 10 15 18 16 7 17 3 18 4 19 104 20 5 21 6 22
REMARK SMILES IDX 2 23 1 24 11 25 12 26 17 27 13 28 15 29 14 30 16 31 31 32
REMARK SMILES IDX 32 33 33 34 34 35 35 36 36 37 37 38 38 39 39 40 40 41 41 42
REMARK SMILES IDX 42 43 103 44 43 45 102 46 44 47 45 48 46 49 96 50 47 51
REMARK SMILES IDX 101 52 95 53 97 54 48 55 100 56 94 57 93 58 49 60 81 61
REMARK SMILES IDX 61 62 80 63 62 64 65 65 79 66 98 67 63 68 64 69 78 71 99 72
REMARK SMILES IDX 66 73 50 74 51 75 59 76 52 77 53 78 57 79 60 80 54 81 55 82
REMARK SMILES IDX 58 83 56 84 82 85 83 86 91 87 84 88 85 89 89 90 92 91 86 92
REMARK SMILES IDX 87 93 90 94 88 95 67 96 68 97 76 98 69 99 70 100 74 101
REMARK SMILES IDX 77 102 71 103 72 104 75 105 73 106
REMARK H PARENT 97 59 65 70
REMARK Flexibility Score: inf
ROOT
ATOM      1  C   UNL     1       1.861  -5.170  -2.879  1.00  0.00     0.188 C 
ENDROOT
BRANCH   1   2
ATOM      2  O   UNL     1       0.803  -4.198  -3.278  1.00  0.00    -0.376 OA
BRANCH   2   3
ATOM      3  C   UNL     1       0.507  -2.759  -3.153  1.00  0.00     0.202 C 
BRANCH   3   4
ATOM      4  C   UNL     1       0.776  -1.919  -1.878  1.00  0.00     0.261 C 
BRANCH   4   5
ATOM      5  O   UNL     1       1.527  -2.655  -0.935  1.00  0.00    -0.463 OA
BRANCH   5   6
ATOM      6  C   UNL     1       0.748  -3.400  -0.135  1.00  0.00     0.306 C 
ATOM      7  O   UNL     1      -0.456  -3.229   0.019  1.00  0.00    -0.252 OA
BRANCH   6   8
ATOM      8  C   UNL     1       1.504  -4.482   0.559  1.00  0.00     0.132 C 
BRANCH   8   9
ATOM      9  C   UNL     1       2.774  -5.074  -0.037  1.00  0.00     0.114 C 
BRANCH   9  10
ATOM     10  C   UNL     1       3.907  -4.219  -0.599  1.00  0.00     0.243 C 
ATOM     11  O   UNL     1       4.903  -4.259   0.164  1.00  0.00    -0.273 OA
BRANCH  10  12
ATOM     12  N   UNL     1       3.985  -3.460  -1.780  1.00  0.00    -0.225 N 
ATOM     13  C   UNL     1       3.441  -3.122  -3.405  1.00  0.00     0.147 C 
ATOM     14  C   UNL     1       3.890  -1.598  -3.473  1.00  0.00     0.091 C 
ATOM     15  C   UNL     1       4.894  -1.544  -2.346  1.00  0.00     0.071 C 
ATOM     16  N   UNL     1       4.897  -2.502  -1.503  1.00  0.00    -0.174 NA
BRANCH  13  17
ATOM     17  C   UNL     1       3.341  -4.303  -4.893  1.00  0.00    -0.019 A 
ATOM     18  C   UNL     1       1.728  -4.866  -7.449  1.00  0.00     0.119 A 
ATOM     19  C   UNL     1       3.133  -5.298  -8.407  1.00  0.00     0.046 A 
ATOM     20  C   UNL     1       1.821  -4.326  -5.793  1.00  0.00     0.052 A 
ATOM     21  C   UNL     1       4.730  -5.339  -7.657  1.00  0.00     0.004 A 
ATOM     22  C   UNL     1       4.831  -5.009  -5.827  1.00  0.00     0.006 A 
BRANCH  18  23
ATOM     23  O   UNL     1       0.513  -5.231  -8.014  1.00  0.00    -0.497 OA
ATOM     24  C   UNL     1      -0.597  -5.233  -7.115  1.00  0.00     0.278 C 
ENDBRANCH  18  23
ENDBRANCH  13  17
BRANCH  15  25
ATOM     25  C   UNL     1       5.910  -0.525  -2.082  1.00  0.00    -0.002 A 
ATOM     26  C   UNL     1       7.093  -0.980  -1.460  1.00  0.00     0.010 A 
ATOM     27  C   UNL     1       5.597   0.818  -2.140  1.00  0.00     0.013 A 
ATOM     28  C   UNL     1       7.905  -0.091  -0.781  1.00  0.00     0.001 A 
ATOM     29  C   UNL     1       6.446   1.722  -1.500  1.00  0.00    -0.050 A 
ATOM     30  C   UNL     1       7.558   1.256  -0.780  1.00  0.00     0.003 A 
ATOM     31  C   UNL     1       6.191   3.190  -1.621  1.00  0.00     0.044 C 
ENDBRANCH  15  25
ENDBRANCH  10  12
ENDBRANCH   9  10
ENDBRANCH   8   9
ENDBRANCH   6   8
ENDBRANCH   5   6
ENDBRANCH   4   5
ENDBRANCH   3   4
ENDBRANCH   2   3
ENDBRANCH   1   2
BRANCH   1  32
ATOM     32  C   UNL     1       3.682  -5.594  -3.094  1.00  0.00     0.188 C 
BRANCH  32  33
ATOM     33  O   UNL     1       5.100  -4.708  -3.407  1.00  0.00    -0.377 OA
BRANCH  33  34
ATOM     34  C   UNL     1       5.554  -3.444  -4.505  1.00  0.00     0.188 C 
BRANCH  34  35
ATOM     35  C   UNL     1       4.647  -2.978  -6.104  1.00  0.00     0.188 C 
BRANCH  35  36
ATOM     36  O   UNL     1       3.516  -4.194  -6.795  1.00  0.00    -0.376 OA
BRANCH  36  37
ATOM     37  C   UNL     1       3.365  -6.149  -6.306  1.00  0.00     0.202 C 
BRANCH  37  38
ATOM     38  C   UNL     1       4.903  -7.309  -6.277  1.00  0.00     0.261 C 
BRANCH  38  39
ATOM     39  O   UNL     1       6.456  -6.823  -6.010  1.00  0.00    -0.460 OA
BRANCH  39  40
ATOM     40  C   UNL     1       7.396  -6.229  -6.861  1.00  0.00     0.338 C 
ATOM     41  O   UNL     1       7.514  -6.510  -8.048  1.00  0.00    -0.246 OA
BRANCH  40  42
ATOM     42  C   UNL     1       8.197  -4.999  -6.313  1.00  0.00     0.060 A 
ATOM     43  C   UNL     1       8.033  -3.697  -6.868  1.00  0.00     0.016 A 
ATOM     44  C   UNL     1       9.197  -5.101  -5.343  1.00  0.00     0.016 A 
ATOM     45  C   UNL     1       8.789  -2.548  -6.437  1.00  0.00     0.010 A 
ATOM     46  C   UNL     1       9.996  -3.967  -4.958  1.00  0.00     0.010 A 
ATOM     47  C   UNL     1       9.823  -2.671  -5.499  1.00  0.00    -0.014 A 
BRANCH  47  48
ATOM     48  C   UNL     1      10.894  -1.606  -5.279  1.00  0.00     0.031 A 
ATOM     49  C   UNL     1      12.149  -1.671  -6.120  1.00  0.00     0.074 A 
ATOM     50  C   UNL     1      10.850  -0.560  -4.419  1.00  0.00     0.049 A 
ATOM     51  N   UNL     1      13.263  -0.984  -6.026  1.00  0.00    -0.248 NA
ATOM     52  C   UNL     1      12.112  -2.605  -7.251  1.00  0.00     0.031 C 
ATOM     53  C   UNL     1       9.669  -0.094  -3.717  1.00  0.00     0.029 A 
ATOM     54  N   UNL     1      11.845   0.322  -3.995  1.00  0.00    -0.354 N 
ATOM     55  C   UNL     1      14.048  -1.382  -7.097  1.00  0.00     0.074 A 
ATOM     56  C   UNL     1      13.302  -2.409  -7.798  1.00  0.00     0.031 C 
ATOM     57  C   UNL     1      10.022   0.929  -2.917  1.00  0.00     0.029 A 
ATOM     58  C   UNL     1      11.455   1.134  -2.952  1.00  0.00     0.049 A 
ATOM     59  H   UNL     1      12.740   0.360  -4.402  1.00  0.00     0.167 HD
ATOM     60  C   UNL     1      15.264  -0.926  -7.484  1.00  0.00     0.037 A 
ATOM     61  C   UNL     1      12.129   1.934  -2.092  1.00  0.00     0.037 A 
ATOM     62  C   UNL     1      16.043   0.074  -6.795  1.00  0.00     0.049 A 
ATOM     63  C   UNL     1      13.571   2.244  -2.361  1.00  0.00     0.074 A 
ATOM     64  C   UNL     1      17.305   0.551  -7.112  1.00  0.00     0.029 A 
ATOM     65  N   UNL     1      15.649   0.745  -5.647  1.00  0.00    -0.354 N 
ATOM     66  N   UNL     1      14.314   1.829  -3.353  1.00  0.00    -0.248 NA
ATOM     67  C   UNL     1      14.244   3.194  -1.460  1.00  0.00     0.031 C 
ATOM     68  C   UNL     1      17.702   1.456  -6.122  1.00  0.00     0.029 A 
ATOM     69  C   UNL     1      16.661   1.599  -5.222  1.00  0.00     0.049 A 
ATOM     70  H   UNL     1      14.780   0.633  -5.198  1.00  0.00     0.167 HD
ATOM     71  C   UNL     1      15.510   2.517  -3.243  1.00  0.00     0.074 A 
ATOM     72  C   UNL     1      15.400   3.376  -2.084  1.00  0.00     0.031 C 
ATOM     73  C   UNL     1      16.585   2.451  -4.063  1.00  0.00     0.037 A 
BRANCH  60  74
ATOM     74  C   UNL     1      15.854  -1.553  -8.713  1.00  0.00     0.064 A 
ATOM     75  C   UNL     1      15.339  -1.296  -9.993  1.00  0.00     0.173 A 
ATOM     76  C   UNL     1      16.953  -2.418  -8.607  1.00  0.00     0.173 A 
ATOM     77  F   UNL     1      14.274  -0.493 -10.144  1.00  0.00    -0.203 F 
ATOM     78  C   UNL     1      15.885  -1.906 -11.118  1.00  0.00     0.198 A 
ATOM     79  C   UNL     1      17.517  -3.000  -9.738  1.00  0.00     0.198 A 
ATOM     80  F   UNL     1      17.481  -2.697  -7.406  1.00  0.00    -0.203 F 
ATOM     81  F   UNL     1      15.342  -1.691 -12.325  1.00  0.00    -0.200 F 
ATOM     82  C   UNL     1      16.978  -2.751 -10.991  1.00  0.00     0.200 A 
ATOM     83  F   UNL     1      18.579  -3.807  -9.614  1.00  0.00    -0.200 F 
ATOM     84  F   UNL     1      17.506  -3.333 -12.076  1.00  0.00    -0.200 F 
ENDBRANCH  60  74
BRANCH  61  85
ATOM     85  C   UNL     1      11.467   2.510  -0.877  1.00  0.00     0.064 A 
ATOM     86  C   UNL     1      11.208   3.883  -0.755  1.00  0.00     0.173 A 
ATOM     87  C   UNL     1      11.150   1.699   0.225  1.00  0.00     0.173 A 
ATOM     88  F   UNL     1      11.540   4.716  -1.751  1.00  0.00    -0.203 F 
ATOM     89  C   UNL     1      10.660   4.420   0.413  1.00  0.00     0.198 A 
ATOM     90  C   UNL     1      10.579   2.233   1.384  1.00  0.00     0.198 A 
ATOM     91  F   UNL     1      11.391   0.381   0.181  1.00  0.00    -0.203 F 
ATOM     92  F   UNL     1      10.461   5.742   0.511  1.00  0.00    -0.200 F 
ATOM     93  C   UNL     1      10.336   3.594   1.478  1.00  0.00     0.200 A 
ATOM     94  F   UNL     1      10.253   1.427   2.405  1.00  0.00    -0.200 F 
ATOM     95  F   UNL     1       9.793   4.109   2.589  1.00  0.00    -0.200 F 
ENDBRANCH  61  85
BRANCH  73  96
ATOM     96  C   UNL     1      17.731   3.370  -3.756  1.00  0.00     0.064 A 
ATOM     97  C   UNL     1      18.518   3.213  -2.605  1.00  0.00     0.173 A 
ATOM     98  C   UNL     1      18.032   4.438  -4.615  1.00  0.00     0.173 A 
ATOM     99  F   UNL     1      18.258   2.223  -1.738  1.00  0.00    -0.203 F 
ATOM    100  C   UNL     1      19.535   4.115  -2.304  1.00  0.00     0.198 A 
ATOM    101  C   UNL     1      19.075   5.315  -4.331  1.00  0.00     0.198 A 
ATOM    102  F   UNL     1      17.309   4.637  -5.727  1.00  0.00    -0.203 F 
ATOM    103  F   UNL     1      20.223   3.990  -1.161  1.00  0.00    -0.200 F 
ATOM    104  C   UNL     1      19.817   5.161  -3.170  1.00  0.00     0.200 A 
ATOM    105  F   UNL     1      19.351   6.320  -5.174  1.00  0.00    -0.200 F 
ATOM    106  F   UNL     1      20.793   6.031  -2.877  1.00  0.00    -0.200 F 
ENDBRANCH  73  96
ENDBRANCH  47  48
ENDBRANCH  40  42
ENDBRANCH  39  40
ENDBRANCH  38  39
ENDBRANCH  37  38
ENDBRANCH  36  37
ENDBRANCH  35  36
ENDBRANCH  34  35
ENDBRANCH  33  34
ENDBRANCH  32  33
ENDBRANCH   1  32
TORSDOF 26
