REMARK SMILES O=C(C[C@@H]1C(=O)NCC[N@@H+]1Cc1ccc(F)c(F)c1)OCCOCCOCCOCCOC(=O)c1ccc(-c2c3nc(c(-c4c(F)c(F)c(F)c(F)c4F)c4ccc([nH]4)c(-c4c(F)c(F)c(F)c(F)c4F)c4nc(c(-c5c(F)c(F)c(F)c(F)c5F)c5ccc2[nH]5)C=C4)C=C3)cc1
REMARK SMILES IDX 25 1 24 2 23 3 22 4 21 5 20 6 2 7 1 8 3 9 4 10 5 11 10 12
REMARK SMILES IDX 6 13 7 14 9 15 8 17 11 19 12 20 13 21 19 22 14 23 17 24
REMARK SMILES IDX 15 25 18 26 16 27 26 28 27 29 28 30 29 31 30 32 31 33 32 34
REMARK SMILES IDX 33 35 34 36 35 37 36 38 97 39 37 40 96 41 38 42 39 43 40 44
REMARK SMILES IDX 90 45 41 46 95 47 89 48 91 49 42 50 94 51 88 52 87 53 43 55
REMARK SMILES IDX 75 56 55 57 74 58 56 59 59 60 73 61 92 62 57 63 58 64 72 66
REMARK SMILES IDX 93 67 60 68 44 69 45 70 53 71 46 72 47 73 51 74 54 75 48 76
REMARK SMILES IDX 49 77 52 78 50 79 76 80 77 81 85 82 78 83 79 84 83 85 86 86
REMARK SMILES IDX 80 87 81 88 84 89 82 90 61 91 62 92 70 93 63 94 64 95 68 96
REMARK SMILES IDX 71 97 65 98 66 99 69 100 67 101
REMARK H PARENT 10 16 7 18 91 54 59 65
REMARK Flexibility Score: inf
ROOT
ATOM      1  C   UNL     1       2.302  -2.246  -1.299  1.00  0.00     0.188 C 
ENDROOT
BRANCH   1   2
ATOM      2  C   UNL     1       3.002  -0.995  -1.846  1.00  0.00     0.188 C 
BRANCH   2   3
ATOM      3  O   UNL     1       4.402  -0.872  -1.641  1.00  0.00    -0.376 OA
BRANCH   3   4
ATOM      4  C   UNL     1       5.132  -0.399  -0.526  1.00  0.00     0.202 C 
BRANCH   4   5
ATOM      5  C   UNL     1       4.663  -0.535   0.922  1.00  0.00     0.261 C 
BRANCH   5   6
ATOM      6  O   UNL     1       3.260  -0.580   1.141  1.00  0.00    -0.463 OA
BRANCH   6   7
ATOM      7  C   UNL     1       2.428   0.449   0.903  1.00  0.00     0.312 C 
ATOM      8  O   UNL     1       1.249   0.364   1.233  1.00  0.00    -0.252 OA
BRANCH   7   9
ATOM      9  C   UNL     1       2.909   1.581   0.032  1.00  0.00     0.198 C 
BRANCH   9  10
ATOM     10  C   UNL     1       3.679   2.731   0.624  1.00  0.00     0.285 C 
ATOM     11  C   UNL     1       3.653   2.876   2.148  1.00  0.00     0.279 C 
ATOM     12  N   UNL     1       3.505   3.993  -0.138  1.00  0.00    -0.319 N 
ATOM     13  O   UNL     1       3.379   1.960   2.918  1.00  0.00    -0.268 OA
ATOM     14  N   UNL     1       4.184   4.027   2.659  1.00  0.00    -0.345 N 
ATOM     15  C   UNL     1       4.388   5.042   0.366  1.00  0.00     0.284 C 
ATOM     16  H   UNL     1       3.831   3.755  -1.075  1.00  0.00     0.349 HD
ATOM     17  C   UNL     1       4.386   5.233   1.890  1.00  0.00     0.177 C 
ATOM     18  H   UNL     1       4.444   4.035   3.608  1.00  0.00     0.163 HD
BRANCH  12  19
ATOM     19  C   UNL     1       2.164   4.391  -0.599  1.00  0.00     0.299 C 
BRANCH  19  20
ATOM     20  C   UNL     1       1.047   4.241   0.412  1.00  0.00     0.009 A 
ATOM     21  C   UNL     1       0.991   5.090   1.520  1.00  0.00     0.013 A 
ATOM     22  C   UNL     1       0.112   3.192   0.330  1.00  0.00     0.052 A 
ATOM     23  C   UNL     1       0.187   4.774   2.614  1.00  0.00     0.043 A 
ATOM     24  C   UNL     1      -0.692   2.881   1.422  1.00  0.00     0.159 A 
ATOM     25  C   UNL     1      -0.620   3.644   2.575  1.00  0.00     0.158 A 
ATOM     26  F   UNL     1      -1.505   1.817   1.359  1.00  0.00    -0.204 F 
ATOM     27  F   UNL     1      -1.335   3.310   3.657  1.00  0.00    -0.204 F 
ENDBRANCH  19  20
ENDBRANCH  12  19
ENDBRANCH   9  10
ENDBRANCH   7   9
ENDBRANCH   6   7
ENDBRANCH   5   6
ENDBRANCH   4   5
ENDBRANCH   3   4
ENDBRANCH   2   3
ENDBRANCH   1   2
BRANCH   1  28
ATOM     28  O   UNL     1       2.920  -3.491  -1.591  1.00  0.00    -0.377 OA
BRANCH  28  29
ATOM     29  C   UNL     1       4.294  -3.551  -1.255  1.00  0.00     0.188 C 
BRANCH  29  30
ATOM     30  C   UNL     1       5.240  -3.329  -2.456  1.00  0.00     0.188 C 
BRANCH  30  31
ATOM     31  O   UNL     1       4.762  -2.773  -3.667  1.00  0.00    -0.376 OA
BRANCH  31  32
ATOM     32  C   UNL     1       3.644  -3.300  -4.360  1.00  0.00     0.202 C 
BRANCH  32  33
ATOM     33  C   UNL     1       3.143  -4.757  -4.298  1.00  0.00     0.261 C 
BRANCH  33  34
ATOM     34  O   UNL     1       3.565  -5.575  -3.208  1.00  0.00    -0.460 OA
BRANCH  34  35
ATOM     35  C   UNL     1       4.698  -6.277  -3.402  1.00  0.00     0.338 C 
ATOM     36  O   UNL     1       5.375  -6.327  -4.418  1.00  0.00    -0.246 OA
BRANCH  35  37
ATOM     37  C   UNL     1       5.141  -6.798  -2.092  1.00  0.00     0.060 A 
ATOM     38  C   UNL     1       6.436  -6.471  -1.663  1.00  0.00     0.016 A 
ATOM     39  C   UNL     1       4.293  -7.553  -1.276  1.00  0.00     0.016 A 
ATOM     40  C   UNL     1       6.905  -6.933  -0.442  1.00  0.00     0.010 A 
ATOM     41  C   UNL     1       4.782  -8.060  -0.069  1.00  0.00     0.010 A 
ATOM     42  C   UNL     1       6.105  -7.790   0.323  1.00  0.00    -0.014 A 
BRANCH  42  43
ATOM     43  C   UNL     1       6.779  -8.602   1.358  1.00  0.00     0.031 A 
ATOM     44  C   UNL     1       7.285  -9.959   0.953  1.00  0.00     0.074 A 
ATOM     45  C   UNL     1       7.044  -8.105   2.577  1.00  0.00     0.049 A 
ATOM     46  N   UNL     1       7.987 -10.822   1.639  1.00  0.00    -0.248 NA
ATOM     47  C   UNL     1       6.966 -10.396  -0.417  1.00  0.00     0.031 C 
ATOM     48  C   UNL     1       6.655  -6.779   3.046  1.00  0.00     0.029 A 
ATOM     49  N   UNL     1       7.722  -8.657   3.634  1.00  0.00    -0.354 N 
ATOM     50  C   UNL     1       8.192 -11.898   0.784  1.00  0.00     0.074 A 
ATOM     51  C   UNL     1       7.511 -11.601  -0.454  1.00  0.00     0.031 C 
ATOM     52  C   UNL     1       7.111  -6.614   4.300  1.00  0.00     0.029 A 
ATOM     53  C   UNL     1       7.799  -7.833   4.727  1.00  0.00     0.049 A 
ATOM     54  H   UNL     1       8.116  -9.559   3.610  1.00  0.00     0.167 HD
ATOM     55  C   UNL     1       8.900 -13.026   1.012  1.00  0.00     0.037 A 
ATOM     56  C   UNL     1       8.359  -8.045   5.935  1.00  0.00     0.037 A 
ATOM     57  C   UNL     1       9.577 -13.309   2.248  1.00  0.00     0.049 A 
ATOM     58  C   UNL     1       9.070  -9.347   6.199  1.00  0.00     0.074 A 
ATOM     59  C   UNL     1      10.335 -14.417   2.577  1.00  0.00     0.029 A 
ATOM     60  N   UNL     1       9.568 -12.479   3.360  1.00  0.00    -0.354 N 
ATOM     61  N   UNL     1       9.282 -10.351   5.382  1.00  0.00    -0.248 NA
ATOM     62  C   UNL     1       9.623  -9.548   7.546  1.00  0.00     0.031 C 
ATOM     63  C   UNL     1      10.724 -14.293   3.912  1.00  0.00     0.029 A 
ATOM     64  C   UNL     1      10.276 -13.071   4.391  1.00  0.00     0.049 A 
ATOM     65  H   UNL     1       9.125 -11.601   3.408  1.00  0.00     0.167 HD
ATOM     66  C   UNL     1      10.012 -11.288   6.102  1.00  0.00     0.074 A 
ATOM     67  C   UNL     1      10.212 -10.732   7.424  1.00  0.00     0.031 C 
ATOM     68  C   UNL     1      10.478 -12.496   5.699  1.00  0.00     0.037 A 
BRANCH  55  69
ATOM     69  C   UNL     1       8.957 -14.052  -0.082  1.00  0.00     0.064 A 
ATOM     70  C   UNL     1       8.330 -15.296   0.084  1.00  0.00     0.173 A 
ATOM     71  C   UNL     1       9.669 -13.830  -1.270  1.00  0.00     0.173 A 
ATOM     72  F   UNL     1       7.637 -15.561   1.201  1.00  0.00    -0.203 F 
ATOM     73  C   UNL     1       8.429 -16.285  -0.890  1.00  0.00     0.198 A 
ATOM     74  C   UNL     1       9.737 -14.809  -2.258  1.00  0.00     0.198 A 
ATOM     75  F   UNL     1      10.273 -12.652  -1.487  1.00  0.00    -0.203 F 
ATOM     76  F   UNL     1       7.853 -17.479  -0.692  1.00  0.00    -0.200 F 
ATOM     77  C   UNL     1       9.127 -16.039  -2.063  1.00  0.00     0.200 A 
ATOM     78  F   UNL     1      10.388 -14.560  -3.403  1.00  0.00    -0.200 F 
ATOM     79  F   UNL     1       9.209 -16.988  -3.006  1.00  0.00    -0.200 F 
ENDBRANCH  55  69
BRANCH  56  80
ATOM     80  C   UNL     1       8.281  -6.978   6.967  1.00  0.00     0.064 A 
ATOM     81  C   UNL     1       7.053  -6.612   7.542  1.00  0.00     0.173 A 
ATOM     82  C   UNL     1       9.420  -6.263   7.356  1.00  0.00     0.173 A 
ATOM     83  F   UNL     1       5.933  -7.268   7.206  1.00  0.00    -0.203 F 
ATOM     84  C   UNL     1       6.965  -5.548   8.437  1.00  0.00     0.198 A 
ATOM     85  C   UNL     1       9.335  -5.215   8.273  1.00  0.00     0.198 A 
ATOM     86  F   UNL     1      10.620  -6.589   6.854  1.00  0.00    -0.203 F 
ATOM     87  F   UNL     1       5.773  -5.190   8.933  1.00  0.00    -0.200 F 
ATOM     88  C   UNL     1       8.105  -4.850   8.802  1.00  0.00     0.200 A 
ATOM     89  F   UNL     1      10.443  -4.557   8.639  1.00  0.00    -0.200 F 
ATOM     90  F   UNL     1       8.021  -3.825   9.660  1.00  0.00    -0.200 F 
ENDBRANCH  56  80
BRANCH  68  91
ATOM     91  C   UNL     1      11.280 -13.312   6.672  1.00  0.00     0.064 A 
ATOM     92  C   UNL     1      12.646 -13.544   6.439  1.00  0.00     0.173 A 
ATOM     93  C   UNL     1      10.672 -13.984   7.740  1.00  0.00     0.173 A 
ATOM     94  F   UNL     1      13.271 -12.934   5.420  1.00  0.00    -0.203 F 
ATOM     95  C   UNL     1      13.362 -14.447   7.217  1.00  0.00     0.198 A 
ATOM     96  C   UNL     1      11.401 -14.864   8.537  1.00  0.00     0.198 A 
ATOM     97  F   UNL     1       9.373 -13.789   8.009  1.00  0.00    -0.203 F 
ATOM     98  F   UNL     1      14.649 -14.698   6.937  1.00  0.00    -0.200 F 
ATOM     99  C   UNL     1      12.739 -15.107   8.265  1.00  0.00     0.200 A 
ATOM    100  F   UNL     1      10.803 -15.488   9.562  1.00  0.00    -0.200 F 
ATOM    101  F   UNL     1      13.427 -15.985   9.008  1.00  0.00    -0.200 F 
ENDBRANCH  68  91
ENDBRANCH  42  43
ENDBRANCH  35  37
ENDBRANCH  34  35
ENDBRANCH  33  34
ENDBRANCH  32  33
ENDBRANCH  31  32
ENDBRANCH  30  31
ENDBRANCH  29  30
ENDBRANCH  28  29
ENDBRANCH   1  28
TORSDOF 23
