REMARK SMILES C[C@@H](C(=O)OCCOCCOCCOCCOC(=O)c1ccc(-c2c3nc(c(-c4c(F)c(F)c(F)c(F)c4F)c4ccc([nH]4)c(-c4c(F)c(F)c(F)c(F)c4F)c4nc(c(-c5c(F)c(F)c(F)c(F)c5F)c5ccc2[nH]5)C=C4)C=C3)cc1)c1ccc(-c2ccc3[nH]ccc3c2)cc1
REMARK SMILES IDX 11 1 10 2 9 3 8 4 7 5 6 6 5 7 3 8 4 9 2 10 1 11 83 12 84 13
REMARK SMILES IDX 97 14 85 15 96 16 86 17 87 18 88 19 95 20 89 21 94 22 90 23
REMARK SMILES IDX 93 24 91 25 92 26 12 28 13 29 14 30 15 31 16 32 17 33 18 34
REMARK SMILES IDX 19 35 20 36 21 37 82 38 22 39 81 40 23 41 24 42 25 43 75 44
REMARK SMILES IDX 26 45 80 46 74 47 76 48 27 49 79 50 73 51 72 52 28 54 60 55
REMARK SMILES IDX 40 56 59 57 41 58 44 59 58 60 77 61 42 62 43 63 57 65 78 66
REMARK SMILES IDX 45 67 29 68 30 69 38 70 31 71 32 72 36 73 39 74 33 75 34 76
REMARK SMILES IDX 37 77 35 78 61 79 62 80 70 81 63 82 64 83 68 84 71 85 65 86
REMARK SMILES IDX 66 87 69 88 67 89 46 90 47 91 55 92 48 93 49 94 53 95 56 96
REMARK SMILES IDX 50 97 51 98 54 99 52 100
REMARK H PARENT 91 27 76 53 44 64
REMARK Flexibility Score: inf
ROOT
ATOM      1  O   UNL     1       2.250   0.009   2.681  1.00  0.00    -0.377 OA
ENDROOT
BRANCH   1   2
ATOM      2  C   UNL     1       0.835  -0.043   2.649  1.00  0.00     0.188 C 
BRANCH   2   3
ATOM      3  C   UNL     1       0.187  -1.289   3.272  1.00  0.00     0.188 C 
BRANCH   3   4
ATOM      4  O   UNL     1       0.970  -1.935   4.253  1.00  0.00    -0.376 OA
BRANCH   4   5
ATOM      5  C   UNL     1       1.961  -2.881   3.885  1.00  0.00     0.202 C 
BRANCH   5   6
ATOM      6  C   UNL     1       2.536  -3.089   2.467  1.00  0.00     0.261 C 
BRANCH   6   7
ATOM      7  O   UNL     1       1.981  -2.301   1.410  1.00  0.00    -0.463 OA
BRANCH   7   8
ATOM      8  C   UNL     1       1.266  -2.937   0.454  1.00  0.00     0.313 C 
ATOM      9  O   UNL     1       1.095  -4.152   0.423  1.00  0.00    -0.252 OA
BRANCH   8  10
ATOM     10  C   UNL     1       0.616  -1.968  -0.549  1.00  0.00     0.126 C 
ATOM     11  C   UNL     1       1.486  -0.739  -0.870  1.00  0.00     0.025 C 
BRANCH  10  12
ATOM     12  C   UNL     1      -0.867  -1.729  -0.244  1.00  0.00    -0.034 A 
ATOM     13  C   UNL     1      -1.462  -0.464  -0.119  1.00  0.00     0.005 A 
ATOM     14  C   UNL     1      -1.707  -2.849  -0.111  1.00  0.00     0.005 A 
ATOM     15  C   UNL     1      -2.841  -0.330   0.108  1.00  0.00     0.009 A 
ATOM     16  C   UNL     1      -3.080  -2.717   0.112  1.00  0.00     0.009 A 
ATOM     17  C   UNL     1      -3.672  -1.454   0.193  1.00  0.00    -0.018 A 
BRANCH  17  18
ATOM     18  C   UNL     1      -5.133  -1.327   0.208  1.00  0.00    -0.018 A 
ATOM     19  C   UNL     1      -5.789  -0.993  -0.988  1.00  0.00     0.011 A 
ATOM     20  C   UNL     1      -5.898  -1.580   1.361  1.00  0.00     0.019 A 
ATOM     21  C   UNL     1      -7.181  -0.952  -1.087  1.00  0.00     0.027 A 
ATOM     22  C   UNL     1      -7.307  -1.492   1.300  1.00  0.00    -0.000 A 
ATOM     23  C   UNL     1      -7.911  -1.214   0.073  1.00  0.00     0.045 A 
ATOM     24  C   UNL     1      -8.354  -1.606   2.257  1.00  0.00     0.028 A 
ATOM     25  N   UNL     1      -9.272  -1.261   0.268  1.00  0.00    -0.361 N 
ATOM     26  C   UNL     1      -9.550  -1.428   1.598  1.00  0.00     0.083 A 
ATOM     27  H   UNL     1      -9.947  -1.185  -0.444  1.00  0.00     0.166 HD
ENDBRANCH  17  18
ENDBRANCH  10  12
ENDBRANCH   8  10
ENDBRANCH   7   8
ENDBRANCH   6   7
ENDBRANCH   5   6
ENDBRANCH   4   5
ENDBRANCH   3   4
ENDBRANCH   2   3
ENDBRANCH   1   2
BRANCH   1  28
ATOM     28  C   UNL     1       2.903   0.364   3.893  1.00  0.00     0.188 C 
BRANCH  28  29
ATOM     29  C   UNL     1       2.126   0.554   5.214  1.00  0.00     0.188 C 
BRANCH  29  30
ATOM     30  O   UNL     1       0.808   1.057   5.075  1.00  0.00    -0.376 OA
BRANCH  30  31
ATOM     31  C   UNL     1       0.586   2.444   5.275  1.00  0.00     0.202 C 
BRANCH  31  32
ATOM     32  C   UNL     1       1.253   3.416   4.290  1.00  0.00     0.261 C 
BRANCH  32  33
ATOM     33  O   UNL     1       2.687   3.358   4.216  1.00  0.00    -0.460 OA
BRANCH  33  34
ATOM     34  C   UNL     1       3.385   3.598   5.344  1.00  0.00     0.338 C 
ATOM     35  O   UNL     1       2.943   3.917   6.435  1.00  0.00    -0.246 OA
BRANCH  34  36
ATOM     36  C   UNL     1       4.790   3.222   5.093  1.00  0.00     0.060 A 
ATOM     37  C   UNL     1       5.370   2.206   5.864  1.00  0.00     0.016 A 
ATOM     38  C   UNL     1       5.531   3.866   4.099  1.00  0.00     0.016 A 
ATOM     39  C   UNL     1       6.707   1.859   5.671  1.00  0.00     0.010 A 
ATOM     40  C   UNL     1       6.876   3.533   3.922  1.00  0.00     0.010 A 
ATOM     41  C   UNL     1       7.480   2.554   4.732  1.00  0.00    -0.014 A 
BRANCH  41  42
ATOM     42  C   UNL     1       8.956   2.409   4.744  1.00  0.00     0.031 A 
ATOM     43  C   UNL     1       9.767   3.451   5.464  1.00  0.00     0.074 A 
ATOM     44  C   UNL     1       9.566   1.367   4.154  1.00  0.00     0.049 A 
ATOM     45  N   UNL     1      11.065   3.578   5.564  1.00  0.00    -0.248 NA
ATOM     46  C   UNL     1       9.004   4.497   6.165  1.00  0.00     0.031 C 
ATOM     47  C   UNL     1       8.890   0.269   3.468  1.00  0.00     0.029 A 
ATOM     48  N   UNL     1      10.902   1.073   4.031  1.00  0.00    -0.354 N 
ATOM     49  C   UNL     1      11.273   4.718   6.330  1.00  0.00     0.074 A 
ATOM     50  C   UNL     1       9.971   5.267   6.639  1.00  0.00     0.031 C 
ATOM     51  C   UNL     1       9.817  -0.573   2.978  1.00  0.00     0.029 A 
ATOM     52  C   UNL     1      11.150  -0.053   3.286  1.00  0.00     0.049 A 
ATOM     53  H   UNL     1      11.614   1.618   4.438  1.00  0.00     0.167 HD
ATOM     54  C   UNL     1      12.444   5.252   6.749  1.00  0.00     0.037 A 
ATOM     55  C   UNL     1      12.319  -0.584   2.876  1.00  0.00     0.037 A 
ATOM     56  C   UNL     1      13.738   4.707   6.433  1.00  0.00     0.049 A 
ATOM     57  C   UNL     1      13.614   0.079   3.281  1.00  0.00     0.074 A 
ATOM     58  C   UNL     1      14.986   5.169   6.814  1.00  0.00     0.029 A 
ATOM     59  N   UNL     1      13.950   3.582   5.648  1.00  0.00    -0.354 N 
ATOM     60  N   UNL     1      13.806   1.144   4.023  1.00  0.00    -0.248 NA
ATOM     61  C   UNL     1      14.856  -0.539   2.795  1.00  0.00     0.031 C 
ATOM     62  C   UNL     1      15.954   4.362   6.208  1.00  0.00     0.029 A 
ATOM     63  C   UNL     1      15.310   3.353   5.509  1.00  0.00     0.049 A 
ATOM     64  H   UNL     1      13.240   3.029   5.250  1.00  0.00     0.167 HD
ATOM     65  C   UNL     1      15.183   1.303   4.118  1.00  0.00     0.074 A 
ATOM     66  C   UNL     1      15.780   0.217   3.371  1.00  0.00     0.031 C 
ATOM     67  C   UNL     1      15.890   2.261   4.768  1.00  0.00     0.037 A 
BRANCH  54  68
ATOM     68  C   UNL     1      12.378   6.511   7.567  1.00  0.00     0.064 A 
ATOM     69  C   UNL     1      11.869   6.519   8.874  1.00  0.00     0.173 A 
ATOM     70  C   UNL     1      12.852   7.723   7.042  1.00  0.00     0.173 A 
ATOM     71  F   UNL     1      11.388   5.391   9.419  1.00  0.00    -0.203 F 
ATOM     72  C   UNL     1      11.808   7.698   9.613  1.00  0.00     0.198 A 
ATOM     73  C   UNL     1      12.823   8.892   7.796  1.00  0.00     0.198 A 
ATOM     74  F   UNL     1      13.352   7.772   5.798  1.00  0.00    -0.203 F 
ATOM     75  F   UNL     1      11.265   7.691  10.838  1.00  0.00    -0.200 F 
ATOM     76  C   UNL     1      12.292   8.881   9.077  1.00  0.00     0.200 A 
ATOM     77  F   UNL     1      13.304  10.032   7.281  1.00  0.00    -0.200 F 
ATOM     78  F   UNL     1      12.239  10.014   9.791  1.00  0.00    -0.200 F 
ENDBRANCH  54  68
BRANCH  55  79
ATOM     79  C   UNL     1      12.326  -1.797   2.015  1.00  0.00     0.064 A 
ATOM     80  C   UNL     1      12.845  -3.014   2.477  1.00  0.00     0.173 A 
ATOM     81  C   UNL     1      11.837  -1.756   0.700  1.00  0.00     0.173 A 
ATOM     82  F   UNL     1      13.351  -3.099   3.716  1.00  0.00    -0.203 F 
ATOM     83  C   UNL     1      12.894  -4.137   1.652  1.00  0.00     0.198 A 
ATOM     84  C   UNL     1      11.856  -2.888  -0.113  1.00  0.00     0.198 A 
ATOM     85  F   UNL     1      11.334  -0.616   0.205  1.00  0.00    -0.203 F 
ATOM     86  F   UNL     1      13.446  -5.272   2.102  1.00  0.00    -0.200 F 
ATOM     87  C   UNL     1      12.393  -4.075   0.360  1.00  0.00     0.200 A 
ATOM     88  F   UNL     1      11.359  -2.826  -1.355  1.00  0.00    -0.200 F 
ATOM     89  F   UNL     1      12.438  -5.155  -0.431  1.00  0.00    -0.200 F 
ENDBRANCH  55  79
BRANCH  67  90
ATOM     90  C   UNL     1      17.391   2.156   4.743  1.00  0.00     0.064 A 
ATOM     91  C   UNL     1      18.132   2.384   3.575  1.00  0.00     0.173 A 
ATOM     92  C   UNL     1      18.099   1.867   5.921  1.00  0.00     0.173 A 
ATOM     93  F   UNL     1      17.505   2.652   2.419  1.00  0.00    -0.203 F 
ATOM     94  C   UNL     1      19.522   2.297   3.579  1.00  0.00     0.198 A 
ATOM     95  C   UNL     1      19.490   1.817   5.930  1.00  0.00     0.198 A 
ATOM     96  F   UNL     1      17.442   1.650   7.070  1.00  0.00    -0.203 F 
ATOM     97  F   UNL     1      20.205   2.466   2.438  1.00  0.00    -0.200 F 
ATOM     98  C   UNL     1      20.200   2.022   4.757  1.00  0.00     0.200 A 
ATOM     99  F   UNL     1      20.143   1.571   7.074  1.00  0.00    -0.200 F 
ATOM    100  F   UNL     1      21.538   1.949   4.761  1.00  0.00    -0.200 F 
ENDBRANCH  67  90
ENDBRANCH  41  42
ENDBRANCH  34  36
ENDBRANCH  33  34
ENDBRANCH  32  33
ENDBRANCH  31  32
ENDBRANCH  30  31
ENDBRANCH  29  30
ENDBRANCH  28  29
ENDBRANCH   1  28
TORSDOF 22
