REMARK SMILES O=C(OCCOCCOCCOCCOC(=O)c1ccc(-c2c3nc(c(-c4c(F)c(F)c(F)c(F)c4F)c4ccc([nH]4)c(-c4c(F)c(F)c(F)c(F)c4F)c4nc(c(-c5c(F)c(F)c(F)c(F)c5F)c5ccc2[nH]5)C=C4)C=C3)cc1)C1=Cc2c(Cl)cc(Cl)cc2O[C@@H]1C(F)(F)F
REMARK SMILES IDX 10 1 9 2 8 3 7 4 6 5 5 6 4 7 3 8 2 9 1 10 81 11 82 12 92 13
REMARK SMILES IDX 83 14 91 15 84 16 90 17 85 18 86 19 89 20 87 21 88 22 93 23
REMARK SMILES IDX 94 24 95 25 96 26 11 27 12 28 13 29 14 30 15 31 16 32 17 33
REMARK SMILES IDX 18 34 19 35 80 36 20 37 79 38 21 39 22 40 23 41 73 42 24 43
REMARK SMILES IDX 78 44 72 45 74 46 25 47 77 48 71 49 70 50 26 52 58 53 38 54
REMARK SMILES IDX 57 55 39 56 42 57 56 58 75 59 40 60 41 61 55 63 76 64 43 65
REMARK SMILES IDX 27 66 28 67 36 68 29 69 30 70 34 71 37 72 31 73 32 74 35 75
REMARK SMILES IDX 33 76 59 77 60 78 68 79 61 80 62 81 66 82 69 83 63 84 64 85
REMARK SMILES IDX 67 86 65 87 44 88 45 89 53 90 46 91 47 92 51 93 54 94 48 95
REMARK SMILES IDX 49 96 52 97 50 98
REMARK H PARENT 74 51 42 62
REMARK Flexibility Score: inf
ROOT
ATOM      1  C   UNL     1       4.370   3.568   0.842  1.00  0.00     0.188 C 
ENDROOT
BRANCH   1   2
ATOM      2  O   UNL     1       3.004   3.888   1.005  1.00  0.00    -0.377 OA
BRANCH   2   3
ATOM      3  C   UNL     1       2.146   2.792   0.733  1.00  0.00     0.188 C 
BRANCH   3   4
ATOM      4  C   UNL     1       2.346   1.562   1.643  1.00  0.00     0.188 C 
BRANCH   4   5
ATOM      5  O   UNL     1       3.646   0.931   1.587  1.00  0.00    -0.376 OA
BRANCH   5   6
ATOM      6  C   UNL     1       4.144  -0.464   1.003  1.00  0.00     0.202 C 
BRANCH   6   7
ATOM      7  C   UNL     1       3.504  -1.578  -0.740  1.00  0.00     0.261 C 
BRANCH   7   8
ATOM      8  O   UNL     1       2.837  -2.987  -0.725  1.00  0.00    -0.460 OA
BRANCH   8   9
ATOM      9  C   UNL     1       3.108  -3.691   0.379  1.00  0.00     0.338 C 
ATOM     10  O   UNL     1       2.718  -4.769   0.747  1.00  0.00    -0.246 OA
BRANCH   9  11
ATOM     11  C   UNL     1       3.760  -2.609   1.059  1.00  0.00     0.087 C 
ATOM     12  C   UNL     1       5.142  -2.432   0.504  1.00  0.00     0.029 C 
ATOM     13  C   UNL     1       2.333  -1.295   0.902  1.00  0.00     0.316 C 
ATOM     14  C   UNL     1       5.644  -1.020  -0.546  1.00  0.00     0.036 A 
ATOM     15  O   UNL     1       2.836   0.159  -0.252  1.00  0.00    -0.475 OA
ATOM     16  C   UNL     1       6.895  -0.926  -1.106  1.00  0.00     0.053 A 
ATOM     17  C   UNL     1       4.518   0.233  -0.940  1.00  0.00     0.130 A 
ATOM     18  Cl  UNL     1       8.123  -2.095  -0.865  1.00  0.00    -0.083 Cl
ATOM     19  C   UNL     1       7.130   0.203  -1.917  1.00  0.00     0.042 A 
ATOM     20  C   UNL     1       4.817   1.288  -1.760  1.00  0.00     0.067 A 
ATOM     21  C   UNL     1       6.155   1.244  -2.213  1.00  0.00     0.046 A 
ATOM     22  Cl  UNL     1       6.713   2.553  -3.207  1.00  0.00    -0.084 Cl
BRANCH  13  23
ATOM     23  C   UNL     1       1.749  -1.196   2.374  1.00  0.00     0.430 C 
ATOM     24  F   UNL     1       0.637  -0.443   2.488  1.00  0.00    -0.167 F 
ATOM     25  F   UNL     1       1.369  -2.452   2.745  1.00  0.00    -0.167 F 
ATOM     26  F   UNL     1       2.629  -0.796   3.314  1.00  0.00    -0.167 F 
ENDBRANCH  13  23
ENDBRANCH   9  11
ENDBRANCH   8   9
ENDBRANCH   7   8
ENDBRANCH   6   7
ENDBRANCH   5   6
ENDBRANCH   4   5
ENDBRANCH   3   4
ENDBRANCH   2   3
ENDBRANCH   1   2
BRANCH   1  27
ATOM     27  C   UNL     1       5.226   3.675   2.110  1.00  0.00     0.188 C 
BRANCH  27  28
ATOM     28  O   UNL     1       4.637   3.580   3.397  1.00  0.00    -0.376 OA
BRANCH  28  29
ATOM     29  C   UNL     1       3.487   4.351   3.727  1.00  0.00     0.202 C 
BRANCH  29  30
ATOM     30  C   UNL     1       3.513   5.877   3.566  1.00  0.00     0.261 C 
BRANCH  30  31
ATOM     31  O   UNL     1       3.668   6.313   2.207  1.00  0.00    -0.460 OA
BRANCH  31  32
ATOM     32  C   UNL     1       4.873   6.837   1.894  1.00  0.00     0.338 C 
ATOM     33  O   UNL     1       5.806   7.054   2.648  1.00  0.00    -0.246 OA
BRANCH  32  34
ATOM     34  C   UNL     1       4.997   6.948   0.427  1.00  0.00     0.060 A 
ATOM     35  C   UNL     1       6.173   6.468  -0.172  1.00  0.00     0.016 A 
ATOM     36  C   UNL     1       3.998   7.540  -0.346  1.00  0.00     0.016 A 
ATOM     37  C   UNL     1       6.377   6.619  -1.541  1.00  0.00     0.010 A 
ATOM     38  C   UNL     1       4.219   7.731  -1.711  1.00  0.00     0.010 A 
ATOM     39  C   UNL     1       5.428   7.313  -2.298  1.00  0.00    -0.014 A 
BRANCH  39  40
ATOM     40  C   UNL     1       5.812   7.868  -3.614  1.00  0.00     0.031 A 
ATOM     41  C   UNL     1       6.373   9.261  -3.636  1.00  0.00     0.074 A 
ATOM     42  C   UNL     1       5.639   7.179  -4.753  1.00  0.00     0.049 A 
ATOM     43  N   UNL     1       6.643  10.037  -4.652  1.00  0.00    -0.248 NA
ATOM     44  C   UNL     1       6.655   9.865  -2.323  1.00  0.00     0.031 C 
ATOM     45  C   UNL     1       5.153   5.807  -4.844  1.00  0.00     0.029 A 
ATOM     46  N   UNL     1       5.828   7.564  -6.056  1.00  0.00    -0.354 N 
ATOM     47  C   UNL     1       7.102  11.226  -4.100  1.00  0.00     0.074 A 
ATOM     48  C   UNL     1       7.061  11.077  -2.663  1.00  0.00     0.031 C 
ATOM     49  C   UNL     1       5.040   5.474  -6.142  1.00  0.00     0.029 A 
ATOM     50  C   UNL     1       5.405   6.628  -6.965  1.00  0.00     0.049 A 
ATOM     51  H   UNL     1       6.227   8.427  -6.313  1.00  0.00     0.167 HD
ATOM     52  C   UNL     1       7.513  12.346  -4.738  1.00  0.00     0.037 A 
ATOM     53  C   UNL     1       5.284   6.718  -8.303  1.00  0.00     0.037 A 
ATOM     54  C   UNL     1       7.540  12.485  -6.167  1.00  0.00     0.049 A 
ATOM     55  C   UNL     1       5.686   7.995  -8.996  1.00  0.00     0.074 A 
ATOM     56  C   UNL     1       7.964  13.562  -6.922  1.00  0.00     0.029 A 
ATOM     57  N   UNL     1       7.105  11.513  -7.058  1.00  0.00    -0.354 N 
ATOM     58  N   UNL     1       6.143   9.110  -8.477  1.00  0.00    -0.248 NA
ATOM     59  C   UNL     1       5.555   8.028 -10.460  1.00  0.00     0.031 C 
ATOM     60  C   UNL     1       7.731  13.265  -8.269  1.00  0.00     0.029 A 
ATOM     61  C   UNL     1       7.221  11.979  -8.356  1.00  0.00     0.049 A 
ATOM     62  H   UNL     1       6.766  10.625  -6.804  1.00  0.00     0.167 HD
ATOM     63  C   UNL     1       6.381   9.964  -9.547  1.00  0.00     0.074 A 
ATOM     64  C   UNL     1       6.018   9.238 -10.746  1.00  0.00     0.031 C 
ATOM     65  C   UNL     1       6.862  11.233  -9.537  1.00  0.00     0.037 A 
BRANCH  52  66
ATOM     66  C   UNL     1       7.907  13.515  -3.885  1.00  0.00     0.064 A 
ATOM     67  C   UNL     1       9.066  13.503  -3.093  1.00  0.00     0.173 A 
ATOM     68  C   UNL     1       7.098  14.661  -3.846  1.00  0.00     0.173 A 
ATOM     69  F   UNL     1       9.862  12.424  -3.078  1.00  0.00    -0.203 F 
ATOM     70  C   UNL     1       9.378  14.578  -2.264  1.00  0.00     0.198 A 
ATOM     71  C   UNL     1       7.431  15.748  -3.042  1.00  0.00     0.198 A 
ATOM     72  F   UNL     1       5.979  14.725  -4.582  1.00  0.00    -0.203 F 
ATOM     73  F   UNL     1      10.454  14.517  -1.467  1.00  0.00    -0.200 F 
ATOM     74  C   UNL     1       8.564  15.701  -2.243  1.00  0.00     0.200 A 
ATOM     75  F   UNL     1       6.648  16.835  -3.030  1.00  0.00    -0.200 F 
ATOM     76  F   UNL     1       8.864  16.733  -1.443  1.00  0.00    -0.200 F 
ENDBRANCH  52  66
BRANCH  53  77
ATOM     77  C   UNL     1       4.721   5.572  -9.064  1.00  0.00     0.064 A 
ATOM     78  C   UNL     1       5.524   4.797  -9.910  1.00  0.00     0.173 A 
ATOM     79  C   UNL     1       3.369   5.216  -8.939  1.00  0.00     0.173 A 
ATOM     80  F   UNL     1       6.816   5.112 -10.081  1.00  0.00    -0.203 F 
ATOM     81  C   UNL     1       4.995   3.711 -10.606  1.00  0.00     0.198 A 
ATOM     82  C   UNL     1       2.848   4.115  -9.614  1.00  0.00     0.198 A 
ATOM     83  F   UNL     1       2.558   5.927  -8.142  1.00  0.00    -0.203 F 
ATOM     84  F   UNL     1       5.777   3.002 -11.431  1.00  0.00    -0.200 F 
ATOM     85  C   UNL     1       3.661   3.365 -10.450  1.00  0.00     0.200 A 
ATOM     86  F   UNL     1       1.562   3.777  -9.449  1.00  0.00    -0.200 F 
ATOM     87  F   UNL     1       3.158   2.311 -11.107  1.00  0.00    -0.200 F 
ENDBRANCH  53  77
BRANCH  65  88
ATOM     88  C   UNL     1       7.069  11.911 -10.860  1.00  0.00     0.064 A 
ATOM     89  C   UNL     1       5.994  12.388 -11.621  1.00  0.00     0.173 A 
ATOM     90  C   UNL     1       8.369  12.165 -11.325  1.00  0.00     0.173 A 
ATOM     91  F   UNL     1       4.732  12.161 -11.226  1.00  0.00    -0.203 F 
ATOM     92  C   UNL     1       6.212  13.087 -12.806  1.00  0.00     0.198 A 
ATOM     93  C   UNL     1       8.585  12.888 -12.494  1.00  0.00     0.198 A 
ATOM     94  F   UNL     1       9.432  11.736 -10.627  1.00  0.00    -0.203 F 
ATOM     95  F   UNL     1       5.170  13.509 -13.535  1.00  0.00    -0.200 F 
ATOM     96  C   UNL     1       7.506  13.345 -13.235  1.00  0.00     0.200 A 
ATOM     97  F   UNL     1       9.835  13.151 -12.896  1.00  0.00    -0.200 F 
ATOM     98  F   UNL     1       7.714  14.036 -14.365  1.00  0.00    -0.200 F 
ENDBRANCH  65  88
ENDBRANCH  39  40
ENDBRANCH  32  34
ENDBRANCH  31  32
ENDBRANCH  30  31
ENDBRANCH  29  30
ENDBRANCH  28  29
ENDBRANCH  27  28
ENDBRANCH   1  27
TORSDOF 21
