REMARK SMILES C[N@@H+]1[C@@H]2CC[C@H]1CN(C(=O)NC(C)(C)CC(=O)OCCOCCOCCOCCOC(=O)c1ccc(-c3c4nc(c(-c5c(F)c(F)c(F)c(F)c5F)c5ccc([nH]5)c(-c5c(F)c(F)c(F)c(F)c5F)c5nc(c(-c6c(F)c(F)c(F)c(F)c6F)c6ccc3[nH]6)C=C5)C=C4)cc1)CC2
REMARK SMILES IDX 22 1 21 2 20 3 19 4 18 5 16 6 17 7 15 8 12 9 13 10 14 11
REMARK SMILES IDX 11 12 9 13 10 14 8 16 96 17 97 18 3 19 1 20 2 21 6 22 4 24
REMARK SMILES IDX 5 25 7 27 23 29 24 30 25 31 26 32 27 33 28 34 29 35 30 36
REMARK SMILES IDX 31 37 32 38 33 39 34 40 95 41 35 42 94 43 36 44 37 45 38 46
REMARK SMILES IDX 88 47 39 48 93 49 87 50 89 51 40 52 92 53 86 54 85 55 41 57
REMARK SMILES IDX 73 58 53 59 72 60 54 61 57 62 71 63 90 64 55 65 56 66 70 68
REMARK SMILES IDX 91 69 58 70 42 71 43 72 51 73 44 74 45 75 49 76 52 77 46 78
REMARK SMILES IDX 47 79 50 80 48 81 74 82 75 83 83 84 76 85 77 86 81 87 84 88
REMARK SMILES IDX 78 89 79 90 82 91 80 92 59 93 60 94 68 95 61 96 62 97 66 98
REMARK SMILES IDX 69 99 63 100 64 101 67 102 65 103
REMARK H PARENT 11 15 2 23 89 56 57 67
REMARK Flexibility Score: 90.00
ROOT
ATOM      1  C   UNL     1       0.750  -5.433   3.362  1.00  0.00     0.188 C 
ENDROOT
BRANCH   1   2
ATOM      2  O   UNL     1       0.893  -5.600   4.762  1.00  0.00    -0.376 OA
BRANCH   2   3
ATOM      3  C   UNL     1      -0.017  -4.865   5.557  1.00  0.00     0.202 C 
BRANCH   3   4
ATOM      4  C   UNL     1      -1.506  -5.232   5.450  1.00  0.00     0.261 C 
BRANCH   4   5
ATOM      5  O   UNL     1      -2.053  -5.416   4.125  1.00  0.00    -0.463 OA
BRANCH   5   6
ATOM      6  C   UNL     1      -2.584  -4.335   3.515  1.00  0.00     0.308 C 
ATOM      7  O   UNL     1      -2.536  -3.204   3.990  1.00  0.00    -0.252 OA
BRANCH   6   8
ATOM      8  C   UNL     1      -3.442  -4.670   2.302  1.00  0.00     0.150 C 
BRANCH   8   9
ATOM      9  C   UNL     1      -2.961  -5.380   0.995  1.00  0.00     0.047 C 
ATOM     10  C   UNL     1      -3.882  -4.949  -0.173  1.00  0.00     0.035 C 
ATOM     11  C   UNL     1      -3.233  -6.905   1.185  1.00  0.00     0.035 C 
BRANCH   9  12
ATOM     12  N   UNL     1      -1.562  -5.254   0.481  1.00  0.00    -0.333 N 
ATOM     13  C   UNL     1      -0.497  -4.463   0.291  1.00  0.00     0.318 C 
ATOM     14  O   UNL     1       0.446  -5.033  -0.273  1.00  0.00    -0.249 OA
ATOM     15  H   UNL     1      -1.315  -6.140   0.129  1.00  0.00     0.165 HD
BRANCH  13  16
ATOM     16  N   UNL     1      -0.379  -3.191   0.756  1.00  0.00    -0.319 N 
BRANCH  16  17
ATOM     17  C   UNL     1      -1.483  -2.361   1.167  1.00  0.00     0.128 C 
BRANCH  17  18
ATOM     18  C   UNL     1      -1.662  -1.050   0.420  1.00  0.00     0.086 C 
BRANCH  18  19
ATOM     19  C   UNL     1      -0.642   0.039   0.750  1.00  0.00     0.186 C 
ATOM     20  C   UNL     1       1.462   0.840  -0.145  1.00  0.00     0.333 C 
ATOM     21  N   UNL     1       0.655  -0.335   0.172  1.00  0.00    -0.331 N 
ATOM     22  C   UNL     1       1.294  -1.191   1.184  1.00  0.00     0.204 CG0
ATOM     23  H   UNL     1       0.548  -0.825  -0.716  1.00  0.00     0.348 HD
ATOM     24  C   UNL     1      -0.388   0.202   2.249  1.00  0.00     0.071 C 
ATOM     25  C   UNL     1       0.805  -0.699   2.549  1.00  0.00     0.073 C 
ATOM     26  G   UNL     1       1.008  -2.686   0.898  1.00  0.00     0.000 G0
ENDBRANCH  18  19
ENDBRANCH  17  18
ENDBRANCH  16  17
BRANCH  16  27
ATOM     27  C   UNL     1       1.008  -2.686   0.898  1.00  0.00     0.186 CG0
ATOM     28  G   UNL     1       1.294  -1.191   1.184  1.00  0.00     0.000 G0
ENDBRANCH  16  27
ENDBRANCH  13  16
ENDBRANCH   9  12
ENDBRANCH   8   9
ENDBRANCH   6   8
ENDBRANCH   5   6
ENDBRANCH   4   5
ENDBRANCH   3   4
ENDBRANCH   2   3
ENDBRANCH   1   2
BRANCH   1  29
ATOM     29  C   UNL     1       0.114  -6.642   2.661  1.00  0.00     0.188 C 
BRANCH  29  30
ATOM     30  O   UNL     1       0.005  -7.900   3.308  1.00  0.00    -0.377 OA
BRANCH  30  31
ATOM     31  C   UNL     1       1.042  -8.262   4.196  1.00  0.00     0.188 C 
BRANCH  31  32
ATOM     32  C   UNL     1       2.495  -8.155   3.699  1.00  0.00     0.188 C 
BRANCH  32  33
ATOM     33  O   UNL     1       2.666  -7.418   2.495  1.00  0.00    -0.376 OA
BRANCH  33  34
ATOM     34  C   UNL     1       3.071  -8.153   1.345  1.00  0.00     0.202 C 
BRANCH  34  35
ATOM     35  C   UNL     1       2.001  -9.027   0.668  1.00  0.00     0.261 C 
BRANCH  35  36
ATOM     36  O   UNL     1       1.295  -9.930   1.530  1.00  0.00    -0.460 OA
BRANCH  36  37
ATOM     37  C   UNL     1       2.005 -10.946   2.064  1.00  0.00     0.338 C 
ATOM     38  O   UNL     1       3.174 -11.211   1.875  1.00  0.00    -0.246 OA
BRANCH  37  39
ATOM     39  C   UNL     1       1.163 -11.579   3.102  1.00  0.00     0.060 A 
ATOM     40  C   UNL     1       1.674 -11.657   4.404  1.00  0.00     0.016 A 
ATOM     41  C   UNL     1      -0.117 -12.059   2.810  1.00  0.00     0.016 A 
ATOM     42  C   UNL     1       0.906 -12.221   5.419  1.00  0.00     0.010 A 
ATOM     43  C   UNL     1      -0.866 -12.678   3.815  1.00  0.00     0.010 A 
ATOM     44  C   UNL     1      -0.336 -12.794   5.112  1.00  0.00    -0.014 A 
BRANCH  44  45
ATOM     45  C   UNL     1      -0.873 -13.793   6.064  1.00  0.00     0.031 A 
ATOM     46  C   UNL     1      -0.358 -15.202   5.920  1.00  0.00     0.074 A 
ATOM     47  C   UNL     1      -1.686 -13.457   7.079  1.00  0.00     0.049 A 
ATOM     48  N   UNL     1      -0.568 -16.250   6.672  1.00  0.00    -0.248 NA
ATOM     49  C   UNL     1       0.536 -15.453   4.775  1.00  0.00     0.031 C 
ATOM     50  C   UNL     1      -2.201 -12.117   7.348  1.00  0.00     0.029 A 
ATOM     51  N   UNL     1      -2.205 -14.228   8.088  1.00  0.00    -0.354 N 
ATOM     52  C   UNL     1       0.190 -17.269   6.107  1.00  0.00     0.074 A 
ATOM     53  C   UNL     1       0.825 -16.734   4.926  1.00  0.00     0.031 C 
ATOM     54  C   UNL     1      -2.966 -12.160   8.456  1.00  0.00     0.029 A 
ATOM     55  C   UNL     1      -3.002 -13.531   8.962  1.00  0.00     0.049 A 
ATOM     56  H   UNL     1      -2.023 -15.192   8.177  1.00  0.00     0.167 HD
ATOM     57  C   UNL     1       0.360 -18.537   6.546  1.00  0.00     0.037 A 
ATOM     58  C   UNL     1      -3.678 -13.965  10.044  1.00  0.00     0.037 A 
ATOM     59  C   UNL     1      -0.302 -19.079   7.699  1.00  0.00     0.049 A 
ATOM     60  C   UNL     1      -3.557 -15.417  10.448  1.00  0.00     0.074 A 
ATOM     61  C   UNL     1      -0.249 -20.365   8.202  1.00  0.00     0.029 A 
ATOM     62  N   UNL     1      -1.151 -18.357   8.524  1.00  0.00    -0.354 N 
ATOM     63  N   UNL     1      -2.829 -16.372   9.919  1.00  0.00    -0.248 NA
ATOM     64  C   UNL     1      -4.344 -15.845  11.613  1.00  0.00     0.031 C 
ATOM     65  C   UNL     1      -1.099 -20.432   9.311  1.00  0.00     0.029 A 
ATOM     66  C   UNL     1      -1.636 -19.173   9.530  1.00  0.00     0.049 A 
ATOM     67  H   UNL     1      -1.375 -17.404   8.411  1.00  0.00     0.167 HD
ATOM     68  C   UNL     1      -3.036 -17.496  10.710  1.00  0.00     0.074 A 
ATOM     69  C   UNL     1      -3.945 -17.098  11.764  1.00  0.00     0.031 C 
ATOM     70  C   UNL     1      -2.523 -18.745  10.581  1.00  0.00     0.037 A 
BRANCH  57  71
ATOM     71  C   UNL     1       1.278 -19.417   5.753  1.00  0.00     0.064 A 
ATOM     72  C   UNL     1       2.668 -19.218   5.757  1.00  0.00     0.173 A 
ATOM     73  C   UNL     1       0.767 -20.469   4.980  1.00  0.00     0.173 A 
ATOM     74  F   UNL     1       3.204 -18.207   6.458  1.00  0.00    -0.203 F 
ATOM     75  C   UNL     1       3.510 -20.029   5.000  1.00  0.00     0.198 A 
ATOM     76  C   UNL     1       1.614 -21.295   4.247  1.00  0.00     0.198 A 
ATOM     77  F   UNL     1      -0.554 -20.694   4.934  1.00  0.00    -0.203 F 
ATOM     78  F   UNL     1       4.828 -19.790   4.981  1.00  0.00    -0.200 F 
ATOM     79  C   UNL     1       2.983 -21.071   4.253  1.00  0.00     0.200 A 
ATOM     80  F   UNL     1       1.105 -22.306   3.529  1.00  0.00    -0.200 F 
ATOM     81  F   UNL     1       3.794 -21.855   3.529  1.00  0.00    -0.200 F 
ENDBRANCH  57  71
BRANCH  58  82
ATOM     82  C   UNL     1      -4.533 -13.036  10.833  1.00  0.00     0.064 A 
ATOM     83  C   UNL     1      -4.234 -12.727  12.168  1.00  0.00     0.173 A 
ATOM     84  C   UNL     1      -5.709 -12.496  10.291  1.00  0.00     0.173 A 
ATOM     85  F   UNL     1      -3.137 -13.240  12.745  1.00  0.00    -0.203 F 
ATOM     86  C   UNL     1      -5.096 -11.949  12.940  1.00  0.00     0.198 A 
ATOM     87  C   UNL     1      -6.553 -11.691  11.054  1.00  0.00     0.198 A 
ATOM     88  F   UNL     1      -6.047 -12.762   9.021  1.00  0.00    -0.203 F 
ATOM     89  F   UNL     1      -4.820 -11.730  14.234  1.00  0.00    -0.200 F 
ATOM     90  C   UNL     1      -6.253 -11.429  12.382  1.00  0.00     0.200 A 
ATOM     91  F   UNL     1      -7.666 -11.184  10.507  1.00  0.00    -0.200 F 
ATOM     92  F   UNL     1      -7.087 -10.691  13.127  1.00  0.00    -0.200 F 
ENDBRANCH  58  82
BRANCH  70  93
ATOM     93  C   UNL     1      -2.882 -19.749  11.640  1.00  0.00     0.064 A 
ATOM     94  C   UNL     1      -4.179 -20.268  11.761  1.00  0.00     0.173 A 
ATOM     95  C   UNL     1      -1.904 -20.210  12.535  1.00  0.00     0.173 A 
ATOM     96  F   UNL     1      -5.153 -19.853  10.936  1.00  0.00    -0.203 F 
ATOM     97  C   UNL     1      -4.495 -21.177  12.768  1.00  0.00     0.198 A 
ATOM     98  C   UNL     1      -2.214 -21.146  13.516  1.00  0.00     0.198 A 
ATOM     99  F   UNL     1      -0.644 -19.757  12.454  1.00  0.00    -0.203 F 
ATOM    100  F   UNL     1      -5.756 -21.607  12.907  1.00  0.00    -0.200 F 
ATOM    101  C   UNL     1      -3.512 -21.618  13.641  1.00  0.00     0.200 A 
ATOM    102  F   UNL     1      -1.259 -21.586  14.347  1.00  0.00    -0.200 F 
ATOM    103  F   UNL     1      -3.818 -22.492  14.610  1.00  0.00    -0.200 F 
ENDBRANCH  70  93
ENDBRANCH  44  45
ENDBRANCH  37  39
ENDBRANCH  36  37
ENDBRANCH  35  36
ENDBRANCH  34  35
ENDBRANCH  33  34
ENDBRANCH  32  33
ENDBRANCH  31  32
ENDBRANCH  30  31
ENDBRANCH  29  30
ENDBRANCH   1  29
TORSDOF 23
