REMARK SMILES Cc1ccc(S(=O)(=O)N(C)c2cccc(C)c2C)cc1C(=O)OCCOCCOCCOCCOC(=O)c1ccc(-c2c3nc(c(-c4c(F)c(F)c(F)c(F)c4F)c4ccc([nH]4)c(-c4c(F)c(F)c(F)c(F)c4F)c4nc(c(-c5c(F)c(F)c(F)c(F)c5F)c5ccc2[nH]5)C=C4)C=C3)cc1
REMARK SMILES IDX 28 1 27 2 26 3 25 4 24 5 23 6 21 7 22 8 20 9 1 10 2 11 3 12
REMARK SMILES IDX 4 13 19 14 5 15 6 16 7 17 8 18 9 19 10 20 11 21 12 22 17 23
REMARK SMILES IDX 13 24 15 25 18 26 14 27 16 28 29 29 30 30 31 31 32 32 33 33
REMARK SMILES IDX 34 34 35 35 36 36 37 37 38 38 39 39 100 40 40 41 99 42 41 43
REMARK SMILES IDX 42 44 43 45 93 46 44 47 98 48 92 49 94 50 45 51 97 52 91 53
REMARK SMILES IDX 90 54 46 56 78 57 58 58 77 59 59 60 62 61 76 62 95 63 60 64
REMARK SMILES IDX 61 65 75 67 96 68 63 69 47 70 48 71 56 72 49 73 50 74 54 75
REMARK SMILES IDX 57 76 51 77 52 78 55 79 53 80 79 81 80 82 88 83 81 84 82 85
REMARK SMILES IDX 86 86 89 87 83 88 84 89 87 90 85 91 64 92 65 93 73 94 66 95
REMARK SMILES IDX 67 96 71 97 74 98 68 99 69 100 72 101 70 102
REMARK H PARENT 94 55 62 66
REMARK Flexibility Score: inf
ROOT
ATOM      1  C   UNL     1      -0.080   1.350  -2.848  1.00  0.00     0.188 C 
ENDROOT
BRANCH   1   2
ATOM      2  C   UNL     1      -0.998   2.343  -2.116  1.00  0.00     0.188 C 
BRANCH   2   3
ATOM      3  O   UNL     1      -0.640   3.708  -1.977  1.00  0.00    -0.376 OA
BRANCH   3   4
ATOM      4  C   UNL     1       0.211   4.032  -0.881  1.00  0.00     0.202 C 
BRANCH   4   5
ATOM      5  C   UNL     1      -0.127   3.444   0.480  1.00  0.00     0.261 C 
BRANCH   5   6
ATOM      6  O   UNL     1       0.375   2.101   0.498  1.00  0.00    -0.460 OA
BRANCH   6   7
ATOM      7  C   UNL     1      -0.106   1.331   1.486  1.00  0.00     0.338 C 
ATOM      8  O   UNL     1      -0.596   1.685   2.546  1.00  0.00    -0.246 OA
BRANCH   7   9
ATOM      9  C   UNL     1      -0.605   0.138   0.805  1.00  0.00     0.064 A 
ATOM     10  C   UNL     1       1.561  -0.990   0.234  1.00  0.00     0.045 C 
ATOM     11  C   UNL     1       0.068  -0.956   0.295  1.00  0.00    -0.036 A 
ATOM     12  C   UNL     1      -0.726  -2.011  -0.196  1.00  0.00     0.006 A 
ATOM     13  C   UNL     1      -2.133  -1.881  -0.318  1.00  0.00     0.022 A 
ATOM     14  C   UNL     1      -1.966   0.281   0.600  1.00  0.00     0.038 A 
ATOM     15  C   UNL     1      -2.746  -0.677   0.025  1.00  0.00     0.088 A 
BRANCH  15  16
ATOM     16  S   UNL     1      -4.493  -0.370  -0.034  1.00  0.00     0.264 S 
ATOM     17  O   UNL     1      -4.964  -1.017  -1.248  1.00  0.00    -0.201 OA
ATOM     18  O   UNL     1      -4.963  -0.785   1.269  1.00  0.00    -0.201 OA
BRANCH  16  19
ATOM     19  N   UNL     1      -4.791   1.366  -0.227  1.00  0.00    -0.269 N 
ATOM     20  C   UNL     1      -4.245   2.345   0.769  1.00  0.00     0.164 C 
BRANCH  19  21
ATOM     21  C   UNL     1      -6.207   1.681  -0.408  1.00  0.00     0.055 A 
ATOM     22  C   UNL     1      -7.125   1.208   0.544  1.00  0.00     0.027 A 
ATOM     23  C   UNL     1      -6.582   2.745  -1.263  1.00  0.00    -0.024 A 
ATOM     24  C   UNL     1      -8.426   1.681   0.591  1.00  0.00     0.002 A 
ATOM     25  C   UNL     1      -7.914   3.226  -1.210  1.00  0.00    -0.046 A 
ATOM     26  C   UNL     1      -5.546   3.449  -2.108  1.00  0.00     0.047 C 
ATOM     27  C   UNL     1      -8.823   2.671  -0.293  1.00  0.00     0.004 A 
ATOM     28  C   UNL     1      -8.393   4.360  -2.074  1.00  0.00     0.044 C 
ENDBRANCH  19  21
ENDBRANCH  16  19
ENDBRANCH  15  16
ENDBRANCH   7   9
ENDBRANCH   6   7
ENDBRANCH   5   6
ENDBRANCH   4   5
ENDBRANCH   3   4
ENDBRANCH   2   3
ENDBRANCH   1   2
BRANCH   1  29
ATOM     29  O   UNL     1       1.258   1.177  -2.408  1.00  0.00    -0.377 OA
BRANCH  29  30
ATOM     30  C   UNL     1       2.275   1.962  -3.024  1.00  0.00     0.188 C 
BRANCH  30  31
ATOM     31  C   UNL     1       2.074   2.450  -4.454  1.00  0.00     0.188 C 
BRANCH  31  32
ATOM     32  O   UNL     1       1.118   3.507  -4.420  1.00  0.00    -0.376 OA
BRANCH  32  33
ATOM     33  C   UNL     1       0.369   3.707  -5.614  1.00  0.00     0.202 C 
BRANCH  33  34
ATOM     34  C   UNL     1       1.234   4.068  -6.827  1.00  0.00     0.261 C 
BRANCH  34  35
ATOM     35  O   UNL     1       1.853   5.351  -6.607  1.00  0.00    -0.460 OA
BRANCH  35  36
ATOM     36  C   UNL     1       3.179   5.312  -6.304  1.00  0.00     0.338 C 
ATOM     37  O   UNL     1       4.033   4.740  -6.960  1.00  0.00    -0.246 OA
BRANCH  36  38
ATOM     38  C   UNL     1       3.396   5.820  -4.919  1.00  0.00     0.060 A 
ATOM     39  C   UNL     1       4.638   5.646  -4.285  1.00  0.00     0.016 A 
ATOM     40  C   UNL     1       2.286   6.161  -4.159  1.00  0.00     0.016 A 
ATOM     41  C   UNL     1       4.722   5.636  -2.882  1.00  0.00     0.010 A 
ATOM     42  C   UNL     1       2.358   6.033  -2.788  1.00  0.00     0.010 A 
ATOM     43  C   UNL     1       3.557   5.728  -2.126  1.00  0.00    -0.014 A 
BRANCH  43  44
ATOM     44  C   UNL     1       3.415   5.372  -0.697  1.00  0.00     0.031 A 
ATOM     45  C   UNL     1       2.577   6.258   0.181  1.00  0.00     0.074 A 
ATOM     46  C   UNL     1       3.684   4.093  -0.321  1.00  0.00     0.049 A 
ATOM     47  N   UNL     1       2.119   5.929   1.339  1.00  0.00    -0.248 NA
ATOM     48  C   UNL     1       2.117   7.591  -0.208  1.00  0.00     0.031 C 
ATOM     49  C   UNL     1       3.051   3.345   0.764  1.00  0.00     0.029 A 
ATOM     50  N   UNL     1       4.513   3.132  -0.893  1.00  0.00    -0.354 N 
ATOM     51  C   UNL     1       1.135   6.817   1.720  1.00  0.00     0.074 A 
ATOM     52  C   UNL     1       1.208   7.866   0.738  1.00  0.00     0.031 C 
ATOM     53  C   UNL     1       3.511   2.089   0.830  1.00  0.00     0.029 A 
ATOM     54  C   UNL     1       4.686   2.063   0.004  1.00  0.00     0.049 A 
ATOM     55  H   UNL     1       4.916   3.191  -1.790  1.00  0.00     0.167 HD
ATOM     56  C   UNL     1       0.328   6.481   2.775  1.00  0.00     0.037 A 
ATOM     57  C   UNL     1       5.915   1.850   0.563  1.00  0.00     0.037 A 
ATOM     58  C   UNL     1       0.873   5.312   3.495  1.00  0.00     0.049 A 
ATOM     59  C   UNL     1       5.890   2.291   2.028  1.00  0.00     0.074 A 
ATOM     60  C   UNL     1       0.373   4.090   3.899  1.00  0.00     0.029 A 
ATOM     61  N   UNL     1       2.248   5.254   3.762  1.00  0.00    -0.354 N 
ATOM     62  N   UNL     1       5.164   3.298   2.476  1.00  0.00    -0.248 NA
ATOM     63  C   UNL     1       6.384   1.442   3.113  1.00  0.00     0.031 C 
ATOM     64  C   UNL     1       1.482   3.240   4.206  1.00  0.00     0.029 A 
ATOM     65  C   UNL     1       2.653   3.982   4.113  1.00  0.00     0.049 A 
ATOM     66  H   UNL     1       2.853   6.028   3.705  1.00  0.00     0.167 HD
ATOM     67  C   UNL     1       4.950   3.133   3.823  1.00  0.00     0.074 A 
ATOM     68  C   UNL     1       5.778   1.990   4.183  1.00  0.00     0.031 C 
ATOM     69  C   UNL     1       4.002   3.744   4.602  1.00  0.00     0.037 A 
BRANCH  56  70
ATOM     70  C   UNL     1      -1.038   7.093   3.107  1.00  0.00     0.064 A 
ATOM     71  C   UNL     1      -1.720   6.738   4.298  1.00  0.00     0.173 A 
ATOM     72  C   UNL     1      -1.785   7.941   2.258  1.00  0.00     0.173 A 
ATOM     73  F   UNL     1      -1.146   5.953   5.219  1.00  0.00    -0.203 F 
ATOM     74  C   UNL     1      -3.024   7.167   4.595  1.00  0.00     0.198 A 
ATOM     75  C   UNL     1      -3.065   8.420   2.584  1.00  0.00     0.198 A 
ATOM     76  F   UNL     1      -1.339   8.302   1.051  1.00  0.00    -0.203 F 
ATOM     77  F   UNL     1      -3.632   6.738   5.710  1.00  0.00    -0.200 F 
ATOM     78  C   UNL     1      -3.692   8.020   3.744  1.00  0.00     0.200 A 
ATOM     79  F   UNL     1      -3.696   9.254   1.744  1.00  0.00    -0.200 F 
ATOM     80  F   UNL     1      -4.932   8.442   4.030  1.00  0.00    -0.200 F 
ENDBRANCH  56  70
BRANCH  57  81
ATOM     81  C   UNL     1       6.953   1.818  -0.521  1.00  0.00     0.064 A 
ATOM     82  C   UNL     1       6.758   0.730  -1.411  1.00  0.00     0.173 A 
ATOM     83  C   UNL     1       7.425   3.014  -1.089  1.00  0.00     0.173 A 
ATOM     84  F   UNL     1       6.352  -0.456  -0.926  1.00  0.00    -0.203 F 
ATOM     85  C   UNL     1       6.696   0.926  -2.792  1.00  0.00     0.198 A 
ATOM     86  C   UNL     1       7.422   3.186  -2.484  1.00  0.00     0.198 A 
ATOM     87  F   UNL     1       7.665   4.082  -0.316  1.00  0.00    -0.203 F 
ATOM     88  F   UNL     1       6.218  -0.044  -3.586  1.00  0.00    -0.200 F 
ATOM     89  C   UNL     1       6.974   2.172  -3.322  1.00  0.00     0.200 A 
ATOM     90  F   UNL     1       7.702   4.387  -3.012  1.00  0.00    -0.200 F 
ATOM     91  F   UNL     1       6.727   2.422  -4.617  1.00  0.00    -0.200 F 
ENDBRANCH  57  81
BRANCH  69  92
ATOM     92  C   UNL     1       4.315   4.217   6.006  1.00  0.00     0.064 A 
ATOM     93  C   UNL     1       5.629   4.324   6.486  1.00  0.00     0.173 A 
ATOM     94  C   UNL     1       3.316   4.807   6.826  1.00  0.00     0.173 A 
ATOM     95  F   UNL     1       6.676   3.898   5.766  1.00  0.00    -0.203 F 
ATOM     96  C   UNL     1       5.920   4.934   7.704  1.00  0.00     0.198 A 
ATOM     97  C   UNL     1       3.619   5.467   8.012  1.00  0.00     0.198 A 
ATOM     98  F   UNL     1       2.020   4.816   6.488  1.00  0.00    -0.203 F 
ATOM     99  F   UNL     1       7.190   4.986   8.124  1.00  0.00    -0.200 F 
ATOM    100  C   UNL     1       4.920   5.518   8.458  1.00  0.00     0.200 A 
ATOM    101  F   UNL     1       2.644   6.080   8.698  1.00  0.00    -0.200 F 
ATOM    102  F   UNL     1       5.214   6.147   9.602  1.00  0.00    -0.200 F 
ENDBRANCH  69  92
ENDBRANCH  43  44
ENDBRANCH  36  38
ENDBRANCH  35  36
ENDBRANCH  34  35
ENDBRANCH  33  34
ENDBRANCH  32  33
ENDBRANCH  31  32
ENDBRANCH  30  31
ENDBRANCH  29  30
ENDBRANCH   1  29
TORSDOF 23
