REMARK SMILES Cc1nn(-c2ccccc2)c(C)c1CNC(=O)[C@@H]1[C@@H](C(=O)OCCOCCOCCOCCOC(=O)c2ccc(-c3c4nc(c(-c5c(F)c(F)c(F)c(F)c5F)c5ccc([nH]5)c(-c5c(F)c(F)c(F)c(F)c5F)c5nc(c(-c6c(F)c(F)c(F)c(F)c6F)c6ccc3[nH]6)C=C5)C=C4)cc2)[C@@H]2C=C[C@H]1C2
REMARK SMILES IDX 27 1 26 2 25 3 24 4 23 5 22 6 20 7 21 8 19 9 18 10 103 11
REMARK SMILES IDX 100 12 102 13 104 14 101 15 16 16 15 17 17 19 14 20 13 21
REMARK SMILES IDX 1 22 2 23 3 24 4 25 11 26 12 27 5 28 6 29 10 30 7 31 9 32
REMARK SMILES IDX 8 33 28 34 29 35 30 36 31 37 32 38 33 39 34 40 35 41 36 42
REMARK SMILES IDX 37 43 38 44 99 45 39 46 98 47 40 48 41 49 42 50 92 51 43 52
REMARK SMILES IDX 97 53 91 54 93 55 44 56 96 57 90 58 89 59 45 61 77 62 57 63
REMARK SMILES IDX 76 64 58 65 61 66 75 67 94 68 59 69 60 70 74 72 95 73 62 74
REMARK SMILES IDX 46 75 47 76 55 77 48 78 49 79 53 80 56 81 50 82 51 83 54 84
REMARK SMILES IDX 52 85 78 86 79 87 87 88 80 89 81 90 85 91 88 92 82 93 83 94
REMARK SMILES IDX 86 95 84 96 63 97 64 98 72 99 65 100 66 101 70 102 73 103
REMARK SMILES IDX 67 104 68 105 71 106 69 107
REMARK H PARENT 15 18 93 60 61 71
REMARK Flexibility Score: inf
ROOT
ATOM      1  C   UNL     1       6.438   6.882   0.728  1.00  0.00     0.188 C 
ENDROOT
BRANCH   1   2
ATOM      2  C   UNL     1       6.434   6.741  -0.801  1.00  0.00     0.188 C 
BRANCH   2   3
ATOM      3  O   UNL     1       6.251   7.929  -1.573  1.00  0.00    -0.376 OA
BRANCH   3   4
ATOM      4  C   UNL     1       5.477   8.968  -0.988  1.00  0.00     0.202 C 
BRANCH   4   5
ATOM      5  C   UNL     1       3.966   8.712  -0.959  1.00  0.00     0.261 C 
BRANCH   5   6
ATOM      6  O   UNL     1       3.616   7.493  -0.270  1.00  0.00    -0.463 OA
BRANCH   6   7
ATOM      7  C   UNL     1       2.839   6.606  -0.943  1.00  0.00     0.310 C 
ATOM      8  O   UNL     1       2.409   6.770  -2.078  1.00  0.00    -0.252 OA
BRANCH   7   9
ATOM      9  C   UNL     1       2.489   5.375  -0.123  1.00  0.00     0.119 C 
ATOM     10  C   UNL     1       1.431   5.703   0.953  1.00  0.00     0.100 C 
ATOM     11  C   UNL     1       2.010   5.056   2.246  1.00  0.00     0.025 C 
ATOM     12  C   UNL     1       3.646   4.804   0.733  1.00  0.00     0.027 C 
ATOM     13  C   UNL     1       2.306   3.583   2.124  1.00  0.00    -0.027 C 
ATOM     14  C   UNL     1       3.469   5.512   2.092  1.00  0.00     0.017 C 
ATOM     15  C   UNL     1       3.255   3.422   1.193  1.00  0.00    -0.027 C 
BRANCH  10  16
ATOM     16  C   UNL     1      -0.020   5.514   0.542  1.00  0.00     0.224 C 
ATOM     17  N   UNL     1      -0.621   4.350   0.221  1.00  0.00    -0.352 N 
ATOM     18  H   UNL     1      -1.573   4.456  -0.007  1.00  0.00     0.163 HD
ATOM     19  O   UNL     1      -0.750   6.515   0.503  1.00  0.00    -0.275 OA
BRANCH  17  20
ATOM     20  C   UNL     1      -0.167   2.988   0.141  1.00  0.00     0.155 C 
BRANCH  20  21
ATOM     21  C   UNL     1      -0.433   2.207   1.393  1.00  0.00     0.016 A 
ATOM     22  C   UNL     1       0.609  -0.055   0.574  1.00  0.00     0.069 C 
ATOM     23  C   UNL     1      -0.045   0.845   1.561  1.00  0.00     0.065 A 
ATOM     24  N   UNL     1      -0.225   0.420   2.811  1.00  0.00    -0.173 NA
ATOM     25  N   UNL     1      -0.847   1.437   3.450  1.00  0.00    -0.237 N 
ATOM     26  C   UNL     1      -0.932   2.572   2.645  1.00  0.00     0.046 A 
ATOM     27  C   UNL     1      -1.324   3.901   3.199  1.00  0.00     0.067 C 
BRANCH  25  28
ATOM     28  C   UNL     1      -1.188   1.308   4.827  1.00  0.00     0.065 A 
ATOM     29  C   UNL     1      -0.391   0.508   5.656  1.00  0.00     0.028 A 
ATOM     30  C   UNL     1      -2.268   2.012   5.375  1.00  0.00     0.028 A 
ATOM     31  C   UNL     1      -0.619   0.495   7.035  1.00  0.00     0.002 A 
ATOM     32  C   UNL     1      -2.497   1.987   6.750  1.00  0.00     0.002 A 
ATOM     33  C   UNL     1      -1.661   1.245   7.581  1.00  0.00     0.000 A 
ENDBRANCH  25  28
ENDBRANCH  20  21
ENDBRANCH  17  20
ENDBRANCH  10  16
ENDBRANCH   7   9
ENDBRANCH   6   7
ENDBRANCH   5   6
ENDBRANCH   4   5
ENDBRANCH   3   4
ENDBRANCH   2   3
ENDBRANCH   1   2
BRANCH   1  34
ATOM     34  O   UNL     1       7.523   7.702   1.170  1.00  0.00    -0.377 OA
BRANCH  34  35
ATOM     35  C   UNL     1       8.335   7.037   2.135  1.00  0.00     0.188 C 
BRANCH  35  36
ATOM     36  C   UNL     1       9.311   6.056   1.469  1.00  0.00     0.188 C 
BRANCH  36  37
ATOM     37  O   UNL     1       8.633   5.084   0.661  1.00  0.00    -0.376 OA
BRANCH  37  38
ATOM     38  C   UNL     1       8.829   3.722   1.026  1.00  0.00     0.202 C 
BRANCH  38  39
ATOM     39  C   UNL     1       7.672   3.197   1.882  1.00  0.00     0.261 C 
BRANCH  39  40
ATOM     40  O   UNL     1       7.392   4.001   3.031  1.00  0.00    -0.460 OA
BRANCH  40  41
ATOM     41  C   UNL     1       8.399   4.083   3.913  1.00  0.00     0.338 C 
ATOM     42  O   UNL     1       9.533   3.619   3.792  1.00  0.00    -0.246 OA
BRANCH  41  43
ATOM     43  C   UNL     1       7.965   4.772   5.125  1.00  0.00     0.060 A 
ATOM     44  C   UNL     1       8.974   5.283   5.944  1.00  0.00     0.016 A 
ATOM     45  C   UNL     1       6.643   4.631   5.571  1.00  0.00     0.016 A 
ATOM     46  C   UNL     1       8.717   5.413   7.288  1.00  0.00     0.010 A 
ATOM     47  C   UNL     1       6.385   4.766   6.920  1.00  0.00     0.010 A 
ATOM     48  C   UNL     1       7.457   5.034   7.770  1.00  0.00    -0.014 A 
BRANCH  48  49
ATOM     49  C   UNL     1       7.388   4.739   9.190  1.00  0.00     0.031 A 
ATOM     50  C   UNL     1       7.398   5.898  10.095  1.00  0.00     0.074 A 
ATOM     51  C   UNL     1       7.380   3.468   9.641  1.00  0.00     0.049 A 
ATOM     52  N   UNL     1       8.304   6.208  10.962  1.00  0.00    -0.248 NA
ATOM     53  C   UNL     1       6.296   6.860   9.981  1.00  0.00     0.031 C 
ATOM     54  C   UNL     1       7.128   2.256   8.854  1.00  0.00     0.029 A 
ATOM     55  N   UNL     1       7.519   2.995  10.917  1.00  0.00    -0.354 N 
ATOM     56  C   UNL     1       7.798   7.307  11.641  1.00  0.00     0.074 A 
ATOM     57  C   UNL     1       6.625   7.742  10.926  1.00  0.00     0.031 C 
ATOM     58  C   UNL     1       6.930   1.217   9.692  1.00  0.00     0.029 A 
ATOM     59  C   UNL     1       7.181   1.659  11.053  1.00  0.00     0.049 A 
ATOM     60  H   UNL     1       7.830   3.551  11.667  1.00  0.00     0.167 HD
ATOM     61  C   UNL     1       8.229   7.609  12.892  1.00  0.00     0.037 A 
ATOM     62  C   UNL     1       7.065   0.957  12.202  1.00  0.00     0.037 A 
ATOM     63  C   UNL     1       9.470   6.969  13.228  1.00  0.00     0.049 A 
ATOM     64  C   UNL     1       7.891   1.601  13.248  1.00  0.00     0.074 A 
ATOM     65  C   UNL     1      10.812   7.224  13.053  1.00  0.00     0.029 A 
ATOM     66  N   UNL     1       9.354   5.674  13.648  1.00  0.00    -0.354 N 
ATOM     67  N   UNL     1       9.194   1.647  13.218  1.00  0.00    -0.248 NA
ATOM     68  C   UNL     1       7.260   2.456  14.251  1.00  0.00     0.031 C 
ATOM     69  C   UNL     1      11.496   5.992  13.278  1.00  0.00     0.029 A 
ATOM     70  C   UNL     1      10.552   5.013  13.566  1.00  0.00     0.049 A 
ATOM     71  H   UNL     1       8.516   5.268  13.970  1.00  0.00     0.167 HD
ATOM     72  C   UNL     1       9.509   2.808  13.895  1.00  0.00     0.074 A 
ATOM     73  C   UNL     1       8.321   3.161  14.652  1.00  0.00     0.031 C 
ATOM     74  C   UNL     1      10.569   3.572  13.515  1.00  0.00     0.037 A 
BRANCH  61  75
ATOM     75  C   UNL     1       7.311   8.111  13.971  1.00  0.00     0.064 A 
ATOM     76  C   UNL     1       7.854   8.673  15.140  1.00  0.00     0.173 A 
ATOM     77  C   UNL     1       5.944   7.761  14.029  1.00  0.00     0.173 A 
ATOM     78  F   UNL     1       9.154   8.999  15.197  1.00  0.00    -0.203 F 
ATOM     79  C   UNL     1       7.090   8.835  16.297  1.00  0.00     0.198 A 
ATOM     80  C   UNL     1       5.171   7.974  15.167  1.00  0.00     0.198 A 
ATOM     81  F   UNL     1       5.343   7.097  13.032  1.00  0.00    -0.203 F 
ATOM     82  F   UNL     1       7.670   9.274  17.422  1.00  0.00    -0.200 F 
ATOM     83  C   UNL     1       5.750   8.486  16.310  1.00  0.00     0.200 A 
ATOM     84  F   UNL     1       3.883   7.605  15.169  1.00  0.00    -0.200 F 
ATOM     85  F   UNL     1       5.028   8.596  17.433  1.00  0.00    -0.200 F 
ENDBRANCH  61  75
BRANCH  62  86
ATOM     86  C   UNL     1       6.122  -0.146  12.485  1.00  0.00     0.064 A 
ATOM     87  C   UNL     1       6.332  -1.032  13.551  1.00  0.00     0.173 A 
ATOM     88  C   UNL     1       4.858  -0.199  11.862  1.00  0.00     0.173 A 
ATOM     89  F   UNL     1       7.490  -1.014  14.226  1.00  0.00    -0.203 F 
ATOM     90  C   UNL     1       5.330  -1.906  13.982  1.00  0.00     0.198 A 
ATOM     91  C   UNL     1       3.865  -1.081  12.282  1.00  0.00     0.198 A 
ATOM     92  F   UNL     1       4.530   0.667  10.892  1.00  0.00    -0.203 F 
ATOM     93  F   UNL     1       5.544  -2.694  15.045  1.00  0.00    -0.200 F 
ATOM     94  C   UNL     1       4.096  -1.925  13.352  1.00  0.00     0.200 A 
ATOM     95  F   UNL     1       2.666  -1.065  11.683  1.00  0.00    -0.200 F 
ATOM     96  F   UNL     1       3.118  -2.724  13.799  1.00  0.00    -0.200 F 
ENDBRANCH  62  86
BRANCH  74  97
ATOM     97  C   UNL     1      11.678   2.882  12.797  1.00  0.00     0.064 A 
ATOM     98  C   UNL     1      11.568   2.402  11.483  1.00  0.00     0.173 A 
ATOM     99  C   UNL     1      12.905   2.725  13.453  1.00  0.00     0.173 A 
ATOM    100  F   UNL     1      10.443   2.587  10.778  1.00  0.00    -0.203 F 
ATOM    101  C   UNL     1      12.634   1.746  10.871  1.00  0.00     0.198 A 
ATOM    102  C   UNL     1      13.977   2.095  12.829  1.00  0.00     0.198 A 
ATOM    103  F   UNL     1      13.070   3.206  14.695  1.00  0.00    -0.203 F 
ATOM    104  F   UNL     1      12.504   1.271   9.624  1.00  0.00    -0.200 F 
ATOM    105  C   UNL     1      13.837   1.594  11.544  1.00  0.00     0.200 A 
ATOM    106  F   UNL     1      15.149   1.981  13.470  1.00  0.00    -0.200 F 
ATOM    107  F   UNL     1      14.868   0.978  10.949  1.00  0.00    -0.200 F 
ENDBRANCH  74  97
ENDBRANCH  48  49
ENDBRANCH  41  43
ENDBRANCH  40  41
ENDBRANCH  39  40
ENDBRANCH  38  39
ENDBRANCH  37  38
ENDBRANCH  36  37
ENDBRANCH  35  36
ENDBRANCH  34  35
ENDBRANCH   1  34
TORSDOF 24
