REMARK SMILES O=C(CC1(NC(=O)C2(c3ccccc3)CC2)CCC1)OCCOCCOCCOCCOC(=O)c1ccc(-c2c3nc(c(-c4c(F)c(F)c(F)c(F)c4F)c4ccc([nH]4)c(-c4c(F)c(F)c(F)c(F)c4F)c4nc(c(-c5c(F)c(F)c(F)c(F)c5F)c5ccc2[nH]5)C=C4)C=C3)cc1
REMARK SMILES IDX 25 1 24 2 23 3 22 4 21 5 20 6 2 7 1 8 3 9 4 10 17 11 19 12
REMARK SMILES IDX 18 13 5 14 6 15 7 17 8 18 15 19 16 20 9 21 10 22 14 23 11 24
REMARK SMILES IDX 13 25 12 26 26 27 27 28 28 29 29 30 30 31 31 32 32 33 33 34
REMARK SMILES IDX 34 35 35 36 36 37 97 38 37 39 96 40 38 41 39 42 40 43 90 44
REMARK SMILES IDX 41 45 95 46 89 47 91 48 42 49 94 50 88 51 87 52 43 54 75 55
REMARK SMILES IDX 55 56 74 57 56 58 59 59 73 60 92 61 57 62 58 63 72 65 93 66
REMARK SMILES IDX 60 67 44 68 45 69 53 70 46 71 47 72 51 73 54 74 48 75 49 76
REMARK SMILES IDX 52 77 50 78 76 79 77 80 85 81 78 82 79 83 83 84 86 85 80 86
REMARK SMILES IDX 81 87 84 88 82 89 61 90 62 91 70 92 63 93 64 94 68 95 71 96
REMARK SMILES IDX 65 97 66 98 69 99 67 100
REMARK H PARENT 5 16 91 53 59 64
REMARK Flexibility Score: inf
ROOT
ATOM      1  C   UNL     1       2.497  -3.747  -0.166  1.00  0.00     0.188 C 
ENDROOT
BRANCH   1   2
ATOM      2  C   UNL     1       3.136  -2.746  -1.120  1.00  0.00     0.188 C 
BRANCH   2   3
ATOM      3  O   UNL     1       4.405  -2.157  -0.886  1.00  0.00    -0.376 OA
BRANCH   3   4
ATOM      4  C   UNL     1       4.897  -1.359   0.182  1.00  0.00     0.202 C 
BRANCH   4   5
ATOM      5  C   UNL     1       4.035  -0.547   1.314  1.00  0.00     0.261 C 
BRANCH   5   6
ATOM      6  O   UNL     1       2.873   1.084   1.124  1.00  0.00    -0.463 OA
BRANCH   6   7
ATOM      7  C   UNL     1       2.151   2.234   0.765  1.00  0.00     0.308 C 
ATOM      8  O   UNL     1       1.260   2.639   1.522  1.00  0.00    -0.252 OA
BRANCH   7   9
ATOM      9  C   UNL     1       2.284   2.911  -0.613  1.00  0.00     0.151 C 
BRANCH   9  10
ATOM     10  C   UNL     1       3.551   3.632  -1.137  1.00  0.00     0.051 C 
ATOM     11  C   UNL     1       3.161   4.938  -1.926  1.00  0.00     0.029 C 
ATOM     12  C   UNL     1       4.265   4.592  -0.127  1.00  0.00     0.029 C 
ATOM     13  C   UNL     1       4.353   5.642  -1.252  1.00  0.00     0.005 C 
BRANCH  10  14
ATOM     14  N   UNL     1       4.572   2.921  -1.990  1.00  0.00    -0.349 N 
ATOM     15  C   UNL     1       4.769   1.628  -2.373  1.00  0.00     0.231 C 
ATOM     16  H   UNL     1       5.253   3.531  -2.354  1.00  0.00     0.164 HD
ATOM     17  O   UNL     1       5.827   1.294  -2.898  1.00  0.00    -0.274 OA
BRANCH  15  18
ATOM     18  C   UNL     1       3.695   0.643  -2.088  1.00  0.00     0.074 C 
ATOM     19  C   UNL     1       2.490   0.668  -3.024  1.00  0.00     0.023 C 
ATOM     20  C   UNL     1       3.512  -0.398  -3.192  1.00  0.00     0.023 C 
BRANCH  18  21
ATOM     21  C   UNL     1       3.492   0.458  -0.570  1.00  0.00    -0.032 A 
ATOM     22  C   UNL     1       4.654   1.389   0.520  1.00  0.00     0.005 A 
ATOM     23  C   UNL     1       2.095  -0.402   0.229  1.00  0.00     0.005 A 
ATOM     24  C   UNL     1       4.365   1.517   2.290  1.00  0.00     0.000 A 
ATOM     25  C   UNL     1       1.869  -0.325   2.013  1.00  0.00     0.000 A 
ATOM     26  C   UNL     1       3.007   0.617   3.023  1.00  0.00     0.000 A 
ENDBRANCH  18  21
ENDBRANCH  15  18
ENDBRANCH  10  14
ENDBRANCH   9  10
ENDBRANCH   7   9
ENDBRANCH   6   7
ENDBRANCH   5   6
ENDBRANCH   4   5
ENDBRANCH   3   4
ENDBRANCH   2   3
ENDBRANCH   1   2
BRANCH   1  27
ATOM     27  O   UNL     1       3.243  -4.905   0.165  1.00  0.00    -0.377 OA
BRANCH  27  28
ATOM     28  C   UNL     1       4.634  -4.683   0.278  1.00  0.00     0.188 C 
BRANCH  28  29
ATOM     29  C   UNL     1       5.430  -4.849  -1.038  1.00  0.00     0.188 C 
BRANCH  29  30
ATOM     30  O   UNL     1       4.642  -4.833  -2.224  1.00  0.00    -0.376 OA
BRANCH  30  31
ATOM     31  C   UNL     1       4.306  -6.077  -2.827  1.00  0.00     0.202 C 
BRANCH  31  32
ATOM     32  C   UNL     1       3.268  -6.940  -2.090  1.00  0.00     0.261 C 
BRANCH  32  33
ATOM     33  O   UNL     1       3.643  -7.399  -0.780  1.00  0.00    -0.460 OA
BRANCH  33  34
ATOM     34  C   UNL     1       4.843  -7.992  -0.620  1.00  0.00     0.338 C 
ATOM     35  O   UNL     1       5.581  -8.410  -1.494  1.00  0.00    -0.246 OA
BRANCH  34  36
ATOM     36  C   UNL     1       5.256  -7.790   0.792  1.00  0.00     0.060 A 
ATOM     37  C   UNL     1       6.570  -7.348   1.030  1.00  0.00     0.016 A 
ATOM     38  C   UNL     1       4.339  -7.862   1.851  1.00  0.00     0.016 A 
ATOM     39  C   UNL     1       6.973  -7.001   2.318  1.00  0.00     0.010 A 
ATOM     40  C   UNL     1       4.758  -7.572   3.154  1.00  0.00     0.010 A 
ATOM     41  C   UNL     1       6.091  -7.194   3.393  1.00  0.00    -0.014 A 
BRANCH  41  42
ATOM     42  C   UNL     1       6.701  -7.456   4.718  1.00  0.00     0.031 A 
ATOM     43  C   UNL     1       7.202  -8.863   4.929  1.00  0.00     0.074 A 
ATOM     44  C   UNL     1       6.875  -6.514   5.660  1.00  0.00     0.049 A 
ATOM     45  N   UNL     1       7.845  -9.384   5.940  1.00  0.00    -0.248 NA
ATOM     46  C   UNL     1       6.952  -9.813   3.828  1.00  0.00     0.031 C 
ATOM     47  C   UNL     1       6.464  -5.117   5.563  1.00  0.00     0.029 A 
ATOM     48  N   UNL     1       7.458  -6.609   6.901  1.00  0.00    -0.354 N 
ATOM     49  C   UNL     1       8.101 -10.699   5.575  1.00  0.00     0.074 A 
ATOM     50  C   UNL     1       7.506 -10.921   4.281  1.00  0.00     0.031 C 
ATOM     51  C   UNL     1       6.792  -4.486   6.708  1.00  0.00     0.029 A 
ATOM     52  C   UNL     1       7.426  -5.439   7.619  1.00  0.00     0.049 A 
ATOM     53  H   UNL     1       7.861  -7.439   7.243  1.00  0.00     0.167 HD
ATOM     54  C   UNL     1       8.790 -11.646   6.249  1.00  0.00     0.037 A 
ATOM     55  C   UNL     1       7.854  -5.187   8.873  1.00  0.00     0.037 A 
ATOM     56  C   UNL     1       9.330 -11.449   7.561  1.00  0.00     0.049 A 
ATOM     57  C   UNL     1       8.530  -6.293   9.654  1.00  0.00     0.074 A 
ATOM     58  C   UNL     1       9.999 -12.353   8.363  1.00  0.00     0.029 A 
ATOM     59  N   UNL     1       9.242 -10.261   8.269  1.00  0.00    -0.354 N 
ATOM     60  N   UNL     1       8.797  -7.526   9.291  1.00  0.00    -0.248 NA
ATOM     61  C   UNL     1       8.975  -5.966  11.017  1.00  0.00     0.031 C 
ATOM     62  C   UNL     1      10.278 -11.723   9.579  1.00  0.00     0.029 A 
ATOM     63  C   UNL     1       9.834 -10.411   9.510  1.00  0.00     0.049 A 
ATOM     64  H   UNL     1       8.821  -9.434   7.939  1.00  0.00     0.167 HD
ATOM     65  C   UNL     1       9.466  -8.107  10.363  1.00  0.00     0.074 A 
ATOM     66  C   UNL     1       9.582  -7.086  11.382  1.00  0.00     0.031 C 
ATOM     67  C   UNL     1       9.944  -9.370  10.498  1.00  0.00     0.037 A 
BRANCH  54  68
ATOM     68  C   UNL     1       8.955 -12.973   5.575  1.00  0.00     0.064 A 
ATOM     69  C   UNL     1       9.790 -13.126   4.457  1.00  0.00     0.173 A 
ATOM     70  C   UNL     1       8.257 -14.098   6.035  1.00  0.00     0.173 A 
ATOM     71  F   UNL     1      10.450 -12.070   3.957  1.00  0.00    -0.203 F 
ATOM     72  C   UNL     1       9.905 -14.354   3.812  1.00  0.00     0.198 A 
ATOM     73  C   UNL     1       8.397 -15.331   5.405  1.00  0.00     0.198 A 
ATOM     74  F   UNL     1       7.432 -13.999   7.088  1.00  0.00    -0.203 F 
ATOM     75  F   UNL     1      10.665 -14.465   2.714  1.00  0.00    -0.200 F 
ATOM     76  C   UNL     1       9.215 -15.457   4.292  1.00  0.00     0.200 A 
ATOM     77  F   UNL     1       7.731 -16.398   5.871  1.00  0.00    -0.200 F 
ATOM     78  F   UNL     1       9.329 -16.640   3.674  1.00  0.00    -0.200 F 
ENDBRANCH  54  68
BRANCH  55  79
ATOM     79  C   UNL     1       7.650  -3.846   9.490  1.00  0.00     0.064 A 
ATOM     80  C   UNL     1       8.734  -3.024   9.832  1.00  0.00     0.173 A 
ATOM     81  C   UNL     1       6.363  -3.387   9.810  1.00  0.00     0.173 A 
ATOM     82  F   UNL     1       9.987  -3.428   9.576  1.00  0.00    -0.203 F 
ATOM     83  C   UNL     1       8.541  -1.813  10.496  1.00  0.00     0.198 A 
ATOM     84  C   UNL     1       6.170  -2.161  10.445  1.00  0.00     0.198 A 
ATOM     85  F   UNL     1       5.290  -4.134   9.513  1.00  0.00    -0.203 F 
ATOM     86  F   UNL     1       9.599  -1.079  10.867  1.00  0.00    -0.200 F 
ATOM     87  C   UNL     1       7.259  -1.380  10.799  1.00  0.00     0.200 A 
ATOM     88  F   UNL     1       4.928  -1.744  10.728  1.00  0.00    -0.200 F 
ATOM     89  F   UNL     1       7.075  -0.220  11.442  1.00  0.00    -0.200 F 
ENDBRANCH  55  79
BRANCH  67  90
ATOM     90  C   UNL     1      10.668  -9.704  11.770  1.00  0.00     0.064 A 
ATOM     91  C   UNL     1       9.996  -9.821  12.995  1.00  0.00     0.173 A 
ATOM     92  C   UNL     1      12.049  -9.956  11.751  1.00  0.00     0.173 A 
ATOM     93  F   UNL     1       8.677  -9.583  13.067  1.00  0.00    -0.203 F 
ATOM     94  C   UNL     1      10.685 -10.142  14.161  1.00  0.00     0.198 A 
ATOM     95  C   UNL     1      12.729 -10.311  12.912  1.00  0.00     0.198 A 
ATOM     96  F   UNL     1      12.737  -9.873  10.602  1.00  0.00    -0.203 F 
ATOM     97  F   UNL     1      10.032 -10.193  15.330  1.00  0.00    -0.200 F 
ATOM     98  C   UNL     1      12.049 -10.393  14.117  1.00  0.00     0.200 A 
ATOM     99  F   UNL     1      14.042 -10.573  12.864  1.00  0.00    -0.200 F 
ATOM    100  F   UNL     1      12.710 -10.708  15.240  1.00  0.00    -0.200 F 
ENDBRANCH  67  90
ENDBRANCH  41  42
ENDBRANCH  34  36
ENDBRANCH  33  34
ENDBRANCH  32  33
ENDBRANCH  31  32
ENDBRANCH  30  31
ENDBRANCH  29  30
ENDBRANCH  28  29
ENDBRANCH  27  28
ENDBRANCH   1  27
TORSDOF 24
