REMARK SMILES CC(C)CSc1cc2c(cc1Cl)C=C(C(=O)OCCOCCOCCOCCOC(=O)c1ccc(-c3c4nc(c(-c5c(F)c(F)c(F)c(F)c5F)c5ccc([nH]5)c(-c5c(F)c(F)c(F)c(F)c5F)c5nc(c(-c6c(F)c(F)c(F)c(F)c6F)c6ccc3[nH]6)C=C5)C=C4)cc1)[C@@H](C(F)(F)F)O2
REMARK SMILES IDX 22 1 21 2 20 3 19 4 18 5 17 6 15 7 16 8 14 9 6 10 7 11 11 12
REMARK SMILES IDX 8 13 10 14 12 15 9 16 100 17 13 18 95 19 5 20 4 21 2 22 1 23
REMARK SMILES IDX 3 24 96 25 97 26 98 27 99 28 23 29 24 30 25 31 26 32 27 33
REMARK SMILES IDX 28 34 29 35 30 36 31 37 32 38 33 39 94 40 34 41 93 42 35 43
REMARK SMILES IDX 36 44 37 45 87 46 38 47 92 48 86 49 88 50 39 51 91 52 85 53
REMARK SMILES IDX 84 54 40 56 72 57 52 58 71 59 53 60 56 61 70 62 89 63 54 64
REMARK SMILES IDX 55 65 69 67 90 68 57 69 41 70 42 71 50 72 43 73 44 74 48 75
REMARK SMILES IDX 51 76 45 77 46 78 49 79 47 80 73 81 74 82 82 83 75 84 76 85
REMARK SMILES IDX 80 86 83 87 77 88 78 89 81 90 79 91 58 92 59 93 67 94 60 95
REMARK SMILES IDX 61 96 65 97 68 98 62 99 63 100 66 101 64 102
REMARK H PARENT 88 55 56 66
REMARK Flexibility Score: inf
ROOT
ATOM      1  C   UNL     1      -1.851   6.978   4.347  1.00  0.00     0.188 C 
ENDROOT
BRANCH   1   2
ATOM      2  C   UNL     1      -0.577   6.959   5.210  1.00  0.00     0.188 C 
BRANCH   2   3
ATOM      3  O   UNL     1      -0.179   8.255   5.658  1.00  0.00    -0.376 OA
BRANCH   3   4
ATOM      4  C   UNL     1       0.918   8.854   4.976  1.00  0.00     0.202 C 
BRANCH   4   5
ATOM      5  C   UNL     1       0.635   9.334   3.546  1.00  0.00     0.261 C 
BRANCH   5   6
ATOM      6  O   UNL     1       0.239   8.293   2.638  1.00  0.00    -0.460 OA
BRANCH   6   7
ATOM      7  C   UNL     1       1.156   7.353   2.335  1.00  0.00     0.338 C 
ATOM      8  O   UNL     1       2.314   7.311   2.705  1.00  0.00    -0.246 OA
BRANCH   7   9
ATOM      9  C   UNL     1       0.458   6.268   1.619  1.00  0.00     0.087 C 
ATOM     10  C   UNL     1      -1.398   1.835   0.111  1.00  0.00     0.030 A 
ATOM     11  C   UNL     1      -1.337   3.130  -0.441  1.00  0.00     0.063 A 
ATOM     12  C   UNL     1      -0.995   1.679   1.447  1.00  0.00     0.055 A 
ATOM     13  C   UNL     1      -0.778   4.197   0.265  1.00  0.00     0.129 A 
ATOM     14  C   UNL     1      -0.360   2.732   2.123  1.00  0.00     0.033 A 
ATOM     15  Cl  UNL     1      -1.273   0.251   2.377  1.00  0.00    -0.083 Cl
ATOM     16  C   UNL     1      -0.209   3.978   1.514  1.00  0.00     0.019 A 
ATOM     17  O   UNL     1      -0.769   5.414  -0.357  1.00  0.00    -0.475 OA
ATOM     18  C   UNL     1       0.564   5.038   2.141  1.00  0.00     0.027 C 
ATOM     19  C   UNL     1      -0.440   6.586   0.450  1.00  0.00     0.316 C 
BRANCH  10  20
ATOM     20  S   UNL     1      -2.009   0.584  -1.016  1.00  0.00    -0.124 SA
BRANCH  20  21
ATOM     21  C   UNL     1      -1.015  -0.931  -0.711  1.00  0.00     0.078 C 
BRANCH  21  22
ATOM     22  C   UNL     1       0.484  -0.964  -1.072  1.00  0.00    -0.007 C 
ATOM     23  C   UNL     1       1.363   0.061  -0.361  1.00  0.00     0.008 C 
ATOM     24  C   UNL     1       1.022  -2.369  -0.748  1.00  0.00     0.008 C 
ENDBRANCH  21  22
ENDBRANCH  20  21
ENDBRANCH  10  20
BRANCH  19  25
ATOM     25  C   UNL     1       0.138   7.642  -0.508  1.00  0.00     0.430 C 
ATOM     26  F   UNL     1      -0.706   7.873  -1.543  1.00  0.00    -0.167 F 
ATOM     27  F   UNL     1       0.339   8.837   0.092  1.00  0.00    -0.167 F 
ATOM     28  F   UNL     1       1.323   7.249  -1.029  1.00  0.00    -0.167 F 
ENDBRANCH  19  25
ENDBRANCH   7   9
ENDBRANCH   6   7
ENDBRANCH   5   6
ENDBRANCH   4   5
ENDBRANCH   3   4
ENDBRANCH   2   3
ENDBRANCH   1   2
BRANCH   1  29
ATOM     29  O   UNL     1      -2.261   8.288   3.990  1.00  0.00    -0.377 OA
BRANCH  29  30
ATOM     30  C   UNL     1      -3.002   9.034   4.954  1.00  0.00     0.188 C 
BRANCH  30  31
ATOM     31  C   UNL     1      -2.956   8.693   6.460  1.00  0.00     0.188 C 
BRANCH  31  32
ATOM     32  O   UNL     1      -3.164   7.311   6.743  1.00  0.00    -0.376 OA
BRANCH  32  33
ATOM     33  C   UNL     1      -4.393   6.973   7.375  1.00  0.00     0.202 C 
BRANCH  33  34
ATOM     34  C   UNL     1      -5.565   6.862   6.395  1.00  0.00     0.261 C 
BRANCH  34  35
ATOM     35  O   UNL     1      -5.907   8.084   5.722  1.00  0.00    -0.460 OA
BRANCH  35  36
ATOM     36  C   UNL     1      -6.280   9.135   6.484  1.00  0.00     0.338 C 
ATOM     37  O   UNL     1      -6.426   9.159   7.693  1.00  0.00    -0.246 OA
BRANCH  36  38
ATOM     38  C   UNL     1      -6.282  10.327   5.612  1.00  0.00     0.060 A 
ATOM     39  C   UNL     1      -6.979  10.316   4.400  1.00  0.00     0.016 A 
ATOM     40  C   UNL     1      -5.537  11.449   5.994  1.00  0.00     0.016 A 
ATOM     41  C   UNL     1      -6.955  11.446   3.581  1.00  0.00     0.010 A 
ATOM     42  C   UNL     1      -5.500  12.572   5.166  1.00  0.00     0.010 A 
ATOM     43  C   UNL     1      -6.230  12.586   3.968  1.00  0.00    -0.014 A 
BRANCH  43  44
ATOM     44  C   UNL     1      -6.402  13.854   3.223  1.00  0.00     0.031 A 
ATOM     45  C   UNL     1      -5.430  14.309   2.181  1.00  0.00     0.074 A 
ATOM     46  C   UNL     1      -7.477  14.606   3.525  1.00  0.00     0.049 A 
ATOM     47  N   UNL     1      -5.478  15.380   1.429  1.00  0.00    -0.248 NA
ATOM     48  C   UNL     1      -4.253  13.461   1.953  1.00  0.00     0.031 C 
ATOM     49  C   UNL     1      -8.482  14.258   4.531  1.00  0.00     0.029 A 
ATOM     50  N   UNL     1      -7.903  15.808   3.025  1.00  0.00    -0.354 N 
ATOM     51  C   UNL     1      -4.354  15.327   0.619  1.00  0.00     0.074 A 
ATOM     52  C   UNL     1      -3.619  14.137   1.001  1.00  0.00     0.031 C 
ATOM     53  C   UNL     1      -9.413  15.222   4.570  1.00  0.00     0.029 A 
ATOM     54  C   UNL     1      -9.059  16.262   3.608  1.00  0.00     0.049 A 
ATOM     55  H   UNL     1      -7.426  16.298   2.317  1.00  0.00     0.167 HD
ATOM     56  C   UNL     1      -3.984  16.189  -0.361  1.00  0.00     0.037 A 
ATOM     57  C   UNL     1      -9.758  17.391   3.394  1.00  0.00     0.037 A 
ATOM     58  C   UNL     1      -4.711  17.384  -0.716  1.00  0.00     0.049 A 
ATOM     59  C   UNL     1      -9.294  18.353   2.340  1.00  0.00     0.074 A 
ATOM     60  C   UNL     1      -4.423  18.306  -1.709  1.00  0.00     0.029 A 
ATOM     61  N   UNL     1      -5.862  17.833  -0.083  1.00  0.00    -0.354 N 
ATOM     62  N   UNL     1      -8.259  18.266   1.542  1.00  0.00    -0.248 NA
ATOM     63  C   UNL     1     -10.104  19.563   2.149  1.00  0.00     0.031 C 
ATOM     64  C   UNL     1      -5.369  19.334  -1.646  1.00  0.00     0.029 A 
ATOM     65  C   UNL     1      -6.281  19.029  -0.650  1.00  0.00     0.049 A 
ATOM     66  H   UNL     1      -6.315  17.370   0.658  1.00  0.00     0.167 HD
ATOM     67  C   UNL     1      -8.304  19.395   0.737  1.00  0.00     0.074 A 
ATOM     68  C   UNL     1      -9.478  20.145   1.134  1.00  0.00     0.031 C 
ATOM     69  C   UNL     1      -7.448  19.772  -0.244  1.00  0.00     0.037 A 
BRANCH  56  70
ATOM     70  C   UNL     1      -2.737  15.877  -1.137  1.00  0.00     0.064 A 
ATOM     71  C   UNL     1      -2.709  14.841  -2.081  1.00  0.00     0.173 A 
ATOM     72  C   UNL     1      -1.595  16.682  -1.011  1.00  0.00     0.173 A 
ATOM     73  F   UNL     1      -3.774  14.041  -2.239  1.00  0.00    -0.203 F 
ATOM     74  C   UNL     1      -1.579  14.616  -2.865  1.00  0.00     0.198 A 
ATOM     75  C   UNL     1      -0.476  16.469  -1.812  1.00  0.00     0.198 A 
ATOM     76  F   UNL     1      -1.574  17.694  -0.130  1.00  0.00    -0.203 F 
ATOM     77  F   UNL     1      -1.568  13.607  -3.747  1.00  0.00    -0.200 F 
ATOM     78  C   UNL     1      -0.468  15.436  -2.737  1.00  0.00     0.200 A 
ATOM     79  F   UNL     1       0.591  17.273  -1.699  1.00  0.00    -0.200 F 
ATOM     80  F   UNL     1       0.610  15.232  -3.507  1.00  0.00    -0.200 F 
ENDBRANCH  56  70
BRANCH  57  81
ATOM     81  C   UNL     1     -10.995  17.637   4.174  1.00  0.00     0.064 A 
ATOM     82  C   UNL     1     -12.254  17.537   3.570  1.00  0.00     0.173 A 
ATOM     83  C   UNL     1     -10.945  17.931   5.545  1.00  0.00     0.173 A 
ATOM     84  F   UNL     1     -12.348  17.272   2.259  1.00  0.00    -0.203 F 
ATOM     85  C   UNL     1     -13.420  17.729   4.306  1.00  0.00     0.198 A 
ATOM     86  C   UNL     1     -12.112  18.098   6.285  1.00  0.00     0.198 A 
ATOM     87  F   UNL     1      -9.762  18.028   6.168  1.00  0.00    -0.203 F 
ATOM     88  F   UNL     1     -14.612  17.655   3.699  1.00  0.00    -0.200 F 
ATOM     89  C   UNL     1     -13.349  18.001   5.665  1.00  0.00     0.200 A 
ATOM     90  F   UNL     1     -12.039  18.343   7.600  1.00  0.00    -0.200 F 
ATOM     91  F   UNL     1     -14.472  18.171   6.375  1.00  0.00    -0.200 F 
ENDBRANCH  57  81
BRANCH  69  92
ATOM     92  C   UNL     1      -7.761  21.046  -0.975  1.00  0.00     0.064 A 
ATOM     93  C   UNL     1      -7.609  22.300  -0.366  1.00  0.00     0.173 A 
ATOM     94  C   UNL     1      -8.190  21.013  -2.311  1.00  0.00     0.173 A 
ATOM     95  F   UNL     1      -7.218  22.385   0.915  1.00  0.00    -0.203 F 
ATOM     96  C   UNL     1      -7.899  23.473  -1.058  1.00  0.00     0.198 A 
ATOM     97  C   UNL     1      -8.450  22.188  -3.010  1.00  0.00     0.198 A 
ATOM     98  F   UNL     1      -8.347  19.840  -2.942  1.00  0.00    -0.203 F 
ATOM     99  F   UNL     1      -7.793  24.657  -0.441  1.00  0.00    -0.200 F 
ATOM    100  C   UNL     1      -8.312  23.416  -2.381  1.00  0.00     0.200 A 
ATOM    101  F   UNL     1      -8.838  22.133  -4.292  1.00  0.00    -0.200 F 
ATOM    102  F   UNL     1      -8.585  24.546  -3.048  1.00  0.00    -0.200 F 
ENDBRANCH  69  92
ENDBRANCH  43  44
ENDBRANCH  36  38
ENDBRANCH  35  36
ENDBRANCH  34  35
ENDBRANCH  33  34
ENDBRANCH  32  33
ENDBRANCH  31  32
ENDBRANCH  30  31
ENDBRANCH  29  30
ENDBRANCH   1  29
TORSDOF 24
