REMARK SMILES O=C(OCCOCCOCCOCCOC(=O)c1ccc(S(=O)(=O)N[C@@H]2CC[N@@H+]3CCC[C@H]23)cc1)c1ccc(-c2c3nc(c(-c4c(F)c(F)c(F)c(F)c4F)c4ccc([nH]4)c(-c4c(F)c(F)c(F)c(F)c4F)c4nc(c(-c5c(F)c(F)c(F)c(F)c5F)c5ccc2[nH]5)C=C4)C=C3)cc1
REMARK SMILES IDX 10 1 9 2 8 3 7 4 6 5 5 6 4 7 3 8 2 9 1 10 36 11 37 12 98 13
REMARK SMILES IDX 38 14 97 15 39 16 40 17 41 18 91 19 42 20 96 21 90 22 92 23
REMARK SMILES IDX 43 24 95 25 89 26 88 27 44 29 76 30 56 31 75 32 57 33 60 34
REMARK SMILES IDX 74 35 93 36 58 37 59 38 73 40 94 41 61 42 45 43 46 44 54 45
REMARK SMILES IDX 47 46 48 47 52 48 55 49 49 50 50 51 53 52 51 53 77 54 78 55
REMARK SMILES IDX 86 56 79 57 80 58 84 59 87 60 81 61 82 62 85 63 83 64 62 65
REMARK SMILES IDX 63 66 71 67 64 68 65 69 69 70 72 71 66 72 67 73 70 74 68 75
REMARK SMILES IDX 11 76 12 77 13 78 14 79 15 80 16 81 17 82 18 83 19 84 35 85
REMARK SMILES IDX 20 86 34 87 21 88 22 89 23 90 24 91 25 92 26 94 27 95 33 96
REMARK SMILES IDX 28 97 29 98 32 99 30 100 31 102
REMARK H PARENT 92 28 60 39 25 93 29 101
REMARK Flexibility Score: inf
ROOT
ATOM      1  C   UNL     1       3.912  -0.086  -3.599  1.00  0.00     0.188 C 
ENDROOT
BRANCH   1   2
ATOM      2  O   UNL     1       2.500  -0.128  -3.762  1.00  0.00    -0.377 OA
BRANCH   2   3
ATOM      3  C   UNL     1       1.732   0.193  -2.600  1.00  0.00     0.188 C 
BRANCH   3   4
ATOM      4  C   UNL     1       2.085  -0.635  -1.364  1.00  0.00     0.188 C 
BRANCH   4   5
ATOM      5  O   UNL     1       3.393  -0.287  -0.890  1.00  0.00    -0.376 OA
BRANCH   5   6
ATOM      6  C   UNL     1       4.182  -1.396  -0.450  1.00  0.00     0.202 C 
BRANCH   6   7
ATOM      7  C   UNL     1       4.058  -1.663   1.048  1.00  0.00     0.261 C 
BRANCH   7   8
ATOM      8  O   UNL     1       2.711  -1.482   1.506  1.00  0.00    -0.460 OA
BRANCH   8   9
ATOM      9  C   UNL     1       2.110  -0.331   1.898  1.00  0.00     0.338 C 
ATOM     10  O   UNL     1       0.910  -0.371   2.173  1.00  0.00    -0.246 OA
BRANCH   9  11
ATOM     11  C   UNL     1       2.820   0.977   2.090  1.00  0.00     0.060 A 
ATOM     12  C   UNL     1       4.016   1.367   1.483  1.00  0.00     0.016 A 
ATOM     13  C   UNL     1       2.204   1.896   2.962  1.00  0.00     0.016 A 
ATOM     14  C   UNL     1       4.653   2.554   1.824  1.00  0.00     0.010 A 
ATOM     15  C   UNL     1       2.821   3.107   3.293  1.00  0.00     0.010 A 
ATOM     16  C   UNL     1       4.083   3.400   2.772  1.00  0.00    -0.014 A 
BRANCH  16  17
ATOM     17  C   UNL     1       4.956   4.420   3.380  1.00  0.00     0.031 A 
ATOM     18  C   UNL     1       5.607   4.075   4.689  1.00  0.00     0.074 A 
ATOM     19  C   UNL     1       5.291   5.526   2.696  1.00  0.00     0.049 A 
ATOM     20  N   UNL     1       6.434   4.773   5.419  1.00  0.00    -0.248 NA
ATOM     21  C   UNL     1       5.298   2.743   5.239  1.00  0.00     0.031 C 
ATOM     22  C   UNL     1       4.816   5.862   1.355  1.00  0.00     0.029 A 
ATOM     23  N   UNL     1       6.144   6.546   3.019  1.00  0.00    -0.354 N 
ATOM     24  C   UNL     1       6.716   3.979   6.523  1.00  0.00     0.074 A 
ATOM     25  C   UNL     1       5.979   2.748   6.372  1.00  0.00     0.031 C 
ATOM     26  C   UNL     1       5.409   7.000   0.955  1.00  0.00     0.029 A 
ATOM     27  C   UNL     1       6.260   7.495   2.033  1.00  0.00     0.049 A 
ATOM     28  H   UNL     1       6.628   6.595   3.874  1.00  0.00     0.167 HD
ATOM     29  C   UNL     1       7.516   4.264   7.576  1.00  0.00     0.037 A 
ATOM     30  C   UNL     1       6.968   8.640   2.027  1.00  0.00     0.037 A 
ATOM     31  C   UNL     1       8.242   5.497   7.700  1.00  0.00     0.049 A 
ATOM     32  C   UNL     1       7.786   8.974   3.248  1.00  0.00     0.074 A 
ATOM     33  C   UNL     1       9.019   5.947   8.749  1.00  0.00     0.029 A 
ATOM     34  N   UNL     1       8.274   6.480   6.719  1.00  0.00    -0.354 N 
ATOM     35  N   UNL     1       7.987   8.260   4.331  1.00  0.00    -0.248 NA
ATOM     36  C   UNL     1       8.465  10.275   3.253  1.00  0.00     0.031 C 
ATOM     37  C   UNL     1       9.494   7.222   8.416  1.00  0.00     0.029 A 
ATOM     38  C   UNL     1       9.050   7.543   7.141  1.00  0.00     0.049 A 
ATOM     39  H   UNL     1       7.812   6.427   5.851  1.00  0.00     0.167 HD
ATOM     40  C   UNL     1       8.830   9.012   5.137  1.00  0.00     0.074 A 
ATOM     41  C   UNL     1       9.115  10.233   4.407  1.00  0.00     0.031 C 
ATOM     42  C   UNL     1       9.321   8.730   6.369  1.00  0.00     0.037 A 
BRANCH  29  43
ATOM     43  C   UNL     1       7.557   3.258   8.687  1.00  0.00     0.064 A 
ATOM     44  C   UNL     1       8.210   2.024   8.552  1.00  0.00     0.173 A 
ATOM     45  C   UNL     1       6.868   3.509   9.883  1.00  0.00     0.173 A 
ATOM     46  F   UNL     1       8.852   1.720   7.414  1.00  0.00    -0.203 F 
ATOM     47  C   UNL     1       8.141   1.064   9.560  1.00  0.00     0.198 A 
ATOM     48  C   UNL     1       6.823   2.558  10.899  1.00  0.00     0.198 A 
ATOM     49  F   UNL     1       6.217   4.668  10.057  1.00  0.00    -0.203 F 
ATOM     50  F   UNL     1       8.714  -0.135   9.383  1.00  0.00    -0.200 F 
ATOM     51  C   UNL     1       7.449   1.332  10.732  1.00  0.00     0.200 A 
ATOM     52  F   UNL     1       6.153   2.819  12.030  1.00  0.00    -0.200 F 
ATOM     53  F   UNL     1       7.370   0.402  11.694  1.00  0.00    -0.200 F 
ENDBRANCH  29  43
BRANCH  30  54
ATOM     54  C   UNL     1       6.915   9.551   0.853  1.00  0.00     0.064 A 
ATOM     55  C   UNL     1       8.052   9.796   0.070  1.00  0.00     0.173 A 
ATOM     56  C   UNL     1       5.727  10.206   0.492  1.00  0.00     0.173 A 
ATOM     57  F   UNL     1       9.220   9.216   0.384  1.00  0.00    -0.203 F 
ATOM     58  C   UNL     1       8.005  10.669  -1.018  1.00  0.00     0.198 A 
ATOM     59  C   UNL     1       5.674  11.054  -0.613  1.00  0.00     0.198 A 
ATOM     60  F   UNL     1       4.610  10.013   1.208  1.00  0.00    -0.203 F 
ATOM     61  F   UNL     1       9.118  10.918  -1.722  1.00  0.00    -0.200 F 
ATOM     62  C   UNL     1       6.815  11.291  -1.362  1.00  0.00     0.200 A 
ATOM     63  F   UNL     1       4.518  11.643  -0.948  1.00  0.00    -0.200 F 
ATOM     64  F   UNL     1       6.770  12.125  -2.410  1.00  0.00    -0.200 F 
ENDBRANCH  30  54
BRANCH  42  65
ATOM     65  C   UNL     1      10.248   9.737   6.976  1.00  0.00     0.064 A 
ATOM     66  C   UNL     1       9.775  10.949   7.497  1.00  0.00     0.173 A 
ATOM     67  C   UNL     1      11.619   9.459   7.080  1.00  0.00     0.173 A 
ATOM     68  F   UNL     1       8.474  11.261   7.407  1.00  0.00    -0.203 F 
ATOM     69  C   UNL     1      10.649  11.860   8.082  1.00  0.00     0.198 A 
ATOM     70  C   UNL     1      12.484  10.361   7.690  1.00  0.00     0.198 A 
ATOM     71  F   UNL     1      12.114   8.308   6.602  1.00  0.00    -0.203 F 
ATOM     72  F   UNL     1      10.185  13.032   8.538  1.00  0.00    -0.200 F 
ATOM     73  C   UNL     1      12.000  11.562   8.185  1.00  0.00     0.200 A 
ATOM     74  F   UNL     1      13.787  10.066   7.800  1.00  0.00    -0.200 F 
ATOM     75  F   UNL     1      12.838  12.438   8.756  1.00  0.00    -0.200 F 
ENDBRANCH  42  65
ENDBRANCH  16  17
ENDBRANCH   9  11
ENDBRANCH   8   9
ENDBRANCH   7   8
ENDBRANCH   6   7
ENDBRANCH   5   6
ENDBRANCH   4   5
ENDBRANCH   3   4
ENDBRANCH   2   3
ENDBRANCH   1   2
BRANCH   1  76
ATOM     76  C   UNL     1       4.574   1.263  -3.267  1.00  0.00     0.188 C 
BRANCH  76  77
ATOM     77  O   UNL     1       3.671   2.350  -3.094  1.00  0.00    -0.376 OA
BRANCH  77  78
ATOM     78  C   UNL     1       3.717   3.349  -4.111  1.00  0.00     0.202 C 
BRANCH  78  79
ATOM     79  C   UNL     1       2.949   2.988  -5.388  1.00  0.00     0.261 C 
BRANCH  79  80
ATOM     80  O   UNL     1       3.396   1.777  -6.012  1.00  0.00    -0.460 OA
BRANCH  80  81
ATOM     81  C   UNL     1       4.624   1.779  -6.572  1.00  0.00     0.338 C 
ATOM     82  O   UNL     1       5.362   2.737  -6.717  1.00  0.00    -0.246 OA
BRANCH  81  83
ATOM     83  C   UNL     1       5.026   0.364  -6.771  1.00  0.00     0.060 A 
ATOM     84  C   UNL     1       6.371   0.020  -6.560  1.00  0.00     0.017 A 
ATOM     85  C   UNL     1       4.071  -0.639  -7.013  1.00  0.00     0.017 A 
ATOM     86  C   UNL     1       6.770  -1.315  -6.631  1.00  0.00     0.022 A 
ATOM     87  C   UNL     1       4.466  -1.975  -7.068  1.00  0.00     0.022 A 
ATOM     88  C   UNL     1       5.820  -2.297  -6.921  1.00  0.00     0.082 A 
BRANCH  88  89
ATOM     89  S   UNL     1       6.347  -3.935  -7.339  1.00  0.00     0.241 S 
ATOM     90  O   UNL     1       7.771  -3.924  -7.619  1.00  0.00    -0.207 OA
ATOM     91  O   UNL     1       5.770  -4.829  -6.371  1.00  0.00    -0.207 OA
BRANCH  89  92
ATOM     92  N   UNL     1       5.537  -4.199  -8.771  1.00  0.00    -0.202 NA
ATOM     93  H   UNL     1       4.572  -3.931  -8.578  1.00  0.00     0.141 HD
BRANCH  92  94
ATOM     94  C   UNL     1       5.833  -3.614 -10.091  1.00  0.00     0.133 C 
ATOM     95  C   UNL     1       6.643  -2.323 -10.146  1.00  0.00     0.087 C 
ATOM     96  C   UNL     1       4.539  -3.245 -10.870  1.00  0.00     0.202 C 
ATOM     97  C   UNL     1       5.634  -1.204 -10.333  1.00  0.00     0.264 C 
ATOM     98  N   UNL     1       4.529  -1.789 -11.081  1.00  0.00    -0.331 N 
ATOM     99  C   UNL     1       3.177  -3.640 -10.307  1.00  0.00     0.072 C 
ATOM    100  C   UNL     1       3.221  -1.240 -10.738  1.00  0.00     0.262 C 
ATOM    101  H   UNL     1       4.675  -1.557 -12.063  1.00  0.00     0.348 HD
ATOM    102  C   UNL     1       2.381  -2.358 -10.151  1.00  0.00     0.068 C 
ENDBRANCH  92  94
ENDBRANCH  89  92
ENDBRANCH  88  89
ENDBRANCH  81  83
ENDBRANCH  80  81
ENDBRANCH  79  80
ENDBRANCH  78  79
ENDBRANCH  77  78
ENDBRANCH  76  77
ENDBRANCH   1  76
TORSDOF 23
