REMARK SMILES COc1ccccc1[C@@H]1CN(C(=O)c2cc(C(C)C)nc(N)n2)C[C@H]1C(=O)OCCOCCOCCOCCOC(=O)c1ccc(-c2c3nc(c(-c4c(F)c(F)c(F)c(F)c4F)c4ccc([nH]4)c(-c4c(F)c(F)c(F)c(F)c4F)c4nc(c(-c5c(F)c(F)c(F)c(F)c5F)c5ccc2[nH]5)C=C4)C=C3)cc1
REMARK SMILES IDX 33 1 32 2 31 3 30 4 29 5 28 6 26 7 27 8 25 9 9 10 10 11
REMARK SMILES IDX 11 12 24 13 8 14 3 15 4 16 5 17 7 18 6 19 2 20 1 21 12 22
REMARK SMILES IDX 13 23 14 24 15 25 23 26 16 27 21 28 20 29 17 30 18 31 19 32
REMARK SMILES IDX 22 33 34 36 35 37 36 38 37 39 38 40 39 41 40 42 41 43 42 44
REMARK SMILES IDX 43 45 44 46 105 47 45 48 104 49 46 50 47 51 48 52 98 53
REMARK SMILES IDX 49 54 103 55 97 56 99 57 50 58 102 59 96 60 95 61 51 63
REMARK SMILES IDX 83 64 63 65 82 66 64 67 67 68 81 69 100 70 65 71 66 72 80 74
REMARK SMILES IDX 101 75 68 76 52 77 53 78 61 79 54 80 55 81 59 82 62 83 56 84
REMARK SMILES IDX 57 85 60 86 58 87 84 88 85 89 93 90 86 91 87 92 91 93 94 94
REMARK SMILES IDX 88 95 89 96 92 97 90 98 69 99 70 100 78 101 71 102 72 103
REMARK SMILES IDX 76 104 79 105 73 106 74 107 77 108 75 109
REMARK H PARENT 22 34 22 35 99 62 67 73
REMARK Flexibility Score: inf
ROOT
ATOM      1  C   UNL     1       2.452   3.639  -0.917  1.00  0.00     0.188 C 
ENDROOT
BRANCH   1   2
ATOM      2  C   UNL     1       1.773   4.107   0.371  1.00  0.00     0.188 C 
BRANCH   2   3
ATOM      3  O   UNL     1       2.424   5.033   1.213  1.00  0.00    -0.376 OA
BRANCH   3   4
ATOM      4  C   UNL     1       3.738   4.791   1.690  1.00  0.00     0.202 C 
BRANCH   4   5
ATOM      5  C   UNL     1       4.315   3.390   1.990  1.00  0.00     0.261 C 
BRANCH   5   6
ATOM      6  O   UNL     1       4.089   2.334   1.027  1.00  0.00    -0.463 OA
BRANCH   6   7
ATOM      7  C   UNL     1       3.201   1.394   1.407  1.00  0.00     0.311 C 
ATOM      8  O   UNL     1       2.655   1.394   2.511  1.00  0.00    -0.252 OA
BRANCH   7   9
ATOM      9  C   UNL     1       2.904   0.266   0.437  1.00  0.00     0.128 C 
ATOM     10  C   UNL     1       3.173   0.178  -1.097  1.00  0.00     0.058 C 
ATOM     11  C   UNL     1       3.463  -1.311  -1.299  1.00  0.00     0.129 C 
ATOM     12  N   UNL     1       4.142  -1.693  -0.083  1.00  0.00    -0.336 N 
ATOM     13  C   UNL     1       3.647  -0.930   1.034  1.00  0.00     0.136 C 
BRANCH  10  14
ATOM     14  C   UNL     1       2.118   0.565  -2.143  1.00  0.00    -0.000 A 
ATOM     15  C   UNL     1       0.752   0.231  -2.095  1.00  0.00     0.122 A 
ATOM     16  C   UNL     1      -0.149   0.734  -3.048  1.00  0.00     0.047 A 
ATOM     17  C   UNL     1       0.314   1.480  -4.132  1.00  0.00     0.004 A 
ATOM     18  C   UNL     1       2.567   1.250  -3.295  1.00  0.00     0.008 A 
ATOM     19  C   UNL     1       1.679   1.679  -4.287  1.00  0.00     0.001 A 
BRANCH  15  20
ATOM     20  O   UNL     1       0.335  -0.856  -1.369  1.00  0.00    -0.496 OA
ATOM     21  C   UNL     1      -0.288  -0.571  -0.125  1.00  0.00     0.278 C 
ENDBRANCH  15  20
ENDBRANCH  10  14
BRANCH  12  22
ATOM     22  C   UNL     1       5.029  -2.735   0.108  1.00  0.00     0.272 C 
ATOM     23  O   UNL     1       5.502  -3.020   1.204  1.00  0.00    -0.267 OA
BRANCH  22  24
ATOM     24  C   UNL     1       5.428  -3.505  -1.091  1.00  0.00     0.134 A 
ATOM     25  C   UNL     1       6.145  -2.870  -2.079  1.00  0.00     0.058 A 
ATOM     26  N   UNL     1       4.960  -4.763  -1.163  1.00  0.00    -0.208 NA
ATOM     27  C   UNL     1       6.314  -3.592  -3.235  1.00  0.00     0.049 A 
ATOM     28  C   UNL     1       5.223  -5.398  -2.296  1.00  0.00     0.220 A 
ATOM     29  N   UNL     1       5.863  -4.862  -3.344  1.00  0.00    -0.218 NA
BRANCH  27  30
ATOM     30  C   UNL     1       6.952  -2.979  -4.465  1.00  0.00     0.032 C 
ATOM     31  C   UNL     1       6.072  -1.869  -5.050  1.00  0.00     0.014 C 
ATOM     32  C   UNL     1       8.361  -2.460  -4.176  1.00  0.00     0.014 C 
ENDBRANCH  27  30
BRANCH  28  33
ATOM     33  N   UNL     1       4.804  -6.691  -2.393  1.00  0.00    -0.368 N 
ATOM     34  H   UNL     1       4.976  -7.204  -3.215  1.00  0.00     0.159 HD
ATOM     35  H   UNL     1       4.329  -7.112  -1.640  1.00  0.00     0.159 HD
ENDBRANCH  28  33
ENDBRANCH  22  24
ENDBRANCH  12  22
ENDBRANCH   7   9
ENDBRANCH   6   7
ENDBRANCH   5   6
ENDBRANCH   4   5
ENDBRANCH   3   4
ENDBRANCH   2   3
ENDBRANCH   1   2
BRANCH   1  36
ATOM     36  O   UNL     1       3.851   3.808  -1.018  1.00  0.00    -0.377 OA
BRANCH  36  37
ATOM     37  C   UNL     1       4.365   5.027  -1.525  1.00  0.00     0.188 C 
BRANCH  37  38
ATOM     38  C   UNL     1       3.459   6.267  -1.591  1.00  0.00     0.188 C 
BRANCH  38  39
ATOM     39  O   UNL     1       2.149   6.010  -2.069  1.00  0.00    -0.376 OA
BRANCH  39  40
ATOM     40  C   UNL     1       1.874   6.203  -3.448  1.00  0.00     0.202 C 
BRANCH  40  41
ATOM     41  C   UNL     1       2.616   5.317  -4.459  1.00  0.00     0.261 C 
BRANCH  41  42
ATOM     42  O   UNL     1       4.048   5.400  -4.479  1.00  0.00    -0.460 OA
BRANCH  42  43
ATOM     43  C   UNL     1       4.611   6.613  -4.676  1.00  0.00     0.338 C 
ATOM     44  O   UNL     1       4.051   7.656  -4.918  1.00  0.00    -0.246 OA
BRANCH  43  45
ATOM     45  C   UNL     1       6.046   6.480  -4.339  1.00  0.00     0.060 A 
ATOM     46  C   UNL     1       6.568   7.270  -3.308  1.00  0.00     0.016 A 
ATOM     47  C   UNL     1       6.862   5.577  -5.026  1.00  0.00     0.016 A 
ATOM     48  C   UNL     1       7.923   7.193  -2.990  1.00  0.00     0.010 A 
ATOM     49  C   UNL     1       8.224   5.516  -4.721  1.00  0.00     0.010 A 
ATOM     50  C   UNL     1       8.765   6.353  -3.730  1.00  0.00    -0.014 A 
BRANCH  50  51
ATOM     51  C   UNL     1      10.234   6.524  -3.620  1.00  0.00     0.031 A 
ATOM     52  C   UNL     1      10.924   7.369  -4.656  1.00  0.00     0.074 A 
ATOM     53  C   UNL     1      10.930   5.981  -2.608  1.00  0.00     0.049 A 
ATOM     54  N   UNL     1      12.196   7.637  -4.801  1.00  0.00    -0.248 NA
ATOM     55  C   UNL     1      10.058   7.995  -5.668  1.00  0.00     0.031 C 
ATOM     56  C   UNL     1      10.363   5.182  -1.524  1.00  0.00     0.029 A 
ATOM     57  N   UNL     1      12.275   6.016  -2.334  1.00  0.00    -0.354 N 
ATOM     58  C   UNL     1      12.280   8.463  -5.915  1.00  0.00     0.074 A 
ATOM     59  C   UNL     1      10.940   8.616  -6.436  1.00  0.00     0.031 C 
ATOM     60  C   UNL     1      11.357   4.787  -0.709  1.00  0.00     0.029 A 
ATOM     61  C   UNL     1      12.632   5.276  -1.234  1.00  0.00     0.049 A 
ATOM     62  H   UNL     1      12.922   6.523  -2.876  1.00  0.00     0.167 HD
ATOM     63  C   UNL     1      13.375   9.054  -6.446  1.00  0.00     0.037 A 
ATOM     64  C   UNL     1      13.852   5.006  -0.731  1.00  0.00     0.037 A 
ATOM     65  C   UNL     1      14.707   8.888  -5.930  1.00  0.00     0.049 A 
ATOM     66  C   UNL     1      15.069   5.605  -1.393  1.00  0.00     0.074 A 
ATOM     67  C   UNL     1      15.889   9.436  -6.396  1.00  0.00     0.029 A 
ATOM     68  N   UNL     1      15.034   8.107  -4.830  1.00  0.00    -0.354 N 
ATOM     69  N   UNL     1      15.141   6.398  -2.436  1.00  0.00    -0.248 NA
ATOM     70  C   UNL     1      16.375   5.277  -0.804  1.00  0.00     0.031 C 
ATOM     71  C   UNL     1      16.937   8.940  -5.615  1.00  0.00     0.029 A 
ATOM     72  C   UNL     1      16.402   8.139  -4.618  1.00  0.00     0.049 A 
ATOM     73  H   UNL     1      14.389   7.605  -4.282  1.00  0.00     0.167 HD
ATOM     74  C   UNL     1      16.489   6.689  -2.606  1.00  0.00     0.074 A 
ATOM     75  C   UNL     1      17.199   6.000  -1.549  1.00  0.00     0.031 C 
ATOM     76  C   UNL     1      17.089   7.455  -3.552  1.00  0.00     0.037 A 
BRANCH  63  77
ATOM     77  C   UNL     1      13.180   9.913  -7.662  1.00  0.00     0.064 A 
ATOM     78  C   UNL     1      12.512  11.146  -7.595  1.00  0.00     0.173 A 
ATOM     79  C   UNL     1      13.691   9.513  -8.906  1.00  0.00     0.173 A 
ATOM     80  F   UNL     1      11.987  11.567  -6.434  1.00  0.00    -0.203 F 
ATOM     81  C   UNL     1      12.343  11.933  -8.732  1.00  0.00     0.198 A 
ATOM     82  C   UNL     1      13.550  10.318 -10.033  1.00  0.00     0.198 A 
ATOM     83  F   UNL     1      14.337   8.343  -9.027  1.00  0.00    -0.203 F 
ATOM     84  F   UNL     1      11.657  13.082  -8.653  1.00  0.00    -0.200 F 
ATOM     85  C   UNL     1      12.870  11.523  -9.947  1.00  0.00     0.200 A 
ATOM     86  F   UNL     1      14.071   9.925 -11.204  1.00  0.00    -0.200 F 
ATOM     87  F   UNL     1      12.715  12.285 -11.038  1.00  0.00    -0.200 F 
ENDBRANCH  63  77
BRANCH  64  88
ATOM     88  C   UNL     1      13.994   4.104   0.445  1.00  0.00     0.064 A 
ATOM     89  C   UNL     1      14.486   4.572   1.671  1.00  0.00     0.173 A 
ATOM     90  C   UNL     1      13.673   2.740   0.353  1.00  0.00     0.173 A 
ATOM     91  F   UNL     1      14.832   5.861   1.805  1.00  0.00    -0.203 F 
ATOM     92  C   UNL     1      14.678   3.709   2.749  1.00  0.00     0.198 A 
ATOM     93  C   UNL     1      13.832   1.885   1.442  1.00  0.00     0.198 A 
ATOM     94  F   UNL     1      13.199   2.237  -0.797  1.00  0.00    -0.203 F 
ATOM     95  F   UNL     1      15.207   4.172   3.889  1.00  0.00    -0.200 F 
ATOM     96  C   UNL     1      14.345   2.367   2.635  1.00  0.00     0.200 A 
ATOM     97  F   UNL     1      13.495   0.593   1.329  1.00  0.00    -0.200 F 
ATOM     98  F   UNL     1      14.531   1.538   3.671  1.00  0.00    -0.200 F 
ENDBRANCH  64  88
BRANCH  76  99
ATOM     99  C   UNL     1      18.579   7.631  -3.461  1.00  0.00     0.064 A 
ATOM    100  C   UNL     1      19.467   6.580  -3.731  1.00  0.00     0.173 A 
ATOM    101  C   UNL     1      19.125   8.885  -3.143  1.00  0.00     0.173 A 
ATOM    102  F   UNL     1      18.998   5.359  -4.029  1.00  0.00    -0.203 F 
ATOM    103  C   UNL     1      20.845   6.769  -3.655  1.00  0.00     0.198 A 
ATOM    104  C   UNL     1      20.503   9.080  -3.105  1.00  0.00     0.198 A 
ATOM    105  F   UNL     1      18.321   9.928  -2.887  1.00  0.00    -0.203 F 
ATOM    106  F   UNL     1      21.673   5.736  -3.864  1.00  0.00    -0.200 F 
ATOM    107  C   UNL     1      21.361   8.020  -3.351  1.00  0.00     0.200 A 
ATOM    108  F   UNL     1      20.998  10.294  -2.831  1.00  0.00    -0.200 F 
ATOM    109  F   UNL     1      22.687   8.203  -3.289  1.00  0.00    -0.200 F 
ENDBRANCH  76  99
ENDBRANCH  50  51
ENDBRANCH  43  45
ENDBRANCH  42  43
ENDBRANCH  41  42
ENDBRANCH  40  41
ENDBRANCH  39  40
ENDBRANCH  38  39
ENDBRANCH  37  38
ENDBRANCH  36  37
ENDBRANCH   1  36
TORSDOF 26
