REMARK SMILES Cc1cc(F)ccc1S(=O)(=O)Nc1ccc2oc(C)c(C(=O)OCCOCCOCCOCCOC(=O)c3ccc(-c4c5nc(c(-c6c(F)c(F)c(F)c(F)c6F)c6ccc([nH]6)c(-c6c(F)c(F)c(F)c(F)c6F)c6nc(c(-c7c(F)c(F)c(F)c(F)c7F)c7ccc4[nH]7)C=C6)C=C5)cc3)c2c1
REMARK SMILES IDX 28 1 27 2 26 3 25 4 24 5 23 6 21 7 22 8 20 9 13 10 14 11
REMARK SMILES IDX 102 12 15 13 101 14 16 15 17 16 18 17 19 18 12 19 9 21 10 22
REMARK SMILES IDX 11 23 8 24 1 25 2 26 3 27 4 28 7 29 5 30 6 31 29 32 30 33
REMARK SMILES IDX 31 34 32 35 33 36 34 37 35 38 36 39 37 40 38 41 39 42 100 43
REMARK SMILES IDX 40 44 99 45 41 46 42 47 43 48 93 49 44 50 98 51 92 52 94 53
REMARK SMILES IDX 45 54 97 55 91 56 90 57 46 59 78 60 58 61 77 62 59 63 62 64
REMARK SMILES IDX 76 65 95 66 60 67 61 68 75 70 96 71 63 72 47 73 48 74 56 75
REMARK SMILES IDX 49 76 50 77 54 78 57 79 51 80 52 81 55 82 53 83 79 84 80 85
REMARK SMILES IDX 88 86 81 87 82 88 86 89 89 90 83 91 84 92 87 93 85 94 64 95
REMARK SMILES IDX 65 96 73 97 66 98 67 99 71 100 74 101 68 102 69 103 72 104
REMARK SMILES IDX 70 105
REMARK H PARENT 12 20 94 58 62 69
REMARK Flexibility Score: inf
ROOT
ATOM      1  C   UNL     1       7.456   4.316  -1.684  1.00  0.00     0.188 C 
ENDROOT
BRANCH   1   2
ATOM      2  C   UNL     1       7.327   3.256  -2.803  1.00  0.00     0.188 C 
BRANCH   2   3
ATOM      3  O   UNL     1       7.799   3.667  -4.076  1.00  0.00    -0.376 OA
BRANCH   3   4
ATOM      4  C   UNL     1       6.827   3.917  -5.077  1.00  0.00     0.202 C 
BRANCH   4   5
ATOM      5  C   UNL     1       5.933   5.155  -4.886  1.00  0.00     0.261 C 
BRANCH   5   6
ATOM      6  O   UNL     1       5.270   5.267  -3.617  1.00  0.00    -0.460 OA
BRANCH   6   7
ATOM      7  C   UNL     1       4.347   4.305  -3.309  1.00  0.00     0.342 C 
ATOM      8  O   UNL     1       3.969   3.452  -4.055  1.00  0.00    -0.246 OA
BRANCH   7   9
ATOM      9  C   UNL     1       4.070   4.314  -1.872  1.00  0.00     0.109 A 
ATOM     10  C   UNL     1       4.063   0.932  -0.134  1.00  0.00     0.050 A 
ATOM     11  C   UNL     1       3.821   1.422   1.151  1.00  0.00     0.030 A 
ATOM     12  C   UNL     1       4.339   1.806  -1.193  1.00  0.00     0.039 A 
ATOM     13  C   UNL     1       3.733   2.805   1.385  1.00  0.00     0.050 A 
ATOM     14  C   UNL     1       4.108   3.177  -1.011  1.00  0.00     0.037 A 
ATOM     15  C   UNL     1       3.838   3.637   0.269  1.00  0.00     0.135 A 
ATOM     16  O   UNL     1       3.684   4.989   0.248  1.00  0.00    -0.460 OA
ATOM     17  C   UNL     1       3.841   5.398  -1.048  1.00  0.00     0.116 A 
ATOM     18  C   UNL     1       3.745   6.854  -1.286  1.00  0.00     0.088 C 
BRANCH  10  19
ATOM     19  N   UNL     1       3.928  -0.420  -0.517  1.00  0.00    -0.280 N 
ATOM     20  H   UNL     1       4.551  -0.750  -1.204  1.00  0.00     0.180 HD
BRANCH  19  21
ATOM     21  S   UNL     1       2.824  -1.510   0.072  1.00  0.00     0.262 S 
ATOM     22  O   UNL     1       3.035  -1.631   1.500  1.00  0.00    -0.201 OA
ATOM     23  O   UNL     1       2.984  -2.666  -0.790  1.00  0.00    -0.201 OA
BRANCH  21  24
ATOM     24  C   UNL     1       1.111  -1.002  -0.136  1.00  0.00     0.090 A 
ATOM     25  C   UNL     1       1.303   1.271  -1.383  1.00  0.00     0.046 C 
ATOM     26  C   UNL     1       0.579   0.193  -0.655  1.00  0.00    -0.028 A 
ATOM     27  C   UNL     1      -0.803   0.443  -0.494  1.00  0.00     0.044 A 
ATOM     28  C   UNL     1      -1.652  -0.514   0.038  1.00  0.00     0.123 A 
ATOM     29  C   UNL     1       0.212  -1.978   0.357  1.00  0.00     0.025 A 
ATOM     30  F   UNL     1      -2.958  -0.246   0.153  1.00  0.00    -0.207 F 
ATOM     31  C   UNL     1      -1.161  -1.744   0.427  1.00  0.00     0.040 A 
ENDBRANCH  21  24
ENDBRANCH  19  21
ENDBRANCH  10  19
ENDBRANCH   7   9
ENDBRANCH   6   7
ENDBRANCH   5   6
ENDBRANCH   4   5
ENDBRANCH   3   4
ENDBRANCH   2   3
ENDBRANCH   1   2
BRANCH   1  32
ATOM     32  O   UNL     1       8.082   5.562  -1.954  1.00  0.00    -0.377 OA
BRANCH  32  33
ATOM     33  C   UNL     1       9.188   5.562  -2.840  1.00  0.00     0.188 C 
BRANCH  33  34
ATOM     34  C   UNL     1      10.305   4.501  -2.654  1.00  0.00     0.188 C 
BRANCH  34  35
ATOM     35  O   UNL     1       9.952   3.355  -1.877  1.00  0.00    -0.376 OA
BRANCH  35  36
ATOM     36  C   UNL     1      10.729   3.086  -0.711  1.00  0.00     0.202 C 
BRANCH  36  37
ATOM     37  C   UNL     1      10.235   3.806   0.556  1.00  0.00     0.261 C 
BRANCH  37  38
ATOM     38  O   UNL     1       9.972   5.185   0.327  1.00  0.00    -0.460 OA
BRANCH  38  39
ATOM     39  C   UNL     1      11.075   5.867  -0.012  1.00  0.00     0.338 C 
ATOM     40  O   UNL     1      12.236   5.486   0.022  1.00  0.00    -0.246 OA
BRANCH  39  41
ATOM     41  C   UNL     1      10.695   7.211  -0.457  1.00  0.00     0.060 A 
ATOM     42  C   UNL     1      11.533   7.720  -1.470  1.00  0.00     0.016 A 
ATOM     43  C   UNL     1      10.224   7.976   0.601  1.00  0.00     0.016 A 
ATOM     44  C   UNL     1      12.261   8.843  -1.197  1.00  0.00     0.010 A 
ATOM     45  C   UNL     1      10.998   9.053   0.912  1.00  0.00     0.010 A 
ATOM     46  C   UNL     1      12.080   9.368   0.069  1.00  0.00    -0.014 A 
BRANCH  46  47
ATOM     47  C   UNL     1      13.118  10.125   0.710  1.00  0.00     0.031 A 
ATOM     48  C   UNL     1      12.946  11.569   0.742  1.00  0.00     0.074 A 
ATOM     49  C   UNL     1      14.024   9.408   1.408  1.00  0.00     0.049 A 
ATOM     50  N   UNL     1      13.864  12.403   1.057  1.00  0.00    -0.248 NA
ATOM     51  C   UNL     1      11.692  12.199   0.337  1.00  0.00     0.031 C 
ATOM     52  C   UNL     1      14.859   9.847   2.514  1.00  0.00     0.029 A 
ATOM     53  N   UNL     1      14.478   8.111   1.114  1.00  0.00    -0.354 N 
ATOM     54  C   UNL     1      13.243  13.614   1.246  1.00  0.00     0.074 A 
ATOM     55  C   UNL     1      11.927  13.467   0.672  1.00  0.00     0.031 C 
ATOM     56  C   UNL     1      15.871   8.974   2.666  1.00  0.00     0.029 A 
ATOM     57  C   UNL     1      15.820   8.056   1.536  1.00  0.00     0.049 A 
ATOM     58  H   UNL     1      13.960   7.385   0.697  1.00  0.00     0.167 HD
ATOM     59  C   UNL     1      13.859  14.524   2.050  1.00  0.00     0.037 A 
ATOM     60  C   UNL     1      16.818   7.949   0.608  1.00  0.00     0.037 A 
ATOM     61  C   UNL     1      15.172  14.020   2.457  1.00  0.00     0.049 A 
ATOM     62  C   UNL     1      17.700   9.178   0.565  1.00  0.00     0.074 A 
ATOM     63  C   UNL     1      15.587  13.327   3.584  1.00  0.00     0.029 A 
ATOM     64  N   UNL     1      16.150  13.807   1.486  1.00  0.00    -0.354 N 
ATOM     65  N   UNL     1      17.297  10.384   0.866  1.00  0.00    -0.248 NA
ATOM     66  C   UNL     1      19.116   9.126   0.221  1.00  0.00     0.031 C 
ATOM     67  C   UNL     1      16.788  12.644   3.265  1.00  0.00     0.029 A 
ATOM     68  C   UNL     1      17.115  12.932   1.951  1.00  0.00     0.049 A 
ATOM     69  H   UNL     1      16.153  14.222   0.593  1.00  0.00     0.167 HD
ATOM     70  C   UNL     1      18.363  11.245   0.808  1.00  0.00     0.074 A 
ATOM     71  C   UNL     1      19.476  10.410   0.391  1.00  0.00     0.031 C 
ATOM     72  C   UNL     1      18.262  12.570   1.132  1.00  0.00     0.037 A 
BRANCH  59  73
ATOM     73  C   UNL     1      13.105  15.633   2.741  1.00  0.00     0.064 A 
ATOM     74  C   UNL     1      13.479  16.054   4.034  1.00  0.00     0.173 A 
ATOM     75  C   UNL     1      11.962  16.270   2.221  1.00  0.00     0.173 A 
ATOM     76  F   UNL     1      14.599  15.612   4.618  1.00  0.00    -0.203 F 
ATOM     77  C   UNL     1      12.709  16.946   4.784  1.00  0.00     0.198 A 
ATOM     78  C   UNL     1      11.159  17.117   2.991  1.00  0.00     0.198 A 
ATOM     79  F   UNL     1      11.614  16.135   0.935  1.00  0.00    -0.203 F 
ATOM     80  F   UNL     1      13.114  17.302   6.011  1.00  0.00    -0.200 F 
ATOM     81  C   UNL     1      11.529  17.449   4.277  1.00  0.00     0.200 A 
ATOM     82  F   UNL     1      10.025  17.611   2.474  1.00  0.00    -0.200 F 
ATOM     83  F   UNL     1      10.770  18.272   5.012  1.00  0.00    -0.200 F 
ENDBRANCH  59  73
BRANCH  60  84
ATOM     84  C   UNL     1      16.435   7.128  -0.576  1.00  0.00     0.064 A 
ATOM     85  C   UNL     1      16.200   5.751  -0.391  1.00  0.00     0.173 A 
ATOM     86  C   UNL     1      15.941   7.712  -1.750  1.00  0.00     0.173 A 
ATOM     87  F   UNL     1      16.668   5.135   0.707  1.00  0.00    -0.203 F 
ATOM     88  C   UNL     1      15.412   5.019  -1.280  1.00  0.00     0.198 A 
ATOM     89  C   UNL     1      15.151   6.975  -2.637  1.00  0.00     0.198 A 
ATOM     90  F   UNL     1      16.130   9.016  -1.992  1.00  0.00    -0.203 F 
ATOM     91  F   UNL     1      15.142   3.728  -1.034  1.00  0.00    -0.200 F 
ATOM     92  C   UNL     1      14.860   5.642  -2.385  1.00  0.00     0.200 A 
ATOM     93  F   UNL     1      14.601   7.579  -3.701  1.00  0.00    -0.200 F 
ATOM     94  F   UNL     1      14.025   4.971  -3.194  1.00  0.00    -0.200 F 
ENDBRANCH  60  84
BRANCH  72  95
ATOM     95  C   UNL     1      19.287  13.640   0.831  1.00  0.00     0.064 A 
ATOM     96  C   UNL     1      20.222  13.558  -0.213  1.00  0.00     0.173 A 
ATOM     97  C   UNL     1      19.251  14.885   1.512  1.00  0.00     0.173 A 
ATOM     98  F   UNL     1      20.271  12.495  -1.027  1.00  0.00    -0.203 F 
ATOM     99  C   UNL     1      21.105  14.602  -0.499  1.00  0.00     0.198 A 
ATOM    100  C   UNL     1      20.083  15.949   1.176  1.00  0.00     0.198 A 
ATOM    101  F   UNL     1      18.384  15.123   2.508  1.00  0.00    -0.203 F 
ATOM    102  F   UNL     1      22.017  14.448  -1.470  1.00  0.00    -0.200 F 
ATOM    103  C   UNL     1      21.028  15.800   0.185  1.00  0.00     0.200 A 
ATOM    104  F   UNL     1      19.947  17.125   1.806  1.00  0.00    -0.200 F 
ATOM    105  F   UNL     1      21.844  16.815  -0.127  1.00  0.00    -0.200 F 
ENDBRANCH  72  95
ENDBRANCH  46  47
ENDBRANCH  39  41
ENDBRANCH  38  39
ENDBRANCH  37  38
ENDBRANCH  36  37
ENDBRANCH  35  36
ENDBRANCH  34  35
ENDBRANCH  33  34
ENDBRANCH  32  33
ENDBRANCH   1  32
TORSDOF 23
