REMARK SMILES CCN(CC)S(=O)(=O)c1ccc(F)c(C(=O)N2CCC[C@H]2C(=O)OCCOCCOCCOCCOC(=O)c2ccc(-c3c4nc(c(-c5c(F)c(F)c(F)c(F)c5F)c5ccc([nH]5)c(-c5c(F)c(F)c(F)c(F)c5F)c5nc(c(-c6c(F)c(F)c(F)c(F)c6F)c6ccc3[nH]6)C=C5)C=C4)cc2)c1
REMARK SMILES IDX 28 1 27 2 26 3 25 4 24 5 22 6 23 7 21 8 17 9 18 10 19 11
REMARK SMILES IDX 20 12 15 13 16 14 14 15 9 16 10 17 102 18 11 19 12 20 13 21
REMARK SMILES IDX 6 22 7 23 8 24 3 25 2 26 1 27 4 28 5 29 29 30 30 31 31 32
REMARK SMILES IDX 32 33 33 34 34 35 35 36 36 37 37 38 38 39 39 40 40 41 101 42
REMARK SMILES IDX 41 43 100 44 42 45 43 46 44 47 94 48 45 49 99 50 93 51 95 52
REMARK SMILES IDX 46 53 98 54 92 55 91 56 47 58 79 59 59 60 78 61 60 62 63 63
REMARK SMILES IDX 77 64 96 65 61 66 62 67 76 69 97 70 64 71 48 72 49 73 57 74
REMARK SMILES IDX 50 75 51 76 55 77 58 78 52 79 53 80 56 81 54 82 80 83 81 84
REMARK SMILES IDX 89 85 82 86 83 87 87 88 90 89 84 90 85 91 88 92 86 93 65 94
REMARK SMILES IDX 66 95 74 96 67 97 68 98 72 99 75 100 69 101 70 102 73 103
REMARK SMILES IDX 71 104
REMARK H PARENT 95 57 63 68
REMARK Flexibility Score: inf
ROOT
ATOM      1  C   UNL     1       0.795 -10.756  -4.902  1.00  0.00     0.188 C 
ENDROOT
BRANCH   1   2
ATOM      2  O   UNL     1       0.426 -11.434  -3.711  1.00  0.00    -0.376 OA
BRANCH   2   3
ATOM      3  C   UNL     1       1.273 -11.382  -2.574  1.00  0.00     0.202 C 
BRANCH   3   4
ATOM      4  C   UNL     1       1.654 -10.021  -1.976  1.00  0.00     0.261 C 
BRANCH   4   5
ATOM      5  O   UNL     1       1.854  -9.006  -2.953  1.00  0.00    -0.462 OA
BRANCH   5   6
ATOM      6  C   UNL     1       3.087  -8.877  -3.501  1.00  0.00     0.328 C 
ATOM      7  O   UNL     1       4.087  -9.490  -3.151  1.00  0.00    -0.250 OA
BRANCH   6   8
ATOM      8  C   UNL     1       3.001  -7.910  -4.686  1.00  0.00     0.195 C 
ATOM      9  N   UNL     1       3.796  -6.725  -4.478  1.00  0.00    -0.325 N 
ATOM     10  C   UNL     1       5.107  -6.909  -5.067  1.00  0.00     0.121 C 
ATOM     11  C   UNL     1       4.806  -7.714  -6.322  1.00  0.00     0.024 C 
ATOM     12  C   UNL     1       3.558  -8.532  -5.974  1.00  0.00     0.039 C 
BRANCH   9  13
ATOM     13  C   UNL     1       3.183  -5.654  -3.871  1.00  0.00     0.257 C 
ATOM     14  O   UNL     1       2.202  -5.808  -3.141  1.00  0.00    -0.269 OA
BRANCH  13  15
ATOM     15  C   UNL     1       3.590  -4.265  -4.150  1.00  0.00     0.077 A 
ATOM     16  C   UNL     1       3.501  -1.944  -3.472  1.00  0.00     0.083 A 
ATOM     17  C   UNL     1       4.064  -1.551  -4.690  1.00  0.00     0.025 A 
ATOM     18  C   UNL     1       3.289  -3.294  -3.183  1.00  0.00     0.038 A 
ATOM     19  C   UNL     1       4.331  -2.513  -5.660  1.00  0.00     0.041 A 
ATOM     20  C   UNL     1       4.056  -3.854  -5.400  1.00  0.00     0.136 A 
ATOM     21  F   UNL     1       4.185  -4.712  -6.421  1.00  0.00    -0.206 F 
BRANCH  16  22
ATOM     22  S   UNL     1       3.037  -0.717  -2.275  1.00  0.00     0.243 S 
ATOM     23  O   UNL     1       3.542   0.561  -2.731  1.00  0.00    -0.207 OA
ATOM     24  O   UNL     1       3.428  -1.246  -0.987  1.00  0.00    -0.207 OA
BRANCH  22  25
ATOM     25  N   UNL     1       1.327  -0.670  -2.368  1.00  0.00    -0.198 NA
BRANCH  25  26
ATOM     26  C   UNL     1       0.663   0.278  -1.418  1.00  0.00     0.099 C 
ATOM     27  C   UNL     1       0.942  -0.031   0.038  1.00  0.00     0.022 C 
ENDBRANCH  25  26
BRANCH  25  28
ATOM     28  C   UNL     1       0.692  -0.608  -3.721  1.00  0.00     0.099 C 
ATOM     29  C   UNL     1       0.940   0.689  -4.473  1.00  0.00     0.022 C 
ENDBRANCH  25  28
ENDBRANCH  22  25
ENDBRANCH  16  22
ENDBRANCH  13  15
ENDBRANCH   9  13
ENDBRANCH   6   8
ENDBRANCH   5   6
ENDBRANCH   4   5
ENDBRANCH   3   4
ENDBRANCH   2   3
ENDBRANCH   1   2
BRANCH   1  30
ATOM     30  C   UNL     1      -0.107  -9.548  -5.234  1.00  0.00     0.188 C 
BRANCH  30  31
ATOM     31  O   UNL     1      -0.795  -8.940  -4.155  1.00  0.00    -0.377 OA
BRANCH  31  32
ATOM     32  C   UNL     1      -1.734  -9.707  -3.402  1.00  0.00     0.188 C 
BRANCH  32  33
ATOM     33  C   UNL     1      -2.253 -11.091  -3.870  1.00  0.00     0.188 C 
BRANCH  33  34
ATOM     34  O   UNL     1      -2.013 -11.398  -5.233  1.00  0.00    -0.376 OA
BRANCH  34  35
ATOM     35  C   UNL     1      -3.113 -11.387  -6.124  1.00  0.00     0.202 C 
BRANCH  35  36
ATOM     36  C   UNL     1      -3.799 -10.035  -6.354  1.00  0.00     0.261 C 
BRANCH  36  37
ATOM     37  O   UNL     1      -4.246  -9.348  -5.177  1.00  0.00    -0.460 OA
BRANCH  37  38
ATOM     38  C   UNL     1      -5.206  -9.938  -4.434  1.00  0.00     0.338 C 
ATOM     39  O   UNL     1      -5.758 -11.006  -4.642  1.00  0.00    -0.246 OA
BRANCH  38  40
ATOM     40  C   UNL     1      -5.363  -9.130  -3.211  1.00  0.00     0.060 A 
ATOM     41  C   UNL     1      -5.080  -9.694  -1.957  1.00  0.00     0.016 A 
ATOM     42  C   UNL     1      -5.772  -7.801  -3.319  1.00  0.00     0.016 A 
ATOM     43  C   UNL     1      -5.235  -8.929  -0.799  1.00  0.00     0.010 A 
ATOM     44  C   UNL     1      -5.953  -7.048  -2.161  1.00  0.00     0.010 A 
ATOM     45  C   UNL     1      -5.718  -7.618  -0.897  1.00  0.00    -0.014 A 
BRANCH  45  46
ATOM     46  C   UNL     1      -6.213  -6.897   0.297  1.00  0.00     0.031 A 
ATOM     47  C   UNL     1      -7.693  -6.927   0.557  1.00  0.00     0.074 A 
ATOM     48  C   UNL     1      -5.395  -6.184   1.090  1.00  0.00     0.049 A 
ATOM     49  N   UNL     1      -8.408  -6.206   1.379  1.00  0.00    -0.248 NA
ATOM     50  C   UNL     1      -8.477  -7.893  -0.235  1.00  0.00     0.031 C 
ATOM     51  C   UNL     1      -3.941  -6.125   0.974  1.00  0.00     0.029 A 
ATOM     52  N   UNL     1      -5.686  -5.343   2.137  1.00  0.00    -0.354 N 
ATOM     53  C   UNL     1      -9.721  -6.611   1.184  1.00  0.00     0.074 A 
ATOM     54  C   UNL     1      -9.713  -7.633   0.163  1.00  0.00     0.031 C 
ATOM     55  C   UNL     1      -3.466  -5.265   1.894  1.00  0.00     0.029 A 
ATOM     56  C   UNL     1      -4.589  -4.677   2.626  1.00  0.00     0.049 A 
ATOM     57  H   UNL     1      -6.594  -5.229   2.502  1.00  0.00     0.167 HD
ATOM     58  C   UNL     1     -10.833  -6.161   1.805  1.00  0.00     0.037 A 
ATOM     59  C   UNL     1      -4.512  -3.674   3.525  1.00  0.00     0.037 A 
ATOM     60  C   UNL     1     -10.829  -5.160   2.835  1.00  0.00     0.049 A 
ATOM     61  C   UNL     1      -5.778  -3.137   4.149  1.00  0.00     0.074 A 
ATOM     62  C   UNL     1     -11.904  -4.659   3.545  1.00  0.00     0.029 A 
ATOM     63  N   UNL     1      -9.697  -4.509   3.298  1.00  0.00    -0.354 N 
ATOM     64  N   UNL     1      -7.018  -3.520   3.964  1.00  0.00    -0.248 NA
ATOM     65  C   UNL     1      -5.638  -2.020   5.098  1.00  0.00     0.031 C 
ATOM     66  C   UNL     1     -11.433  -3.660   4.396  1.00  0.00     0.029 A 
ATOM     67  C   UNL     1     -10.054  -3.591   4.269  1.00  0.00     0.049 A 
ATOM     68  H   UNL     1      -8.779  -4.675   2.985  1.00  0.00     0.167 HD
ATOM     69  C   UNL     1      -7.794  -2.726   4.800  1.00  0.00     0.074 A 
ATOM     70  C   UNL     1      -6.891  -1.834   5.492  1.00  0.00     0.031 C 
ATOM     71  C   UNL     1      -9.136  -2.740   4.979  1.00  0.00     0.037 A 
BRANCH  58  72
ATOM     72  C   UNL     1     -12.159  -6.724   1.397  1.00  0.00     0.064 A 
ATOM     73  C   UNL     1     -13.089  -5.913   0.729  1.00  0.00     0.173 A 
ATOM     74  C   UNL     1     -12.559  -8.009   1.783  1.00  0.00     0.173 A 
ATOM     75  F   UNL     1     -12.751  -4.674   0.341  1.00  0.00    -0.203 F 
ATOM     76  C   UNL     1     -14.388  -6.355   0.500  1.00  0.00     0.198 A 
ATOM     77  C   UNL     1     -13.852  -8.459   1.528  1.00  0.00     0.198 A 
ATOM     78  F   UNL     1     -11.699  -8.826   2.410  1.00  0.00    -0.203 F 
ATOM     79  F   UNL     1     -15.277  -5.543  -0.087  1.00  0.00    -0.200 F 
ATOM     80  C   UNL     1     -14.769  -7.626   0.903  1.00  0.00     0.200 A 
ATOM     81  F   UNL     1     -14.215  -9.694   1.900  1.00  0.00    -0.200 F 
ATOM     82  F   UNL     1     -16.025  -8.046   0.696  1.00  0.00    -0.200 F 
ENDBRANCH  58  72
BRANCH  59  83
ATOM     83  C   UNL     1      -3.195  -3.071   3.861  1.00  0.00     0.064 A 
ATOM     84  C   UNL     1      -2.478  -2.320   2.919  1.00  0.00     0.173 A 
ATOM     85  C   UNL     1      -2.646  -3.195   5.146  1.00  0.00     0.173 A 
ATOM     86  F   UNL     1      -2.962  -2.154   1.679  1.00  0.00    -0.203 F 
ATOM     87  C   UNL     1      -1.262  -1.728   3.247  1.00  0.00     0.198 A 
ATOM     88  C   UNL     1      -1.442  -2.578   5.479  1.00  0.00     0.198 A 
ATOM     89  F   UNL     1      -3.312  -3.869   6.095  1.00  0.00    -0.203 F 
ATOM     90  F   UNL     1      -0.600  -1.018   2.328  1.00  0.00    -0.200 F 
ATOM     91  C   UNL     1      -0.746  -1.850   4.527  1.00  0.00     0.200 A 
ATOM     92  F   UNL     1      -0.971  -2.663   6.731  1.00  0.00    -0.200 F 
ATOM     93  F   UNL     1       0.408  -1.250   4.847  1.00  0.00    -0.200 F 
ENDBRANCH  59  83
BRANCH  71  94
ATOM     94  C   UNL     1      -9.735  -1.821   6.003  1.00  0.00     0.064 A 
ATOM     95  C   UNL     1     -10.307  -2.355   7.170  1.00  0.00     0.173 A 
ATOM     96  C   UNL     1      -9.887  -0.450   5.762  1.00  0.00     0.173 A 
ATOM     97  F   UNL     1     -10.200  -3.666   7.436  1.00  0.00    -0.203 F 
ATOM     98  C   UNL     1     -11.044  -1.555   8.036  1.00  0.00     0.198 A 
ATOM     99  C   UNL     1     -10.600   0.353   6.648  1.00  0.00     0.198 A 
ATOM    100  F   UNL     1      -9.352   0.106   4.665  1.00  0.00    -0.203 F 
ATOM    101  F   UNL     1     -11.636  -2.099   9.108  1.00  0.00    -0.200 F 
ATOM    102  C   UNL     1     -11.193  -0.202   7.773  1.00  0.00     0.200 A 
ATOM    103  F   UNL     1     -10.730   1.665   6.403  1.00  0.00    -0.200 F 
ATOM    104  F   UNL     1     -11.915   0.566   8.601  1.00  0.00    -0.200 F 
ENDBRANCH  71  94
ENDBRANCH  45  46
ENDBRANCH  38  40
ENDBRANCH  37  38
ENDBRANCH  36  37
ENDBRANCH  35  36
ENDBRANCH  34  35
ENDBRANCH  33  34
ENDBRANCH  32  33
ENDBRANCH  31  32
ENDBRANCH  30  31
ENDBRANCH   1  30
TORSDOF 26
