REMARK SMILES COc1cc(OC)cc(-c2ccc([C@@H](C)C(=O)OCCOCCOCCOCCOC(=O)c3ccc(-c4c5nc(c(-c6c(F)c(F)c(F)c(F)c6F)c6ccc([nH]6)c(-c6c(F)c(F)c(F)c(F)c6F)c6nc(c(-c7c(F)c(F)c(F)c(F)c7F)c7ccc4[nH]7)C=C6)C=C5)cc3)cc2F)c1
REMARK SMILES IDX 23 1 22 2 21 3 20 4 19 5 18 6 16 7 17 8 14 9 15 10 13 11
REMARK SMILES IDX 10 12 11 13 97 14 12 15 96 16 98 17 9 18 3 19 4 20 99 21
REMARK SMILES IDX 5 22 8 23 2 24 1 25 6 26 7 27 24 28 25 29 26 30 27 31 28 32
REMARK SMILES IDX 29 33 30 34 31 35 32 36 33 37 34 38 95 39 35 40 94 41 36 42
REMARK SMILES IDX 37 43 38 44 88 45 39 46 93 47 87 48 89 49 40 50 92 51 86 52
REMARK SMILES IDX 85 53 41 55 73 56 53 57 72 58 54 59 57 60 71 61 90 62 55 63
REMARK SMILES IDX 56 64 70 66 91 67 58 68 42 69 43 70 51 71 44 72 45 73 49 74
REMARK SMILES IDX 52 75 46 76 47 77 50 78 48 79 74 80 75 81 83 82 76 83 77 84
REMARK SMILES IDX 81 85 84 86 78 87 79 88 82 89 80 90 59 91 60 92 68 93 61 94
REMARK SMILES IDX 62 95 66 96 69 97 63 98 64 99 67 100 65 101
REMARK H PARENT 89 54 57 65
REMARK Flexibility Score: inf
ROOT
ATOM      1  C   UNL     1       7.557   3.221   0.770  1.00  0.00     0.188 C 
ENDROOT
BRANCH   1   2
ATOM      2  C   UNL     1       9.064   2.992   0.948  1.00  0.00     0.188 C 
BRANCH   2   3
ATOM      3  O   UNL     1       9.764   3.569   2.040  1.00  0.00    -0.376 OA
BRANCH   3   4
ATOM      4  C   UNL     1       9.457   4.882   2.485  1.00  0.00     0.202 C 
BRANCH   4   5
ATOM      5  C   UNL     1       9.380   6.066   1.503  1.00  0.00     0.261 C 
BRANCH   5   6
ATOM      6  O   UNL     1       8.578   5.885   0.317  1.00  0.00    -0.463 OA
BRANCH   6   7
ATOM      7  C   UNL     1       9.253   5.741  -0.847  1.00  0.00     0.313 C 
ATOM      8  O   UNL     1      10.480   5.782  -0.926  1.00  0.00    -0.252 OA
BRANCH   7   9
ATOM      9  C   UNL     1       8.396   5.545  -2.099  1.00  0.00     0.126 C 
ATOM     10  C   UNL     1       8.509   6.799  -2.959  1.00  0.00     0.025 C 
BRANCH   9  11
ATOM     11  C   UNL     1       6.946   5.070  -1.998  1.00  0.00    -0.031 A 
ATOM     12  C   UNL     1       4.263   4.050  -1.846  1.00  0.00     0.018 A 
ATOM     13  C   UNL     1       4.639   5.247  -1.207  1.00  0.00     0.012 A 
ATOM     14  C   UNL     1       5.263   3.374  -2.552  1.00  0.00     0.131 A 
ATOM     15  C   UNL     1       5.953   5.752  -1.283  1.00  0.00     0.005 A 
ATOM     16  C   UNL     1       6.568   3.874  -2.645  1.00  0.00     0.044 A 
ATOM     17  F   UNL     1       4.982   2.225  -3.187  1.00  0.00    -0.206 F 
BRANCH  12  18
ATOM     18  C   UNL     1       2.855   3.601  -1.871  1.00  0.00    -0.008 A 
ATOM     19  C   UNL     1       1.101   1.942  -1.510  1.00  0.00     0.123 A 
ATOM     20  C   UNL     1       0.174   2.790  -2.118  1.00  0.00     0.092 A 
ATOM     21  C   UNL     1       2.440   2.339  -1.399  1.00  0.00     0.055 A 
ATOM     22  C   UNL     1       0.561   4.038  -2.599  1.00  0.00     0.123 A 
ATOM     23  C   UNL     1       1.889   4.442  -2.457  1.00  0.00     0.055 A 
BRANCH  19  24
ATOM     24  O   UNL     1       0.601   0.720  -1.149  1.00  0.00    -0.497 OA
ATOM     25  C   UNL     1       1.153   0.142   0.026  1.00  0.00     0.278 C 
ENDBRANCH  19  24
BRANCH  22  26
ATOM     26  O   UNL     1      -0.433   4.768  -3.192  1.00  0.00    -0.497 OA
ATOM     27  C   UNL     1      -0.016   5.893  -3.958  1.00  0.00     0.278 C 
ENDBRANCH  22  26
ENDBRANCH  12  18
ENDBRANCH   9  11
ENDBRANCH   7   9
ENDBRANCH   6   7
ENDBRANCH   5   6
ENDBRANCH   4   5
ENDBRANCH   3   4
ENDBRANCH   2   3
ENDBRANCH   1   2
BRANCH   1  28
ATOM     28  O   UNL     1       6.979   4.179   1.633  1.00  0.00    -0.377 OA
BRANCH  28  29
ATOM     29  C   UNL     1       6.268   3.682   2.755  1.00  0.00     0.188 C 
BRANCH  29  30
ATOM     30  C   UNL     1       6.833   2.432   3.454  1.00  0.00     0.188 C 
BRANCH  30  31
ATOM     31  O   UNL     1       7.073   1.338   2.578  1.00  0.00    -0.376 OA
BRANCH  31  32
ATOM     32  C   UNL     1       6.070   0.342   2.435  1.00  0.00     0.202 C 
BRANCH  32  33
ATOM     33  C   UNL     1       4.737   0.745   1.777  1.00  0.00     0.261 C 
BRANCH  33  34
ATOM     34  O   UNL     1       3.980   1.782   2.425  1.00  0.00    -0.460 OA
BRANCH  34  35
ATOM     35  C   UNL     1       3.617   1.589   3.708  1.00  0.00     0.338 C 
ATOM     36  O   UNL     1       3.774   0.573   4.368  1.00  0.00    -0.246 OA
BRANCH  35  37
ATOM     37  C   UNL     1       3.176   2.882   4.273  1.00  0.00     0.060 A 
ATOM     38  C   UNL     1       3.859   3.387   5.387  1.00  0.00     0.016 A 
ATOM     39  C   UNL     1       2.100   3.590   3.729  1.00  0.00     0.016 A 
ATOM     40  C   UNL     1       3.442   4.574   5.986  1.00  0.00     0.010 A 
ATOM     41  C   UNL     1       1.667   4.771   4.348  1.00  0.00     0.010 A 
ATOM     42  C   UNL     1       2.314   5.249   5.501  1.00  0.00    -0.014 A 
BRANCH  42  43
ATOM     43  C   UNL     1       1.736   6.348   6.316  1.00  0.00     0.031 A 
ATOM     44  C   UNL     1       0.568   6.049   7.217  1.00  0.00     0.074 A 
ATOM     45  C   UNL     1       2.285   7.575   6.317  1.00  0.00     0.049 A 
ATOM     46  N   UNL     1      -0.058   6.832   8.060  1.00  0.00    -0.248 NA
ATOM     47  C   UNL     1       0.036   4.678   7.161  1.00  0.00     0.031 C 
ATOM     48  C   UNL     1       3.436   7.984   5.515  1.00  0.00     0.029 A 
ATOM     49  N   UNL     1       1.948   8.703   7.025  1.00  0.00    -0.354 N 
ATOM     50  C   UNL     1      -1.056   6.051   8.631  1.00  0.00     0.074 A 
ATOM     51  C   UNL     1      -0.975   4.745   8.014  1.00  0.00     0.031 C 
ATOM     52  C   UNL     1       3.708   9.274   5.772  1.00  0.00     0.029 A 
ATOM     53  C   UNL     1       2.737   9.789   6.737  1.00  0.00     0.049 A 
ATOM     54  H   UNL     1       1.211   8.730   7.676  1.00  0.00     0.167 HD
ATOM     55  C   UNL     1      -1.952   6.390   9.589  1.00  0.00     0.037 A 
ATOM     56  C   UNL     1       2.672  11.056   7.190  1.00  0.00     0.037 A 
ATOM     57  C   UNL     1      -2.036   7.693  10.198  1.00  0.00     0.049 A 
ATOM     58  C   UNL     1       1.631  11.423   8.217  1.00  0.00     0.074 A 
ATOM     59  C   UNL     1      -2.889   8.126  11.198  1.00  0.00     0.029 A 
ATOM     60  N   UNL     1      -1.247   8.781   9.851  1.00  0.00    -0.354 N 
ATOM     61  N   UNL     1       0.720  10.668   8.784  1.00  0.00    -0.248 NA
ATOM     62  C   UNL     1       1.620  12.819   8.677  1.00  0.00     0.031 C 
ATOM     63  C   UNL     1      -2.666   9.491  11.406  1.00  0.00     0.029 A 
ATOM     64  C   UNL     1      -1.619   9.893  10.591  1.00  0.00     0.049 A 
ATOM     65  H   UNL     1      -0.528   8.765   9.179  1.00  0.00     0.167 HD
ATOM     66  C   UNL     1       0.046  11.488   9.681  1.00  0.00     0.074 A 
ATOM     67  C   UNL     1       0.674  12.791   9.603  1.00  0.00     0.031 C 
ATOM     68  C   UNL     1      -0.999  11.192  10.495  1.00  0.00     0.037 A 
BRANCH  55  69
ATOM     69  C   UNL     1      -2.946   5.343  10.010  1.00  0.00     0.064 A 
ATOM     70  C   UNL     1      -2.564   4.198  10.727  1.00  0.00     0.173 A 
ATOM     71  C   UNL     1      -4.308   5.501   9.710  1.00  0.00     0.173 A 
ATOM     72  F   UNL     1      -1.273   3.989  11.029  1.00  0.00    -0.203 F 
ATOM     73  C   UNL     1      -3.502   3.238  11.099  1.00  0.00     0.198 A 
ATOM     74  C   UNL     1      -5.248   4.557  10.114  1.00  0.00     0.198 A 
ATOM     75  F   UNL     1      -4.730   6.577   9.030  1.00  0.00    -0.203 F 
ATOM     76  F   UNL     1      -3.106   2.126  11.734  1.00  0.00    -0.200 F 
ATOM     77  C   UNL     1      -4.844   3.422  10.799  1.00  0.00     0.200 A 
ATOM     78  F   UNL     1      -6.545   4.744   9.836  1.00  0.00    -0.200 F 
ATOM     79  F   UNL     1      -5.746   2.500  11.163  1.00  0.00    -0.200 F 
ENDBRANCH  55  69
BRANCH  56  80
ATOM     80  C   UNL     1       3.617  12.079   6.667  1.00  0.00     0.064 A 
ATOM     81  C   UNL     1       4.590  12.665   7.490  1.00  0.00     0.173 A 
ATOM     82  C   UNL     1       3.552  12.506   5.332  1.00  0.00     0.173 A 
ATOM     83  F   UNL     1       4.676  12.312   8.781  1.00  0.00    -0.203 F 
ATOM     84  C   UNL     1       5.446  13.651   7.003  1.00  0.00     0.198 A 
ATOM     85  C   UNL     1       4.431  13.467   4.838  1.00  0.00     0.198 A 
ATOM     86  F   UNL     1       2.638  11.981   4.503  1.00  0.00    -0.203 F 
ATOM     87  F   UNL     1       6.331  14.232   7.825  1.00  0.00    -0.200 F 
ATOM     88  C   UNL     1       5.371  14.046   5.676  1.00  0.00     0.200 A 
ATOM     89  F   UNL     1       4.364  13.833   3.551  1.00  0.00    -0.200 F 
ATOM     90  F   UNL     1       6.200  14.988   5.206  1.00  0.00    -0.200 F 
ENDBRANCH  56  80
BRANCH  68  91
ATOM     91  C   UNL     1      -1.510  12.294  11.385  1.00  0.00     0.064 A 
ATOM     92  C   UNL     1      -2.146  13.432  10.866  1.00  0.00     0.173 A 
ATOM     93  C   UNL     1      -1.355  12.213  12.778  1.00  0.00     0.173 A 
ATOM     94  F   UNL     1      -2.313  13.568   9.541  1.00  0.00    -0.203 F 
ATOM     95  C   UNL     1      -2.556  14.470  11.700  1.00  0.00     0.198 A 
ATOM     96  C   UNL     1      -1.804  13.234  13.613  1.00  0.00     0.198 A 
ATOM     97  F   UNL     1      -0.766  11.144  13.334  1.00  0.00    -0.203 F 
ATOM     98  F   UNL     1      -3.087  15.582  11.171  1.00  0.00    -0.200 F 
ATOM     99  C   UNL     1      -2.388  14.369  13.072  1.00  0.00     0.200 A 
ATOM    100  F   UNL     1      -1.658  13.125  14.941  1.00  0.00    -0.200 F 
ATOM    101  F   UNL     1      -2.777  15.370  13.873  1.00  0.00    -0.200 F 
ENDBRANCH  68  91
ENDBRANCH  42  43
ENDBRANCH  35  37
ENDBRANCH  34  35
ENDBRANCH  33  34
ENDBRANCH  32  33
ENDBRANCH  31  32
ENDBRANCH  30  31
ENDBRANCH  29  30
ENDBRANCH  28  29
ENDBRANCH   1  28
TORSDOF 24
