REMARK SMILES CCc1ccc(S(=O)(=O)N[C@H](C(=O)OCCOCCOCCOCCOC(=O)c2ccc(-c3c4nc(c(-c5c(F)c(F)c(F)c(F)c5F)c5ccc([nH]5)c(-c5c(F)c(F)c(F)c(F)c5F)c5nc(c(-c6c(F)c(F)c(F)c(F)c6F)c6ccc3[nH]6)C=C5)C=C4)cc2)C(C)C)cc1
REMARK SMILES IDX 19 1 18 2 17 3 16 4 15 5 14 6 12 7 13 8 11 9 10 10 7 12 8 13
REMARK SMILES IDX 9 14 6 15 3 16 4 17 96 18 5 19 95 20 2 21 1 22 92 23 93 24
REMARK SMILES IDX 94 25 20 26 21 27 22 28 23 29 24 30 25 31 26 32 27 33 28 34
REMARK SMILES IDX 29 35 30 36 91 37 31 38 90 39 32 40 33 41 34 42 84 43 35 44
REMARK SMILES IDX 89 45 83 46 85 47 36 48 88 49 82 50 81 51 37 53 69 54 49 55
REMARK SMILES IDX 68 56 50 57 53 58 67 59 86 60 51 61 52 62 66 64 87 65 54 66
REMARK SMILES IDX 38 67 39 68 47 69 40 70 41 71 45 72 48 73 42 74 43 75 46 76
REMARK SMILES IDX 44 77 70 78 71 79 79 80 72 81 73 82 77 83 80 84 74 85 75 86
REMARK SMILES IDX 78 87 76 88 55 89 56 90 64 91 57 92 58 93 62 94 65 95 59 96
REMARK SMILES IDX 60 97 63 98 61 99
REMARK H PARENT 10 11 85 52 53 63
REMARK Flexibility Score: inf
ROOT
ATOM      1  C   UNL     1       3.187  -3.066  -9.755  1.00  0.00     0.188 C 
ENDROOT
BRANCH   1   2
ATOM      2  C   UNL     1       1.950  -3.920  -9.403  1.00  0.00     0.188 C 
BRANCH   2   3
ATOM      3  O   UNL     1       0.782  -3.128  -9.307  1.00  0.00    -0.376 OA
BRANCH   3   4
ATOM      4  C   UNL     1       0.133  -2.990  -8.054  1.00  0.00     0.202 C 
BRANCH   4   5
ATOM      5  C   UNL     1       0.870  -2.803  -6.715  1.00  0.00     0.261 C 
BRANCH   5   6
ATOM      6  O   UNL     1       1.996  -1.924  -6.590  1.00  0.00    -0.462 OA
BRANCH   6   7
ATOM      7  C   UNL     1       3.177  -2.591  -6.515  1.00  0.00     0.324 C 
ATOM      8  O   UNL     1       3.411  -3.664  -7.063  1.00  0.00    -0.250 OA
BRANCH   7   9
ATOM      9  C   UNL     1       4.224  -1.996  -5.592  1.00  0.00     0.182 C 
BRANCH   9  10
ATOM     10  N   UNL     1       4.915  -3.206  -4.997  1.00  0.00    -0.197 NA
ATOM     11  H   UNL     1       5.087  -3.846  -5.773  1.00  0.00     0.142 HD
BRANCH  10  12
ATOM     12  S   UNL     1       4.212  -4.131  -3.769  1.00  0.00     0.241 S 
ATOM     13  O   UNL     1       3.651  -3.186  -2.824  1.00  0.00    -0.207 OA
ATOM     14  O   UNL     1       5.210  -5.097  -3.374  1.00  0.00    -0.207 OA
BRANCH  12  15
ATOM     15  C   UNL     1       2.849  -5.085  -4.428  1.00  0.00     0.082 A 
ATOM     16  C   UNL     1       0.579  -6.327  -5.562  1.00  0.00    -0.048 A 
ATOM     17  C   UNL     1       0.505  -5.711  -4.306  1.00  0.00     0.005 A 
ATOM     18  C   UNL     1       1.843  -6.443  -6.166  1.00  0.00     0.005 A 
ATOM     19  C   UNL     1       1.624  -5.074  -3.753  1.00  0.00     0.022 A 
ATOM     20  C   UNL     1       2.981  -5.854  -5.586  1.00  0.00     0.022 A 
BRANCH  16  21
ATOM     21  C   UNL     1      -0.645  -6.859  -6.280  1.00  0.00     0.032 C 
ATOM     22  C   UNL     1      -1.943  -6.099  -6.007  1.00  0.00     0.009 C 
ENDBRANCH  16  21
ENDBRANCH  12  15
ENDBRANCH  10  12
ENDBRANCH   9  10
BRANCH   9  23
ATOM     23  C   UNL     1       5.246  -1.208  -6.460  1.00  0.00     0.012 C 
ATOM     24  C   UNL     1       4.694   0.153  -6.901  1.00  0.00     0.009 C 
ATOM     25  C   UNL     1       6.601  -0.987  -5.777  1.00  0.00     0.009 C 
ENDBRANCH   9  23
ENDBRANCH   7   9
ENDBRANCH   6   7
ENDBRANCH   5   6
ENDBRANCH   4   5
ENDBRANCH   3   4
ENDBRANCH   2   3
ENDBRANCH   1   2
BRANCH   1  26
ATOM     26  O   UNL     1       3.127  -1.689  -9.362  1.00  0.00    -0.377 OA
BRANCH  26  27
ATOM     27  C   UNL     1       2.147  -0.883 -10.034  1.00  0.00     0.188 C 
BRANCH  27  28
ATOM     28  C   UNL     1       1.899  -1.236 -11.507  1.00  0.00     0.188 C 
BRANCH  28  29
ATOM     29  O   UNL     1       3.050  -1.294 -12.354  1.00  0.00    -0.376 OA
BRANCH  29  30
ATOM     30  C   UNL     1       4.126  -0.400 -12.086  1.00  0.00     0.202 C 
BRANCH  30  31
ATOM     31  C   UNL     1       3.946   0.991 -12.686  1.00  0.00     0.261 C 
BRANCH  31  32
ATOM     32  O   UNL     1       2.882   1.709 -12.042  1.00  0.00    -0.460 OA
BRANCH  32  33
ATOM     33  C   UNL     1       1.714   1.726 -12.725  1.00  0.00     0.338 C 
ATOM     34  O   UNL     1       1.488   1.251 -13.824  1.00  0.00    -0.246 OA
BRANCH  33  35
ATOM     35  C   UNL     1       0.654   2.313 -11.885  1.00  0.00     0.060 A 
ATOM     36  C   UNL     1      -0.610   1.707 -11.908  1.00  0.00     0.016 A 
ATOM     37  C   UNL     1       0.861   3.508 -11.193  1.00  0.00     0.016 A 
ATOM     38  C   UNL     1      -1.696   2.346 -11.321  1.00  0.00     0.010 A 
ATOM     39  C   UNL     1      -0.231   4.158 -10.616  1.00  0.00     0.010 A 
ATOM     40  C   UNL     1      -1.520   3.609 -10.742  1.00  0.00    -0.014 A 
BRANCH  40  41
ATOM     41  C   UNL     1      -2.706   4.469 -10.541  1.00  0.00     0.031 A 
ATOM     42  C   UNL     1      -3.075   5.419 -11.650  1.00  0.00     0.074 A 
ATOM     43  C   UNL     1      -3.451   4.380  -9.428  1.00  0.00     0.049 A 
ATOM     44  N   UNL     1      -4.045   6.294 -11.709  1.00  0.00    -0.248 NA
ATOM     45  C   UNL     1      -2.231   5.378 -12.858  1.00  0.00     0.031 C 
ATOM     46  C   UNL     1      -3.204   3.466  -8.315  1.00  0.00     0.029 A 
ATOM     47  N   UNL     1      -4.568   5.080  -9.052  1.00  0.00    -0.354 N 
ATOM     48  C   UNL     1      -3.917   6.912 -12.947  1.00  0.00     0.074 A 
ATOM     49  C   UNL     1      -2.769   6.332 -13.603  1.00  0.00     0.031 C 
ATOM     50  C   UNL     1      -4.137   3.674  -7.368  1.00  0.00     0.029 A 
ATOM     51  C   UNL     1      -5.026   4.750  -7.801  1.00  0.00     0.049 A 
ATOM     52  H   UNL     1      -5.000   5.755  -9.624  1.00  0.00     0.167 HD
ATOM     53  C   UNL     1      -4.696   7.876 -13.489  1.00  0.00     0.037 A 
ATOM     54  C   UNL     1      -6.040   5.279  -7.090  1.00  0.00     0.037 A 
ATOM     55  C   UNL     1      -5.847   8.436 -12.837  1.00  0.00     0.049 A 
ATOM     56  C   UNL     1      -6.871   6.376  -7.708  1.00  0.00     0.074 A 
ATOM     57  C   UNL     1      -6.718   9.405 -13.302  1.00  0.00     0.029 A 
ATOM     58  N   UNL     1      -6.285   8.072 -11.572  1.00  0.00    -0.354 N 
ATOM     59  N   UNL     1      -6.764   6.933  -8.891  1.00  0.00    -0.248 NA
ATOM     60  C   UNL     1      -7.974   6.908  -6.896  1.00  0.00     0.031 C 
ATOM     61  C   UNL     1      -7.660   9.658 -12.299  1.00  0.00     0.029 A 
ATOM     62  C   UNL     1      -7.407   8.808 -11.234  1.00  0.00     0.049 A 
ATOM     63  H   UNL     1      -5.861   7.392 -11.001  1.00  0.00     0.167 HD
ATOM     64  C   UNL     1      -7.808   7.845  -8.981  1.00  0.00     0.074 A 
ATOM     65  C   UNL     1      -8.542   7.761  -7.736  1.00  0.00     0.031 C 
ATOM     66  C   UNL     1      -8.135   8.678  -9.999  1.00  0.00     0.037 A 
BRANCH  53  67
ATOM     67  C   UNL     1      -4.318   8.406 -14.840  1.00  0.00     0.064 A 
ATOM     68  C   UNL     1      -4.512   7.656 -16.009  1.00  0.00     0.173 A 
ATOM     69  C   UNL     1      -3.801   9.704 -14.969  1.00  0.00     0.173 A 
ATOM     70  F   UNL     1      -4.984   6.402 -15.937  1.00  0.00    -0.203 F 
ATOM     71  C   UNL     1      -4.194   8.184 -17.258  1.00  0.00     0.198 A 
ATOM     72  C   UNL     1      -3.508  10.238 -16.221  1.00  0.00     0.198 A 
ATOM     73  F   UNL     1      -3.594  10.460 -13.881  1.00  0.00    -0.203 F 
ATOM     74  F   UNL     1      -4.357   7.439 -18.361  1.00  0.00    -0.200 F 
ATOM     75  C   UNL     1      -3.702   9.477 -17.364  1.00  0.00     0.200 A 
ATOM     76  F   UNL     1      -3.042  11.490 -16.321  1.00  0.00    -0.200 F 
ATOM     77  F   UNL     1      -3.411   9.989 -18.568  1.00  0.00    -0.200 F 
ENDBRANCH  53  67
BRANCH  54  78
ATOM     78  C   UNL     1      -6.328   4.795  -5.713  1.00  0.00     0.064 A 
ATOM     79  C   UNL     1      -7.520   4.121  -5.415  1.00  0.00     0.173 A 
ATOM     80  C   UNL     1      -5.439   5.044  -4.657  1.00  0.00     0.173 A 
ATOM     81  F   UNL     1      -8.413   3.878  -6.386  1.00  0.00    -0.203 F 
ATOM     82  C   UNL     1      -7.829   3.748  -4.108  1.00  0.00     0.198 A 
ATOM     83  C   UNL     1      -5.735   4.643  -3.356  1.00  0.00     0.198 A 
ATOM     84  F   UNL     1      -4.283   5.684  -4.888  1.00  0.00    -0.203 F 
ATOM     85  F   UNL     1      -9.005   3.163  -3.842  1.00  0.00    -0.200 F 
ATOM     86  C   UNL     1      -6.935   4.007  -3.080  1.00  0.00     0.200 A 
ATOM     87  F   UNL     1      -4.862   4.884  -2.368  1.00  0.00    -0.200 F 
ATOM     88  F   UNL     1      -7.237   3.655  -1.823  1.00  0.00    -0.200 F 
ENDBRANCH  54  78
BRANCH  66  89
ATOM     89  C   UNL     1      -9.375   9.507  -9.838  1.00  0.00     0.064 A 
ATOM     90  C   UNL     1      -9.431  10.592  -8.952  1.00  0.00     0.173 A 
ATOM     91  C   UNL     1     -10.512   9.228 -10.612  1.00  0.00     0.173 A 
ATOM     92  F   UNL     1      -8.374  10.891  -8.183  1.00  0.00    -0.203 F 
ATOM     93  C   UNL     1     -10.594  11.346  -8.820  1.00  0.00     0.198 A 
ATOM     94  C   UNL     1     -11.662  10.005 -10.502  1.00  0.00     0.198 A 
ATOM     95  F   UNL     1     -10.505   8.209 -11.484  1.00  0.00    -0.203 F 
ATOM     96  F   UNL     1     -10.645  12.343  -7.927  1.00  0.00    -0.200 F 
ATOM     97  C   UNL     1     -11.705  11.056  -9.599  1.00  0.00     0.200 A 
ATOM     98  F   UNL     1     -12.728   9.733 -11.266  1.00  0.00    -0.200 F 
ATOM     99  F   UNL     1     -12.822  11.785  -9.473  1.00  0.00    -0.200 F 
ENDBRANCH  66  89
ENDBRANCH  40  41
ENDBRANCH  33  35
ENDBRANCH  32  33
ENDBRANCH  31  32
ENDBRANCH  30  31
ENDBRANCH  29  30
ENDBRANCH  28  29
ENDBRANCH  27  28
ENDBRANCH  26  27
ENDBRANCH   1  26
TORSDOF 25
