REMARK SMILES CS(=O)(=O)c1ccc(N2N=C(C(=O)OCCOCCOCCOCCOC(=O)c3ccc(-c4c5nc(c(-c6c(F)c(F)c(F)c(F)c6F)c6ccc([nH]6)c(-c6c(F)c(F)c(F)c(F)c6F)c6nc(c(-c7c(F)c(F)c(F)c(F)c7F)c7ccc4[nH]7)C=C6)C=C5)cc3)C[C@H]2c2cccs2)cc1
REMARK SMILES IDX 20 1 19 2 18 3 17 4 16 5 15 6 14 7 12 8 13 9 11 10 9 11
REMARK SMILES IDX 10 12 93 13 92 14 8 15 5 16 6 17 100 18 7 19 99 20 2 21 1 22
REMARK SMILES IDX 3 23 4 24 94 25 95 26 98 27 96 28 97 29 21 30 22 31 23 32
REMARK SMILES IDX 24 33 25 34 26 35 27 36 28 37 29 38 30 39 91 40 31 41 90 42
REMARK SMILES IDX 32 43 33 44 34 45 84 46 35 47 89 48 83 49 85 50 36 51 88 52
REMARK SMILES IDX 82 53 81 54 37 56 69 57 49 58 68 59 50 60 53 61 67 62 86 63
REMARK SMILES IDX 51 64 52 65 66 67 87 68 54 69 38 70 39 71 47 72 40 73 41 74
REMARK SMILES IDX 45 75 48 76 42 77 43 78 46 79 44 80 70 81 71 82 79 83 72 84
REMARK SMILES IDX 73 85 77 86 80 87 74 88 75 89 78 90 76 91 55 92 56 93 64 94
REMARK SMILES IDX 57 95 58 96 62 97 65 98 59 99 60 100 63 101 61 102
REMARK H PARENT 85 55 53 66
REMARK Flexibility Score: inf
ROOT
ATOM      1  O   UNL     1       6.271   9.575  -1.161  1.00  0.00    -0.377 OA
ENDROOT
BRANCH   1   2
ATOM      2  C   UNL     1       6.136   8.244  -1.642  1.00  0.00     0.188 C 
BRANCH   2   3
ATOM      3  C   UNL     1       6.261   8.086  -3.169  1.00  0.00     0.188 C 
BRANCH   3   4
ATOM      4  O   UNL     1       6.990   9.143  -3.768  1.00  0.00    -0.376 OA
BRANCH   4   5
ATOM      5  C   UNL     1       6.319  10.208  -4.418  1.00  0.00     0.202 C 
BRANCH   5   6
ATOM      6  C   UNL     1       5.088  10.911  -3.817  1.00  0.00     0.261 C 
BRANCH   6   7
ATOM      7  O   UNL     1       4.279  10.128  -2.943  1.00  0.00    -0.459 OA
BRANCH   7   8
ATOM      8  C   UNL     1       3.286   9.417  -3.497  1.00  0.00     0.354 C 
ATOM      9  O   UNL     1       2.914   9.427  -4.653  1.00  0.00    -0.245 OA
BRANCH   8  10
ATOM     10  C   UNL     1       2.780   8.450  -2.457  1.00  0.00     0.148 C 
ATOM     11  N   UNL     1       2.114   6.666  -1.535  1.00  0.00    -0.256 N 
ATOM     12  N   UNL     1       2.645   7.178  -2.686  1.00  0.00    -0.169 NA
ATOM     13  C   UNL     1       1.575   7.732  -0.662  1.00  0.00     0.154 C 
ATOM     14  C   UNL     1       2.505   8.892  -1.050  1.00  0.00     0.099 C 
BRANCH  11  15
ATOM     15  C   UNL     1       1.716   5.337  -1.531  1.00  0.00     0.060 A 
ATOM     16  C   UNL     1       0.956   2.623  -1.550  1.00  0.00     0.067 A 
ATOM     17  C   UNL     1       2.252   2.975  -1.170  1.00  0.00     0.022 A 
ATOM     18  C   UNL     1       0.051   3.606  -1.950  1.00  0.00     0.022 A 
ATOM     19  C   UNL     1       2.621   4.329  -1.160  1.00  0.00     0.029 A 
ATOM     20  C   UNL     1       0.443   4.946  -1.957  1.00  0.00     0.029 A 
BRANCH  16  21
ATOM     21  S   UNL     1       0.441   0.922  -1.569  1.00  0.00     0.175 S 
ATOM     22  C   UNL     1       0.980   0.242  -0.025  1.00  0.00     0.163 C 
ATOM     23  O   UNL     1       1.177   0.270  -2.634  1.00  0.00    -0.224 OA
ATOM     24  O   UNL     1      -1.010   0.911  -1.544  1.00  0.00    -0.224 OA
ENDBRANCH  16  21
ENDBRANCH  11  15
BRANCH  13  25
ATOM     25  C   UNL     1       0.096   8.077  -0.818  1.00  0.00     0.030 A 
ATOM     26  C   UNL     1      -0.981   7.401  -0.268  1.00  0.00     0.017 A 
ATOM     27  S   UNL     1      -0.456   9.410  -1.761  1.00  0.00    -0.147 S 
ATOM     28  C   UNL     1      -2.237   7.960  -0.643  1.00  0.00     0.012 A 
ATOM     29  C   UNL     1      -2.090   9.082  -1.422  1.00  0.00     0.065 A 
ENDBRANCH  13  25
ENDBRANCH   8  10
ENDBRANCH   7   8
ENDBRANCH   6   7
ENDBRANCH   5   6
ENDBRANCH   4   5
ENDBRANCH   3   4
ENDBRANCH   2   3
ENDBRANCH   1   2
BRANCH   1  30
ATOM     30  C   UNL     1       7.571  10.172  -1.140  1.00  0.00     0.188 C 
BRANCH  30  31
ATOM     31  C   UNL     1       8.827   9.480  -1.728  1.00  0.00     0.188 C 
BRANCH  31  32
ATOM     32  O   UNL     1       8.801   8.063  -1.690  1.00  0.00    -0.376 OA
BRANCH  32  33
ATOM     33  C   UNL     1       9.571   7.399  -0.704  1.00  0.00     0.202 C 
BRANCH  33  34
ATOM     34  C   UNL     1       9.169   7.633   0.759  1.00  0.00     0.261 C 
BRANCH  34  35
ATOM     35  O   UNL     1       9.158   9.002   1.195  1.00  0.00    -0.460 OA
BRANCH  35  36
ATOM     36  C   UNL     1      10.335   9.661   1.188  1.00  0.00     0.338 C 
ATOM     37  O   UNL     1      11.430   9.216   0.884  1.00  0.00    -0.246 OA
BRANCH  36  38
ATOM     38  C   UNL     1      10.055  11.089   1.436  1.00  0.00     0.060 A 
ATOM     39  C   UNL     1      10.417  12.030   0.464  1.00  0.00     0.016 A 
ATOM     40  C   UNL     1       9.443  11.497   2.623  1.00  0.00     0.016 A 
ATOM     41  C   UNL     1      10.205  13.389   0.696  1.00  0.00     0.010 A 
ATOM     42  C   UNL     1       9.247  12.860   2.862  1.00  0.00     0.010 A 
ATOM     43  C   UNL     1       9.662  13.814   1.916  1.00  0.00    -0.014 A 
BRANCH  43  44
ATOM     44  C   UNL     1       9.711  15.253   2.277  1.00  0.00     0.031 A 
ATOM     45  C   UNL     1      10.820  15.728   3.176  1.00  0.00     0.074 A 
ATOM     46  C   UNL     1       8.814  16.129   1.792  1.00  0.00     0.049 A 
ATOM     47  N   UNL     1      11.060  16.927   3.644  1.00  0.00    -0.248 NA
ATOM     48  C   UNL     1      11.790  14.709   3.607  1.00  0.00     0.031 C 
ATOM     49  C   UNL     1       7.719  15.802   0.883  1.00  0.00     0.029 A 
ATOM     50  N   UNL     1       8.686  17.480   2.004  1.00  0.00    -0.354 N 
ATOM     51  C   UNL     1      12.202  16.804   4.425  1.00  0.00     0.074 A 
ATOM     52  C   UNL     1      12.585  15.409   4.401  1.00  0.00     0.031 C 
ATOM     53  C   UNL     1       7.024  16.922   0.619  1.00  0.00     0.029 A 
ATOM     54  C   UNL     1       7.606  18.037   1.365  1.00  0.00     0.049 A 
ATOM     55  H   UNL     1       9.309  17.999   2.561  1.00  0.00     0.167 HD
ATOM     56  C   UNL     1      12.879  17.769   5.091  1.00  0.00     0.037 A 
ATOM     57  C   UNL     1       7.133  19.299   1.398  1.00  0.00     0.037 A 
ATOM     58  C   UNL     1      12.494  19.156   5.118  1.00  0.00     0.049 A 
ATOM     59  C   UNL     1       7.859  20.340   2.215  1.00  0.00     0.074 A 
ATOM     60  C   UNL     1      13.123  20.214   5.750  1.00  0.00     0.029 A 
ATOM     61  N   UNL     1      11.370  19.676   4.492  1.00  0.00    -0.354 N 
ATOM     62  N   UNL     1       8.955  20.224   2.925  1.00  0.00    -0.248 NA
ATOM     63  C   UNL     1       7.280  21.691   2.227  1.00  0.00     0.031 C 
ATOM     64  C   UNL     1      12.344  21.361   5.562  1.00  0.00     0.029 A 
ATOM     65  C   UNL     1      11.269  21.034   4.752  1.00  0.00     0.049 A 
ATOM     66  H   UNL     1      10.738  19.157   3.945  1.00  0.00     0.167 HD
ATOM     67  C   UNL     1       9.214  21.489   3.441  1.00  0.00     0.074 A 
ATOM     68  C   UNL     1       8.170  22.361   2.945  1.00  0.00     0.031 C 
ATOM     69  C   UNL     1      10.225  21.892   4.252  1.00  0.00     0.037 A 
BRANCH  56  70
ATOM     70  C   UNL     1      14.090  17.349   5.875  1.00  0.00     0.064 A 
ATOM     71  C   UNL     1      15.266  16.911   5.246  1.00  0.00     0.173 A 
ATOM     72  C   UNL     1      14.081  17.405   7.277  1.00  0.00     0.173 A 
ATOM     73  F   UNL     1      15.324  16.823   3.909  1.00  0.00    -0.203 F 
ATOM     74  C   UNL     1      16.374  16.515   5.992  1.00  0.00     0.198 A 
ATOM     75  C   UNL     1      15.202  17.042   8.018  1.00  0.00     0.198 A 
ATOM     76  F   UNL     1      12.984  17.818   7.931  1.00  0.00    -0.203 F 
ATOM     77  F   UNL     1      17.465  16.046   5.371  1.00  0.00    -0.200 F 
ATOM     78  C   UNL     1      16.343  16.588   7.376  1.00  0.00     0.200 A 
ATOM     79  F   UNL     1      15.175  17.127   9.356  1.00  0.00    -0.200 F 
ATOM     80  F   UNL     1      17.412  16.212   8.092  1.00  0.00    -0.200 F 
ENDBRANCH  56  70
BRANCH  57  81
ATOM     81  C   UNL     1       5.901  19.654   0.644  1.00  0.00     0.064 A 
ATOM     82  C   UNL     1       5.945  20.541  -0.442  1.00  0.00     0.173 A 
ATOM     83  C   UNL     1       4.649  19.139   1.012  1.00  0.00     0.173 A 
ATOM     84  F   UNL     1       7.113  21.083  -0.816  1.00  0.00    -0.203 F 
ATOM     85  C   UNL     1       4.783  20.916  -1.115  1.00  0.00     0.198 A 
ATOM     86  C   UNL     1       3.492  19.488   0.317  1.00  0.00     0.198 A 
ATOM     87  F   UNL     1       4.548  18.290   2.045  1.00  0.00    -0.203 F 
ATOM     88  F   UNL     1       4.848  21.807  -2.112  1.00  0.00    -0.200 F 
ATOM     89  C   UNL     1       3.559  20.384  -0.739  1.00  0.00     0.200 A 
ATOM     90  F   UNL     1       2.314  18.962   0.676  1.00  0.00    -0.200 F 
ATOM     91  F   UNL     1       2.443  20.742  -1.388  1.00  0.00    -0.200 F 
ENDBRANCH  57  81
BRANCH  69  92
ATOM     92  C   UNL     1      10.274  23.349   4.624  1.00  0.00     0.064 A 
ATOM     93  C   UNL     1       9.317  23.932   5.469  1.00  0.00     0.173 A 
ATOM     94  C   UNL     1      11.310  24.169   4.149  1.00  0.00     0.173 A 
ATOM     95  F   UNL     1       8.298  23.198   5.943  1.00  0.00    -0.203 F 
ATOM     96  C   UNL     1       9.374  25.286   5.792  1.00  0.00     0.198 A 
ATOM     97  C   UNL     1      11.386  25.513   4.505  1.00  0.00     0.198 A 
ATOM     98  F   UNL     1      12.259  23.663   3.346  1.00  0.00    -0.203 F 
ATOM     99  F   UNL     1       8.413  25.832   6.549  1.00  0.00    -0.200 F 
ATOM    100  C   UNL     1      10.411  26.073   5.316  1.00  0.00     0.200 A 
ATOM    101  F   UNL     1      12.400  26.267   4.058  1.00  0.00    -0.200 F 
ATOM    102  F   UNL     1      10.467  27.374   5.631  1.00  0.00    -0.200 F 
ENDBRANCH  69  92
ENDBRANCH  43  44
ENDBRANCH  36  38
ENDBRANCH  35  36
ENDBRANCH  34  35
ENDBRANCH  33  34
ENDBRANCH  32  33
ENDBRANCH  31  32
ENDBRANCH  30  31
ENDBRANCH   1  30
TORSDOF 23
