REMARK SMILES [NH3+][C@H](CS[C@@H]1CC(=O)N(c2ccc3ccccc3c2)C1=O)C(=O)OCCOCCOCCOCCOC(=O)c1ccc(-c2c3nc(c(-c4c(F)c(F)c(F)c(F)c4F)c4ccc([nH]4)c(-c4c(F)c(F)c(F)c(F)c4F)c4nc(c(-c5c(F)c(F)c(F)c(F)c5F)c5ccc2[nH]5)C=C4)C=C3)cc1
REMARK SMILES IDX 29 1 28 2 27 3 26 4 25 5 24 6 22 7 23 8 2 9 1 10 3 14 4 15
REMARK SMILES IDX 5 16 6 17 20 18 7 19 9 20 21 21 8 22 10 23 11 24 19 25 12 26
REMARK SMILES IDX 18 27 13 28 17 29 14 30 16 31 15 32 30 33 31 34 32 35 33 36
REMARK SMILES IDX 34 37 35 38 36 39 37 40 38 41 39 42 40 43 101 44 41 45
REMARK SMILES IDX 100 46 42 47 43 48 44 49 94 50 45 51 99 52 93 53 95 54 46 55
REMARK SMILES IDX 98 56 92 57 91 58 47 60 79 61 59 62 78 63 60 64 63 65 77 66
REMARK SMILES IDX 96 67 61 68 62 69 76 71 97 72 64 73 48 74 49 75 57 76 50 77
REMARK SMILES IDX 51 78 55 79 58 80 52 81 53 82 56 83 54 84 80 85 81 86 89 87
REMARK SMILES IDX 82 88 83 89 87 90 90 91 84 92 85 93 88 94 86 95 65 96 66 97
REMARK SMILES IDX 74 98 67 99 68 100 72 101 75 102 69 103 70 104 73 105 71 106
REMARK H PARENT 1 11 1 12 1 13 95 59 63 70
REMARK Flexibility Score: inf
ROOT
ATOM      1  C   UNL     1      -1.182  -1.474   1.438  1.00  0.00     0.188 C 
ENDROOT
BRANCH   1   2
ATOM      2  C   UNL     1      -2.014  -0.700   2.485  1.00  0.00     0.188 C 
BRANCH   2   3
ATOM      3  O   UNL     1      -3.389  -0.477   2.273  1.00  0.00    -0.376 OA
BRANCH   3   4
ATOM      4  C   UNL     1      -3.843   0.567   1.435  1.00  0.00     0.202 C 
BRANCH   4   5
ATOM      5  C   UNL     1      -2.927   1.662   0.905  1.00  0.00     0.261 C 
BRANCH   5   6
ATOM      6  O   UNL     1      -1.604   1.291   0.491  1.00  0.00    -0.459 OA
BRANCH   6   7
ATOM      7  C   UNL     1      -0.579   1.855   1.179  1.00  0.00     0.365 C 
ATOM      8  O   UNL     1      -0.723   2.507   2.209  1.00  0.00    -0.245 OA
BRANCH   7   9
ATOM      9  C   UNL     1       0.811   1.579   0.574  1.00  0.00     0.301 C 
BRANCH   9  10
ATOM     10  N   UNL     1       1.532   2.870   0.409  1.00  0.00    -0.345 N 
ATOM     11  H   UNL     1       1.445   3.420   1.264  1.00  0.00     0.345 HD
ATOM     12  H   UNL     1       1.128   3.389  -0.371  1.00  0.00     0.345 HD
ATOM     13  H   UNL     1       2.518   2.687   0.221  1.00  0.00     0.345 HD
ENDBRANCH   9  10
BRANCH   9  14
ATOM     14  C   UNL     1       0.875   0.656  -0.669  1.00  0.00     0.147 C 
BRANCH  14  15
ATOM     15  S   UNL     1       1.517   1.455  -2.198  1.00  0.00    -0.141 SA
BRANCH  15  16
ATOM     16  C   UNL     1       0.014   1.680  -3.221  1.00  0.00     0.146 C 
ATOM     17  C   UNL     1       0.202   2.917  -4.087  1.00  0.00     0.125 C 
ATOM     18  C   UNL     1      -1.223   2.076  -2.462  1.00  0.00     0.247 C 
ATOM     19  C   UNL     1      -0.436   4.016  -3.270  1.00  0.00     0.235 C 
ATOM     20  N   UNL     1      -1.169   3.436  -2.268  1.00  0.00    -0.250 N 
ATOM     21  O   UNL     1      -2.138   1.306  -2.206  1.00  0.00    -0.273 OA
ATOM     22  O   UNL     1      -0.388   5.197  -3.576  1.00  0.00    -0.274 OA
BRANCH  20  23
ATOM     23  C   UNL     1      -2.092   4.149  -1.476  1.00  0.00     0.052 A 
ATOM     24  C   UNL     1      -3.421   4.282  -1.874  1.00  0.00     0.027 A 
ATOM     25  C   UNL     1      -1.712   4.582  -0.198  1.00  0.00     0.035 A 
ATOM     26  C   UNL     1      -4.369   4.808  -0.987  1.00  0.00     0.011 A 
ATOM     27  C   UNL     1      -2.673   5.020   0.736  1.00  0.00    -0.016 A 
ATOM     28  C   UNL     1      -4.020   5.139   0.333  1.00  0.00    -0.018 A 
ATOM     29  C   UNL     1      -2.343   5.242   2.087  1.00  0.00     0.009 A 
ATOM     30  C   UNL     1      -4.989   5.520   1.279  1.00  0.00     0.009 A 
ATOM     31  C   UNL     1      -3.326   5.559   3.026  1.00  0.00     0.001 A 
ATOM     32  C   UNL     1      -4.646   5.714   2.619  1.00  0.00     0.001 A 
ENDBRANCH  20  23
ENDBRANCH  15  16
ENDBRANCH  14  15
ENDBRANCH   9  14
ENDBRANCH   7   9
ENDBRANCH   6   7
ENDBRANCH   5   6
ENDBRANCH   4   5
ENDBRANCH   3   4
ENDBRANCH   2   3
ENDBRANCH   1   2
BRANCH   1  33
ATOM     33  O   UNL     1      -1.543  -1.523   0.070  1.00  0.00    -0.377 OA
BRANCH  33  34
ATOM     34  C   UNL     1      -2.841  -1.933  -0.341  1.00  0.00     0.188 C 
BRANCH  34  35
ATOM     35  C   UNL     1      -3.752  -2.767   0.582  1.00  0.00     0.188 C 
BRANCH  35  36
ATOM     36  O   UNL     1      -3.117  -3.269   1.740  1.00  0.00    -0.376 OA
BRANCH  36  37
ATOM     37  C   UNL     1      -2.669  -4.613   1.738  1.00  0.00     0.202 C 
BRANCH  37  38
ATOM     38  C   UNL     1      -1.703  -5.053   0.627  1.00  0.00     0.261 C 
BRANCH  38  39
ATOM     39  O   UNL     1      -2.143  -4.841  -0.723  1.00  0.00    -0.460 OA
BRANCH  39  40
ATOM     40  C   UNL     1      -3.258  -5.494  -1.119  1.00  0.00     0.338 C 
ATOM     41  O   UNL     1      -3.933  -6.266  -0.473  1.00  0.00    -0.246 OA
BRANCH  40  42
ATOM     42  C   UNL     1      -3.626  -4.972  -2.451  1.00  0.00     0.060 A 
ATOM     43  C   UNL     1      -4.838  -4.286  -2.608  1.00  0.00     0.016 A 
ATOM     44  C   UNL     1      -2.786  -5.191  -3.544  1.00  0.00     0.016 A 
ATOM     45  C   UNL     1      -5.237  -3.857  -3.873  1.00  0.00     0.010 A 
ATOM     46  C   UNL     1      -3.197  -4.782  -4.814  1.00  0.00     0.010 A 
ATOM     47  C   UNL     1      -4.442  -4.152  -4.988  1.00  0.00    -0.014 A 
BRANCH  47  48
ATOM     48  C   UNL     1      -5.009  -4.009  -6.350  1.00  0.00     0.031 A 
ATOM     49  C   UNL     1      -5.570  -5.237  -7.014  1.00  0.00     0.074 A 
ATOM     50  C   UNL     1      -5.049  -2.820  -6.975  1.00  0.00     0.049 A 
ATOM     51  N   UNL     1      -6.050  -5.387  -8.222  1.00  0.00    -0.248 NA
ATOM     52  C   UNL     1      -5.589  -6.465  -6.202  1.00  0.00     0.031 C 
ATOM     53  C   UNL     1      -4.595  -1.552  -6.410  1.00  0.00     0.029 A 
ATOM     54  N   UNL     1      -5.489  -2.494  -8.233  1.00  0.00    -0.354 N 
ATOM     55  C   UNL     1      -6.417  -6.724  -8.316  1.00  0.00     0.074 A 
ATOM     56  C   UNL     1      -6.075  -7.350  -7.058  1.00  0.00     0.031 C 
ATOM     57  C   UNL     1      -4.768  -0.583  -7.327  1.00  0.00     0.029 A 
ATOM     58  C   UNL     1      -5.306  -1.172  -8.553  1.00  0.00     0.049 A 
ATOM     59  H   UNL     1      -5.897  -3.146  -8.848  1.00  0.00     0.167 HD
ATOM     60  C   UNL     1      -6.996  -7.369  -9.356  1.00  0.00     0.037 A 
ATOM     61  C   UNL     1      -5.525  -0.523  -9.713  1.00  0.00     0.037 A 
ATOM     62  C   UNL     1      -7.331  -6.741 -10.607  1.00  0.00     0.049 A 
ATOM     63  C   UNL     1      -6.081  -1.286 -10.891  1.00  0.00     0.074 A 
ATOM     64  C   UNL     1      -7.924  -7.303 -11.722  1.00  0.00     0.029 A 
ATOM     65  N   UNL     1      -7.091  -5.408 -10.909  1.00  0.00    -0.354 N 
ATOM     66  N   UNL     1      -6.437  -2.546 -10.973  1.00  0.00    -0.248 NA
ATOM     67  C   UNL     1      -6.268  -0.532 -12.140  1.00  0.00     0.031 C 
ATOM     68  C   UNL     1      -7.986  -6.327 -12.722  1.00  0.00     0.029 A 
ATOM     69  C   UNL     1      -7.498  -5.138 -12.205  1.00  0.00     0.049 A 
ATOM     70  H   UNL     1      -6.691  -4.752 -10.293  1.00  0.00     0.167 HD
ATOM     71  C   UNL     1      -6.923  -2.725 -12.263  1.00  0.00     0.074 A 
ATOM     72  C   UNL     1      -6.827  -1.441 -12.925  1.00  0.00     0.031 C 
ATOM     73  C   UNL     1      -7.407  -3.850 -12.847  1.00  0.00     0.037 A 
BRANCH  60  74
ATOM     74  C   UNL     1      -7.272  -8.836  -9.197  1.00  0.00     0.064 A 
ATOM     75  C   UNL     1      -8.258  -9.314  -8.320  1.00  0.00     0.173 A 
ATOM     76  C   UNL     1      -6.559  -9.777  -9.955  1.00  0.00     0.173 A 
ATOM     77  F   UNL     1      -8.958  -8.459  -7.559  1.00  0.00    -0.203 F 
ATOM     78  C   UNL     1      -8.500 -10.680  -8.189  1.00  0.00     0.198 A 
ATOM     79  C   UNL     1      -6.827 -11.139  -9.847  1.00  0.00     0.198 A 
ATOM     80  F   UNL     1      -5.606  -9.375 -10.810  1.00  0.00    -0.203 F 
ATOM     81  F   UNL     1      -9.409 -11.116  -7.306  1.00  0.00    -0.200 F 
ATOM     82  C   UNL     1      -7.791 -11.590  -8.959  1.00  0.00     0.200 A 
ATOM     83  F   UNL     1      -6.151 -12.015 -10.603  1.00  0.00    -0.200 F 
ATOM     84  F   UNL     1      -8.031 -12.903  -8.839  1.00  0.00    -0.200 F 
ENDBRANCH  60  74
BRANCH  61  85
ATOM     85  C   UNL     1      -5.205   0.925  -9.832  1.00  0.00     0.064 A 
ATOM     86  C   UNL     1      -6.216   1.875 -10.034  1.00  0.00     0.173 A 
ATOM     87  C   UNL     1      -3.881   1.386  -9.778  1.00  0.00     0.173 A 
ATOM     88  F   UNL     1      -7.496   1.483 -10.118  1.00  0.00    -0.203 F 
ATOM     89  C   UNL     1      -5.914   3.226 -10.201  1.00  0.00     0.198 A 
ATOM     90  C   UNL     1      -3.583   2.741  -9.911  1.00  0.00     0.198 A 
ATOM     91  F   UNL     1      -2.874   0.521  -9.588  1.00  0.00    -0.203 F 
ATOM     92  F   UNL     1      -6.896   4.104 -10.447  1.00  0.00    -0.200 F 
ATOM     93  C   UNL     1      -4.598   3.658 -10.133  1.00  0.00     0.200 A 
ATOM     94  F   UNL     1      -2.311   3.155  -9.828  1.00  0.00    -0.200 F 
ATOM     95  F   UNL     1      -4.308   4.957 -10.291  1.00  0.00    -0.200 F 
ENDBRANCH  61  85
BRANCH  73  96
ATOM     96  C   UNL     1      -7.921  -3.736 -14.255  1.00  0.00     0.064 A 
ATOM     97  C   UNL     1      -7.063  -3.525 -15.345  1.00  0.00     0.173 A 
ATOM     98  C   UNL     1      -9.292  -3.888 -14.521  1.00  0.00     0.173 A 
ATOM     99  F   UNL     1      -5.747  -3.362 -15.146  1.00  0.00    -0.203 F 
ATOM    100  C   UNL     1      -7.561  -3.438 -16.642  1.00  0.00     0.198 A 
ATOM    101  C   UNL     1      -9.781  -3.838 -15.823  1.00  0.00     0.198 A 
ATOM    102  F   UNL     1     -10.156  -4.102 -13.518  1.00  0.00    -0.203 F 
ATOM    103  F   UNL     1      -6.729  -3.181 -17.661  1.00  0.00    -0.200 F 
ATOM    104  C   UNL     1      -8.917  -3.603 -16.882  1.00  0.00     0.200 A 
ATOM    105  F   UNL     1     -11.089  -4.017 -16.053  1.00  0.00    -0.200 F 
ATOM    106  F   UNL     1      -9.393  -3.529 -18.132  1.00  0.00    -0.200 F 
ENDBRANCH  73  96
ENDBRANCH  47  48
ENDBRANCH  40  42
ENDBRANCH  39  40
ENDBRANCH  38  39
ENDBRANCH  37  38
ENDBRANCH  36  37
ENDBRANCH  35  36
ENDBRANCH  34  35
ENDBRANCH  33  34
ENDBRANCH   1  33
TORSDOF 25
