REMARK SMILES O=C(OCCOCCOCCOCCOC(=O)c1cccc(CSc2nc(-c3ccccc3)n[nH]2)c1)c1ccc(-c2c3nc(c(-c4c(F)c(F)c(F)c(F)c4F)c4ccc([nH]4)c(-c4c(F)c(F)c(F)c(F)c4F)c4nc(c(-c5c(F)c(F)c(F)c(F)c5F)c5ccc2[nH]5)C=C4)C=C3)cc1
REMARK SMILES IDX 10 1 9 2 8 3 7 4 6 5 5 6 4 7 3 8 2 9 1 10 37 11 38 12 99 13
REMARK SMILES IDX 39 14 98 15 40 16 41 17 42 18 92 19 43 20 97 21 91 22 93 23
REMARK SMILES IDX 44 24 96 25 90 26 89 27 45 29 77 30 57 31 76 32 58 33 61 34
REMARK SMILES IDX 75 35 94 36 59 37 60 38 74 40 95 41 62 42 46 43 47 44 55 45
REMARK SMILES IDX 48 46 49 47 53 48 56 49 50 50 51 51 54 52 52 53 78 54 79 55
REMARK SMILES IDX 87 56 80 57 81 58 85 59 88 60 82 61 83 62 86 63 84 64 63 65
REMARK SMILES IDX 64 66 72 67 65 68 66 69 70 70 73 71 67 72 68 73 71 74 69 75
REMARK SMILES IDX 11 76 12 77 13 78 14 79 15 80 16 81 17 82 18 83 19 84 36 85
REMARK SMILES IDX 20 86 22 87 21 88 23 89 24 90 25 91 26 92 35 93 27 94 34 95
REMARK SMILES IDX 28 97 29 98 33 99 30 100 32 101 31 102
REMARK H PARENT 93 28 61 39 35 96
REMARK Flexibility Score: inf
ROOT
ATOM      1  C   UNL     1       3.856   0.185  -3.809  1.00  0.00     0.188 C 
ENDROOT
BRANCH   1   2
ATOM      2  O   UNL     1       2.436   0.231  -3.898  1.00  0.00    -0.377 OA
BRANCH   2   3
ATOM      3  C   UNL     1       1.734   0.480  -2.683  1.00  0.00     0.188 C 
BRANCH   3   4
ATOM      4  C   UNL     1       2.203  -0.329  -1.474  1.00  0.00     0.188 C 
BRANCH   4   5
ATOM      5  O   UNL     1       3.518   0.050  -1.068  1.00  0.00    -0.376 OA
BRANCH   5   6
ATOM      6  C   UNL     1       4.388  -1.007  -0.663  1.00  0.00     0.202 C 
BRANCH   6   7
ATOM      7  C   UNL     1       4.067  -1.624   0.699  1.00  0.00     0.261 C 
BRANCH   7   8
ATOM      8  O   UNL     1       2.695  -1.471   1.093  1.00  0.00    -0.460 OA
BRANCH   8   9
ATOM      9  C   UNL     1       2.103  -0.435   1.738  1.00  0.00     0.338 C 
ATOM     10  O   UNL     1       0.910  -0.532   2.024  1.00  0.00    -0.246 OA
BRANCH   9  11
ATOM     11  C   UNL     1       2.809   0.817   2.148  1.00  0.00     0.060 A 
ATOM     12  C   UNL     1       3.945   1.343   1.537  1.00  0.00     0.016 A 
ATOM     13  C   UNL     1       2.247   1.545   3.212  1.00  0.00     0.016 A 
ATOM     14  C   UNL     1       4.584   2.469   2.024  1.00  0.00     0.010 A 
ATOM     15  C   UNL     1       2.865   2.701   3.699  1.00  0.00     0.010 A 
ATOM     16  C   UNL     1       4.075   3.122   3.138  1.00  0.00    -0.014 A 
BRANCH  16  17
ATOM     17  C   UNL     1       4.994   4.037   3.836  1.00  0.00     0.031 A 
ATOM     18  C   UNL     1       5.660   3.514   5.075  1.00  0.00     0.074 A 
ATOM     19  C   UNL     1       5.376   5.185   3.253  1.00  0.00     0.049 A 
ATOM     20  N   UNL     1       6.486   4.107   5.893  1.00  0.00    -0.248 NA
ATOM     21  C   UNL     1       5.364   2.115   5.437  1.00  0.00     0.031 C 
ATOM     22  C   UNL     1       4.911   5.665   1.949  1.00  0.00     0.029 A 
ATOM     23  N   UNL     1       6.282   6.128   3.653  1.00  0.00    -0.354 N 
ATOM     24  C   UNL     1       6.757   3.176   6.887  1.00  0.00     0.074 A 
ATOM     25  C   UNL     1       6.018   1.977   6.576  1.00  0.00     0.031 C 
ATOM     26  C   UNL     1       5.563   6.798   1.643  1.00  0.00     0.029 A 
ATOM     27  C   UNL     1       6.423   7.163   2.762  1.00  0.00     0.049 A 
ATOM     28  H   UNL     1       6.785   6.070   4.497  1.00  0.00     0.167 HD
ATOM     29  C   UNL     1       7.551   3.327   7.971  1.00  0.00     0.037 A 
ATOM     30  C   UNL     1       7.145   8.292   2.875  1.00  0.00     0.037 A 
ATOM     31  C   UNL     1       8.292   4.530   8.225  1.00  0.00     0.049 A 
ATOM     32  C   UNL     1       7.944   8.479   4.138  1.00  0.00     0.074 A 
ATOM     33  C   UNL     1       9.077   4.856   9.313  1.00  0.00     0.029 A 
ATOM     34  N   UNL     1       8.339   5.610   7.350  1.00  0.00    -0.354 N 
ATOM     35  N   UNL     1       8.115   7.649   5.141  1.00  0.00    -0.248 NA
ATOM     36  C   UNL     1       8.636   9.762   4.296  1.00  0.00     0.031 C 
ATOM     37  C   UNL     1       9.556   6.157   9.119  1.00  0.00     0.029 A 
ATOM     38  C   UNL     1       9.126   6.614   7.881  1.00  0.00     0.049 A 
ATOM     39  H   UNL     1       7.878   5.654   6.481  1.00  0.00     0.167 HD
ATOM     40  C   UNL     1       8.954   8.293   6.036  1.00  0.00     0.074 A 
ATOM     41  C   UNL     1       9.270   9.581   5.446  1.00  0.00     0.031 C 
ATOM     42  C   UNL     1       9.424   7.870   7.237  1.00  0.00     0.037 A 
BRANCH  29  43
ATOM     43  C   UNL     1       7.552   2.213   8.978  1.00  0.00     0.064 A 
ATOM     44  C   UNL     1       8.129   0.960   8.719  1.00  0.00     0.173 A 
ATOM     45  C   UNL     1       6.897   2.388  10.207  1.00  0.00     0.173 A 
ATOM     46  F   UNL     1       8.735   0.725   7.545  1.00  0.00    -0.203 F 
ATOM     47  C   UNL     1       8.016  -0.085   9.635  1.00  0.00     0.198 A 
ATOM     48  C   UNL     1       6.813   1.351  11.133  1.00  0.00     0.198 A 
ATOM     49  F   UNL     1       6.316   3.560  10.502  1.00  0.00    -0.203 F 
ATOM     50  F   UNL     1       8.507  -1.295   9.333  1.00  0.00    -0.200 F 
ATOM     51  C   UNL     1       7.361   0.112  10.841  1.00  0.00     0.200 A 
ATOM     52  F   UNL     1       6.181   1.546  12.298  1.00  0.00    -0.200 F 
ATOM     53  F   UNL     1       7.241  -0.897  11.715  1.00  0.00    -0.200 F 
ENDBRANCH  29  43
BRANCH  30  54
ATOM     54  C   UNL     1       7.102   9.332   1.810  1.00  0.00     0.064 A 
ATOM     55  C   UNL     1       8.251   9.691   1.092  1.00  0.00     0.173 A 
ATOM     56  C   UNL     1       5.909  10.004   1.498  1.00  0.00     0.173 A 
ATOM     57  F   UNL     1       9.422   9.097   1.361  1.00  0.00    -0.203 F 
ATOM     58  C   UNL     1       8.213  10.693   0.121  1.00  0.00     0.198 A 
ATOM     59  C   UNL     1       5.864  10.981   0.504  1.00  0.00     0.198 A 
ATOM     60  F   UNL     1       4.777   9.707   2.154  1.00  0.00    -0.203 F 
ATOM     61  F   UNL     1       9.338  11.052  -0.512  1.00  0.00    -0.200 F 
ATOM     62  C   UNL     1       7.019  11.332  -0.176  1.00  0.00     0.200 A 
ATOM     63  F   UNL     1       4.704  11.584   0.212  1.00  0.00    -0.200 F 
ATOM     64  F   UNL     1       6.983  12.294  -1.109  1.00  0.00    -0.200 F 
ENDBRANCH  30  54
BRANCH  42  65
ATOM     65  C   UNL     1      10.375   8.785   7.947  1.00  0.00     0.064 A 
ATOM     66  C   UNL     1       9.948   9.979   8.543  1.00  0.00     0.173 A 
ATOM     67  C   UNL     1      11.727   8.431   8.065  1.00  0.00     0.173 A 
ATOM     68  F   UNL     1       8.666  10.364   8.443  1.00  0.00    -0.203 F 
ATOM     69  C   UNL     1      10.850  10.805   9.204  1.00  0.00     0.198 A 
ATOM     70  C   UNL     1      12.618   9.241   8.759  1.00  0.00     0.198 A 
ATOM     71  F   UNL     1      12.179   7.291   7.520  1.00  0.00    -0.203 F 
ATOM     72  F   UNL     1      10.435  11.971   9.718  1.00  0.00    -0.200 F 
ATOM     73  C   UNL     1      12.181  10.432   9.319  1.00  0.00     0.200 A 
ATOM     74  F   UNL     1      13.899   8.869   8.885  1.00  0.00    -0.200 F 
ATOM     75  F   UNL     1      13.047  11.225   9.965  1.00  0.00    -0.200 F 
ENDBRANCH  42  65
ENDBRANCH  16  17
ENDBRANCH   9  11
ENDBRANCH   8   9
ENDBRANCH   7   8
ENDBRANCH   6   7
ENDBRANCH   5   6
ENDBRANCH   4   5
ENDBRANCH   3   4
ENDBRANCH   2   3
ENDBRANCH   1   2
BRANCH   1  76
ATOM     76  C   UNL     1       4.606   1.433  -3.284  1.00  0.00     0.188 C 
BRANCH  76  77
ATOM     77  O   UNL     1       3.755   2.464  -2.811  1.00  0.00    -0.376 OA
BRANCH  77  78
ATOM     78  C   UNL     1       3.605   3.594  -3.662  1.00  0.00     0.202 C 
BRANCH  78  79
ATOM     79  C   UNL     1       3.000   3.376  -5.062  1.00  0.00     0.261 C 
BRANCH  79  80
ATOM     80  O   UNL     1       3.562   2.318  -5.858  1.00  0.00    -0.460 OA
BRANCH  80  81
ATOM     81  C   UNL     1       4.828   2.452  -6.315  1.00  0.00     0.338 C 
ATOM     82  O   UNL     1       5.557   3.418  -6.177  1.00  0.00    -0.246 OA
BRANCH  81  83
ATOM     83  C   UNL     1       5.255   1.108  -6.780  1.00  0.00     0.060 A 
ATOM     84  C   UNL     1       6.375   0.504  -6.189  1.00  0.00     0.016 A 
ATOM     85  C   UNL     1       4.500   0.403  -7.721  1.00  0.00     0.020 A 
ATOM     86  C   UNL     1       6.686  -0.825  -6.478  1.00  0.00     0.001 A 
ATOM     87  C   UNL     1       4.927  -0.867  -8.144  1.00  0.00    -0.037 A 
ATOM     88  C   UNL     1       5.969  -1.507  -7.458  1.00  0.00     0.004 A 
BRANCH  87  89
ATOM     89  C   UNL     1       4.421  -1.439  -9.445  1.00  0.00     0.113 C 
BRANCH  89  90
ATOM     90  S   UNL     1       5.649  -1.268 -10.803  1.00  0.00    -0.082 SA
BRANCH  90  91
ATOM     91  C   UNL     1       6.371   0.280 -10.525  1.00  0.00     0.184 A 
ATOM     92  N   UNL     1       7.647   0.573 -10.455  1.00  0.00    -0.201 NA
ATOM     93  N   UNL     1       5.640   1.412 -10.363  1.00  0.00    -0.254 N 
ATOM     94  C   UNL     1       7.644   1.921 -10.144  1.00  0.00     0.182 A 
ATOM     95  N   UNL     1       6.415   2.457 -10.044  1.00  0.00    -0.153 NA
ATOM     96  H   UNL     1       4.662   1.459 -10.468  1.00  0.00     0.192 HD
BRANCH  94  97
ATOM     97  C   UNL     1       8.863   2.711 -10.031  1.00  0.00     0.021 A 
ATOM     98  C   UNL     1       8.994   3.709  -9.054  1.00  0.00     0.012 A 
ATOM     99  C   UNL     1       9.900   2.521 -10.954  1.00  0.00     0.012 A 
ATOM    100  C   UNL     1      10.139   4.510  -9.011  1.00  0.00     0.001 A 
ATOM    101  C   UNL     1      11.035   3.335 -10.921  1.00  0.00     0.001 A 
ATOM    102  C   UNL     1      11.154   4.329  -9.951  1.00  0.00     0.000 A 
ENDBRANCH  94  97
ENDBRANCH  90  91
ENDBRANCH  89  90
ENDBRANCH  87  89
ENDBRANCH  81  83
ENDBRANCH  80  81
ENDBRANCH  79  80
ENDBRANCH  78  79
ENDBRANCH  77  78
ENDBRANCH  76  77
ENDBRANCH   1  76
TORSDOF 24
