REMARK SMILES O=C(OCCOCCOCCOCCOC(=O)[C@@H]1C[NH2+]CCN1C(=O)N[C@@H]1CCOC1)c1ccc(-c2c3nc(c(-c4c(F)c(F)c(F)c(F)c4F)c4ccc([nH]4)c(-c4c(F)c(F)c(F)c(F)c4F)c4nc(c(-c5c(F)c(F)c(F)c(F)c5F)c5ccc2[nH]5)C=C4)C=C3)cc1
REMARK SMILES IDX 9 1 8 2 7 3 6 4 5 5 4 6 3 7 2 8 1 9 32 10 33 11 94 12 34 13
REMARK SMILES IDX 93 14 35 15 36 16 37 17 87 18 38 19 92 20 86 21 88 22 39 23
REMARK SMILES IDX 91 24 85 25 84 26 40 28 72 29 52 30 71 31 53 32 56 33 70 34
REMARK SMILES IDX 89 35 54 36 55 37 69 39 90 40 57 41 41 42 42 43 50 44 43 45
REMARK SMILES IDX 44 46 48 47 51 48 45 49 46 50 49 51 47 52 73 53 74 54 82 55
REMARK SMILES IDX 75 56 76 57 80 58 83 59 77 60 78 61 81 62 79 63 58 64 59 65
REMARK SMILES IDX 67 66 60 67 61 68 65 69 68 70 62 71 63 72 66 73 64 74 10 75
REMARK SMILES IDX 11 76 12 77 13 78 14 79 15 80 16 81 17 82 18 83 19 84 23 85
REMARK SMILES IDX 20 86 22 87 21 88 24 91 25 92 26 93 27 95 28 96 31 97 29 98
REMARK SMILES IDX 30 99
REMARK H PARENT 88 27 56 38 20 89 20 90 26 94
REMARK Flexibility Score: inf
ROOT
ATOM      1  O   UNL     1       2.814   1.047   3.833  1.00  0.00    -0.377 OA
ENDROOT
BRANCH   1   2
ATOM      2  C   UNL     1       1.955   1.050   2.689  1.00  0.00     0.188 C 
BRANCH   2   3
ATOM      3  C   UNL     1       2.401   1.163   1.223  1.00  0.00     0.188 C 
BRANCH   3   4
ATOM      4  O   UNL     1       3.716   0.731   0.970  1.00  0.00    -0.376 OA
BRANCH   4   5
ATOM      5  C   UNL     1       4.471   1.392  -0.038  1.00  0.00     0.202 C 
BRANCH   5   6
ATOM      6  C   UNL     1       4.029   1.184  -1.483  1.00  0.00     0.261 C 
BRANCH   6   7
ATOM      7  O   UNL     1       2.659   0.787  -1.623  1.00  0.00    -0.460 OA
BRANCH   7   8
ATOM      8  C   UNL     1       2.130  -0.450  -1.480  1.00  0.00     0.338 C 
ATOM      9  O   UNL     1       0.910  -0.589  -1.548  1.00  0.00    -0.246 OA
BRANCH   8  10
ATOM     10  C   UNL     1       2.939  -1.676  -1.258  1.00  0.00     0.060 A 
ATOM     11  C   UNL     1       3.977  -1.798  -0.336  1.00  0.00     0.016 A 
ATOM     12  C   UNL     1       2.514  -2.830  -1.925  1.00  0.00     0.016 A 
ATOM     13  C   UNL     1       4.661  -2.979  -0.151  1.00  0.00     0.010 A 
ATOM     14  C   UNL     1       3.145  -4.052  -1.693  1.00  0.00     0.010 A 
ATOM     15  C   UNL     1       4.246  -4.112  -0.828  1.00  0.00    -0.014 A 
BRANCH  15  16
ATOM     16  C   UNL     1       5.111  -5.292  -0.748  1.00  0.00     0.031 A 
ATOM     17  C   UNL     1       5.884  -5.645  -1.973  1.00  0.00     0.074 A 
ATOM     18  C   UNL     1       5.292  -5.919   0.427  1.00  0.00     0.049 A 
ATOM     19  N   UNL     1       6.596  -6.705  -2.223  1.00  0.00    -0.248 NA
ATOM     20  C   UNL     1       5.846  -4.665  -3.077  1.00  0.00     0.031 C 
ATOM     21  C   UNL     1       4.707  -5.509   1.708  1.00  0.00     0.029 A 
ATOM     22  N   UNL     1       6.037  -7.020   0.740  1.00  0.00    -0.354 N 
ATOM     23  C   UNL     1       7.040  -6.547  -3.526  1.00  0.00     0.074 A 
ATOM     24  C   UNL     1       6.511  -5.301  -4.026  1.00  0.00     0.031 C 
ATOM     25  C   UNL     1       5.122  -6.349   2.669  1.00  0.00     0.029 A 
ATOM     26  C   UNL     1       5.912  -7.405   2.052  1.00  0.00     0.049 A 
ATOM     27  H   UNL     1       6.607  -7.491   0.089  1.00  0.00     0.167 HD
ATOM     28  C   UNL     1       7.819  -7.392  -4.232  1.00  0.00     0.037 A 
ATOM     29  C   UNL     1       6.340  -8.529   2.652  1.00  0.00     0.037 A 
ATOM     30  C   UNL     1       8.331  -8.614  -3.679  1.00  0.00     0.049 A 
ATOM     31  C   UNL     1       7.092  -9.519   1.801  1.00  0.00     0.074 A 
ATOM     32  C   UNL     1       9.095  -9.586  -4.290  1.00  0.00     0.029 A 
ATOM     33  N   UNL     1       8.119  -9.025  -2.367  1.00  0.00    -0.354 N 
ATOM     34  N   UNL     1       7.450  -9.424   0.541  1.00  0.00    -0.248 NA
ATOM     35  C   UNL     1       7.489 -10.774   2.445  1.00  0.00     0.031 C 
ATOM     36  C   UNL     1       9.274 -10.625  -3.374  1.00  0.00     0.029 A 
ATOM     37  C   UNL     1       8.710 -10.256  -2.160  1.00  0.00     0.049 A 
ATOM     38  H   UNL     1       7.622  -8.514  -1.688  1.00  0.00     0.167 HD
ATOM     39  C   UNL     1       8.149 -10.585   0.252  1.00  0.00     0.074 A 
ATOM     40  C   UNL     1       8.175 -11.362   1.476  1.00  0.00     0.031 C 
ATOM     41  C   UNL     1       8.722 -10.981  -0.913  1.00  0.00     0.037 A 
BRANCH  28  42
ATOM     42  C   UNL     1       8.068  -7.064  -5.671  1.00  0.00     0.064 A 
ATOM     43  C   UNL     1       8.841  -5.963  -6.072  1.00  0.00     0.173 A 
ATOM     44  C   UNL     1       7.495  -7.862  -6.673  1.00  0.00     0.173 A 
ATOM     45  F   UNL     1       9.379  -5.144  -5.155  1.00  0.00    -0.203 F 
ATOM     46  C   UNL     1       9.009  -5.661  -7.421  1.00  0.00     0.198 A 
ATOM     47  C   UNL     1       7.698  -7.581  -8.019  1.00  0.00     0.198 A 
ATOM     48  F   UNL     1       6.728  -8.913  -6.344  1.00  0.00    -0.203 F 
ATOM     49  F   UNL     1       9.692  -4.566  -7.780  1.00  0.00    -0.200 F 
ATOM     50  C   UNL     1       8.447  -6.476  -8.393  1.00  0.00     0.200 A 
ATOM     51  F   UNL     1       7.158  -8.373  -8.955  1.00  0.00    -0.200 F 
ATOM     52  F   UNL     1       8.616  -6.188  -9.690  1.00  0.00    -0.200 F 
ENDBRANCH  28  42
BRANCH  29  53
ATOM     53  C   UNL     1       6.008  -8.812   4.075  1.00  0.00     0.064 A 
ATOM     54  C   UNL     1       7.015  -8.995   5.034  1.00  0.00     0.173 A 
ATOM     55  C   UNL     1       4.678  -8.962   4.500  1.00  0.00     0.173 A 
ATOM     56  F   UNL     1       8.303  -8.878   4.681  1.00  0.00    -0.203 F 
ATOM     57  C   UNL     1       6.707  -9.361   6.343  1.00  0.00     0.198 A 
ATOM     58  C   UNL     1       4.370  -9.286   5.820  1.00  0.00     0.198 A 
ATOM     59  F   UNL     1       3.668  -8.797   3.632  1.00  0.00    -0.203 F 
ATOM     60  F   UNL     1       7.694  -9.608   7.215  1.00  0.00    -0.200 F 
ATOM     61  C   UNL     1       5.385  -9.504   6.736  1.00  0.00     0.200 A 
ATOM     62  F   UNL     1       3.089  -9.403   6.197  1.00  0.00    -0.200 F 
ATOM     63  F   UNL     1       5.091  -9.868   7.991  1.00  0.00    -0.200 F 
ENDBRANCH  29  53
BRANCH  41  64
ATOM     64  C   UNL     1       9.481 -12.274  -0.892  1.00  0.00     0.064 A 
ATOM     65  C   UNL     1       8.840 -13.511  -0.749  1.00  0.00     0.173 A 
ATOM     66  C   UNL     1      10.873 -12.267  -1.079  1.00  0.00     0.173 A 
ATOM     67  F   UNL     1       7.513 -13.568  -0.559  1.00  0.00    -0.203 F 
ATOM     68  C   UNL     1       9.570 -14.694  -0.754  1.00  0.00     0.198 A 
ATOM     69  C   UNL     1      11.591 -13.454  -1.135  1.00  0.00     0.198 A 
ATOM     70  F   UNL     1      11.530 -11.107  -1.236  1.00  0.00    -0.203 F 
ATOM     71  F   UNL     1       8.948 -15.863  -0.548  1.00  0.00    -0.200 F 
ATOM     72  C   UNL     1      10.942 -14.666  -0.959  1.00  0.00     0.200 A 
ATOM     73  F   UNL     1      12.911 -13.424  -1.364  1.00  0.00    -0.200 F 
ATOM     74  F   UNL     1      11.641 -15.809  -0.983  1.00  0.00    -0.200 F 
ENDBRANCH  41  64
ENDBRANCH  15  16
ENDBRANCH   8  10
ENDBRANCH   7   8
ENDBRANCH   6   7
ENDBRANCH   5   6
ENDBRANCH   4   5
ENDBRANCH   3   4
ENDBRANCH   2   3
ENDBRANCH   1   2
BRANCH   1  75
ATOM     75  C   UNL     1       4.153   1.637   3.913  1.00  0.00     0.188 C 
BRANCH  75  76
ATOM     76  C   UNL     1       6.076   0.696   4.408  1.00  0.00     0.188 C 
BRANCH  76  77
ATOM     77  O   UNL     1       5.762  -1.208   4.034  1.00  0.00    -0.376 OA
BRANCH  77  78
ATOM     78  C   UNL     1       3.907  -1.573   3.838  1.00  0.00     0.202 C 
BRANCH  78  79
ATOM     79  C   UNL     1       2.534  -0.951   5.029  1.00  0.00     0.261 C 
BRANCH  79  80
ATOM     80  O   UNL     1       2.412   0.582   5.973  1.00  0.00    -0.462 OA
BRANCH  80  81
ATOM     81  C   UNL     1       3.022   1.884   6.342  1.00  0.00     0.334 C 
ATOM     82  O   UNL     1       2.512   2.394   7.357  1.00  0.00    -0.250 OA
BRANCH  81  83
ATOM     83  C   UNL     1       4.462   2.889   5.659  1.00  0.00     0.252 C 
ATOM     84  C   UNL     1       3.765   4.306   5.432  1.00  0.00     0.298 C 
ATOM     85  N   UNL     1       5.762   2.819   4.322  1.00  0.00    -0.300 N 
ATOM     86  N   UNL     1       4.698   5.432   5.277  1.00  0.00    -0.343 N 
ATOM     87  C   UNL     1       6.546   4.038   4.241  1.00  0.00     0.183 C 
ATOM     88  C   UNL     1       5.613   5.256   4.134  1.00  0.00     0.282 C 
ATOM     89  H   UNL     1       5.252   5.517   6.129  1.00  0.00     0.346 HD
ATOM     90  H   UNL     1       4.144   6.270   5.103  1.00  0.00     0.346 HD
BRANCH  85  91
ATOM     91  C   UNL     1       5.851   1.852   2.793  1.00  0.00     0.318 C 
ATOM     92  O   UNL     1       6.566   2.090   1.834  1.00  0.00    -0.249 OA
ATOM     93  N   UNL     1       4.983   0.231   3.188  1.00  0.00    -0.333 N 
ATOM     94  H   UNL     1       4.666  -0.371   2.477  1.00  0.00     0.165 HD
BRANCH  93  95
ATOM     95  C   UNL     1       4.722  -0.230   5.208  1.00  0.00     0.112 C 
ATOM     96  C   UNL     1       5.476   0.379   6.675  1.00  0.00     0.056 C 
ATOM     97  C   UNL     1       4.928  -1.776   6.040  1.00  0.00     0.185 C 
ATOM     98  C   UNL     1       6.555  -0.578   7.141  1.00  0.00     0.162 C 
ATOM     99  O   UNL     1       6.194  -1.861   6.702  1.00  0.00    -0.379 OA
ENDBRANCH  93  95
ENDBRANCH  85  91
ENDBRANCH  81  83
ENDBRANCH  80  81
ENDBRANCH  79  80
ENDBRANCH  78  79
ENDBRANCH  77  78
ENDBRANCH  76  77
ENDBRANCH  75  76
ENDBRANCH   1  75
TORSDOF 22
