REMARK SMILES C/C=C/C=C/C(=O)N[C@@H](C)CC(=O)OCCOCCOCCOCCOC(=O)c1ccc(-c2c3nc(c(-c4c(F)c(F)c(F)c(F)c4F)c4ccc([nH]4)c(-c4c(F)c(F)c(F)c(F)c4F)c4nc(c(-c5c(F)c(F)c(F)c(F)c5F)c5ccc2[nH]5)C=C4)C=C3)cc1
REMARK SMILES IDX 19 1 18 2 17 3 16 4 15 5 14 6 12 7 13 8 11 9 9 10 10 11 8 12
REMARK SMILES IDX 6 13 7 14 5 16 4 17 3 18 1 19 2 20 20 21 21 22 22 23 23 24
REMARK SMILES IDX 24 25 25 26 26 27 27 28 28 29 29 30 30 31 91 32 31 33 90 34
REMARK SMILES IDX 32 35 33 36 34 37 84 38 35 39 89 40 83 41 85 42 36 43 88 44
REMARK SMILES IDX 82 45 81 46 37 48 69 49 49 50 68 51 50 52 53 53 67 54 86 55
REMARK SMILES IDX 51 56 52 57 66 59 87 60 54 61 38 62 39 63 47 64 40 65 41 66
REMARK SMILES IDX 45 67 48 68 42 69 43 70 46 71 44 72 70 73 71 74 79 75 72 76
REMARK SMILES IDX 73 77 77 78 80 79 74 80 75 81 78 82 76 83 55 84 56 85 64 86
REMARK SMILES IDX 57 87 58 88 62 89 65 90 59 91 60 92 63 93 61 94
REMARK H PARENT 8 15 85 47 53 58
REMARK Flexibility Score: inf
ROOT
ATOM      1  C   UNL     1      -2.405  -1.468   2.455  1.00  0.00     0.188 C 
ENDROOT
BRANCH   1   2
ATOM      2  C   UNL     1      -3.385  -2.640   2.375  1.00  0.00     0.188 C 
BRANCH   2   3
ATOM      3  O   UNL     1      -4.758  -2.337   2.215  1.00  0.00    -0.376 OA
BRANCH   3   4
ATOM      4  C   UNL     1      -5.462  -1.750   3.307  1.00  0.00     0.202 C 
BRANCH   4   5
ATOM      5  C   UNL     1      -5.182  -2.191   4.754  1.00  0.00     0.261 C 
BRANCH   5   6
ATOM      6  O   UNL     1      -3.896  -1.809   5.300  1.00  0.00    -0.463 OA
BRANCH   6   7
ATOM      7  C   UNL     1      -3.100  -2.826   5.711  1.00  0.00     0.307 C 
ATOM      8  O   UNL     1      -3.368  -4.016   5.556  1.00  0.00    -0.252 OA
BRANCH   7   9
ATOM      9  C   UNL     1      -1.901  -2.413   6.533  1.00  0.00     0.147 C 
BRANCH   9  10
ATOM     10  C   UNL     1      -0.946  -1.317   6.040  1.00  0.00     0.090 C 
ATOM     11  C   UNL     1       0.381  -1.485   6.806  1.00  0.00     0.031 C 
BRANCH  10  12
ATOM     12  N   UNL     1      -1.430   0.037   6.290  1.00  0.00    -0.350 N 
ATOM     13  C   UNL     1      -1.135   1.225   5.697  1.00  0.00     0.244 C 
ATOM     14  O   UNL     1      -1.657   2.249   6.143  1.00  0.00    -0.270 OA
ATOM     15  H   UNL     1      -2.087   0.102   7.020  1.00  0.00     0.164 HD
BRANCH  13  16
ATOM     16  C   UNL     1      -0.300   1.353   4.472  1.00  0.00     0.071 C 
ATOM     17  C   UNL     1       0.676   0.572   3.990  1.00  0.00     0.005 C 
BRANCH  17  18
ATOM     18  C   UNL     1       1.246   0.781   2.675  1.00  0.00    -0.004 C 
ATOM     19  C   UNL     1       1.942  -0.134   0.443  1.00  0.00     0.035 C 
ATOM     20  C   UNL     1       1.553  -0.257   1.881  1.00  0.00    -0.030 C 
ENDBRANCH  17  18
ENDBRANCH  13  16
ENDBRANCH  10  12
ENDBRANCH   9  10
ENDBRANCH   7   9
ENDBRANCH   6   7
ENDBRANCH   5   6
ENDBRANCH   4   5
ENDBRANCH   3   4
ENDBRANCH   2   3
ENDBRANCH   1   2
BRANCH   1  21
ATOM     21  O   UNL     1      -2.808  -0.391   3.281  1.00  0.00    -0.377 OA
BRANCH  21  22
ATOM     22  C   UNL     1      -3.364   0.791   2.705  1.00  0.00     0.188 C 
BRANCH  22  23
ATOM     23  C   UNL     1      -3.768   0.808   1.224  1.00  0.00     0.188 C 
BRANCH  23  24
ATOM     24  O   UNL     1      -2.752   0.680   0.227  1.00  0.00    -0.376 OA
BRANCH  24  25
ATOM     25  C   UNL     1      -1.427   1.094   0.542  1.00  0.00     0.202 C 
BRANCH  25  26
ATOM     26  C   UNL     1      -1.105   2.543   0.215  1.00  0.00     0.261 C 
BRANCH  26  27
ATOM     27  O   UNL     1      -1.799   3.412   1.118  1.00  0.00    -0.460 OA
BRANCH  27  28
ATOM     28  C   UNL     1      -2.875   4.014   0.578  1.00  0.00     0.338 C 
ATOM     29  O   UNL     1      -3.231   3.992  -0.596  1.00  0.00    -0.246 OA
BRANCH  28  30
ATOM     30  C   UNL     1      -3.700   4.606   1.637  1.00  0.00     0.060 A 
ATOM     31  C   UNL     1      -5.084   4.454   1.509  1.00  0.00     0.016 A 
ATOM     32  C   UNL     1      -3.151   5.355   2.683  1.00  0.00     0.016 A 
ATOM     33  C   UNL     1      -5.932   5.121   2.375  1.00  0.00     0.010 A 
ATOM     34  C   UNL     1      -4.007   6.032   3.554  1.00  0.00     0.010 A 
ATOM     35  C   UNL     1      -5.396   5.958   3.362  1.00  0.00    -0.014 A 
BRANCH  35  36
ATOM     36  C   UNL     1      -6.319   6.891   4.038  1.00  0.00     0.031 A 
ATOM     37  C   UNL     1      -6.426   8.295   3.512  1.00  0.00     0.074 A 
ATOM     38  C   UNL     1      -7.125   6.445   5.016  1.00  0.00     0.049 A 
ATOM     39  N   UNL     1      -7.233   9.257   3.877  1.00  0.00    -0.248 NA
ATOM     40  C   UNL     1      -5.508   8.665   2.421  1.00  0.00     0.031 C 
ATOM     41  C   UNL     1      -7.116   5.086   5.558  1.00  0.00     0.029 A 
ATOM     42  N   UNL     1      -8.115   7.082   5.713  1.00  0.00    -0.354 N 
ATOM     43  C   UNL     1      -6.914  10.342   3.069  1.00  0.00     0.074 A 
ATOM     44  C   UNL     1      -5.829   9.933   2.208  1.00  0.00     0.031 C 
ATOM     45  C   UNL     1      -8.061   4.992   6.508  1.00  0.00     0.029 A 
ATOM     46  C   UNL     1      -8.717   6.288   6.657  1.00  0.00     0.049 A 
ATOM     47  H   UNL     1      -8.371   8.019   5.554  1.00  0.00     0.167 HD
ATOM     48  C   UNL     1      -7.488  11.566   3.051  1.00  0.00     0.037 A 
ATOM     49  C   UNL     1      -9.678   6.591   7.550  1.00  0.00     0.037 A 
ATOM     50  C   UNL     1      -8.581  11.948   3.904  1.00  0.00     0.049 A 
ATOM     51  C   UNL     1     -10.265   7.980   7.530  1.00  0.00     0.074 A 
ATOM     52  C   UNL     1      -9.266  13.149   3.943  1.00  0.00     0.029 A 
ATOM     53  N   UNL     1      -9.141  11.132   4.877  1.00  0.00    -0.354 N 
ATOM     54  N   UNL     1      -9.994   8.984   6.730  1.00  0.00    -0.248 NA
ATOM     55  C   UNL     1     -11.298   8.274   8.531  1.00  0.00     0.031 C 
ATOM     56  C   UNL     1     -10.196  13.083   4.985  1.00  0.00     0.029 A 
ATOM     57  C   UNL     1     -10.137  11.818   5.550  1.00  0.00     0.049 A 
ATOM     58  H   UNL     1      -8.870  10.204   5.061  1.00  0.00     0.167 HD
ATOM     59  C   UNL     1     -10.837  10.018   7.114  1.00  0.00     0.074 A 
ATOM     60  C   UNL     1     -11.650   9.508   8.199  1.00  0.00     0.031 C 
ATOM     61  C   UNL     1     -10.931  11.279   6.624  1.00  0.00     0.037 A 
BRANCH  48  62
ATOM     62  C   UNL     1      -6.932  12.596   2.112  1.00  0.00     0.064 A 
ATOM     63  C   UNL     1      -7.140  12.531   0.727  1.00  0.00     0.173 A 
ATOM     64  C   UNL     1      -6.242  13.708   2.621  1.00  0.00     0.173 A 
ATOM     65  F   UNL     1      -7.778  11.482   0.187  1.00  0.00    -0.203 F 
ATOM     66  C   UNL     1      -6.673  13.540  -0.115  1.00  0.00     0.198 A 
ATOM     67  C   UNL     1      -5.801  14.726   1.781  1.00  0.00     0.198 A 
ATOM     68  F   UNL     1      -6.015  13.816   3.939  1.00  0.00    -0.203 F 
ATOM     69  F   UNL     1      -6.859  13.446  -1.439  1.00  0.00    -0.200 F 
ATOM     70  C   UNL     1      -6.016  14.641   0.414  1.00  0.00     0.200 A 
ATOM     71  F   UNL     1      -5.177  15.794   2.296  1.00  0.00    -0.200 F 
ATOM     72  F   UNL     1      -5.587  15.620  -0.395  1.00  0.00    -0.200 F 
ENDBRANCH  48  62
BRANCH  49  73
ATOM     73  C   UNL     1     -10.120   5.585   8.552  1.00  0.00     0.064 A 
ATOM     74  C   UNL     1     -11.433   5.097   8.573  1.00  0.00     0.173 A 
ATOM     75  C   UNL     1      -9.242   5.127   9.548  1.00  0.00     0.173 A 
ATOM     76  F   UNL     1     -12.319   5.516   7.656  1.00  0.00    -0.203 F 
ATOM     77  C   UNL     1     -11.862   4.222   9.570  1.00  0.00     0.198 A 
ATOM     78  C   UNL     1      -9.661   4.223  10.521  1.00  0.00     0.198 A 
ATOM     79  F   UNL     1      -7.973   5.559   9.576  1.00  0.00    -0.203 F 
ATOM     80  F   UNL     1     -13.142   3.826   9.606  1.00  0.00    -0.200 F 
ATOM     81  C   UNL     1     -10.975   3.783  10.541  1.00  0.00     0.200 A 
ATOM     82  F   UNL     1      -8.795   3.791  11.448  1.00  0.00    -0.200 F 
ATOM     83  F   UNL     1     -11.389   2.948  11.503  1.00  0.00    -0.200 F 
ENDBRANCH  49  73
BRANCH  61  84
ATOM     84  C   UNL     1     -11.966  12.175   7.242  1.00  0.00     0.064 A 
ATOM     85  C   UNL     1     -11.832  12.660   8.551  1.00  0.00     0.173 A 
ATOM     86  C   UNL     1     -13.092  12.571   6.505  1.00  0.00     0.173 A 
ATOM     87  F   UNL     1     -10.779  12.300   9.301  1.00  0.00    -0.203 F 
ATOM     88  C   UNL     1     -12.809  13.476   9.114  1.00  0.00     0.198 A 
ATOM     89  C   UNL     1     -14.047  13.418   7.058  1.00  0.00     0.198 A 
ATOM     90  F   UNL     1     -13.261  12.146   5.244  1.00  0.00    -0.203 F 
ATOM     91  F   UNL     1     -12.693  13.873  10.389  1.00  0.00    -0.200 F 
ATOM     92  C   UNL     1     -13.911  13.859   8.365  1.00  0.00     0.200 A 
ATOM     93  F   UNL     1     -15.102  13.804   6.327  1.00  0.00    -0.200 F 
ATOM     94  F   UNL     1     -14.849  14.647   8.908  1.00  0.00    -0.200 F 
ENDBRANCH  61  84
ENDBRANCH  35  36
ENDBRANCH  28  30
ENDBRANCH  27  28
ENDBRANCH  26  27
ENDBRANCH  25  26
ENDBRANCH  24  25
ENDBRANCH  23  24
ENDBRANCH  22  23
ENDBRANCH  21  22
ENDBRANCH   1  21
TORSDOF 24
