REMARK SMILES COc1ccc(-n2c(SCc3cn(-c4ccc(C(=O)OCCOCCOCCOCCOC(=O)c5ccc(-c6c7nc(c(-c8c(F)c(F)c(F)c(F)c8F)c8ccc([nH]8)c(-c8c(F)c(F)c(F)c(F)c8F)c8nc(c(-c9c(F)c(F)c(F)c(F)c9F)c9ccc6[nH]9)C=C8)C=C7)cc5)cc4)nn3)nc3ccccc3c2=O)cc1
REMARK SMILES IDX 24 1 23 2 22 3 21 4 20 5 18 6 19 7 17 8 14 9 15 10 99 11
REMARK SMILES IDX 16 12 98 13 13 14 11 15 12 16 101 17 100 18 10 19 9 20 8 21
REMARK SMILES IDX 7 22 109 23 102 24 108 25 110 26 103 27 107 28 104 29 106 30
REMARK SMILES IDX 105 31 6 32 3 33 4 34 112 35 5 36 111 37 2 38 1 39 25 40
REMARK SMILES IDX 26 41 27 42 28 43 29 44 30 45 31 46 32 47 33 48 34 49 35 50
REMARK SMILES IDX 36 51 97 52 37 53 96 54 38 55 39 56 40 57 90 58 41 59 95 60
REMARK SMILES IDX 89 61 91 62 42 63 94 64 88 65 87 66 43 68 75 69 55 70 74 71
REMARK SMILES IDX 56 72 59 73 73 74 92 75 57 76 58 77 72 79 93 80 60 81 44 82
REMARK SMILES IDX 45 83 53 84 46 85 47 86 51 87 54 88 48 89 49 90 52 91 50 92
REMARK SMILES IDX 76 93 77 94 85 95 78 96 79 97 83 98 86 99 80 100 81 101
REMARK SMILES IDX 84 102 82 103 61 104 62 105 70 106 63 107 64 108 68 109
REMARK SMILES IDX 71 110 65 111 66 112 69 113 67 114
REMARK H PARENT 91 67 59 78
REMARK Flexibility Score: inf
ROOT
ATOM      1  C   UNL     1      -3.969   2.130   5.173  1.00  0.00     0.188 C 
ENDROOT
BRANCH   1   2
ATOM      2  O   UNL     1      -4.647   1.242   6.041  1.00  0.00    -0.376 OA
BRANCH   2   3
ATOM      3  C   UNL     1      -4.894  -0.090   5.655  1.00  0.00     0.202 C 
BRANCH   3   4
ATOM      4  C   UNL     1      -3.711  -0.989   5.286  1.00  0.00     0.261 C 
BRANCH   4   5
ATOM      5  O   UNL     1      -2.684  -0.376   4.509  1.00  0.00    -0.460 OA
BRANCH   5   6
ATOM      6  C   UNL     1      -2.933  -0.157   3.204  1.00  0.00     0.338 C 
ATOM      7  O   UNL     1      -3.947  -0.446   2.580  1.00  0.00    -0.246 OA
BRANCH   6   8
ATOM      8  C   UNL     1      -1.842   0.704   2.711  1.00  0.00     0.060 A 
ATOM      9  C   UNL     1       0.173   2.428   1.933  1.00  0.00     0.066 A 
ATOM     10  C   UNL     1      -1.146   2.708   1.555  1.00  0.00     0.029 A 
ATOM     11  C   UNL     1       0.484   1.327   2.739  1.00  0.00     0.029 A 
ATOM     12  C   UNL     1      -2.154   1.821   1.923  1.00  0.00     0.018 A 
ATOM     13  C   UNL     1      -0.529   0.472   3.139  1.00  0.00     0.018 A 
BRANCH   9  14
ATOM     14  N   UNL     1       1.218   3.204   1.414  1.00  0.00    -0.220 N 
ATOM     15  C   UNL     1       3.073   3.824   0.493  1.00  0.00     0.093 A 
ATOM     16  C   UNL     1       2.498   2.782   1.172  1.00  0.00     0.141 A 
ATOM     17  N   UNL     1       2.182   4.861   0.436  1.00  0.00    -0.134 NA
ATOM     18  N   UNL     1       1.038   4.457   0.957  1.00  0.00    -0.062 NA
BRANCH  15  19
ATOM     19  C   UNL     1       4.387   3.846  -0.169  1.00  0.00     0.138 C 
BRANCH  19  20
ATOM     20  S   UNL     1       4.903   5.464  -0.689  1.00  0.00    -0.081 SA
BRANCH  20  21
ATOM     21  C   UNL     1       3.531   6.067  -1.704  1.00  0.00     0.176 A 
ATOM     22  N   UNL     1       3.373   5.365  -2.888  1.00  0.00    -0.255 N 
ATOM     23  C   UNL     1       4.006   5.890  -4.011  1.00  0.00     0.266 A 
ATOM     24  N   UNL     1       3.439   7.363  -1.726  1.00  0.00    -0.223 NA
ATOM     25  C   UNL     1       4.802   7.126  -3.725  1.00  0.00     0.066 A 
ATOM     26  O   UNL     1       3.996   5.415  -5.142  1.00  0.00    -0.268 OA
ATOM     27  C   UNL     1       4.426   7.873  -2.592  1.00  0.00     0.079 A 
ATOM     28  C   UNL     1       6.010   7.379  -4.367  1.00  0.00     0.016 A 
ATOM     29  C   UNL     1       5.235   8.909  -2.133  1.00  0.00     0.029 A 
ATOM     30  C   UNL     1       6.854   8.368  -3.850  1.00  0.00     0.001 A 
ATOM     31  C   UNL     1       6.463   9.138  -2.748  1.00  0.00     0.002 A 
BRANCH  22  32
ATOM     32  C   UNL     1       2.515   4.237  -2.942  1.00  0.00     0.052 A 
ATOM     33  C   UNL     1       0.997   1.933  -2.461  1.00  0.00     0.119 A 
ATOM     34  C   UNL     1       0.411   3.187  -2.316  1.00  0.00     0.048 A 
ATOM     35  C   UNL     1       2.292   1.825  -2.969  1.00  0.00     0.048 A 
ATOM     36  C   UNL     1       1.179   4.338  -2.524  1.00  0.00     0.030 A 
ATOM     37  C   UNL     1       3.039   2.977  -3.245  1.00  0.00     0.030 A 
BRANCH  33  38
ATOM     38  O   UNL     1       0.248   0.828  -2.166  1.00  0.00    -0.497 OA
ATOM     39  C   UNL     1       0.787   0.077  -1.076  1.00  0.00     0.278 C 
ENDBRANCH  33  38
ENDBRANCH  22  32
ENDBRANCH  20  21
ENDBRANCH  19  20
ENDBRANCH  15  19
ENDBRANCH   9  14
ENDBRANCH   6   8
ENDBRANCH   5   6
ENDBRANCH   4   5
ENDBRANCH   3   4
ENDBRANCH   2   3
ENDBRANCH   1   2
BRANCH   1  40
ATOM     40  C   UNL     1      -2.576   2.546   5.700  1.00  0.00     0.188 C 
BRANCH  40  41
ATOM     41  O   UNL     1      -2.011   1.837   6.795  1.00  0.00    -0.377 OA
BRANCH  41  42
ATOM     42  C   UNL     1      -2.775   1.630   7.982  1.00  0.00     0.188 C 
BRANCH  42  43
ATOM     43  C   UNL     1      -4.021   2.482   8.361  1.00  0.00     0.188 C 
BRANCH  43  44
ATOM     44  O   UNL     1      -4.391   3.485   7.430  1.00  0.00    -0.376 OA
BRANCH  44  45
ATOM     45  C   UNL     1      -4.276   4.864   7.706  1.00  0.00     0.202 C 
BRANCH  45  46
ATOM     46  C   UNL     1      -2.880   5.422   7.948  1.00  0.00     0.261 C 
BRANCH  46  47
ATOM     47  O   UNL     1      -2.054   4.559   8.701  1.00  0.00    -0.460 OA
BRANCH  47  48
ATOM     48  C   UNL     1      -2.404   4.445   9.992  1.00  0.00     0.338 C 
ATOM     49  O   UNL     1      -3.420   4.863  10.528  1.00  0.00    -0.246 OA
BRANCH  48  50
ATOM     50  C   UNL     1      -1.278   3.850  10.708  1.00  0.00     0.060 A 
ATOM     51  C   UNL     1      -1.467   3.699  12.079  1.00  0.00     0.016 A 
ATOM     52  C   UNL     1      -0.007   3.902  10.112  1.00  0.00     0.016 A 
ATOM     53  C   UNL     1      -0.387   3.940  12.883  1.00  0.00     0.010 A 
ATOM     54  C   UNL     1       1.068   4.161  10.917  1.00  0.00     0.010 A 
ATOM     55  C   UNL     1       0.831   4.285  12.280  1.00  0.00    -0.014 A 
BRANCH  55  56
ATOM     56  C   UNL     1       1.890   4.712  13.155  1.00  0.00     0.031 A 
ATOM     57  C   UNL     1       2.423   3.594  13.950  1.00  0.00     0.074 A 
ATOM     58  C   UNL     1       2.331   5.980  13.195  1.00  0.00     0.049 A 
ATOM     59  N   UNL     1       2.311   3.423  15.222  1.00  0.00    -0.248 NA
ATOM     60  C   UNL     1       2.963   2.437  13.220  1.00  0.00     0.031 C 
ATOM     61  C   UNL     1       2.028   7.085  12.284  1.00  0.00     0.029 A 
ATOM     62  N   UNL     1       3.241   6.522  14.044  1.00  0.00    -0.354 N 
ATOM     63  C   UNL     1       2.951   2.221  15.484  1.00  0.00     0.074 A 
ATOM     64  C   UNL     1       3.157   1.574  14.216  1.00  0.00     0.031 C 
ATOM     65  C   UNL     1       2.917   8.084  12.493  1.00  0.00     0.029 A 
ATOM     66  C   UNL     1       3.762   7.735  13.624  1.00  0.00     0.049 A 
ATOM     67  H   UNL     1       3.508   6.089  14.887  1.00  0.00     0.167 HD
ATOM     68  C   UNL     1       3.523   2.009  16.696  1.00  0.00     0.037 A 
ATOM     69  C   UNL     1       4.868   8.335  14.129  1.00  0.00     0.037 A 
ATOM     70  C   UNL     1       2.939   2.858  17.706  1.00  0.00     0.049 A 
ATOM     71  C   UNL     1       5.121   7.747  15.473  1.00  0.00     0.074 A 
ATOM     72  C   UNL     1       1.656   3.041  18.189  1.00  0.00     0.029 A 
ATOM     73  N   UNL     1       3.647   3.961  18.118  1.00  0.00    -0.354 N 
ATOM     74  N   UNL     1       4.359   7.958  16.510  1.00  0.00    -0.248 NA
ATOM     75  C   UNL     1       5.953   6.553  15.548  1.00  0.00     0.031 C 
ATOM     76  C   UNL     1       1.546   4.440  18.444  1.00  0.00     0.029 A 
ATOM     77  C   UNL     1       2.779   5.022  18.155  1.00  0.00     0.049 A 
ATOM     78  H   UNL     1       4.605   3.985  18.345  1.00  0.00     0.167 HD
ATOM     79  C   UNL     1       4.279   6.727  17.146  1.00  0.00     0.074 A 
ATOM     80  C   UNL     1       5.353   5.926  16.564  1.00  0.00     0.031 C 
ATOM     81  C   UNL     1       3.171   6.380  17.864  1.00  0.00     0.037 A 
BRANCH  68  82
ATOM     82  C   UNL     1       4.881   1.372  16.845  1.00  0.00     0.064 A 
ATOM     83  C   UNL     1       5.359   1.102  18.139  1.00  0.00     0.173 A 
ATOM     84  C   UNL     1       5.846   1.314  15.812  1.00  0.00     0.173 A 
ATOM     85  F   UNL     1       4.531   1.146  19.194  1.00  0.00    -0.203 F 
ATOM     86  C   UNL     1       6.716   0.891  18.390  1.00  0.00     0.198 A 
ATOM     87  C   UNL     1       7.188   1.046  16.060  1.00  0.00     0.198 A 
ATOM     88  F   UNL     1       5.566   1.627  14.542  1.00  0.00    -0.203 F 
ATOM     89  F   UNL     1       7.146   0.782  19.654  1.00  0.00    -0.200 F 
ATOM     90  C   UNL     1       7.630   0.872  17.352  1.00  0.00     0.200 A 
ATOM     91  F   UNL     1       8.058   1.051  15.040  1.00  0.00    -0.200 F 
ATOM     92  F   UNL     1       8.939   0.741  17.598  1.00  0.00    -0.200 F 
ENDBRANCH  68  82
BRANCH  69  93
ATOM     93  C   UNL     1       5.891   9.126  13.403  1.00  0.00     0.064 A 
ATOM     94  C   UNL     1       6.837   9.895  14.100  1.00  0.00     0.173 A 
ATOM     95  C   UNL     1       6.136   8.929  12.030  1.00  0.00     0.173 A 
ATOM     96  F   UNL     1       6.707  10.091  15.420  1.00  0.00    -0.203 F 
ATOM     97  C   UNL     1       7.972  10.413  13.466  1.00  0.00     0.198 A 
ATOM     98  C   UNL     1       7.263   9.455  11.397  1.00  0.00     0.198 A 
ATOM     99  F   UNL     1       5.343   8.140  11.291  1.00  0.00    -0.203 F 
ATOM    100  F   UNL     1       8.886  11.086  14.179  1.00  0.00    -0.200 F 
ATOM    101  C   UNL     1       8.188  10.185  12.118  1.00  0.00     0.200 A 
ATOM    102  F   UNL     1       7.478   9.193  10.100  1.00  0.00    -0.200 F 
ATOM    103  F   UNL     1       9.305  10.628  11.524  1.00  0.00    -0.200 F 
ENDBRANCH  69  93
BRANCH  81 104
ATOM    104  C   UNL     1       2.177   7.465  18.171  1.00  0.00     0.064 A 
ATOM    105  C   UNL     1       1.471   8.187  17.193  1.00  0.00     0.173 A 
ATOM    106  C   UNL     1       1.847   7.705  19.511  1.00  0.00     0.173 A 
ATOM    107  F   UNL     1       1.648   7.937  15.889  1.00  0.00    -0.203 F 
ATOM    108  C   UNL     1       0.527   9.149  17.545  1.00  0.00     0.198 A 
ATOM    109  C   UNL     1       0.874   8.637  19.860  1.00  0.00     0.198 A 
ATOM    110  F   UNL     1       2.444   7.003  20.487  1.00  0.00    -0.203 F 
ATOM    111  F   UNL     1      -0.114   9.844  16.593  1.00  0.00    -0.200 F 
ATOM    112  C   UNL     1       0.226   9.371  18.879  1.00  0.00     0.200 A 
ATOM    113  F   UNL     1       0.551   8.811  21.149  1.00  0.00    -0.200 F 
ATOM    114  F   UNL     1      -0.705  10.272  19.219  1.00  0.00    -0.200 F 
ENDBRANCH  81 104
ENDBRANCH  55  56
ENDBRANCH  48  50
ENDBRANCH  47  48
ENDBRANCH  46  47
ENDBRANCH  45  46
ENDBRANCH  44  45
ENDBRANCH  43  44
ENDBRANCH  42  43
ENDBRANCH  41  42
ENDBRANCH  40  41
ENDBRANCH   1  40
TORSDOF 26
