REMARK SMILES O=C(OCCOCCOCCOCCOC(=O)c1cn(C2C[NH+](Cc3cc(F)ccc3F)C2)nn1)c1ccc(-c2c3nc(c(-c4c(F)c(F)c(F)c(F)c4F)c4ccc([nH]4)c(-c4c(F)c(F)c(F)c(F)c4F)c4nc(c(-c5c(F)c(F)c(F)c(F)c5F)c5ccc2[nH]5)C=C4)C=C3)cc1
REMARK SMILES IDX 10 1 9 2 8 3 7 4 6 5 5 6 4 7 3 8 2 9 1 10 36 11 37 12 98 13
REMARK SMILES IDX 38 14 97 15 39 16 40 17 41 18 91 19 42 20 96 21 90 22 92 23
REMARK SMILES IDX 43 24 95 25 89 26 88 27 44 29 76 30 56 31 75 32 57 33 60 34
REMARK SMILES IDX 74 35 93 36 58 37 59 38 73 40 94 41 61 42 45 43 46 44 54 45
REMARK SMILES IDX 47 46 48 47 52 48 55 49 49 50 50 51 53 52 51 53 77 54 78 55
REMARK SMILES IDX 86 56 79 57 80 58 84 59 87 60 81 61 82 62 85 63 83 64 62 65
REMARK SMILES IDX 63 66 71 67 64 68 65 69 69 70 72 71 66 72 67 73 70 74 68 75
REMARK SMILES IDX 11 76 12 77 13 78 14 79 15 80 16 81 17 82 18 83 19 84 35 85
REMARK SMILES IDX 20 86 34 87 21 88 22 89 33 90 23 91 24 93 25 94 26 95 31 96
REMARK SMILES IDX 27 97 30 98 32 99 28 100 29 101
REMARK H PARENT 92 28 60 39 23 92
REMARK Flexibility Score: inf
ROOT
ATOM      1  C   UNL     1       4.109  -2.407   2.771  1.00  0.00     0.188 C 
ENDROOT
BRANCH   1   2
ATOM      2  O   UNL     1       2.801  -2.572   2.270  1.00  0.00    -0.377 OA
BRANCH   2   3
ATOM      3  C   UNL     1       2.376  -1.554   1.380  1.00  0.00     0.188 C 
BRANCH   3   4
ATOM      4  C   UNL     1       2.991  -1.592  -0.029  1.00  0.00     0.188 C 
BRANCH   4   5
ATOM      5  O   UNL     1       4.279  -1.094  -0.374  1.00  0.00    -0.376 OA
BRANCH   5   6
ATOM      6  C   UNL     1       5.055  -0.182   0.372  1.00  0.00     0.202 C 
BRANCH   6   7
ATOM      7  C   UNL     1       4.561   1.231   0.690  1.00  0.00     0.261 C 
BRANCH   7   8
ATOM      8  O   UNL     1       3.171   1.347   0.985  1.00  0.00    -0.460 OA
BRANCH   8   9
ATOM      9  C   UNL     1       2.112   1.427   0.156  1.00  0.00     0.338 C 
ATOM     10  O   UNL     1       0.991   1.443   0.665  1.00  0.00    -0.246 OA
BRANCH   9  11
ATOM     11  C   UNL     1       2.197   1.450  -1.334  1.00  0.00     0.060 A 
ATOM     12  C   UNL     1       3.361   1.505  -2.103  1.00  0.00     0.016 A 
ATOM     13  C   UNL     1       0.958   1.419  -2.004  1.00  0.00     0.016 A 
ATOM     14  C   UNL     1       3.294   1.701  -3.471  1.00  0.00     0.010 A 
ATOM     15  C   UNL     1       0.882   1.573  -3.378  1.00  0.00     0.010 A 
ATOM     16  C   UNL     1       2.053   1.797  -4.091  1.00  0.00    -0.014 A 
BRANCH  16  17
ATOM     17  C   UNL     1       2.046   2.176  -5.493  1.00  0.00     0.031 A 
ATOM     18  C   UNL     1       2.655   1.215  -6.449  1.00  0.00     0.074 A 
ATOM     19  C   UNL     1       1.483   3.331  -5.891  1.00  0.00     0.049 A 
ATOM     20  N   UNL     1       3.607   1.423  -7.302  1.00  0.00    -0.248 NA
ATOM     21  C   UNL     1       2.180  -0.175  -6.407  1.00  0.00     0.031 C 
ATOM     22  C   UNL     1       0.644   4.244  -5.109  1.00  0.00     0.029 A 
ATOM     23  N   UNL     1       1.468   3.882  -7.135  1.00  0.00    -0.354 N 
ATOM     24  C   UNL     1       3.754   0.234  -8.014  1.00  0.00     0.074 A 
ATOM     25  C   UNL     1       2.921  -0.741  -7.360  1.00  0.00     0.031 C 
ATOM     26  C   UNL     1       0.027   5.104  -5.946  1.00  0.00     0.029 A 
ATOM     27  C   UNL     1       0.529   4.888  -7.291  1.00  0.00     0.049 A 
ATOM     28  H   UNL     1       2.071   3.593  -7.858  1.00  0.00     0.167 HD
ATOM     29  C   UNL     1       4.415   0.186  -9.204  1.00  0.00     0.037 A 
ATOM     30  C   UNL     1       0.137   5.441  -8.461  1.00  0.00     0.037 A 
ATOM     31  C   UNL     1       5.341   1.277  -9.339  1.00  0.00     0.049 A 
ATOM     32  C   UNL     1       1.204   5.183  -9.459  1.00  0.00     0.074 A 
ATOM     33  C   UNL     1       6.468   1.683  -8.650  1.00  0.00     0.029 A 
ATOM     34  N   UNL     1       5.005   2.334 -10.145  1.00  0.00    -0.354 N 
ATOM     35  N   UNL     1       2.389   5.726  -9.427  1.00  0.00    -0.248 NA
ATOM     36  C   UNL     1       1.083   4.001 -10.299  1.00  0.00     0.031 C 
ATOM     37  C   UNL     1       6.455   3.106  -8.718  1.00  0.00     0.029 A 
ATOM     38  C   UNL     1       5.336   3.477  -9.466  1.00  0.00     0.049 A 
ATOM     39  H   UNL     1       4.601   2.282 -11.041  1.00  0.00     0.167 HD
ATOM     40  C   UNL     1       3.243   4.740  -9.896  1.00  0.00     0.074 A 
ATOM     41  C   UNL     1       2.374   3.750 -10.522  1.00  0.00     0.031 C 
ATOM     42  C   UNL     1       4.544   4.683  -9.490  1.00  0.00     0.037 A 
BRANCH  29  43
ATOM     43  C   UNL     1       3.991  -0.670 -10.374  1.00  0.00     0.064 A 
ATOM     44  C   UNL     1       2.691  -1.199 -10.525  1.00  0.00     0.173 A 
ATOM     45  C   UNL     1       4.799  -0.714 -11.530  1.00  0.00     0.173 A 
ATOM     46  F   UNL     1       1.784  -1.150  -9.543  1.00  0.00    -0.203 F 
ATOM     47  C   UNL     1       2.226  -1.703 -11.739  1.00  0.00     0.198 A 
ATOM     48  C   UNL     1       4.312  -1.172 -12.758  1.00  0.00     0.198 A 
ATOM     49  F   UNL     1       6.048  -0.225 -11.512  1.00  0.00    -0.203 F 
ATOM     50  F   UNL     1       0.967  -2.156 -11.825  1.00  0.00    -0.200 F 
ATOM     51  C   UNL     1       3.023  -1.659 -12.863  1.00  0.00     0.200 A 
ATOM     52  F   UNL     1       5.074  -1.072 -13.855  1.00  0.00    -0.200 F 
ATOM     53  F   UNL     1       2.531  -2.036 -14.050  1.00  0.00    -0.200 F 
ENDBRANCH  29  43
BRANCH  30  54
ATOM     54  C   UNL     1      -1.224   5.888  -8.836  1.00  0.00     0.064 A 
ATOM     55  C   UNL     1      -2.375   5.330  -8.244  1.00  0.00     0.173 A 
ATOM     56  C   UNL     1      -1.430   6.678  -9.977  1.00  0.00     0.173 A 
ATOM     57  F   UNL     1      -2.282   4.492  -7.201  1.00  0.00    -0.203 F 
ATOM     58  C   UNL     1      -3.650   5.538  -8.768  1.00  0.00     0.198 A 
ATOM     59  C   UNL     1      -2.708   6.874 -10.511  1.00  0.00     0.198 A 
ATOM     60  F   UNL     1      -0.385   7.210 -10.627  1.00  0.00    -0.203 F 
ATOM     61  F   UNL     1      -4.708   4.945  -8.197  1.00  0.00    -0.200 F 
ATOM     62  C   UNL     1      -3.815   6.296  -9.911  1.00  0.00     0.200 A 
ATOM     63  F   UNL     1      -2.857   7.576 -11.642  1.00  0.00    -0.200 F 
ATOM     64  F   UNL     1      -5.031   6.433 -10.457  1.00  0.00    -0.200 F 
ENDBRANCH  30  54
BRANCH  42  65
ATOM     65  C   UNL     1       5.106   5.869  -8.760  1.00  0.00     0.064 A 
ATOM     66  C   UNL     1       6.249   6.493  -9.277  1.00  0.00     0.173 A 
ATOM     67  C   UNL     1       4.651   6.291  -7.499  1.00  0.00     0.173 A 
ATOM     68  F   UNL     1       6.764   6.088 -10.449  1.00  0.00    -0.203 F 
ATOM     69  C   UNL     1       6.907   7.494  -8.569  1.00  0.00     0.198 A 
ATOM     70  C   UNL     1       5.290   7.319  -6.809  1.00  0.00     0.198 A 
ATOM     71  F   UNL     1       3.630   5.673  -6.892  1.00  0.00    -0.203 F 
ATOM     72  F   UNL     1       8.033   8.029  -9.061  1.00  0.00    -0.200 F 
ATOM     73  C   UNL     1       6.423   7.913  -7.340  1.00  0.00     0.200 A 
ATOM     74  F   UNL     1       4.835   7.707  -5.608  1.00  0.00    -0.200 F 
ATOM     75  F   UNL     1       7.067   8.867  -6.653  1.00  0.00    -0.200 F 
ENDBRANCH  42  65
ENDBRANCH  16  17
ENDBRANCH   9  11
ENDBRANCH   8   9
ENDBRANCH   7   8
ENDBRANCH   6   7
ENDBRANCH   5   6
ENDBRANCH   4   5
ENDBRANCH   3   4
ENDBRANCH   2   3
ENDBRANCH   1   2
BRANCH   1  76
ATOM     76  C   UNL     1       5.164  -3.323   2.123  1.00  0.00     0.188 C 
BRANCH  76  77
ATOM     77  O   UNL     1       4.831  -4.425   1.286  1.00  0.00    -0.376 OA
BRANCH  77  78
ATOM     78  C   UNL     1       3.544  -5.015   1.274  1.00  0.00     0.202 C 
BRANCH  78  79
ATOM     79  C   UNL     1       3.036  -5.750   2.522  1.00  0.00     0.261 C 
BRANCH  79  80
ATOM     80  O   UNL     1       3.347  -5.126   3.768  1.00  0.00    -0.458 OA
BRANCH  80  81
ATOM     81  C   UNL     1       4.531  -5.539   4.325  1.00  0.00     0.360 C 
ATOM     82  O   UNL     1       5.212  -6.449   3.925  1.00  0.00    -0.244 OA
BRANCH  81  83
ATOM     83  C   UNL     1       4.934  -4.639   5.396  1.00  0.00     0.190 A 
ATOM     84  C   UNL     1       4.217  -4.187   6.484  1.00  0.00     0.147 A 
ATOM     85  N   UNL     1       6.166  -4.032   5.385  1.00  0.00    -0.123 NA
ATOM     86  N   UNL     1       5.106  -3.381   7.138  1.00  0.00    -0.237 N 
ATOM     87  N   UNL     1       6.226  -3.206   6.415  1.00  0.00    -0.066 NA
BRANCH  86  88
ATOM     88  C   UNL     1       5.064  -2.900   8.478  1.00  0.00     0.218 C 
ATOM     89  C   UNL     1       3.698  -2.616   9.131  1.00  0.00     0.296 C 
ATOM     90  C   UNL     1       5.135  -4.087   9.477  1.00  0.00     0.296 C 
ATOM     91  N   UNL     1       4.088  -3.444  10.290  1.00  0.00    -0.327 N 
ATOM     92  H   UNL     1       3.383  -4.000  10.774  1.00  0.00     0.348 HD
BRANCH  91  93
ATOM     93  C   UNL     1       4.608  -2.696  11.457  1.00  0.00     0.302 C 
BRANCH  93  94
ATOM     94  C   UNL     1       5.862  -1.860  11.314  1.00  0.00     0.045 A 
ATOM     95  C   UNL     1       5.825  -0.574  10.753  1.00  0.00     0.051 A 
ATOM     96  C   UNL     1       7.109  -2.376  11.695  1.00  0.00     0.132 A 
ATOM     97  C   UNL     1       7.011   0.114  10.504  1.00  0.00     0.123 A 
ATOM     98  C   UNL     1       8.293  -1.675  11.467  1.00  0.00     0.043 A 
ATOM     99  F   UNL     1       7.186  -3.588  12.263  1.00  0.00    -0.206 F 
ATOM    100  F   UNL     1       6.961   1.305   9.895  1.00  0.00    -0.207 F 
ATOM    101  C   UNL     1       8.245  -0.428  10.848  1.00  0.00     0.042 A 
ENDBRANCH  93  94
ENDBRANCH  91  93
ENDBRANCH  86  88
ENDBRANCH  81  83
ENDBRANCH  80  81
ENDBRANCH  79  80
ENDBRANCH  78  79
ENDBRANCH  77  78
ENDBRANCH  76  77
ENDBRANCH   1  76
TORSDOF 23
