REMARK SMILES CC(C)[C@H]([NH2+][C@@H](C)C[C@@H]1CCCC[NH2+]1)C(=O)OCCOCCOCCOCCOC(=O)c1ccc(-c2c3nc(c(-c4c(F)c(F)c(F)c(F)c4F)c4ccc([nH]4)c(-c4c(F)c(F)c(F)c(F)c4F)c4nc(c(-c5c(F)c(F)c(F)c(F)c5F)c5ccc2[nH]5)C=C4)C=C3)cc1
REMARK SMILES IDX 22 1 21 2 20 3 19 4 18 5 17 6 15 7 16 8 4 9 2 10 1 11 3 12
REMARK SMILES IDX 5 13 6 16 7 17 8 18 9 19 10 20 14 21 11 22 13 23 12 26 23 27
REMARK SMILES IDX 24 28 25 29 26 30 27 31 28 32 29 33 30 34 31 35 32 36 33 37
REMARK SMILES IDX 94 38 34 39 93 40 35 41 36 42 37 43 87 44 38 45 92 46 86 47
REMARK SMILES IDX 88 48 39 49 91 50 85 51 84 52 40 54 72 55 52 56 71 57 53 58
REMARK SMILES IDX 56 59 70 60 89 61 54 62 55 63 69 65 90 66 57 67 41 68 42 69
REMARK SMILES IDX 50 70 43 71 44 72 48 73 51 74 45 75 46 76 49 77 47 78 73 79
REMARK SMILES IDX 74 80 82 81 75 82 76 83 80 84 83 85 77 86 78 87 81 88 79 89
REMARK SMILES IDX 58 90 59 91 67 92 60 93 61 94 65 95 68 96 62 97 63 98 66 99
REMARK SMILES IDX 64 100
REMARK H PARENT 5 14 5 15 14 24 14 25 88 53 56 64
REMARK Flexibility Score: inf
ROOT
ATOM      1  C   UNL     1      -0.011   0.245  -4.441  1.00  0.00     0.188 C 
ENDROOT
BRANCH   1   2
ATOM      2  C   UNL     1      -1.294  -0.616  -4.481  1.00  0.00     0.188 C 
BRANCH   2   3
ATOM      3  O   UNL     1      -2.518  -0.140  -5.035  1.00  0.00    -0.376 OA
BRANCH   3   4
ATOM      4  C   UNL     1      -2.666   1.228  -5.361  1.00  0.00     0.202 C 
BRANCH   4   5
ATOM      5  C   UNL     1      -2.676   2.243  -4.206  1.00  0.00     0.261 C 
BRANCH   5   6
ATOM      6  O   UNL     1      -1.774   1.998  -3.114  1.00  0.00    -0.459 OA
BRANCH   6   7
ATOM      7  C   UNL     1      -2.255   1.202  -2.122  1.00  0.00     0.365 C 
ATOM      8  O   UNL     1      -3.366   0.675  -2.141  1.00  0.00    -0.245 OA
BRANCH   7   9
ATOM      9  C   UNL     1      -1.342   1.120  -0.883  1.00  0.00     0.296 C 
BRANCH   9  10
ATOM     10  C   UNL     1      -1.541   2.357   0.054  1.00  0.00     0.053 C 
ATOM     11  C   UNL     1      -0.330   2.697   0.929  1.00  0.00     0.014 C 
ATOM     12  C   UNL     1      -2.032   3.631  -0.636  1.00  0.00     0.014 C 
ENDBRANCH   9  10
BRANCH   9  13
ATOM     13  N   UNL     1       0.059   0.670  -1.101  1.00  0.00    -0.332 N 
ATOM     14  H   UNL     1       0.619   1.095  -0.362  1.00  0.00     0.347 HD
ATOM     15  H   UNL     1       0.242   0.955  -2.063  1.00  0.00     0.347 HD
BRANCH  13  16
ATOM     16  C   UNL     1       0.397  -0.774  -1.113  1.00  0.00     0.185 C 
ATOM     17  C   UNL     1       1.927  -0.839  -1.327  1.00  0.00     0.075 C 
BRANCH  16  18
ATOM     18  C   UNL     1       0.068  -1.709   0.096  1.00  0.00     0.129 C 
BRANCH  18  19
ATOM     19  C   UNL     1      -1.434  -1.966   0.295  1.00  0.00     0.188 C 
ATOM     20  C   UNL     1      -1.979  -1.168   1.492  1.00  0.00     0.065 C 
ATOM     21  N   UNL     1      -1.804  -3.369   0.557  1.00  0.00    -0.344 N 
ATOM     22  C   UNL     1      -3.497  -1.130   1.376  1.00  0.00     0.012 C 
ATOM     23  C   UNL     1      -3.273  -3.505   0.473  1.00  0.00     0.260 C 
ATOM     24  H   UNL     1      -1.489  -3.638   1.489  1.00  0.00     0.346 HD
ATOM     25  H   UNL     1      -1.363  -3.976  -0.135  1.00  0.00     0.346 HD
ATOM     26  C   UNL     1      -4.034  -2.556   1.414  1.00  0.00     0.062 C 
ENDBRANCH  18  19
ENDBRANCH  16  18
ENDBRANCH  13  16
ENDBRANCH   9  13
ENDBRANCH   7   9
ENDBRANCH   6   7
ENDBRANCH   5   6
ENDBRANCH   4   5
ENDBRANCH   3   4
ENDBRANCH   2   3
ENDBRANCH   1   2
BRANCH   1  27
ATOM     27  O   UNL     1       0.009   1.321  -5.362  1.00  0.00    -0.377 OA
BRANCH  27  28
ATOM     28  C   UNL     1       0.846   1.128  -6.481  1.00  0.00     0.188 C 
BRANCH  28  29
ATOM     29  C   UNL     1       0.526  -0.114  -7.322  1.00  0.00     0.188 C 
BRANCH  29  30
ATOM     30  O   UNL     1       0.629  -1.325  -6.576  1.00  0.00    -0.376 OA
BRANCH  30  31
ATOM     31  C   UNL     1       1.767  -2.143  -6.797  1.00  0.00     0.202 C 
BRANCH  31  32
ATOM     32  C   UNL     1       3.034  -1.729  -6.032  1.00  0.00     0.261 C 
BRANCH  32  33
ATOM     33  O   UNL     1       3.521  -0.401  -6.282  1.00  0.00    -0.460 OA
BRANCH  33  34
ATOM     34  C   UNL     1       3.838  -0.074  -7.553  1.00  0.00     0.338 C 
ATOM     35  O   UNL     1       3.816  -0.802  -8.530  1.00  0.00    -0.246 OA
BRANCH  34  36
ATOM     36  C   UNL     1       4.020   1.393  -7.609  1.00  0.00     0.060 A 
ATOM     37  C   UNL     1       3.242   2.133  -8.510  1.00  0.00     0.016 A 
ATOM     38  C   UNL     1       4.916   2.038  -6.753  1.00  0.00     0.016 A 
ATOM     39  C   UNL     1       3.376   3.521  -8.576  1.00  0.00     0.010 A 
ATOM     40  C   UNL     1       5.080   3.422  -6.847  1.00  0.00     0.010 A 
ATOM     41  C   UNL     1       4.337   4.163  -7.785  1.00  0.00    -0.014 A 
BRANCH  41  42
ATOM     42  C   UNL     1       4.770   5.536  -8.137  1.00  0.00     0.031 A 
ATOM     43  C   UNL     1       5.923   5.666  -9.097  1.00  0.00     0.074 A 
ATOM     44  C   UNL     1       4.168   6.630  -7.643  1.00  0.00     0.049 A 
ATOM     45  N   UNL     1       6.552   6.735  -9.509  1.00  0.00    -0.248 NA
ATOM     46  C   UNL     1       6.436   4.408  -9.668  1.00  0.00     0.031 C 
ATOM     47  C   UNL     1       3.008   6.635  -6.755  1.00  0.00     0.029 A 
ATOM     48  N   UNL     1       4.465   7.960  -7.818  1.00  0.00    -0.354 N 
ATOM     49  C   UNL     1       7.530   6.278 -10.383  1.00  0.00     0.074 A 
ATOM     50  C   UNL     1       7.436   4.837 -10.420  1.00  0.00     0.031 C 
ATOM     51  C   UNL     1       2.701   7.909  -6.447  1.00  0.00     0.029 A 
ATOM     52  C   UNL     1       3.664   8.804  -7.088  1.00  0.00     0.049 A 
ATOM     53  H   UNL     1       5.184   8.278  -8.411  1.00  0.00     0.167 HD
ATOM     54  C   UNL     1       8.424   6.998 -11.099  1.00  0.00     0.037 A 
ATOM     55  C   UNL     1       3.728  10.143  -6.940  1.00  0.00     0.037 A 
ATOM     56  C   UNL     1       8.528   8.430 -11.047  1.00  0.00     0.049 A 
ATOM     57  C   UNL     1       4.802  10.915  -7.671  1.00  0.00     0.074 A 
ATOM     58  C   UNL     1       9.412   9.256 -11.716  1.00  0.00     0.029 A 
ATOM     59  N   UNL     1       7.719   9.247 -10.272  1.00  0.00    -0.354 N 
ATOM     60  N   UNL     1       5.719  10.481  -8.502  1.00  0.00    -0.248 NA
ATOM     61  C   UNL     1       4.849  12.367  -7.442  1.00  0.00     0.031 C 
ATOM     62  C   UNL     1       9.169  10.571 -11.309  1.00  0.00     0.029 A 
ATOM     63  C   UNL     1       8.095  10.569 -10.434  1.00  0.00     0.049 A 
ATOM     64  H   UNL     1       6.987   8.934  -9.693  1.00  0.00     0.167 HD
ATOM     65  C   UNL     1       6.417  11.605  -8.927  1.00  0.00     0.074 A 
ATOM     66  C   UNL     1       5.816  12.743  -8.265  1.00  0.00     0.031 C 
ATOM     67  C   UNL     1       7.460  11.691  -9.790  1.00  0.00     0.037 A 
BRANCH  54  68
ATOM     68  C   UNL     1       9.376   6.241 -11.975  1.00  0.00     0.064 A 
ATOM     69  C   UNL     1       8.946   5.602 -13.148  1.00  0.00     0.173 A 
ATOM     70  C   UNL     1      10.739   6.173 -11.651  1.00  0.00     0.173 A 
ATOM     71  F   UNL     1       7.649   5.618 -13.490  1.00  0.00    -0.203 F 
ATOM     72  C   UNL     1       9.843   4.905 -13.954  1.00  0.00     0.198 A 
ATOM     73  C   UNL     1      11.638   5.501 -12.475  1.00  0.00     0.198 A 
ATOM     74  F   UNL     1      11.200   6.763 -10.538  1.00  0.00    -0.203 F 
ATOM     75  F   UNL     1       9.402   4.263 -15.044  1.00  0.00    -0.200 F 
ATOM     76  C   UNL     1      11.189   4.863 -13.621  1.00  0.00     0.200 A 
ATOM     77  F   UNL     1      12.939   5.469 -12.157  1.00  0.00    -0.200 F 
ATOM     78  F   UNL     1      12.053   4.200 -14.402  1.00  0.00    -0.200 F 
ENDBRANCH  54  68
BRANCH  55  79
ATOM     79  C   UNL     1       2.768  10.853  -6.051  1.00  0.00     0.064 A 
ATOM     80  C   UNL     1       1.840  11.767  -6.572  1.00  0.00     0.173 A 
ATOM     81  C   UNL     1       2.796  10.678  -4.660  1.00  0.00     0.173 A 
ATOM     82  F   UNL     1       1.793  11.994  -7.893  1.00  0.00    -0.203 F 
ATOM     83  C   UNL     1       0.999  12.499  -5.734  1.00  0.00     0.198 A 
ATOM     84  C   UNL     1       1.933  11.387  -3.825  1.00  0.00     0.198 A 
ATOM     85  F   UNL     1       3.668   9.822  -4.107  1.00  0.00    -0.203 F 
ATOM     86  F   UNL     1       0.168  13.412  -6.254  1.00  0.00    -0.200 F 
ATOM     87  C   UNL     1       1.044  12.305  -4.362  1.00  0.00     0.200 A 
ATOM     88  F   UNL     1       1.974  11.190  -2.500  1.00  0.00    -0.200 F 
ATOM     89  F   UNL     1       0.241  13.014  -3.556  1.00  0.00    -0.200 F 
ENDBRANCH  55  79
BRANCH  67  90
ATOM     90  C   UNL     1       7.976  13.060 -10.128  1.00  0.00     0.064 A 
ATOM     91  C   UNL     1       8.708  13.826  -9.210  1.00  0.00     0.173 A 
ATOM     92  C   UNL     1       7.788  13.582 -11.418  1.00  0.00     0.173 A 
ATOM     93  F   UNL     1       8.907  13.376  -7.962  1.00  0.00    -0.203 F 
ATOM     94  C   UNL     1       9.211  15.075  -9.563  1.00  0.00     0.198 A 
ATOM     95  C   UNL     1       8.321  14.817 -11.777  1.00  0.00     0.198 A 
ATOM     96  F   UNL     1       7.105  12.884 -12.338  1.00  0.00    -0.203 F 
ATOM     97  F   UNL     1       9.870  15.810  -8.656  1.00  0.00    -0.200 F 
ATOM     98  C   UNL     1       9.026  15.565 -10.847  1.00  0.00     0.200 A 
ATOM     99  F   UNL     1       8.155  15.279 -13.024  1.00  0.00    -0.200 F 
ATOM    100  F   UNL     1       9.524  16.762 -11.188  1.00  0.00    -0.200 F 
ENDBRANCH  67  90
ENDBRANCH  41  42
ENDBRANCH  34  36
ENDBRANCH  33  34
ENDBRANCH  32  33
ENDBRANCH  31  32
ENDBRANCH  30  31
ENDBRANCH  29  30
ENDBRANCH  28  29
ENDBRANCH  27  28
ENDBRANCH   1  27
TORSDOF 25
