REMARK SMILES Cc1c(Cl)ccc2c1C=C(C(=O)OCCOCCOCCOCCOC(=O)c1ccc(-c3c4nc(c(-c5c(F)c(F)c(F)c(F)c5F)c5ccc([nH]5)c(-c5c(F)c(F)c(F)c(F)c5F)c5nc(c(-c6c(F)c(F)c(F)c(F)c6F)c6ccc3[nH]6)C=C5)C=C4)cc1)[C@@H](C(F)(F)F)O2
REMARK SMILES IDX 20 1 19 2 18 3 17 4 16 5 15 6 14 7 13 8 11 9 12 10 10 11
REMARK SMILES IDX 1 12 2 13 3 14 8 15 4 16 5 17 7 18 9 19 6 20 96 21 91 22
REMARK SMILES IDX 92 23 93 24 94 25 95 26 21 27 22 28 23 29 24 30 25 31 26 32
REMARK SMILES IDX 27 33 28 34 29 35 90 36 30 37 89 38 31 39 32 40 33 41 83 42
REMARK SMILES IDX 34 43 88 44 82 45 84 46 35 47 87 48 81 49 80 50 36 52 68 53
REMARK SMILES IDX 48 54 67 55 49 56 52 57 66 58 85 59 50 60 51 61 65 63 86 64
REMARK SMILES IDX 53 65 37 66 38 67 46 68 39 69 40 70 44 71 47 72 41 73 42 74
REMARK SMILES IDX 45 75 43 76 69 77 70 78 78 79 71 80 72 81 76 82 79 83 73 84
REMARK SMILES IDX 74 85 77 86 75 87 54 88 55 89 63 90 56 91 57 92 61 93 64 94
REMARK SMILES IDX 58 95 59 96 62 97 60 98
REMARK H PARENT 84 51 52 62
REMARK Flexibility Score: inf
ROOT
ATOM      1  C   UNL     1       1.581   6.757   3.873  1.00  0.00     0.188 C 
ENDROOT
BRANCH   1   2
ATOM      2  O   UNL     1       0.873   5.534   3.661  1.00  0.00    -0.377 OA
BRANCH   2   3
ATOM      3  C   UNL     1       1.354   4.654   2.658  1.00  0.00     0.188 C 
BRANCH   3   4
ATOM      4  C   UNL     1       0.969   5.084   1.231  1.00  0.00     0.188 C 
BRANCH   4   5
ATOM      5  O   UNL     1       0.502   6.429   1.162  1.00  0.00    -0.376 OA
BRANCH   5   6
ATOM      6  C   UNL     1      -0.896   6.631   1.007  1.00  0.00     0.202 C 
BRANCH   6   7
ATOM      7  C   UNL     1      -1.801   6.231   2.182  1.00  0.00     0.261 C 
BRANCH   7   8
ATOM      8  O   UNL     1      -1.654   4.877   2.636  1.00  0.00    -0.460 OA
BRANCH   8   9
ATOM      9  C   UNL     1      -2.051   3.891   1.809  1.00  0.00     0.338 C 
ATOM     10  O   UNL     1      -2.583   4.022   0.722  1.00  0.00    -0.246 OA
BRANCH   9  11
ATOM     11  C   UNL     1      -1.570   2.608   2.373  1.00  0.00     0.087 C 
ATOM     12  C   UNL     1       0.776  -0.106  -0.145  1.00  0.00     0.047 C 
ATOM     13  C   UNL     1       0.304  -0.417   1.255  1.00  0.00    -0.021 A 
ATOM     14  C   UNL     1       0.617  -1.679   1.809  1.00  0.00     0.044 A 
ATOM     15  C   UNL     1      -0.417   0.508   2.050  1.00  0.00     0.022 A 
ATOM     16  Cl  UNL     1       1.411  -2.910   0.886  1.00  0.00    -0.084 Cl
ATOM     17  C   UNL     1       0.287  -1.992   3.127  1.00  0.00     0.024 A 
ATOM     18  C   UNL     1      -0.680   0.201   3.395  1.00  0.00     0.128 A 
ATOM     19  C   UNL     1      -0.960   1.763   1.530  1.00  0.00     0.027 C 
ATOM     20  C   UNL     1      -0.334  -1.041   3.927  1.00  0.00     0.048 A 
ATOM     21  O   UNL     1      -1.286   1.044   4.280  1.00  0.00    -0.475 OA
ATOM     22  C   UNL     1      -1.704   2.363   3.849  1.00  0.00     0.316 C 
BRANCH  22  23
ATOM     23  C   UNL     1      -3.139   2.574   4.354  1.00  0.00     0.430 C 
ATOM     24  F   UNL     1      -3.243   2.287   5.675  1.00  0.00    -0.167 F 
ATOM     25  F   UNL     1      -3.556   3.853   4.206  1.00  0.00    -0.167 F 
ATOM     26  F   UNL     1      -4.022   1.785   3.698  1.00  0.00    -0.167 F 
ENDBRANCH  22  23
ENDBRANCH   9  11
ENDBRANCH   8   9
ENDBRANCH   7   8
ENDBRANCH   6   7
ENDBRANCH   5   6
ENDBRANCH   4   5
ENDBRANCH   3   4
ENDBRANCH   2   3
ENDBRANCH   1   2
BRANCH   1  27
ATOM     27  C   UNL     1       2.595   7.321   2.848  1.00  0.00     0.188 C 
BRANCH  27  28
ATOM     28  O   UNL     1       3.454   6.338   2.278  1.00  0.00    -0.376 OA
BRANCH  28  29
ATOM     29  C   UNL     1       4.818   6.375   2.671  1.00  0.00     0.202 C 
BRANCH  29  30
ATOM     30  C   UNL     1       5.080   5.808   4.071  1.00  0.00     0.261 C 
BRANCH  30  31
ATOM     31  O   UNL     1       4.426   6.500   5.146  1.00  0.00    -0.460 OA
BRANCH  31  32
ATOM     32  C   UNL     1       4.738   7.799   5.342  1.00  0.00     0.338 C 
ATOM     33  O   UNL     1       5.544   8.474   4.728  1.00  0.00    -0.246 OA
BRANCH  32  34
ATOM     34  C   UNL     1       3.786   8.319   6.340  1.00  0.00     0.060 A 
ATOM     35  C   UNL     1       2.873   9.314   5.968  1.00  0.00     0.016 A 
ATOM     36  C   UNL     1       3.774   7.786   7.631  1.00  0.00     0.016 A 
ATOM     37  C   UNL     1       1.943   9.782   6.897  1.00  0.00     0.010 A 
ATOM     38  C   UNL     1       2.863   8.276   8.567  1.00  0.00     0.010 A 
ATOM     39  C   UNL     1       1.957   9.288   8.209  1.00  0.00    -0.014 A 
BRANCH  39  40
ATOM     40  C   UNL     1       1.163   9.968   9.257  1.00  0.00     0.031 A 
ATOM     41  C   UNL     1       1.803  11.104  10.000  1.00  0.00     0.074 A 
ATOM     42  C   UNL     1      -0.097   9.593   9.536  1.00  0.00     0.049 A 
ATOM     43  N   UNL     1       1.309  11.862  10.945  1.00  0.00    -0.248 NA
ATOM     44  C   UNL     1       3.188  11.434   9.624  1.00  0.00     0.031 C 
ATOM     45  C   UNL     1      -0.830   8.524   8.862  1.00  0.00     0.029 A 
ATOM     46  N   UNL     1      -0.982  10.075  10.469  1.00  0.00    -0.354 N 
ATOM     47  C   UNL     1       2.311  12.770  11.256  1.00  0.00     0.074 A 
ATOM     48  C   UNL     1       3.457  12.444  10.437  1.00  0.00     0.031 C 
ATOM     49  C   UNL     1      -2.057   8.429   9.406  1.00  0.00     0.029 A 
ATOM     50  C   UNL     1      -2.186   9.416  10.479  1.00  0.00     0.049 A 
ATOM     51  H   UNL     1      -0.773  10.824  11.073  1.00  0.00     0.167 HD
ATOM     52  C   UNL     1       2.271  13.797  12.135  1.00  0.00     0.037 A 
ATOM     53  C   UNL     1      -3.263   9.589  11.271  1.00  0.00     0.037 A 
ATOM     54  C   UNL     1       1.141  14.101  12.968  1.00  0.00     0.049 A 
ATOM     55  C   UNL     1      -3.244  10.673  12.321  1.00  0.00     0.074 A 
ATOM     56  C   UNL     1       1.003  15.120  13.892  1.00  0.00     0.029 A 
ATOM     57  N   UNL     1      -0.041  13.376  12.988  1.00  0.00    -0.354 N 
ATOM     58  N   UNL     1      -2.312  11.559  12.578  1.00  0.00    -0.248 NA
ATOM     59  C   UNL     1      -4.426  10.784  13.190  1.00  0.00     0.031 C 
ATOM     60  C   UNL     1      -0.241  14.981  14.509  1.00  0.00     0.029 A 
ATOM     61  C   UNL     1      -0.903  13.909  13.930  1.00  0.00     0.049 A 
ATOM     62  H   UNL     1      -0.238  12.598  12.417  1.00  0.00     0.167 HD
ATOM     63  C   UNL     1      -2.805  12.350  13.608  1.00  0.00     0.074 A 
ATOM     64  C   UNL     1      -4.121  11.842  13.931  1.00  0.00     0.031 C 
ATOM     65  C   UNL     1      -2.220  13.404  14.226  1.00  0.00     0.037 A 
BRANCH  52  66
ATOM     66  C   UNL     1       3.486  14.665  12.244  1.00  0.00     0.064 A 
ATOM     67  C   UNL     1       3.830  15.568  11.227  1.00  0.00     0.173 A 
ATOM     68  C   UNL     1       4.282  14.639  13.399  1.00  0.00     0.173 A 
ATOM     69  F   UNL     1       3.109  15.618  10.096  1.00  0.00    -0.203 F 
ATOM     70  C   UNL     1       4.934  16.405  11.357  1.00  0.00     0.198 A 
ATOM     71  C   UNL     1       5.369  15.497  13.537  1.00  0.00     0.198 A 
ATOM     72  F   UNL     1       3.994  13.794  14.400  1.00  0.00    -0.203 F 
ATOM     73  F   UNL     1       5.264  17.236  10.359  1.00  0.00    -0.200 F 
ATOM     74  C   UNL     1       5.696  16.376  12.515  1.00  0.00     0.200 A 
ATOM     75  F   UNL     1       6.098  15.476  14.661  1.00  0.00    -0.200 F 
ATOM     76  F   UNL     1       6.749  17.194  12.646  1.00  0.00    -0.200 F 
ENDBRANCH  52  66
BRANCH  53  77
ATOM     77  C   UNL     1      -4.462   8.729  11.090  1.00  0.00     0.064 A 
ATOM     78  C   UNL     1      -5.659   9.259  10.588  1.00  0.00     0.173 A 
ATOM     79  C   UNL     1      -4.439   7.364  11.413  1.00  0.00     0.173 A 
ATOM     80  F   UNL     1      -5.739  10.564  10.290  1.00  0.00    -0.203 F 
ATOM     81  C   UNL     1      -6.788   8.459  10.421  1.00  0.00     0.198 A 
ATOM     82  C   UNL     1      -5.561   6.559  11.223  1.00  0.00     0.198 A 
ATOM     83  F   UNL     1      -3.321   6.809  11.903  1.00  0.00    -0.203 F 
ATOM     84  F   UNL     1      -7.929   8.999   9.973  1.00  0.00    -0.200 F 
ATOM     85  C   UNL     1      -6.736   7.108  10.732  1.00  0.00     0.200 A 
ATOM     86  F   UNL     1      -5.504   5.253  11.518  1.00  0.00    -0.200 F 
ATOM     87  F   UNL     1      -7.820   6.338  10.566  1.00  0.00    -0.200 F 
ENDBRANCH  53  77
BRANCH  65  88
ATOM     88  C   UNL     1      -2.990  14.118  15.298  1.00  0.00     0.064 A 
ATOM     89  C   UNL     1      -3.150  13.566  16.576  1.00  0.00     0.173 A 
ATOM     90  C   UNL     1      -3.454  15.426  15.082  1.00  0.00     0.173 A 
ATOM     91  F   UNL     1      -2.732  12.316  16.828  1.00  0.00    -0.203 F 
ATOM     92  C   UNL     1      -3.742  14.299  17.601  1.00  0.00     0.198 A 
ATOM     93  C   UNL     1      -4.020  16.165  16.116  1.00  0.00     0.198 A 
ATOM     94  F   UNL     1      -3.313  16.003  13.879  1.00  0.00    -0.203 F 
ATOM     95  F   UNL     1      -3.896  13.748  18.813  1.00  0.00    -0.200 F 
ATOM     96  C   UNL     1      -4.163  15.601  17.375  1.00  0.00     0.200 A 
ATOM     97  F   UNL     1      -4.407  17.430  15.901  1.00  0.00    -0.200 F 
ATOM     98  F   UNL     1      -4.701  16.316  18.372  1.00  0.00    -0.200 F 
ENDBRANCH  65  88
ENDBRANCH  39  40
ENDBRANCH  32  34
ENDBRANCH  31  32
ENDBRANCH  30  31
ENDBRANCH  29  30
ENDBRANCH  28  29
ENDBRANCH  27  28
ENDBRANCH   1  27
TORSDOF 21
