REMARK SMILES O=C(OCCOCCOCCOCCOC(=O)c1ccccc1C(=O)Nc1ccc(N2C(=O)[C@H]3[C@@H]4CC[C@@H](C4)[C@@H]3C2=O)cc1)c1ccc(-c2c3nc(c(-c4c(F)c(F)c(F)c(F)c4F)c4ccc([nH]4)c(-c4c(F)c(F)c(F)c(F)c4F)c4nc(c(-c5c(F)c(F)c(F)c(F)c5F)c5ccc2[nH]5)C=C4)C=C3)cc1
REMARK SMILES IDX 10 1 9 2 8 3 7 4 6 5 5 6 4 7 3 8 2 9 1 10 45 11 46 12 107 13
REMARK SMILES IDX 47 14 106 15 48 16 49 17 50 18 100 19 51 20 105 21 99 22
REMARK SMILES IDX 101 23 52 24 104 25 98 26 97 27 53 29 85 30 65 31 84 32
REMARK SMILES IDX 66 33 69 34 83 35 102 36 67 37 68 38 82 40 103 41 70 42
REMARK SMILES IDX 54 43 55 44 63 45 56 46 57 47 61 48 64 49 58 50 59 51 62 52
REMARK SMILES IDX 60 53 86 54 87 55 95 56 88 57 89 58 93 59 96 60 90 61 91 62
REMARK SMILES IDX 94 63 92 64 71 65 72 66 80 67 73 68 74 69 78 70 81 71 75 72
REMARK SMILES IDX 76 73 79 74 77 75 11 76 12 77 13 78 14 79 15 80 16 81 17 82
REMARK SMILES IDX 18 83 19 84 23 85 20 86 22 87 21 88 24 89 25 90 26 91 27 93
REMARK SMILES IDX 28 94 44 95 29 96 43 97 30 98 31 99 32 100 41 101 33 102
REMARK SMILES IDX 34 103 40 104 42 105 35 106 38 107 36 108 39 109 37 110
REMARK H PARENT 101 28 69 39 26 92
REMARK Flexibility Score: inf
ROOT
ATOM      1  C   UNL     1       3.500   2.498   0.971  1.00  0.00     0.188 C 
ENDROOT
BRANCH   1   2
ATOM      2  O   UNL     1       2.296   3.117   0.516  1.00  0.00    -0.377 OA
BRANCH   2   3
ATOM      3  C   UNL     1       1.290   2.245  -0.003  1.00  0.00     0.188 C 
BRANCH   3   4
ATOM      4  C   UNL     1       1.733   1.433  -1.218  1.00  0.00     0.188 C 
BRANCH   4   5
ATOM      5  O   UNL     1       2.772   0.538  -0.835  1.00  0.00    -0.376 OA
BRANCH   5   6
ATOM      6  C   UNL     1       3.833   0.403  -1.777  1.00  0.00     0.202 C 
BRANCH   6   7
ATOM      7  C   UNL     1       3.460  -0.601  -2.860  1.00  0.00     0.261 C 
BRANCH   7   8
ATOM      8  O   UNL     1       3.309  -1.888  -2.235  1.00  0.00    -0.460 OA
BRANCH   8   9
ATOM      9  C   UNL     1       2.086  -2.171  -1.712  1.00  0.00     0.338 C 
ATOM     10  O   UNL     1       0.995  -1.787  -2.091  1.00  0.00    -0.246 OA
BRANCH   9  11
ATOM     11  C   UNL     1       2.366  -2.986  -0.517  1.00  0.00     0.060 A 
ATOM     12  C   UNL     1       3.152  -2.398   0.472  1.00  0.00     0.016 A 
ATOM     13  C   UNL     1       2.055  -4.340  -0.456  1.00  0.00     0.016 A 
ATOM     14  C   UNL     1       3.788  -3.179   1.415  1.00  0.00     0.010 A 
ATOM     15  C   UNL     1       2.669  -5.131   0.527  1.00  0.00     0.010 A 
ATOM     16  C   UNL     1       3.615  -4.565   1.406  1.00  0.00    -0.014 A 
BRANCH  16  17
ATOM     17  C   UNL     1       4.643  -5.388   2.101  1.00  0.00     0.031 A 
ATOM     18  C   UNL     1       5.617  -6.176   1.256  1.00  0.00     0.074 A 
ATOM     19  C   UNL     1       4.893  -5.239   3.417  1.00  0.00     0.049 A 
ATOM     20  N   UNL     1       6.552  -7.014   1.626  1.00  0.00    -0.248 NA
ATOM     21  C   UNL     1       5.549  -5.972  -0.202  1.00  0.00     0.031 C 
ATOM     22  C   UNL     1       4.198  -4.313   4.311  1.00  0.00     0.029 A 
ATOM     23  N   UNL     1       5.878  -5.783   4.205  1.00  0.00    -0.354 N 
ATOM     24  C   UNL     1       7.117  -7.494   0.450  1.00  0.00     0.074 A 
ATOM     25  C   UNL     1       6.454  -6.830  -0.647  1.00  0.00     0.031 C 
ATOM     26  C   UNL     1       4.852  -4.265   5.483  1.00  0.00     0.029 A 
ATOM     27  C   UNL     1       5.928  -5.251   5.471  1.00  0.00     0.049 A 
ATOM     28  H   UNL     1       6.491  -6.487   3.892  1.00  0.00     0.167 HD
ATOM     29  C   UNL     1       8.090  -8.422   0.301  1.00  0.00     0.037 A 
ATOM     30  C   UNL     1       6.734  -5.552   6.509  1.00  0.00     0.037 A 
ATOM     31  C   UNL     1       8.790  -9.032   1.396  1.00  0.00     0.049 A 
ATOM     32  C   UNL     1       7.731  -6.671   6.345  1.00  0.00     0.074 A 
ATOM     33  C   UNL     1       9.691 -10.082   1.376  1.00  0.00     0.029 A 
ATOM     34  N   UNL     1       8.692  -8.611   2.712  1.00  0.00    -0.354 N 
ATOM     35  N   UNL     1       8.116  -7.291   5.256  1.00  0.00    -0.248 NA
ATOM     36  C   UNL     1       8.366  -7.171   7.574  1.00  0.00     0.031 C 
ATOM     37  C   UNL     1      10.118 -10.313   2.689  1.00  0.00     0.029 A 
ATOM     38  C   UNL     1       9.511  -9.383   3.517  1.00  0.00     0.049 A 
ATOM     39  H   UNL     1       8.124  -7.872   3.028  1.00  0.00     0.167 HD
ATOM     40  C   UNL     1       9.028  -8.254   5.669  1.00  0.00     0.074 A 
ATOM     41  C   UNL     1       9.182  -8.100   7.099  1.00  0.00     0.031 C 
ATOM     42  C   UNL     1       9.657  -9.207   4.937  1.00  0.00     0.037 A 
BRANCH  29  43
ATOM     43  C   UNL     1       8.385  -8.898  -1.088  1.00  0.00     0.064 A 
ATOM     44  C   UNL     1       9.150  -8.149  -1.990  1.00  0.00     0.173 A 
ATOM     45  C   UNL     1       7.897 -10.145  -1.510  1.00  0.00     0.173 A 
ATOM     46  F   UNL     1       9.612  -6.939  -1.643  1.00  0.00    -0.203 F 
ATOM     47  C   UNL     1       9.410  -8.630  -3.273  1.00  0.00     0.198 A 
ATOM     48  C   UNL     1       8.177 -10.631  -2.783  1.00  0.00     0.198 A 
ATOM     49  F   UNL     1       7.154 -10.895  -0.683  1.00  0.00    -0.203 F 
ATOM     50  F   UNL     1      10.114  -7.884  -4.136  1.00  0.00    -0.200 F 
ATOM     51  C   UNL     1       8.931  -9.871  -3.665  1.00  0.00     0.200 A 
ATOM     52  F   UNL     1       7.716 -11.832  -3.157  1.00  0.00    -0.200 F 
ATOM     53  F   UNL     1       9.186 -10.333  -4.897  1.00  0.00    -0.200 F 
ENDBRANCH  29  43
BRANCH  30  54
ATOM     54  C   UNL     1       6.588  -4.867   7.825  1.00  0.00     0.064 A 
ATOM     55  C   UNL     1       7.668  -4.191   8.414  1.00  0.00     0.173 A 
ATOM     56  C   UNL     1       5.397  -4.948   8.563  1.00  0.00     0.173 A 
ATOM     57  F   UNL     1       8.848  -4.134   7.779  1.00  0.00    -0.203 F 
ATOM     58  C   UNL     1       7.566  -3.644   9.693  1.00  0.00     0.198 A 
ATOM     59  C   UNL     1       5.283  -4.365   9.823  1.00  0.00     0.198 A 
ATOM     60  F   UNL     1       4.340  -5.609   8.069  1.00  0.00    -0.203 F 
ATOM     61  F   UNL     1       8.638  -3.080  10.267  1.00  0.00    -0.200 F 
ATOM     62  C   UNL     1       6.371  -3.725  10.393  1.00  0.00     0.200 A 
ATOM     63  F   UNL     1       4.125  -4.446  10.492  1.00  0.00    -0.200 F 
ATOM     64  F   UNL     1       6.277  -3.215  11.628  1.00  0.00    -0.200 F 
ENDBRANCH  30  54
BRANCH  42  65
ATOM     65  C   UNL     1      10.561 -10.152   5.670  1.00  0.00     0.064 A 
ATOM     66  C   UNL     1      10.042 -11.141   6.520  1.00  0.00     0.173 A 
ATOM     67  C   UNL     1      11.950 -10.100   5.491  1.00  0.00     0.173 A 
ATOM     68  F   UNL     1       8.719 -11.223   6.731  1.00  0.00    -0.203 F 
ATOM     69  C   UNL     1      10.884 -12.025   7.187  1.00  0.00     0.198 A 
ATOM     70  C   UNL     1      12.788 -11.005   6.137  1.00  0.00     0.198 A 
ATOM     71  F   UNL     1      12.495  -9.181   4.681  1.00  0.00    -0.203 F 
ATOM     72  F   UNL     1      10.369 -12.930   8.030  1.00  0.00    -0.200 F 
ATOM     73  C   UNL     1      12.255 -11.961   6.990  1.00  0.00     0.200 A 
ATOM     74  F   UNL     1      14.112 -10.953   5.935  1.00  0.00    -0.200 F 
ATOM     75  F   UNL     1      13.065 -12.817   7.628  1.00  0.00    -0.200 F 
ENDBRANCH  42  65
ENDBRANCH  16  17
ENDBRANCH   9  11
ENDBRANCH   8   9
ENDBRANCH   7   8
ENDBRANCH   6   7
ENDBRANCH   5   6
ENDBRANCH   4   5
ENDBRANCH   3   4
ENDBRANCH   2   3
ENDBRANCH   1   2
BRANCH   1  76
ATOM     76  C   UNL     1       3.378   1.334   1.974  1.00  0.00     0.188 C 
BRANCH  76  77
ATOM     77  O   UNL     1       2.147   1.236   2.679  1.00  0.00    -0.376 OA
BRANCH  77  78
ATOM     78  C   UNL     1       2.100   1.883   3.945  1.00  0.00     0.202 C 
BRANCH  78  79
ATOM     79  C   UNL     1       1.602   3.333   3.882  1.00  0.00     0.261 C 
BRANCH  79  80
ATOM     80  O   UNL     1       2.519   4.444   3.740  1.00  0.00    -0.460 OA
BRANCH  80  81
ATOM     81  C   UNL     1       3.842   4.269   3.640  1.00  0.00     0.339 C 
ATOM     82  O   UNL     1       4.471   3.235   3.586  1.00  0.00    -0.246 OA
BRANCH  81  83
ATOM     83  C   UNL     1       4.531   5.547   3.565  1.00  0.00     0.072 A 
ATOM     84  C   UNL     1       5.070   5.936   2.328  1.00  0.00     0.016 A 
ATOM     85  C   UNL     1       4.692   6.333   4.704  1.00  0.00     0.054 A 
ATOM     86  C   UNL     1       5.680   7.179   2.198  1.00  0.00     0.001 A 
ATOM     87  C   UNL     1       5.244   7.613   4.544  1.00  0.00     0.015 A 
ATOM     88  C   UNL     1       5.733   8.032   3.298  1.00  0.00     0.001 A 
BRANCH  85  89
ATOM     89  C   UNL     1       4.199   5.935   6.047  1.00  0.00     0.256 C 
ATOM     90  O   UNL     1       3.509   6.757   6.654  1.00  0.00    -0.269 OA
ATOM     91  N   UNL     1       4.392   4.687   6.615  1.00  0.00    -0.322 N 
ATOM     92  H   UNL     1       3.820   4.522   7.399  1.00  0.00     0.170 HD
BRANCH  91  93
ATOM     93  C   UNL     1       5.238   3.602   6.300  1.00  0.00     0.041 A 
ATOM     94  C   UNL     1       4.796   2.313   6.651  1.00  0.00     0.028 A 
ATOM     95  C   UNL     1       6.421   3.726   5.574  1.00  0.00     0.028 A 
ATOM     96  C   UNL     1       5.419   1.167   6.122  1.00  0.00     0.029 A 
ATOM     97  C   UNL     1       7.026   2.585   5.019  1.00  0.00     0.029 A 
ATOM     98  C   UNL     1       6.494   1.309   5.241  1.00  0.00     0.052 A 
BRANCH  98  99
ATOM     99  N   UNL     1       6.941   0.221   4.469  1.00  0.00    -0.250 N 
ATOM    100  C   UNL     1       7.667  -0.882   4.959  1.00  0.00     0.237 C 
ATOM    101  C   UNL     1       6.835   0.157   3.068  1.00  0.00     0.237 C 
ATOM    102  O   UNL     1       7.803  -1.298   6.093  1.00  0.00    -0.274 OA
ATOM    103  C   UNL     1       8.361  -1.361   3.702  1.00  0.00     0.095 C 
ATOM    104  C   UNL     1       7.129  -1.285   2.803  1.00  0.00     0.095 C 
ATOM    105  O   UNL     1       6.573   0.997   2.229  1.00  0.00    -0.274 OA
ATOM    106  C   UNL     1       9.079  -2.593   3.157  1.00  0.00     0.002 C 
ATOM    107  C   UNL     1       7.528  -2.098   1.589  1.00  0.00     0.002 C 
ATOM    108  C   UNL     1       9.915  -2.071   1.946  1.00  0.00     0.005 C 
ATOM    109  C   UNL     1       8.016  -3.352   2.353  1.00  0.00     0.009 C 
ATOM    110  C   UNL     1       8.829  -1.616   0.941  1.00  0.00     0.005 C 
ENDBRANCH  98  99
ENDBRANCH  91  93
ENDBRANCH  85  89
ENDBRANCH  81  83
ENDBRANCH  80  81
ENDBRANCH  79  80
ENDBRANCH  78  79
ENDBRANCH  77  78
ENDBRANCH  76  77
ENDBRANCH   1  76
TORSDOF 23
