REMARK SMILES O=C(OCCOCCOCCOCCOC(=O)c1cccc(Nc2ccc([N+](=O)[O-])cc2)c1)c1ccc(-c2c3nc(c(-c4c(F)c(F)c(F)c(F)c4F)c4ccc([nH]4)c(-c4c(F)c(F)c(F)c(F)c4F)c4nc(c(-c5c(F)c(F)c(F)c(F)c5F)c5ccc2[nH]5)C=C4)C=C3)cc1
REMARK SMILES IDX 10 1 9 2 8 3 7 4 6 5 5 6 4 7 3 8 2 9 1 10 34 11 35 12 96 13
REMARK SMILES IDX 36 14 95 15 37 16 38 17 39 18 89 19 40 20 94 21 88 22 90 23
REMARK SMILES IDX 41 24 93 25 87 26 86 27 42 29 74 30 54 31 73 32 55 33 58 34
REMARK SMILES IDX 72 35 91 36 56 37 57 38 71 40 92 41 59 42 43 43 44 44 52 45
REMARK SMILES IDX 45 46 46 47 50 48 53 49 47 50 48 51 51 52 49 53 75 54 76 55
REMARK SMILES IDX 84 56 77 57 78 58 82 59 85 60 79 61 80 62 83 63 81 64 60 65
REMARK SMILES IDX 61 66 69 67 62 68 63 69 67 70 70 71 64 72 65 73 68 74 66 75
REMARK SMILES IDX 11 76 12 77 13 78 14 79 15 80 16 81 17 82 18 83 19 84 33 85
REMARK SMILES IDX 20 86 22 87 21 88 23 89 24 91 25 92 32 93 26 94 31 95 27 96
REMARK SMILES IDX 28 97 29 98 30 99
REMARK H PARENT 90 28 58 39 23 90
REMARK Flexibility Score: inf
ROOT
ATOM      1  C   UNL     1       4.051   0.490  -3.942  1.00  0.00     0.188 C 
ENDROOT
BRANCH   1   2
ATOM      2  O   UNL     1       2.631   0.479  -4.042  1.00  0.00    -0.377 OA
BRANCH   2   3
ATOM      3  C   UNL     1       1.902   0.595  -2.824  1.00  0.00     0.188 C 
BRANCH   3   4
ATOM      4  C   UNL     1       2.338  -0.359  -1.714  1.00  0.00     0.188 C 
BRANCH   4   5
ATOM      5  O   UNL     1       3.636  -0.012  -1.229  1.00  0.00    -0.376 OA
BRANCH   5   6
ATOM      6  C   UNL     1       4.446  -1.103  -0.798  1.00  0.00     0.202 C 
BRANCH   6   7
ATOM      7  C   UNL     1       4.021  -1.752   0.523  1.00  0.00     0.261 C 
BRANCH   7   8
ATOM      8  O   UNL     1       2.638  -1.547   0.855  1.00  0.00    -0.460 OA
BRANCH   8   9
ATOM      9  C   UNL     1       2.082  -0.568   1.610  1.00  0.00     0.338 C 
ATOM     10  O   UNL     1       0.891  -0.656   1.905  1.00  0.00    -0.246 OA
BRANCH   9  11
ATOM     11  C   UNL     1       2.838   0.608   2.136  1.00  0.00     0.060 A 
ATOM     12  C   UNL     1       3.950   1.184   1.525  1.00  0.00     0.016 A 
ATOM     13  C   UNL     1       2.350   1.215   3.305  1.00  0.00     0.016 A 
ATOM     14  C   UNL     1       4.650   2.226   2.115  1.00  0.00     0.010 A 
ATOM     15  C   UNL     1       3.017   2.299   3.886  1.00  0.00     0.010 A 
ATOM     16  C   UNL     1       4.213   2.761   3.321  1.00  0.00    -0.014 A 
BRANCH  16  17
ATOM     17  C   UNL     1       5.161   3.601   4.080  1.00  0.00     0.031 A 
ATOM     18  C   UNL     1       5.832   2.976   5.269  1.00  0.00     0.074 A 
ATOM     19  C   UNL     1       5.540   4.804   3.614  1.00  0.00     0.049 A 
ATOM     20  N   UNL     1       6.654   3.502   6.137  1.00  0.00    -0.248 NA
ATOM     21  C   UNL     1       5.540   1.551   5.511  1.00  0.00     0.031 C 
ATOM     22  C   UNL     1       5.055   5.422   2.379  1.00  0.00     0.029 A 
ATOM     23  N   UNL     1       6.454   5.699   4.100  1.00  0.00    -0.354 N 
ATOM     24  C   UNL     1       6.923   2.493   7.053  1.00  0.00     0.074 A 
ATOM     25  C   UNL     1       6.186   1.323   6.641  1.00  0.00     0.031 C 
ATOM     26  C   UNL     1       5.709   6.579   2.183  1.00  0.00     0.029 A 
ATOM     27  C   UNL     1       6.598   6.818   3.316  1.00  0.00     0.049 A 
ATOM     28  H   UNL     1       6.961   5.556   4.932  1.00  0.00     0.167 HD
ATOM     29  C   UNL     1       7.713   2.551   8.149  1.00  0.00     0.037 A 
ATOM     30  C   UNL     1       7.346   7.918   3.519  1.00  0.00     0.037 A 
ATOM     31  C   UNL     1       8.467   3.718   8.509  1.00  0.00     0.049 A 
ATOM     32  C   UNL     1       8.173   7.983   4.778  1.00  0.00     0.074 A 
ATOM     33  C   UNL     1       9.250   3.939   9.625  1.00  0.00     0.029 A 
ATOM     34  N   UNL     1       8.537   4.866   7.729  1.00  0.00    -0.354 N 
ATOM     35  N   UNL     1       8.340   7.071   5.707  1.00  0.00    -0.248 NA
ATOM     36  C   UNL     1       8.898   9.234   5.029  1.00  0.00     0.031 C 
ATOM     37  C   UNL     1       9.768   5.237   9.536  1.00  0.00     0.029 A 
ATOM     38  C   UNL     1       9.347   5.804   8.341  1.00  0.00     0.049 A 
ATOM     39  H   UNL     1       8.077   4.993   6.868  1.00  0.00     0.167 HD
ATOM     40  C   UNL     1       9.201   7.627   6.642  1.00  0.00     0.074 A 
ATOM     41  C   UNL     1       9.537   8.951   6.154  1.00  0.00     0.031 C 
ATOM     42  C   UNL     1       9.668   7.102   7.802  1.00  0.00     0.037 A 
BRANCH  29  43
ATOM     43  C   UNL     1       7.715   1.352   9.051  1.00  0.00     0.064 A 
ATOM     44  C   UNL     1       8.323   0.140   8.688  1.00  0.00     0.173 A 
ATOM     45  C   UNL     1       7.037   1.401  10.278  1.00  0.00     0.173 A 
ATOM     46  F   UNL     1       8.952   0.027   7.508  1.00  0.00    -0.203 F 
ATOM     47  C   UNL     1       8.218  -0.986   9.502  1.00  0.00     0.198 A 
ATOM     48  C   UNL     1       6.959   0.283  11.103  1.00  0.00     0.198 A 
ATOM     49  F   UNL     1       6.429   2.532  10.669  1.00  0.00    -0.203 F 
ATOM     50  F   UNL     1       8.743  -2.152   9.101  1.00  0.00    -0.200 F 
ATOM     51  C   UNL     1       7.540  -0.913  10.710  1.00  0.00     0.200 A 
ATOM     52  F   UNL     1       6.303   0.356  12.270  1.00  0.00    -0.200 F 
ATOM     53  F   UNL     1       7.428  -2.001  11.485  1.00  0.00    -0.200 F 
ENDBRANCH  29  43
BRANCH  30  54
ATOM     54  C   UNL     1       7.319   9.044   2.546  1.00  0.00     0.064 A 
ATOM     55  C   UNL     1       8.464   9.416   1.829  1.00  0.00     0.173 A 
ATOM     56  C   UNL     1       6.147   9.784   2.321  1.00  0.00     0.173 A 
ATOM     57  F   UNL     1       9.618   8.760   2.022  1.00  0.00    -0.203 F 
ATOM     58  C   UNL     1       8.443  10.490   0.938  1.00  0.00     0.198 A 
ATOM     59  C   UNL     1       6.117  10.836   1.407  1.00  0.00     0.198 A 
ATOM     60  F   UNL     1       5.021   9.479   2.983  1.00  0.00    -0.203 F 
ATOM     61  F   UNL     1       9.565  10.853   0.302  1.00  0.00    -0.200 F 
ATOM     62  C   UNL     1       7.268  11.194   0.723  1.00  0.00     0.200 A 
ATOM     63  F   UNL     1       4.975  11.503   1.193  1.00  0.00    -0.200 F 
ATOM     64  F   UNL     1       7.246  12.222  -0.136  1.00  0.00    -0.200 F 
ENDBRANCH  30  54
BRANCH  42  65
ATOM     65  C   UNL     1      10.626   7.945   8.586  1.00  0.00     0.064 A 
ATOM     66  C   UNL     1      10.197   9.066   9.310  1.00  0.00     0.173 A 
ATOM     67  C   UNL     1      11.983   7.594   8.647  1.00  0.00     0.173 A 
ATOM     68  F   UNL     1       8.911   9.444   9.269  1.00  0.00    -0.203 F 
ATOM     69  C   UNL     1      11.100   9.823  10.048  1.00  0.00     0.198 A 
ATOM     70  C   UNL     1      12.877   8.336   9.410  1.00  0.00     0.198 A 
ATOM     71  F   UNL     1      12.435   6.523   7.978  1.00  0.00    -0.203 F 
ATOM     72  F   UNL     1      10.680  10.919  10.696  1.00  0.00    -0.200 F 
ATOM     73  C   UNL     1      12.437   9.454  10.103  1.00  0.00     0.200 A 
ATOM     74  F   UNL     1      14.165   7.971   9.474  1.00  0.00    -0.200 F 
ATOM     75  F   UNL     1      13.304  10.182  10.820  1.00  0.00    -0.200 F 
ENDBRANCH  42  65
ENDBRANCH  16  17
ENDBRANCH   9  11
ENDBRANCH   8   9
ENDBRANCH   7   8
ENDBRANCH   6   7
ENDBRANCH   5   6
ENDBRANCH   4   5
ENDBRANCH   3   4
ENDBRANCH   2   3
ENDBRANCH   1   2
BRANCH   1  76
ATOM     76  C   UNL     1       4.740   1.719  -3.310  1.00  0.00     0.188 C 
BRANCH  76  77
ATOM     77  O   UNL     1       3.861   2.738  -2.854  1.00  0.00    -0.376 OA
BRANCH  77  78
ATOM     78  C   UNL     1       3.836   3.921  -3.648  1.00  0.00     0.202 C 
BRANCH  78  79
ATOM     79  C   UNL     1       3.106   3.783  -4.992  1.00  0.00     0.261 C 
BRANCH  79  80
ATOM     80  O   UNL     1       3.668   2.813  -5.892  1.00  0.00    -0.460 OA
BRANCH  80  81
ATOM     81  C   UNL     1       4.908   3.044  -6.379  1.00  0.00     0.338 C 
ATOM     82  O   UNL     1       5.596   4.033  -6.199  1.00  0.00    -0.246 OA
BRANCH  81  83
ATOM     83  C   UNL     1       5.392   1.767  -6.951  1.00  0.00     0.062 A 
ATOM     84  C   UNL     1       6.574   1.222  -6.434  1.00  0.00     0.016 A 
ATOM     85  C   UNL     1       4.619   1.047  -7.873  1.00  0.00     0.041 A 
ATOM     86  C   UNL     1       6.943  -0.073  -6.782  1.00  0.00     0.003 A 
ATOM     87  C   UNL     1       5.036  -0.220  -8.299  1.00  0.00     0.039 A 
ATOM     88  C   UNL     1       6.176  -0.785  -7.704  1.00  0.00     0.026 A 
BRANCH  87  89
ATOM     89  N   UNL     1       4.305  -0.909  -9.293  1.00  0.00    -0.355 N 
ATOM     90  H   UNL     1       3.348  -0.697  -9.392  1.00  0.00     0.167 HD
BRANCH  89  91
ATOM     91  C   UNL     1       4.857  -1.880 -10.149  1.00  0.00     0.039 A 
ATOM     92  C   UNL     1       5.527  -1.478 -11.313  1.00  0.00     0.033 A 
ATOM     93  C   UNL     1       4.816  -3.238  -9.812  1.00  0.00     0.033 A 
ATOM     94  C   UNL     1       6.184  -2.413 -12.114  1.00  0.00     0.088 A 
ATOM     95  C   UNL     1       5.466  -4.185 -10.609  1.00  0.00     0.088 A 
ATOM     96  C   UNL     1       6.160  -3.765 -11.752  1.00  0.00     0.269 A 
BRANCH  96  97
ATOM     97  N   UNL     1       6.890  -4.746 -12.565  1.00  0.00     0.062 N 
ATOM     98  O   UNL     1       7.482  -4.334 -13.573  1.00  0.00    -0.258 OA
ATOM     99  O   UNL     1       6.878  -5.927 -12.190  1.00  0.00    -0.258 OA
ENDBRANCH  96  97
ENDBRANCH  89  91
ENDBRANCH  87  89
ENDBRANCH  81  83
ENDBRANCH  80  81
ENDBRANCH  79  80
ENDBRANCH  78  79
ENDBRANCH  77  78
ENDBRANCH  76  77
ENDBRANCH   1  76
TORSDOF 23
