REMARK SMILES O=C(OCCOCCOCCOCCOC(=O)c1nnn(Cc2ccccc2Cl)c1-c1ccc(Cl)cc1)c1ccc(-c2c3nc(c(-c4c(F)c(F)c(F)c(F)c4F)c4ccc([nH]4)c(-c4c(F)c(F)c(F)c(F)c4F)c4nc(c(-c5c(F)c(F)c(F)c(F)c5F)c5ccc2[nH]5)C=C4)C=C3)cc1
REMARK SMILES IDX 9 1 8 2 7 3 6 4 5 5 4 6 3 7 2 8 1 9 38 10 39 11 100 12 40 13
REMARK SMILES IDX 99 14 41 15 42 16 43 17 93 18 44 19 98 20 92 21 94 22 45 23
REMARK SMILES IDX 97 24 91 25 90 26 46 28 78 29 58 30 77 31 59 32 62 33 76 34
REMARK SMILES IDX 95 35 60 36 61 37 75 39 96 40 63 41 47 42 48 43 56 44 49 45
REMARK SMILES IDX 50 46 54 47 57 48 51 49 52 50 55 51 53 52 79 53 80 54 88 55
REMARK SMILES IDX 81 56 82 57 86 58 89 59 83 60 84 61 87 62 85 63 64 64 65 65
REMARK SMILES IDX 73 66 66 67 67 68 71 69 74 70 68 71 69 72 72 73 70 74 10 75
REMARK SMILES IDX 11 76 12 77 13 78 14 79 15 80 16 81 17 82 18 83 19 84 30 85
REMARK SMILES IDX 20 86 21 87 31 88 32 89 37 90 33 91 36 92 34 93 35 94 22 95
REMARK SMILES IDX 23 96 24 97 28 98 25 99 27 100 29 101 26 102
REMARK H PARENT 94 27 62 38
REMARK Flexibility Score: inf
ROOT
ATOM      1  O   UNL     1       2.865  -2.431  -2.316  1.00  0.00    -0.377 OA
ENDROOT
BRANCH   1   2
ATOM      2  C   UNL     1       2.352  -1.438  -1.447  1.00  0.00     0.188 C 
BRANCH   2   3
ATOM      3  C   UNL     1       2.985  -0.040  -1.557  1.00  0.00     0.188 C 
BRANCH   3   4
ATOM      4  O   UNL     1       4.212   0.394  -0.981  1.00  0.00    -0.376 OA
BRANCH   4   5
ATOM      5  C   UNL     1       5.045  -0.291  -0.074  1.00  0.00     0.202 C 
BRANCH   5   6
ATOM      6  C   UNL     1       4.573  -0.670   1.330  1.00  0.00     0.261 C 
BRANCH   6   7
ATOM      7  O   UNL     1       3.209  -1.062   1.446  1.00  0.00    -0.460 OA
BRANCH   7   8
ATOM      8  C   UNL     1       2.100  -0.300   1.510  1.00  0.00     0.338 C 
ATOM      9  O   UNL     1       1.013  -0.873   1.585  1.00  0.00    -0.246 OA
BRANCH   8  10
ATOM     10  C   UNL     1       2.090   1.186   1.443  1.00  0.00     0.060 A 
ATOM     11  C   UNL     1       3.198   2.028   1.549  1.00  0.00     0.016 A 
ATOM     12  C   UNL     1       0.812   1.766   1.306  1.00  0.00     0.016 A 
ATOM     13  C   UNL     1       3.029   3.388   1.713  1.00  0.00     0.010 A 
ATOM     14  C   UNL     1       0.635   3.129   1.440  1.00  0.00     0.010 A 
ATOM     15  C   UNL     1       1.742   3.910   1.737  1.00  0.00    -0.014 A 
BRANCH  15  16
ATOM     16  C   UNL     1       1.615   5.293   2.145  1.00  0.00     0.031 A 
ATOM     17  C   UNL     1       2.164   6.294   1.201  1.00  0.00     0.074 A 
ATOM     18  C   UNL     1       1.019   5.601   3.311  1.00  0.00     0.049 A 
ATOM     19  N   UNL     1       3.088   7.172   1.418  1.00  0.00    -0.248 NA
ATOM     20  C   UNL     1       1.688   6.247  -0.189  1.00  0.00     0.031 C 
ATOM     21  C   UNL     1       0.247   4.715   4.187  1.00  0.00     0.029 A 
ATOM     22  N   UNL     1       0.888   6.815   3.906  1.00  0.00    -0.354 N 
ATOM     23  C   UNL     1       3.191   7.910   0.242  1.00  0.00     0.074 A 
ATOM     24  C   UNL     1       2.408   7.219  -0.749  1.00  0.00     0.031 C 
ATOM     25  C   UNL     1      -0.464   5.464   5.056  1.00  0.00     0.029 A 
ATOM     26  C   UNL     1      -0.099   6.859   4.877  1.00  0.00     0.049 A 
ATOM     27  H   UNL     1       1.444   7.593   3.670  1.00  0.00     0.167 HD
ATOM     28  C   UNL     1       3.722   9.163   0.242  1.00  0.00     0.037 A 
ATOM     29  C   UNL     1      -0.640   7.975   5.418  1.00  0.00     0.037 A 
ATOM     30  C   UNL     1       4.589   9.369   1.372  1.00  0.00     0.049 A 
ATOM     31  C   UNL     1       0.300   9.098   5.170  1.00  0.00     0.074 A 
ATOM     32  C   UNL     1       5.746   8.765   1.827  1.00  0.00     0.029 A 
ATOM     33  N   UNL     1       4.132  10.123   2.423  1.00  0.00    -0.354 N 
ATOM     34  N   UNL     1       1.464   9.217   5.745  1.00  0.00    -0.248 NA
ATOM     35  C   UNL     1       0.128   9.871   3.948  1.00  0.00     0.031 C 
ATOM     36  C   UNL     1       5.650   8.799   3.249  1.00  0.00     0.029 A 
ATOM     37  C   UNL     1       4.464   9.457   3.574  1.00  0.00     0.049 A 
ATOM     38  H   UNL     1       3.655  10.982   2.362  1.00  0.00     0.167 HD
ATOM     39  C   UNL     1       2.296   9.719   4.756  1.00  0.00     0.074 A 
ATOM     40  C   UNL     1       1.400  10.199   3.709  1.00  0.00     0.031 C 
ATOM     41  C   UNL     1       3.632   9.438   4.752  1.00  0.00     0.037 A 
BRANCH  28  42
ATOM     42  C   UNL     1       3.147  10.307  -0.558  1.00  0.00     0.064 A 
ATOM     43  C   UNL     1       3.816  11.547  -0.557  1.00  0.00     0.173 A 
ATOM     44  C   UNL     1       1.822  10.332  -1.048  1.00  0.00     0.173 A 
ATOM     45  F   UNL     1       5.075  11.645  -0.103  1.00  0.00    -0.203 F 
ATOM     46  C   UNL     1       3.172  12.733  -0.921  1.00  0.00     0.198 A 
ATOM     47  C   UNL     1       1.201  11.509  -1.460  1.00  0.00     0.198 A 
ATOM     48  F   UNL     1       1.035   9.251  -1.040  1.00  0.00    -0.203 F 
ATOM     49  F   UNL     1       3.802  13.905  -0.768  1.00  0.00    -0.200 F 
ATOM     50  C   UNL     1       1.862  12.714  -1.361  1.00  0.00     0.200 A 
ATOM     51  F   UNL     1      -0.075  11.470  -1.869  1.00  0.00    -0.200 F 
ATOM     52  F   UNL     1       1.219  13.855  -1.640  1.00  0.00    -0.200 F 
ENDBRANCH  28  42
BRANCH  29  53
ATOM     53  C   UNL     1      -2.044   8.180   5.841  1.00  0.00     0.064 A 
ATOM     54  C   UNL     1      -2.401   9.264   6.656  1.00  0.00     0.173 A 
ATOM     55  C   UNL     1      -3.106   7.466   5.248  1.00  0.00     0.173 A 
ATOM     56  F   UNL     1      -1.451  10.024   7.220  1.00  0.00    -0.203 F 
ATOM     57  C   UNL     1      -3.738   9.626   6.849  1.00  0.00     0.198 A 
ATOM     58  C   UNL     1      -4.439   7.819   5.453  1.00  0.00     0.198 A 
ATOM     59  F   UNL     1      -2.873   6.471   4.380  1.00  0.00    -0.203 F 
ATOM     60  F   UNL     1      -4.037  10.707   7.583  1.00  0.00    -0.200 F 
ATOM     61  C   UNL     1      -4.755   8.908   6.242  1.00  0.00     0.200 A 
ATOM     62  F   UNL     1      -5.410   7.135   4.831  1.00  0.00    -0.200 F 
ATOM     63  F   UNL     1      -6.032   9.288   6.382  1.00  0.00    -0.200 F 
ENDBRANCH  29  53
BRANCH  41  64
ATOM     64  C   UNL     1       4.220   8.821   5.988  1.00  0.00     0.064 A 
ATOM     65  C   UNL     1       3.850   7.558   6.483  1.00  0.00     0.173 A 
ATOM     66  C   UNL     1       5.292   9.471   6.612  1.00  0.00     0.173 A 
ATOM     67  F   UNL     1       2.910   6.825   5.872  1.00  0.00    -0.203 F 
ATOM     68  C   UNL     1       4.490   7.001   7.588  1.00  0.00     0.198 A 
ATOM     69  C   UNL     1       5.955   8.895   7.692  1.00  0.00     0.198 A 
ATOM     70  F   UNL     1       5.729  10.651   6.143  1.00  0.00    -0.203 F 
ATOM     71  F   UNL     1       4.109   5.802   8.053  1.00  0.00    -0.200 F 
ATOM     72  C   UNL     1       5.546   7.668   8.188  1.00  0.00     0.200 A 
ATOM     73  F   UNL     1       7.010   9.519   8.235  1.00  0.00    -0.200 F 
ATOM     74  F   UNL     1       6.189   7.114   9.225  1.00  0.00    -0.200 F 
ENDBRANCH  41  64
ENDBRANCH  15  16
ENDBRANCH   8  10
ENDBRANCH   7   8
ENDBRANCH   6   7
ENDBRANCH   5   6
ENDBRANCH   4   5
ENDBRANCH   3   4
ENDBRANCH   2   3
ENDBRANCH   1   2
BRANCH   1  75
ATOM     75  C   UNL     1       4.173  -2.854  -2.007  1.00  0.00     0.188 C 
BRANCH  75  76
ATOM     76  C   UNL     1       5.255  -2.305  -2.959  1.00  0.00     0.188 C 
BRANCH  76  77
ATOM     77  O   UNL     1       4.937  -1.557  -4.129  1.00  0.00    -0.376 OA
BRANCH  77  78
ATOM     78  C   UNL     1       3.705  -1.711  -4.811  1.00  0.00     0.202 C 
BRANCH  78  79
ATOM     79  C   UNL     1       3.368  -3.066  -5.440  1.00  0.00     0.261 C 
BRANCH  79  80
ATOM     80  O   UNL     1       3.606  -4.192  -4.597  1.00  0.00    -0.458 OA
BRANCH  80  81
ATOM     81  C   UNL     1       4.830  -4.790  -4.734  1.00  0.00     0.361 C 
ATOM     82  O   UNL     1       5.678  -4.482  -5.546  1.00  0.00    -0.244 OA
BRANCH  81  83
ATOM     83  C   UNL     1       4.999  -5.837  -3.741  1.00  0.00     0.198 A 
ATOM     84  N   UNL     1       5.925  -5.776  -2.735  1.00  0.00    -0.122 NA
ATOM     85  C   UNL     1       4.219  -6.975  -3.602  1.00  0.00     0.104 A 
ATOM     86  N   UNL     1       5.731  -6.819  -1.945  1.00  0.00    -0.066 NA
ATOM     87  N   UNL     1       4.762  -7.585  -2.496  1.00  0.00    -0.239 N 
BRANCH  85  88
ATOM     88  C   UNL     1       3.132  -7.414  -4.466  1.00  0.00     0.002 A 
ATOM     89  C   UNL     1       3.335  -7.394  -5.857  1.00  0.00     0.012 A 
ATOM     90  C   UNL     1       1.849  -7.661  -3.968  1.00  0.00     0.012 A 
ATOM     91  C   UNL     1       2.269  -7.568  -6.737  1.00  0.00     0.021 A 
ATOM     92  C   UNL     1       0.783  -7.858  -4.853  1.00  0.00     0.021 A 
ATOM     93  C   UNL     1       0.994  -7.793  -6.231  1.00  0.00     0.041 A 
ATOM     94  Cl  UNL     1      -0.331  -7.960  -7.313  1.00  0.00    -0.084 Cl
ENDBRANCH  85  88
BRANCH  87  95
ATOM     95  C   UNL     1       4.521  -8.910  -1.950  1.00  0.00     0.183 C 
BRANCH  95  96
ATOM     96  C   UNL     1       5.673  -9.830  -2.283  1.00  0.00    -0.008 A 
ATOM     97  C   UNL     1       5.694 -10.457  -3.543  1.00  0.00     0.007 A 
ATOM     98  C   UNL     1       6.771 -10.017  -1.425  1.00  0.00     0.046 A 
ATOM     99  C   UNL     1       6.781 -11.239  -3.936  1.00  0.00     0.000 A 
ATOM    100  C   UNL     1       7.861 -10.796  -1.827  1.00  0.00     0.021 A 
ATOM    101  Cl  UNL     1       6.840  -9.316   0.153  1.00  0.00    -0.084 Cl
ATOM    102  C   UNL     1       7.867 -11.403  -3.081  1.00  0.00     0.002 A 
ENDBRANCH  95  96
ENDBRANCH  87  95
ENDBRANCH  81  83
ENDBRANCH  80  81
ENDBRANCH  79  80
ENDBRANCH  78  79
ENDBRANCH  77  78
ENDBRANCH  76  77
ENDBRANCH  75  76
ENDBRANCH   1  75
TORSDOF 23
