REMARK SMILES O=C(Nc1ccsc1C(=O)OCCOCCOCCOCCOC(=O)c1ccc(-c2c3nc(c(-c4c(F)c(F)c(F)c(F)c4F)c4ccc([nH]4)c(-c4c(F)c(F)c(F)c(F)c4F)c4nc(c(-c5c(F)c(F)c(F)c(F)c5F)c5ccc2[nH]5)C=C4)C=C3)cc1)c1ccc(Br)nc1
REMARK SMILES IDX 17 1 16 2 15 3 14 4 13 5 12 6 11 7 9 8 10 9 8 10 4 11 5 12
REMARK SMILES IDX 6 13 7 14 3 15 1 16 2 17 89 19 90 20 95 21 91 22 94 23 92 24
REMARK SMILES IDX 93 25 18 26 19 27 20 28 21 29 22 30 23 31 24 32 25 33 26 34
REMARK SMILES IDX 27 35 88 36 28 37 87 38 29 39 30 40 31 41 81 42 32 43 86 44
REMARK SMILES IDX 80 45 82 46 33 47 85 48 79 49 78 50 34 52 66 53 46 54 65 55
REMARK SMILES IDX 47 56 50 57 64 58 83 59 48 60 49 61 63 63 84 64 51 65 35 66
REMARK SMILES IDX 36 67 44 68 37 69 38 70 42 71 45 72 39 73 40 74 43 75 41 76
REMARK SMILES IDX 67 77 68 78 76 79 69 80 70 81 74 82 77 83 71 84 72 85 75 86
REMARK SMILES IDX 73 87 52 88 53 89 61 90 54 91 55 92 59 93 62 94 56 95 57 96
REMARK SMILES IDX 60 97 58 98
REMARK H PARENT 3 18 82 51 50 62
REMARK Flexibility Score: inf
ROOT
ATOM      1  O   UNL     1       3.283   1.166   3.560  1.00  0.00    -0.377 OA
ENDROOT
BRANCH   1   2
ATOM      2  C   UNL     1       4.699   1.150   3.467  1.00  0.00     0.188 C 
BRANCH   2   3
ATOM      3  C   UNL     1       5.347   2.445   3.980  1.00  0.00     0.188 C 
BRANCH   3   4
ATOM      4  O   UNL     1       4.428   3.296   4.666  1.00  0.00    -0.376 OA
BRANCH   4   5
ATOM      5  C   UNL     1       3.997   4.454   3.957  1.00  0.00     0.202 C 
BRANCH   5   6
ATOM      6  C   UNL     1       2.956   4.204   2.854  1.00  0.00     0.261 C 
BRANCH   6   7
ATOM      7  O   UNL     1       3.404   3.374   1.767  1.00  0.00    -0.459 OA
BRANCH   7   8
ATOM      8  C   UNL     1       4.434   3.833   1.008  1.00  0.00     0.350 C 
ATOM      9  O   UNL     1       4.902   4.962   1.112  1.00  0.00    -0.245 OA
BRANCH   8  10
ATOM     10  C   UNL     1       4.933   2.757   0.165  1.00  0.00     0.136 A 
ATOM     11  C   UNL     1       4.345   1.557  -0.240  1.00  0.00     0.067 A 
ATOM     12  C   UNL     1       5.255   0.793  -1.038  1.00  0.00     0.039 A 
ATOM     13  C   UNL     1       6.496   1.374  -1.151  1.00  0.00     0.068 A 
ATOM     14  S   UNL     1       6.559   2.888  -0.382  1.00  0.00    -0.135 S 
BRANCH  11  15
ATOM     15  N   UNL     1       3.029   1.230   0.092  1.00  0.00    -0.320 N 
ATOM     16  O   UNL     1       1.073   0.092  -0.015  1.00  0.00    -0.269 OA
ATOM     17  C   UNL     1       2.300   0.079  -0.100  1.00  0.00     0.257 C 
ATOM     18  H   UNL     1       2.535   1.951   0.544  1.00  0.00     0.170 HD
BRANCH  17  19
ATOM     19  C   UNL     1       2.955  -1.212  -0.342  1.00  0.00     0.058 A 
ATOM     20  C   UNL     1       2.608  -1.990  -1.444  1.00  0.00     0.018 A 
ATOM     21  C   UNL     1       3.878  -1.715   0.563  1.00  0.00     0.126 A 
ATOM     22  C   UNL     1       3.249  -3.214  -1.635  1.00  0.00     0.037 A 
ATOM     23  N   UNL     1       4.522  -2.896   0.396  1.00  0.00    -0.249 NA
ATOM     24  C   UNL     1       4.197  -3.618  -0.702  1.00  0.00     0.106 A 
ATOM     25  Br  UNL     1       5.104  -5.261  -0.971  1.00  0.00    -0.029 Br
ENDBRANCH  17  19
ENDBRANCH  11  15
ENDBRANCH   8  10
ENDBRANCH   7   8
ENDBRANCH   6   7
ENDBRANCH   5   6
ENDBRANCH   4   5
ENDBRANCH   3   4
ENDBRANCH   2   3
ENDBRANCH   1   2
BRANCH   1  26
ATOM     26  C   UNL     1       2.706   0.738   4.795  1.00  0.00     0.188 C 
BRANCH  26  27
ATOM     27  C   UNL     1       3.485   0.868   6.122  1.00  0.00     0.188 C 
BRANCH  27  28
ATOM     28  O   UNL     1       4.764   0.234   6.096  1.00  0.00    -0.376 OA
BRANCH  28  29
ATOM     29  C   UNL     1       4.880  -0.986   6.822  1.00  0.00     0.202 C 
BRANCH  29  30
ATOM     30  C   UNL     1       4.296  -2.197   6.082  1.00  0.00     0.261 C 
BRANCH  30  31
ATOM     31  O   UNL     1       2.869  -2.163   5.920  1.00  0.00    -0.460 OA
BRANCH  31  32
ATOM     32  C   UNL     1       2.125  -2.120   7.046  1.00  0.00     0.338 C 
ATOM     33  O   UNL     1       2.517  -2.188   8.196  1.00  0.00    -0.246 OA
BRANCH  32  34
ATOM     34  C   UNL     1       0.740  -1.789   6.663  1.00  0.00     0.060 A 
ATOM     35  C   UNL     1       0.112  -0.704   7.288  1.00  0.00     0.016 A 
ATOM     36  C   UNL     1       0.060  -2.555   5.713  1.00  0.00     0.016 A 
ATOM     37  C   UNL     1      -1.220  -0.413   6.997  1.00  0.00     0.010 A 
ATOM     38  C   UNL     1      -1.277  -2.272   5.434  1.00  0.00     0.010 A 
ATOM     39  C   UNL     1      -1.932  -1.225   6.103  1.00  0.00    -0.014 A 
BRANCH  39  40
ATOM     40  C   UNL     1      -3.406  -1.109   6.013  1.00  0.00     0.031 A 
ATOM     41  C   UNL     1      -4.245  -2.009   6.875  1.00  0.00     0.074 A 
ATOM     42  C   UNL     1      -3.987  -0.229   5.181  1.00  0.00     0.049 A 
ATOM     43  N   UNL     1      -5.547  -2.127   6.937  1.00  0.00    -0.248 NA
ATOM     44  C   UNL     1      -3.514  -2.903   7.788  1.00  0.00     0.031 C 
ATOM     45  C   UNL     1      -3.281   0.708   4.312  1.00  0.00     0.029 A 
ATOM     46  N   UNL     1      -5.316   0.004   4.926  1.00  0.00    -0.354 N 
ATOM     47  C   UNL     1      -5.789  -3.100   7.896  1.00  0.00     0.074 A 
ATOM     48  C   UNL     1      -4.503  -3.567   8.366  1.00  0.00     0.031 C 
ATOM     49  C   UNL     1      -4.185   1.404   3.600  1.00  0.00     0.029 A 
ATOM     50  C   UNL     1      -5.529   0.944   3.949  1.00  0.00     0.049 A 
ATOM     51  H   UNL     1      -6.045  -0.459   5.397  1.00  0.00     0.167 HD
ATOM     52  C   UNL     1      -6.978  -3.558   8.353  1.00  0.00     0.037 A 
ATOM     53  C   UNL     1      -6.679   1.364   3.388  1.00  0.00     0.037 A 
ATOM     54  C   UNL     1      -8.257  -3.110   7.873  1.00  0.00     0.049 A 
ATOM     55  C   UNL     1      -7.990   0.791   3.865  1.00  0.00     0.074 A 
ATOM     56  C   UNL     1      -9.519  -3.509   8.274  1.00  0.00     0.029 A 
ATOM     57  N   UNL     1      -8.433  -2.165   6.873  1.00  0.00    -0.354 N 
ATOM     58  N   UNL     1      -8.214  -0.104   4.795  1.00  0.00    -0.248 NA
ATOM     59  C   UNL     1      -9.209   1.294   3.213  1.00  0.00     0.031 C 
ATOM     60  C   UNL     1     -10.460  -2.836   7.487  1.00  0.00     0.029 A 
ATOM     61  C   UNL     1      -9.784  -1.983   6.629  1.00  0.00     0.049 A 
ATOM     62  H   UNL     1      -7.706  -1.693   6.407  1.00  0.00     0.167 HD
ATOM     63  C   UNL     1      -9.594  -0.256   4.858  1.00  0.00     0.074 A 
ATOM     64  C   UNL     1     -10.158   0.650   3.879  1.00  0.00     0.031 C 
ATOM     65  C   UNL     1     -10.328  -1.072   5.654  1.00  0.00     0.037 A 
BRANCH  52  66
ATOM     66  C   UNL     1      -6.942  -4.615   9.415  1.00  0.00     0.064 A 
ATOM     67  C   UNL     1      -6.562  -4.316  10.732  1.00  0.00     0.173 A 
ATOM     68  C   UNL     1      -7.299  -5.938   9.117  1.00  0.00     0.173 A 
ATOM     69  F   UNL     1      -6.193  -3.069  11.062  1.00  0.00    -0.203 F 
ATOM     70  C   UNL     1      -6.518  -5.309  11.707  1.00  0.00     0.198 A 
ATOM     71  C   UNL     1      -7.278  -6.923  10.100  1.00  0.00     0.198 A 
ATOM     72  F   UNL     1      -7.669  -6.274   7.872  1.00  0.00    -0.203 F 
ATOM     73  F   UNL     1      -6.106  -5.011  12.947  1.00  0.00    -0.200 F 
ATOM     74  C   UNL     1      -6.881  -6.610  11.391  1.00  0.00     0.200 A 
ATOM     75  F   UNL     1      -7.636  -8.178   9.796  1.00  0.00    -0.200 F 
ATOM     76  F   UNL     1      -6.838  -7.565  12.330  1.00  0.00    -0.200 F 
ENDBRANCH  52  66
BRANCH  53  77
ATOM     77  C   UNL     1      -6.646   2.375   2.301  1.00  0.00     0.064 A 
ATOM     78  C   UNL     1      -7.115   3.679   2.511  1.00  0.00     0.173 A 
ATOM     79  C   UNL     1      -6.159   2.053   1.026  1.00  0.00     0.173 A 
ATOM     80  F   UNL     1      -7.616   4.025   3.706  1.00  0.00    -0.203 F 
ATOM     81  C   UNL     1      -7.112   4.619   1.483  1.00  0.00     0.198 A 
ATOM     82  C   UNL     1      -6.134   3.001   0.005  1.00  0.00     0.198 A 
ATOM     83  F   UNL     1      -5.707   0.816   0.773  1.00  0.00    -0.203 F 
ATOM     84  F   UNL     1      -7.606   5.845   1.698  1.00  0.00    -0.200 F 
ATOM     85  C   UNL     1      -6.616   4.281   0.232  1.00  0.00     0.200 A 
ATOM     86  F   UNL     1      -5.649   2.672  -1.200  1.00  0.00    -0.200 F 
ATOM     87  F   UNL     1      -6.613   5.185  -0.756  1.00  0.00    -0.200 F 
ENDBRANCH  53  77
BRANCH  65  88
ATOM     88  C   UNL     1     -11.821  -1.003   5.525  1.00  0.00     0.064 A 
ATOM     89  C   UNL     1     -12.489  -1.551   4.421  1.00  0.00     0.173 A 
ATOM     90  C   UNL     1     -12.595  -0.427   6.544  1.00  0.00     0.173 A 
ATOM     91  F   UNL     1     -11.793  -2.101   3.415  1.00  0.00    -0.203 F 
ATOM     92  C   UNL     1     -13.878  -1.508   4.333  1.00  0.00     0.198 A 
ATOM     93  C   UNL     1     -13.985  -0.409   6.465  1.00  0.00     0.198 A 
ATOM     94  F   UNL     1     -12.004   0.105   7.625  1.00  0.00    -0.203 F 
ATOM     95  F   UNL     1     -14.495  -2.003   3.251  1.00  0.00    -0.200 F 
ATOM     96  C   UNL     1     -14.625  -0.944   5.357  1.00  0.00     0.200 A 
ATOM     97  F   UNL     1     -14.705   0.125   7.461  1.00  0.00    -0.200 F 
ATOM     98  F   UNL     1     -15.962  -0.911   5.274  1.00  0.00    -0.200 F 
ENDBRANCH  65  88
ENDBRANCH  39  40
ENDBRANCH  32  34
ENDBRANCH  31  32
ENDBRANCH  30  31
ENDBRANCH  29  30
ENDBRANCH  28  29
ENDBRANCH  27  28
ENDBRANCH  26  27
ENDBRANCH   1  26
TORSDOF 22
