REMARK SMILES O=C(OCCOCCOCCOCCOC(=O)[C@H]1[C@H]2CC[C@H](C2)[C@@H]1C(=O)N1CC[NH+](C2CCCCC2)CC1)c1ccc(-c2c3nc(c(-c4c(F)c(F)c(F)c(F)c4F)c4ccc([nH]4)c(-c4c(F)c(F)c(F)c(F)c4F)c4nc(c(-c5c(F)c(F)c(F)c(F)c5F)c5ccc2[nH]5)C=C4)C=C3)cc1
REMARK SMILES IDX 9 1 8 2 7 3 6 4 5 5 4 6 3 7 2 8 1 9 39 10 40 11 101 12 41 13
REMARK SMILES IDX 100 14 42 15 43 16 44 17 94 18 45 19 99 20 93 21 95 22 46 23
REMARK SMILES IDX 98 24 92 25 91 26 47 28 79 29 59 30 78 31 60 32 63 33 77 34
REMARK SMILES IDX 96 35 61 36 62 37 76 39 97 40 64 41 48 42 49 43 57 44 50 45
REMARK SMILES IDX 51 46 55 47 58 48 52 49 53 50 56 51 54 52 80 53 81 54 89 55
REMARK SMILES IDX 82 56 83 57 87 58 90 59 84 60 85 61 88 62 86 63 65 64 66 65
REMARK SMILES IDX 74 66 67 67 68 68 72 69 75 70 69 71 70 72 73 73 71 74 10 75
REMARK SMILES IDX 11 76 12 77 13 78 14 79 15 80 16 81 17 82 18 83 19 84 24 85
REMARK SMILES IDX 20 86 23 87 22 88 21 89 25 90 26 91 27 92 28 93 38 94 29 95
REMARK SMILES IDX 37 96 30 97 31 99 32 100 36 101 33 102 35 103 34 104
REMARK H PARENT 95 27 63 38 30 98
REMARK Flexibility Score: inf
ROOT
ATOM      1  O   UNL     1       5.908  -2.903   0.908  1.00  0.00    -0.377 OA
ENDROOT
BRANCH   1   2
ATOM      2  C   UNL     1       5.778  -1.480   0.973  1.00  0.00     0.188 C 
BRANCH   2   3
ATOM      3  C   UNL     1       5.148  -0.811  -0.259  1.00  0.00     0.188 C 
BRANCH   3   4
ATOM      4  O   UNL     1       3.782  -1.192  -0.427  1.00  0.00    -0.376 OA
BRANCH   4   5
ATOM      5  C   UNL     1       3.325  -1.532  -1.736  1.00  0.00     0.202 C 
BRANCH   5   6
ATOM      6  C   UNL     1       3.179  -0.363  -2.698  1.00  0.00     0.261 C 
BRANCH   6   7
ATOM      7  O   UNL     1       3.922   0.800  -2.314  1.00  0.00    -0.460 OA
BRANCH   7   8
ATOM      8  C   UNL     1       3.624   1.739  -1.388  1.00  0.00     0.338 C 
ATOM      9  O   UNL     1       4.436   2.647  -1.206  1.00  0.00    -0.246 OA
BRANCH   8  10
ATOM     10  C   UNL     1       2.373   1.772  -0.573  1.00  0.00     0.060 A 
ATOM     11  C   UNL     1       1.631   0.667  -0.157  1.00  0.00     0.016 A 
ATOM     12  C   UNL     1       1.973   3.034  -0.105  1.00  0.00     0.016 A 
ATOM     13  C   UNL     1       0.518   0.786   0.653  1.00  0.00     0.010 A 
ATOM     14  C   UNL     1       0.854   3.175   0.717  1.00  0.00     0.010 A 
ATOM     15  C   UNL     1       0.115   2.042   1.071  1.00  0.00    -0.014 A 
BRANCH  15  16
ATOM     16  C   UNL     1      -1.219   2.137   1.670  1.00  0.00     0.031 A 
ATOM     17  C   UNL     1      -2.321   2.617   0.784  1.00  0.00     0.074 A 
ATOM     18  C   UNL     1      -1.439   1.646   2.898  1.00  0.00     0.049 A 
ATOM     19  N   UNL     1      -3.555   2.910   1.077  1.00  0.00    -0.248 NA
ATOM     20  C   UNL     1      -1.981   2.780  -0.642  1.00  0.00     0.031 C 
ATOM     21  C   UNL     1      -0.435   0.984   3.735  1.00  0.00     0.029 A 
ATOM     22  N   UNL     1      -2.581   1.609   3.647  1.00  0.00    -0.354 N 
ATOM     23  C   UNL     1      -4.120   3.346  -0.113  1.00  0.00     0.074 A 
ATOM     24  C   UNL     1      -3.104   3.271  -1.135  1.00  0.00     0.031 C 
ATOM     25  C   UNL     1      -1.006   0.619   4.893  1.00  0.00     0.029 A 
ATOM     26  C   UNL     1      -2.381   1.103   4.906  1.00  0.00     0.049 A 
ATOM     27  H   UNL     1      -3.457   1.915   3.317  1.00  0.00     0.167 HD
ATOM     28  C   UNL     1      -5.381   3.791  -0.307  1.00  0.00     0.037 A 
ATOM     29  C   UNL     1      -3.212   1.108   5.964  1.00  0.00     0.037 A 
ATOM     30  C   UNL     1      -6.346   3.839   0.755  1.00  0.00     0.049 A 
ATOM     31  C   UNL     1      -4.576   1.712   5.763  1.00  0.00     0.074 A 
ATOM     32  C   UNL     1      -7.639   4.318   0.736  1.00  0.00     0.029 A 
ATOM     33  N   UNL     1      -6.100   3.382   2.048  1.00  0.00    -0.354 N 
ATOM     34  N   UNL     1      -5.099   2.221   4.669  1.00  0.00    -0.248 NA
ATOM     35  C   UNL     1      -5.459   1.763   6.931  1.00  0.00     0.031 C 
ATOM     36  C   UNL     1      -8.153   4.209   2.033  1.00  0.00     0.029 A 
ATOM     37  C   UNL     1      -7.207   3.595   2.845  1.00  0.00     0.049 A 
ATOM     38  H   UNL     1      -5.259   2.967   2.349  1.00  0.00     0.167 HD
ATOM     39  C   UNL     1      -6.376   2.637   5.008  1.00  0.00     0.074 A 
ATOM     40  C   UNL     1      -6.551   2.308   6.412  1.00  0.00     0.031 C 
ATOM     41  C   UNL     1      -7.322   3.236   4.240  1.00  0.00     0.037 A 
BRANCH  28  42
ATOM     42  C   UNL     1      -5.701   4.356  -1.660  1.00  0.00     0.064 A 
ATOM     43  C   UNL     1      -5.753   3.562  -2.817  1.00  0.00     0.173 A 
ATOM     44  C   UNL     1      -5.864   5.741  -1.813  1.00  0.00     0.173 A 
ATOM     45  F   UNL     1      -5.566   2.235  -2.735  1.00  0.00    -0.203 F 
ATOM     46  C   UNL     1      -5.905   4.138  -4.077  1.00  0.00     0.198 A 
ATOM     47  C   UNL     1      -6.051   6.311  -3.069  1.00  0.00     0.198 A 
ATOM     48  F   UNL     1      -5.810   6.551  -0.744  1.00  0.00    -0.203 F 
ATOM     49  F   UNL     1      -5.859   3.370  -5.174  1.00  0.00    -0.200 F 
ATOM     50  C   UNL     1      -6.055   5.511  -4.201  1.00  0.00     0.200 A 
ATOM     51  F   UNL     1      -6.197   7.638  -3.186  1.00  0.00    -0.200 F 
ATOM     52  F   UNL     1      -6.180   6.066  -5.415  1.00  0.00    -0.200 F 
ENDBRANCH  28  42
BRANCH  29  53
ATOM     53  C   UNL     1      -2.737   0.615   7.283  1.00  0.00     0.064 A 
ATOM     54  C   UNL     1      -3.290  -0.520   7.887  1.00  0.00     0.173 A 
ATOM     55  C   UNL     1      -1.686   1.261   7.958  1.00  0.00     0.173 A 
ATOM     56  F   UNL     1      -4.306  -1.165   7.295  1.00  0.00    -0.203 F 
ATOM     57  C   UNL     1      -2.818  -0.987   9.114  1.00  0.00     0.198 A 
ATOM     58  C   UNL     1      -1.194   0.776   9.168  1.00  0.00     0.198 A 
ATOM     59  F   UNL     1      -1.116   2.353   7.428  1.00  0.00    -0.203 F 
ATOM     60  F   UNL     1      -3.389  -2.056   9.686  1.00  0.00    -0.200 F 
ATOM     61  C   UNL     1      -1.765  -0.344   9.749  1.00  0.00     0.200 A 
ATOM     62  F   UNL     1      -0.164   1.391   9.765  1.00  0.00    -0.200 F 
ATOM     63  F   UNL     1      -1.304  -0.801  10.921  1.00  0.00    -0.200 F 
ENDBRANCH  29  53
BRANCH  41  64
ATOM     64  C   UNL     1      -8.636   3.530   4.895  1.00  0.00     0.064 A 
ATOM     65  C   UNL     1      -8.780   4.575   5.817  1.00  0.00     0.173 A 
ATOM     66  C   UNL     1      -9.780   2.810   4.520  1.00  0.00     0.173 A 
ATOM     67  F   UNL     1      -7.710   5.279   6.214  1.00  0.00    -0.203 F 
ATOM     68  C   UNL     1     -10.027   4.881   6.351  1.00  0.00     0.198 A 
ATOM     69  C   UNL     1     -11.029   3.143   5.029  1.00  0.00     0.198 A 
ATOM     70  F   UNL     1      -9.688   1.808   3.632  1.00  0.00    -0.203 F 
ATOM     71  F   UNL     1     -10.142   5.861   7.259  1.00  0.00    -0.200 F 
ATOM     72  C   UNL     1     -11.151   4.175   5.947  1.00  0.00     0.200 A 
ATOM     73  F   UNL     1     -12.116   2.473   4.622  1.00  0.00    -0.200 F 
ATOM     74  F   UNL     1     -12.355   4.489   6.444  1.00  0.00    -0.200 F 
ENDBRANCH  41  64
ENDBRANCH  15  16
ENDBRANCH   8  10
ENDBRANCH   7   8
ENDBRANCH   6   7
ENDBRANCH   5   6
ENDBRANCH   4   5
ENDBRANCH   3   4
ENDBRANCH   2   3
ENDBRANCH   1   2
BRANCH   1  75
ATOM     75  C   UNL     1       4.785  -3.583   0.362  1.00  0.00     0.188 C 
BRANCH  75  76
ATOM     76  C   UNL     1       3.453  -3.558   1.167  1.00  0.00     0.188 C 
BRANCH  76  77
ATOM     77  O   UNL     1       3.325  -2.420   2.011  1.00  0.00    -0.376 OA
BRANCH  77  78
ATOM     78  C   UNL     1       3.353  -2.607   3.422  1.00  0.00     0.202 C 
BRANCH  78  79
ATOM     79  C   UNL     1       4.513  -3.365   4.098  1.00  0.00     0.261 C 
BRANCH  79  80
ATOM     80  O   UNL     1       5.117  -4.378   3.298  1.00  0.00    -0.463 OA
BRANCH  80  81
ATOM     81  C   UNL     1       4.649  -5.651   3.341  1.00  0.00     0.310 C 
ATOM     82  O   UNL     1       3.820  -6.085   4.139  1.00  0.00    -0.252 OA
BRANCH  81  83
ATOM     83  C   UNL     1       5.204  -6.363   2.131  1.00  0.00     0.115 C 
ATOM     84  C   UNL     1       6.746  -6.333   2.065  1.00  0.00     0.004 C 
ATOM     85  C   UNL     1       4.795  -7.813   1.828  1.00  0.00     0.096 C 
ATOM     86  C   UNL     1       7.330  -6.996   3.304  1.00  0.00     0.005 C 
ATOM     87  C   UNL     1       7.030  -7.396   1.021  1.00  0.00     0.009 C 
ATOM     88  C   UNL     1       6.186  -8.462   1.731  1.00  0.00     0.003 C 
ATOM     89  C   UNL     1       6.835  -8.443   3.146  1.00  0.00     0.005 C 
BRANCH  85  90
ATOM     90  C   UNL     1       3.787  -7.756   0.627  1.00  0.00     0.227 C 
ATOM     91  O   UNL     1       2.601  -7.524   0.906  1.00  0.00    -0.275 OA
ATOM     92  N   UNL     1       4.189  -7.669  -0.701  1.00  0.00    -0.331 N 
ATOM     93  C   UNL     1       3.275  -7.033  -1.673  1.00  0.00     0.181 C 
ATOM     94  C   UNL     1       5.148  -8.565  -1.340  1.00  0.00     0.181 C 
ATOM     95  C   UNL     1       3.992  -6.462  -2.931  1.00  0.00     0.284 C 
ATOM     96  C   UNL     1       5.900  -7.858  -2.479  1.00  0.00     0.284 C 
ATOM     97  N   UNL     1       5.043  -7.303  -3.537  1.00  0.00    -0.330 N 
ATOM     98  H   UNL     1       5.645  -6.704  -4.100  1.00  0.00     0.348 HD
BRANCH  97  99
ATOM     99  C   UNL     1       4.615  -8.203  -4.630  1.00  0.00     0.184 C 
ATOM    100  C   UNL     1       5.801  -9.023  -5.200  1.00  0.00     0.065 C 
ATOM    101  C   UNL     1       3.387  -9.088  -4.334  1.00  0.00     0.065 C 
ATOM    102  C   UNL     1       5.399  -9.985  -6.312  1.00  0.00     0.006 C 
ATOM    103  C   UNL     1       3.066 -10.088  -5.444  1.00  0.00     0.006 C 
ATOM    104  C   UNL     1       4.287 -10.907  -5.835  1.00  0.00     0.000 C 
ENDBRANCH  97  99
ENDBRANCH  85  90
ENDBRANCH  81  83
ENDBRANCH  80  81
ENDBRANCH  79  80
ENDBRANCH  78  79
ENDBRANCH  77  78
ENDBRANCH  76  77
ENDBRANCH  75  76
ENDBRANCH   1  75
TORSDOF 22
