REMARK SMILES Cc1ccccc1/[NH+]=C1\S[C@@H](CC(=O)Nc2ccc(C(=O)OCCOCCOCCOCCOC(=O)c3ccc(-c4c5nc(c(-c6c(F)c(F)c(F)c(F)c6F)c6ccc([nH]6)c(-c6c(F)c(F)c(F)c(F)c6F)c6nc(c(-c7c(F)c(F)c(F)c(F)c7F)c7ccc4[nH]7)C=C6)C=C5)cc3)cc2)C(=O)N1C
REMARK SMILES IDX 27 1 26 2 25 3 24 4 23 5 22 6 20 7 21 8 19 9 16 10 17 11
REMARK SMILES IDX 101 12 18 13 100 14 15 15 13 16 14 17 12 19 11 20 8 21 9 22
REMARK SMILES IDX 10 24 104 25 102 26 105 27 103 28 7 29 1 30 2 31 3 32 4 33
REMARK SMILES IDX 6 34 5 35 28 36 29 37 30 38 31 39 32 40 33 41 34 42 35 43
REMARK SMILES IDX 36 44 37 45 38 46 99 47 39 48 98 49 40 50 41 51 42 52 92 53
REMARK SMILES IDX 43 54 97 55 91 56 93 57 44 58 96 59 90 60 89 61 45 63 77 64
REMARK SMILES IDX 57 65 76 66 58 67 61 68 75 69 94 70 59 71 60 72 74 74 95 75
REMARK SMILES IDX 62 76 46 77 47 78 55 79 48 80 49 81 53 82 56 83 50 84 51 85
REMARK SMILES IDX 54 86 52 87 78 88 79 89 87 90 80 91 81 92 85 93 88 94 82 95
REMARK SMILES IDX 83 96 86 97 84 98 63 99 64 100 72 101 65 102 66 103 70 104
REMARK SMILES IDX 73 105 67 106 68 107 71 108 69 109
REMARK H PARENT 15 18 8 23 93 62 61 73
REMARK Flexibility Score: inf
ROOT
ATOM      1  C   UNL     1       6.455   8.394  -0.338  1.00  0.00     0.188 C 
ENDROOT
BRANCH   1   2
ATOM      2  C   UNL     1       6.707   7.817  -1.734  1.00  0.00     0.188 C 
BRANCH   2   3
ATOM      3  O   UNL     1       6.449   6.415  -1.681  1.00  0.00    -0.376 OA
BRANCH   3   4
ATOM      4  C   UNL     1       5.504   5.972  -2.632  1.00  0.00     0.202 C 
BRANCH   4   5
ATOM      5  C   UNL     1       6.099   5.401  -3.878  1.00  0.00     0.261 C 
BRANCH   5   6
ATOM      6  O   UNL     1       6.972   4.323  -3.632  1.00  0.00    -0.460 OA
BRANCH   6   7
ATOM      7  C   UNL     1       8.194   4.692  -3.210  1.00  0.00     0.338 C 
ATOM      8  O   UNL     1       8.957   5.477  -3.739  1.00  0.00    -0.246 OA
BRANCH   7   9
ATOM      9  C   UNL     1       8.307   4.080  -1.878  1.00  0.00     0.060 A 
ATOM     10  C   UNL     1       8.219   3.161   0.735  1.00  0.00     0.041 A 
ATOM     11  C   UNL     1       7.122   3.142  -0.080  1.00  0.00     0.027 A 
ATOM     12  C   UNL     1       9.335   3.873   0.300  1.00  0.00     0.027 A 
ATOM     13  C   UNL     1       7.196   3.402  -1.405  1.00  0.00     0.018 A 
ATOM     14  C   UNL     1       9.361   4.376  -1.015  1.00  0.00     0.018 A 
BRANCH  10  15
ATOM     15  N   UNL     1       8.131   2.465   1.947  1.00  0.00    -0.326 N 
ATOM     16  C   UNL     1       7.261   1.437   2.281  1.00  0.00     0.226 C 
ATOM     17  O   UNL     1       7.217   1.059   3.455  1.00  0.00    -0.275 OA
ATOM     18  H   UNL     1       8.765   2.739   2.649  1.00  0.00     0.169 HD
BRANCH  16  19
ATOM     19  C   UNL     1       6.452   0.657   1.219  1.00  0.00     0.128 C 
BRANCH  19  20
ATOM     20  C   UNL     1       4.927   0.773   1.361  1.00  0.00     0.183 C 
ATOM     21  N   UNL     1       1.580   1.208  -0.151  1.00  0.00    -0.234 N 
ATOM     22  C   UNL     1       2.861   1.172  -0.073  1.00  0.00     0.319 C 
ATOM     23  H   UNL     1       1.222   2.123  -0.219  1.00  0.00     0.313 HD
ATOM     24  S   UNL     1       4.070  -0.067  -0.053  1.00  0.00    -0.022 SA
ATOM     25  N   UNL     1       3.538   2.316   0.180  1.00  0.00    -0.193 N 
ATOM     26  C   UNL     1       4.369   2.191   1.260  1.00  0.00     0.324 C 
ATOM     27  C   UNL     1       3.354   3.532  -0.574  1.00  0.00     0.301 C 
ATOM     28  O   UNL     1       4.655   3.102   2.042  1.00  0.00    -0.245 OA
BRANCH  21  29
ATOM     29  C   UNL     1       0.580   0.223  -0.159  1.00  0.00     0.128 A 
ATOM     30  C   UNL     1       1.784  -1.774   0.950  1.00  0.00     0.049 C 
ATOM     31  C   UNL     1       0.613  -1.107   0.299  1.00  0.00    -0.004 A 
ATOM     32  C   UNL     1      -0.549  -1.909   0.219  1.00  0.00     0.008 A 
ATOM     33  C   UNL     1      -1.775  -1.383  -0.168  1.00  0.00     0.001 A 
ATOM     34  C   UNL     1      -0.691   0.733  -0.513  1.00  0.00     0.052 A 
ATOM     35  C   UNL     1      -1.855  -0.044  -0.501  1.00  0.00     0.004 A 
ENDBRANCH  21  29
ENDBRANCH  19  20
ENDBRANCH  16  19
ENDBRANCH  10  15
ENDBRANCH   7   9
ENDBRANCH   6   7
ENDBRANCH   5   6
ENDBRANCH   4   5
ENDBRANCH   3   4
ENDBRANCH   2   3
ENDBRANCH   1   2
BRANCH   1  36
ATOM     36  O   UNL     1       5.075   8.211   0.007  1.00  0.00    -0.377 OA
BRANCH  36  37
ATOM     37  C   UNL     1       4.396   9.299   0.635  1.00  0.00     0.188 C 
BRANCH  37  38
ATOM     38  C   UNL     1       3.980  10.447  -0.295  1.00  0.00     0.188 C 
BRANCH  38  39
ATOM     39  O   UNL     1       5.069  10.983  -1.035  1.00  0.00    -0.376 OA
BRANCH  39  40
ATOM     40  C   UNL     1       5.816  11.995  -0.363  1.00  0.00     0.202 C 
BRANCH  40  41
ATOM     41  C   UNL     1       5.035  13.305  -0.172  1.00  0.00     0.261 C 
BRANCH  41  42
ATOM     42  O   UNL     1       4.693  13.860  -1.456  1.00  0.00    -0.460 OA
BRANCH  42  43
ATOM     43  C   UNL     1       3.420  13.610  -1.864  1.00  0.00     0.338 C 
ATOM     44  O   UNL     1       2.413  13.825  -1.210  1.00  0.00    -0.246 OA
BRANCH  43  45
ATOM     45  C   UNL     1       3.457  12.747  -3.081  1.00  0.00     0.060 A 
ATOM     46  C   UNL     1       2.296  12.056  -3.430  1.00  0.00     0.016 A 
ATOM     47  C   UNL     1       4.692  12.337  -3.595  1.00  0.00     0.016 A 
ATOM     48  C   UNL     1       2.412  10.851  -4.124  1.00  0.00     0.010 A 
ATOM     49  C   UNL     1       4.813  11.071  -4.160  1.00  0.00     0.010 A 
ATOM     50  C   UNL     1       3.683  10.291  -4.401  1.00  0.00    -0.014 A 
BRANCH  50  51
ATOM     51  C   UNL     1       3.735   8.857  -4.811  1.00  0.00     0.031 A 
ATOM     52  C   UNL     1       4.753   8.263  -5.786  1.00  0.00     0.074 A 
ATOM     53  C   UNL     1       3.092   8.045  -3.951  1.00  0.00     0.049 A 
ATOM     54  N   UNL     1       5.064   7.027  -6.102  1.00  0.00    -0.248 NA
ATOM     55  C   UNL     1       5.609   9.222  -6.470  1.00  0.00     0.031 C 
ATOM     56  C   UNL     1       3.204   8.112  -2.498  1.00  0.00     0.029 A 
ATOM     57  N   UNL     1       2.241   7.003  -4.170  1.00  0.00    -0.354 N 
ATOM     58  C   UNL     1       6.268   7.041  -6.868  1.00  0.00     0.074 A 
ATOM     59  C   UNL     1       6.484   8.444  -7.096  1.00  0.00     0.031 C 
ATOM     60  C   UNL     1       2.553   7.095  -1.920  1.00  0.00     0.029 A 
ATOM     61  C   UNL     1       1.973   6.326  -2.991  1.00  0.00     0.049 A 
ATOM     62  H   UNL     1       1.867   6.764  -5.049  1.00  0.00     0.167 HD
ATOM     63  C   UNL     1       7.058   5.940  -7.187  1.00  0.00     0.037 A 
ATOM     64  C   UNL     1       1.103   5.321  -2.824  1.00  0.00     0.037 A 
ATOM     65  C   UNL     1       6.479   4.632  -6.771  1.00  0.00     0.049 A 
ATOM     66  C   UNL     1       1.482   4.203  -3.744  1.00  0.00     0.074 A 
ATOM     67  C   UNL     1       7.030   3.509  -6.162  1.00  0.00     0.029 A 
ATOM     68  N   UNL     1       5.099   4.365  -6.823  1.00  0.00    -0.354 N 
ATOM     69  N   UNL     1       2.608   4.125  -4.430  1.00  0.00    -0.248 NA
ATOM     70  C   UNL     1       0.709   2.972  -3.769  1.00  0.00     0.031 C 
ATOM     71  C   UNL     1       5.994   2.646  -5.736  1.00  0.00     0.029 A 
ATOM     72  C   UNL     1       4.791   3.186  -6.153  1.00  0.00     0.049 A 
ATOM     73  H   UNL     1       4.438   4.938  -7.275  1.00  0.00     0.167 HD
ATOM     74  C   UNL     1       2.605   2.931  -5.128  1.00  0.00     0.074 A 
ATOM     75  C   UNL     1       1.472   2.214  -4.566  1.00  0.00     0.031 C 
ATOM     76  C   UNL     1       3.473   2.573  -6.132  1.00  0.00     0.037 A 
BRANCH  63  77
ATOM     77  C   UNL     1       8.579   5.987  -7.731  1.00  0.00     0.064 A 
ATOM     78  C   UNL     1       9.374   4.808  -7.873  1.00  0.00     0.173 A 
ATOM     79  C   UNL     1       9.336   7.133  -8.082  1.00  0.00     0.173 A 
ATOM     80  F   UNL     1       8.834   3.585  -7.858  1.00  0.00    -0.203 F 
ATOM     81  C   UNL     1      10.761   4.800  -8.147  1.00  0.00     0.198 A 
ATOM     82  C   UNL     1      10.709   7.126  -8.411  1.00  0.00     0.198 A 
ATOM     83  F   UNL     1       8.809   8.342  -8.222  1.00  0.00    -0.203 F 
ATOM     84  F   UNL     1      11.427   3.635  -8.193  1.00  0.00    -0.200 F 
ATOM     85  C   UNL     1      11.434   5.964  -8.409  1.00  0.00     0.200 A 
ATOM     86  F   UNL     1      11.306   8.277  -8.759  1.00  0.00    -0.200 F 
ATOM     87  F   UNL     1      12.736   5.964  -8.726  1.00  0.00    -0.200 F 
ENDBRANCH  63  77
BRANCH  64  88
ATOM     88  C   UNL     1      -0.190   5.870  -2.271  1.00  0.00     0.064 A 
ATOM     89  C   UNL     1      -0.205   6.172  -0.893  1.00  0.00     0.173 A 
ATOM     90  C   UNL     1      -0.879   6.773  -3.112  1.00  0.00     0.173 A 
ATOM     91  F   UNL     1       0.395   5.341  -0.028  1.00  0.00    -0.203 F 
ATOM     92  C   UNL     1      -0.591   7.439  -0.435  1.00  0.00     0.198 A 
ATOM     93  C   UNL     1      -1.248   8.044  -2.655  1.00  0.00     0.198 A 
ATOM     94  F   UNL     1      -0.936   6.538  -4.433  1.00  0.00    -0.203 F 
ATOM     95  F   UNL     1      -0.371   7.783   0.843  1.00  0.00    -0.200 F 
ATOM     96  C   UNL     1      -1.048   8.395  -1.329  1.00  0.00     0.200 A 
ATOM     97  F   UNL     1      -1.651   8.976  -3.532  1.00  0.00    -0.200 F 
ATOM     98  F   UNL     1      -1.220   9.665  -0.934  1.00  0.00    -0.200 F 
ENDBRANCH  64  88
BRANCH  76  99
ATOM     99  C   UNL     1       3.245   1.447  -7.150  1.00  0.00     0.064 A 
ATOM    100  C   UNL     1       1.997   0.863  -7.421  1.00  0.00     0.173 A 
ATOM    101  C   UNL     1       4.284   1.027  -8.032  1.00  0.00     0.173 A 
ATOM    102  F   UNL     1       0.879   1.260  -6.803  1.00  0.00    -0.203 F 
ATOM    103  C   UNL     1       1.820  -0.105  -8.415  1.00  0.00     0.198 A 
ATOM    104  C   UNL     1       4.095   0.095  -9.049  1.00  0.00     0.198 A 
ATOM    105  F   UNL     1       5.519   1.542  -7.996  1.00  0.00    -0.203 F 
ATOM    106  F   UNL     1       0.605  -0.640  -8.600  1.00  0.00    -0.200 F 
ATOM    107  C   UNL     1       2.863  -0.482  -9.234  1.00  0.00     0.200 A 
ATOM    108  F   UNL     1       5.112  -0.208  -9.868  1.00  0.00    -0.200 F 
ATOM    109  F   UNL     1       2.670  -1.360 -10.226  1.00  0.00    -0.200 F 
ENDBRANCH  76  99
ENDBRANCH  50  51
ENDBRANCH  43  45
ENDBRANCH  42  43
ENDBRANCH  41  42
ENDBRANCH  40  41
ENDBRANCH  39  40
ENDBRANCH  38  39
ENDBRANCH  37  38
ENDBRANCH  36  37
ENDBRANCH   1  36
TORSDOF 24
