REMARK SMILES O=C(OCCOCCOCCOCCOC(=O)[C@H]1C[C@H]2CCCC[C@@H]2[N@@H+]1CC[C@@H]1CCCO1)c1ccc(-c2c3nc(c(-c4c(F)c(F)c(F)c(F)c4F)c4ccc([nH]4)c(-c4c(F)c(F)c(F)c(F)c4F)c4nc(c(-c5c(F)c(F)c(F)c(F)c5F)c5ccc2[nH]5)C=C4)C=C3)cc1
REMARK SMILES IDX 10 1 9 2 8 3 7 4 6 5 5 6 4 7 3 8 2 9 1 10 34 11 35 12 96 13
REMARK SMILES IDX 36 14 95 15 37 16 38 17 39 18 89 19 40 20 94 21 88 22 90 23
REMARK SMILES IDX 41 24 93 25 87 26 86 27 42 29 74 30 54 31 73 32 55 33 58 34
REMARK SMILES IDX 72 35 91 36 56 37 57 38 71 40 92 41 59 42 43 43 44 44 52 45
REMARK SMILES IDX 45 46 46 47 50 48 53 49 47 50 48 51 51 52 49 53 75 54 76 55
REMARK SMILES IDX 84 56 77 57 78 58 82 59 85 60 79 61 80 62 83 63 81 64 60 65
REMARK SMILES IDX 61 66 69 67 62 68 63 69 67 70 70 71 64 72 65 73 68 74 66 75
REMARK SMILES IDX 11 76 12 77 13 78 14 79 15 80 16 81 17 82 18 83 19 84 26 85
REMARK SMILES IDX 20 86 25 87 21 89 24 90 22 91 23 92 27 93 28 94 29 95 30 96
REMARK SMILES IDX 33 97 31 98 32 99
REMARK H PARENT 90 28 58 39 26 88
REMARK Flexibility Score: inf
ROOT
ATOM      1  C   UNL     1       4.426  -3.061  -1.386  1.00  0.00     0.188 C 
ENDROOT
BRANCH   1   2
ATOM      2  O   UNL     1       4.599  -1.685  -1.106  1.00  0.00    -0.377 OA
BRANCH   2   3
ATOM      3  C   UNL     1       4.290  -1.249   0.205  1.00  0.00     0.188 C 
BRANCH   3   4
ATOM      4  C   UNL     1       3.107  -1.926   0.885  1.00  0.00     0.188 C 
BRANCH   4   5
ATOM      5  O   UNL     1       3.398  -3.291   1.199  1.00  0.00    -0.376 OA
BRANCH   5   6
ATOM      6  C   UNL     1       2.343  -4.224   0.952  1.00  0.00     0.202 C 
BRANCH   6   7
ATOM      7  C   UNL     1       1.218  -4.229   1.985  1.00  0.00     0.261 C 
BRANCH   7   8
ATOM      8  O   UNL     1       0.981  -2.954   2.592  1.00  0.00    -0.460 OA
BRANCH   8   9
ATOM      9  C   UNL     1       1.643  -2.360   3.615  1.00  0.00     0.338 C 
ATOM     10  O   UNL     1       1.229  -1.266   3.999  1.00  0.00    -0.246 OA
BRANCH   9  11
ATOM     11  C   UNL     1       2.887  -2.896   4.269  1.00  0.00     0.060 A 
ATOM     12  C   UNL     1       3.590  -4.043   3.892  1.00  0.00     0.016 A 
ATOM     13  C   UNL     1       3.407  -2.144   5.341  1.00  0.00     0.016 A 
ATOM     14  C   UNL     1       4.754  -4.439   4.527  1.00  0.00     0.010 A 
ATOM     15  C   UNL     1       4.544  -2.564   6.035  1.00  0.00     0.010 A 
ATOM     16  C   UNL     1       5.191  -3.737   5.641  1.00  0.00    -0.014 A 
BRANCH  16  17
ATOM     17  C   UNL     1       6.087  -4.465   6.545  1.00  0.00     0.031 A 
ATOM     18  C   UNL     1       5.430  -5.247   7.641  1.00  0.00     0.074 A 
ATOM     19  C   UNL     1       7.394  -4.571   6.267  1.00  0.00     0.049 A 
ATOM     20  N   UNL     1       5.961  -5.920   8.622  1.00  0.00    -0.248 NA
ATOM     21  C   UNL     1       3.955  -5.295   7.610  1.00  0.00     0.031 C 
ATOM     22  C   UNL     1       8.055  -4.004   5.091  1.00  0.00     0.029 A 
ATOM     23  N   UNL     1       8.392  -5.214   6.942  1.00  0.00    -0.354 N 
ATOM     24  C   UNL     1       4.889  -6.431   9.342  1.00  0.00     0.074 A 
ATOM     25  C   UNL     1       3.677  -6.008   8.687  1.00  0.00     0.031 C 
ATOM     26  C   UNL     1       9.361  -4.314   5.137  1.00  0.00     0.029 A 
ATOM     27  C   UNL     1       9.629  -5.035   6.377  1.00  0.00     0.049 A 
ATOM     28  H   UNL     1       8.239  -5.753   7.752  1.00  0.00     0.167 HD
ATOM     29  C   UNL     1       4.932  -7.173  10.471  1.00  0.00     0.037 A 
ATOM     30  C   UNL     1      10.836  -5.375   6.862  1.00  0.00     0.037 A 
ATOM     31  C   UNL     1       6.170  -7.553  11.089  1.00  0.00     0.049 A 
ATOM     32  C   UNL     1      10.872  -6.085   8.191  1.00  0.00     0.074 A 
ATOM     33  C   UNL     1       6.384  -8.219  12.278  1.00  0.00     0.029 A 
ATOM     34  N   UNL     1       7.421  -7.281  10.543  1.00  0.00    -0.354 N 
ATOM     35  N   UNL     1       9.870  -6.477   8.946  1.00  0.00    -0.248 NA
ATOM     36  C   UNL     1      12.195  -6.384   8.747  1.00  0.00     0.031 C 
ATOM     37  C   UNL     1       7.767  -8.299  12.478  1.00  0.00     0.029 A 
ATOM     38  C   UNL     1       8.415  -7.747  11.380  1.00  0.00     0.049 A 
ATOM     39  H   UNL     1       7.575  -6.824   9.684  1.00  0.00     0.167 HD
ATOM     40  C   UNL     1      10.436  -7.093  10.052  1.00  0.00     0.074 A 
ATOM     41  C   UNL     1      11.874  -7.026   9.862  1.00  0.00     0.031 C 
ATOM     42  C   UNL     1       9.834  -7.663  11.126  1.00  0.00     0.037 A 
BRANCH  29  43
ATOM     43  C   UNL     1       3.619  -7.485  11.129  1.00  0.00     0.064 A 
ATOM     44  C   UNL     1       2.677  -8.354  10.555  1.00  0.00     0.173 A 
ATOM     45  C   UNL     1       3.260  -6.825  12.314  1.00  0.00     0.173 A 
ATOM     46  F   UNL     1       2.951  -8.980   9.400  1.00  0.00    -0.203 F 
ATOM     47  C   UNL     1       1.412  -8.514  11.118  1.00  0.00     0.198 A 
ATOM     48  C   UNL     1       2.007  -7.013  12.892  1.00  0.00     0.198 A 
ATOM     49  F   UNL     1       4.114  -5.972  12.899  1.00  0.00    -0.203 F 
ATOM     50  F   UNL     1       0.499  -9.281  10.506  1.00  0.00    -0.200 F 
ATOM     51  C   UNL     1       1.079  -7.845  12.286  1.00  0.00     0.200 A 
ATOM     52  F   UNL     1       1.688  -6.365  14.021  1.00  0.00    -0.200 F 
ATOM     53  F   UNL     1      -0.144  -7.984  12.816  1.00  0.00    -0.200 F 
ENDBRANCH  29  43
BRANCH  30  54
ATOM     54  C   UNL     1      12.072  -4.990   6.130  1.00  0.00     0.064 A 
ATOM     55  C   UNL     1      12.936  -5.952   5.592  1.00  0.00     0.173 A 
ATOM     56  C   UNL     1      12.412  -3.639   5.943  1.00  0.00     0.173 A 
ATOM     57  F   UNL     1      12.672  -7.257   5.758  1.00  0.00    -0.203 F 
ATOM     58  C   UNL     1      14.093  -5.581   4.907  1.00  0.00     0.198 A 
ATOM     59  C   UNL     1      13.552  -3.269   5.232  1.00  0.00     0.198 A 
ATOM     60  F   UNL     1      11.626  -2.673   6.440  1.00  0.00    -0.203 F 
ATOM     61  F   UNL     1      14.923  -6.524   4.437  1.00  0.00    -0.200 F 
ATOM     62  C   UNL     1      14.396  -4.240   4.721  1.00  0.00     0.200 A 
ATOM     63  F   UNL     1      13.831  -1.971   5.045  1.00  0.00    -0.200 F 
ATOM     64  F   UNL     1      15.505  -3.885   4.057  1.00  0.00    -0.200 F 
ENDBRANCH  30  54
BRANCH  42  65
ATOM     65  C   UNL     1      10.729  -8.307  12.141  1.00  0.00     0.064 A 
ATOM     66  C   UNL     1      11.507  -7.549  13.025  1.00  0.00     0.173 A 
ATOM     67  C   UNL     1      10.738  -9.703  12.275  1.00  0.00     0.173 A 
ATOM     68  F   UNL     1      11.536  -6.211  12.924  1.00  0.00    -0.203 F 
ATOM     69  C   UNL     1      12.280  -8.170  14.000  1.00  0.00     0.198 A 
ATOM     70  C   UNL     1      11.484 -10.318  13.273  1.00  0.00     0.198 A 
ATOM     71  F   UNL     1       9.999 -10.467  11.456  1.00  0.00    -0.203 F 
ATOM     72  F   UNL     1      13.049  -7.431  14.812  1.00  0.00    -0.200 F 
ATOM     73  C   UNL     1      12.259  -9.551  14.131  1.00  0.00     0.200 A 
ATOM     74  F   UNL     1      11.446 -11.650  13.411  1.00  0.00    -0.200 F 
ATOM     75  F   UNL     1      12.988 -10.145  15.085  1.00  0.00    -0.200 F 
ENDBRANCH  42  65
ENDBRANCH  16  17
ENDBRANCH   9  11
ENDBRANCH   8   9
ENDBRANCH   7   8
ENDBRANCH   6   7
ENDBRANCH   5   6
ENDBRANCH   4   5
ENDBRANCH   3   4
ENDBRANCH   2   3
ENDBRANCH   1   2
BRANCH   1  76
ATOM     76  C   UNL     1       5.385  -4.110  -0.767  1.00  0.00     0.188 C 
BRANCH  76  77
ATOM     77  O   UNL     1       6.592  -3.721  -0.139  1.00  0.00    -0.376 OA
BRANCH  77  78
ATOM     78  C   UNL     1       7.355  -2.677  -0.710  1.00  0.00     0.202 C 
BRANCH  78  79
ATOM     79  C   UNL     1       7.657  -2.631  -2.221  1.00  0.00     0.261 C 
BRANCH  79  80
ATOM     80  O   UNL     1       6.583  -2.983  -3.115  1.00  0.00    -0.459 OA
BRANCH  80  81
ATOM     81  C   UNL     1       6.627  -4.239  -3.660  1.00  0.00     0.365 C 
ATOM     82  O   UNL     1       7.570  -4.997  -3.514  1.00  0.00    -0.245 OA
BRANCH  81  83
ATOM     83  C   UNL     1       5.293  -4.606  -4.424  1.00  0.00     0.295 C 
ATOM     84  C   UNL     1       5.696  -5.585  -5.543  1.00  0.00     0.087 C 
ATOM     85  N   UNL     1       4.353  -5.380  -3.535  1.00  0.00    -0.320 N 
ATOM     86  C   UNL     1       5.148  -6.930  -5.080  1.00  0.00     0.054 C 
ATOM     87  C   UNL     1       4.856  -6.747  -3.601  1.00  0.00     0.188 C 
ATOM     88  H   UNL     1       4.375  -4.999  -2.589  1.00  0.00     0.349 HD
ATOM     89  C   UNL     1       5.992  -8.174  -5.280  1.00  0.00     0.010 C 
ATOM     90  C   UNL     1       4.074  -7.891  -2.974  1.00  0.00     0.065 C 
ATOM     91  C   UNL     1       5.231  -9.388  -4.726  1.00  0.00     0.001 C 
ATOM     92  C   UNL     1       4.764  -9.226  -3.270  1.00  0.00     0.006 C 
BRANCH  85  93
ATOM     93  C   UNL     1       2.896  -5.195  -3.690  1.00  0.00     0.265 C 
BRANCH  93  94
ATOM     94  C   UNL     1       2.118  -5.318  -5.021  1.00  0.00     0.093 C 
BRANCH  94  95
ATOM     95  C   UNL     1       1.359  -6.611  -5.392  1.00  0.00     0.123 C 
ATOM     96  C   UNL     1       0.217  -7.061  -4.484  1.00  0.00     0.034 C 
ATOM     97  O   UNL     1       2.199  -7.749  -5.564  1.00  0.00    -0.378 OA
ATOM     98  C   UNL     1       0.353  -8.572  -4.402  1.00  0.00     0.031 C 
ATOM     99  C   UNL     1       1.384  -8.914  -5.449  1.00  0.00     0.160 C 
ENDBRANCH  94  95
ENDBRANCH  93  94
ENDBRANCH  85  93
ENDBRANCH  81  83
ENDBRANCH  80  81
ENDBRANCH  79  80
ENDBRANCH  78  79
ENDBRANCH  77  78
ENDBRANCH  76  77
ENDBRANCH   1  76
TORSDOF 23
