REMARK SMILES O=C(OCCOCCOCCOCCOC(=O)[C@]1(NC(=O)C2CCN(C(=O)C3CC3)CC2)CCCc2ccccc21)c1ccc(-c2c3nc(c(-c4c(F)c(F)c(F)c(F)c4F)c4ccc([nH]4)c(-c4c(F)c(F)c(F)c(F)c4F)c4nc(c(-c5c(F)c(F)c(F)c(F)c5F)c5ccc2[nH]5)C=C4)C=C3)cc1
REMARK SMILES IDX 10 1 9 2 8 3 7 4 6 5 5 6 4 7 3 8 2 9 1 10 42 11 43 12 104 13
REMARK SMILES IDX 44 14 103 15 45 16 46 17 47 18 97 19 48 20 102 21 96 22
REMARK SMILES IDX 98 23 49 24 101 25 95 26 94 27 50 29 82 30 62 31 81 32 63 33
REMARK SMILES IDX 66 34 80 35 99 36 64 37 65 38 79 40 100 41 67 42 51 43 52 44
REMARK SMILES IDX 60 45 53 46 54 47 58 48 61 49 55 50 56 51 59 52 57 53 83 54
REMARK SMILES IDX 84 55 92 56 85 57 86 58 90 59 93 60 87 61 88 62 91 63 89 64
REMARK SMILES IDX 68 65 69 66 77 67 70 68 71 69 75 70 78 71 72 72 73 73 76 74
REMARK SMILES IDX 74 75 11 76 12 77 13 78 14 79 15 80 16 81 17 82 18 83 33 84
REMARK SMILES IDX 41 85 34 86 36 87 40 88 35 89 37 90 39 91 38 92 19 93 20 94
REMARK SMILES IDX 21 96 22 97 23 98 32 99 24 100 31 101 25 102 26 103 27 104
REMARK SMILES IDX 28 105 29 106 30 107
REMARK H PARENT 98 28 66 39 19 95
REMARK Flexibility Score: inf
ROOT
ATOM      1  C   UNL     1       4.894   2.679   1.660  1.00  0.00     0.188 C 
ENDROOT
BRANCH   1   2
ATOM      2  O   UNL     1       3.544   2.883   1.245  1.00  0.00    -0.377 OA
BRANCH   2   3
ATOM      3  C   UNL     1       2.715   1.750   1.526  1.00  0.00     0.188 C 
BRANCH   3   4
ATOM      4  C   UNL     1       2.818   0.669   0.454  1.00  0.00     0.188 C 
BRANCH   4   5
ATOM      5  O   UNL     1       4.184   0.482   0.072  1.00  0.00    -0.376 OA
BRANCH   5   6
ATOM      6  C   UNL     1       4.449   0.287  -1.314  1.00  0.00     0.202 C 
BRANCH   6   7
ATOM      7  C   UNL     1       4.326  -1.149  -1.816  1.00  0.00     0.261 C 
BRANCH   7   8
ATOM      8  O   UNL     1       3.046  -1.730  -1.532  1.00  0.00    -0.460 OA
BRANCH   8   9
ATOM      9  C   UNL     1       2.663  -2.479  -0.472  1.00  0.00     0.338 C 
ATOM     10  O   UNL     1       1.613  -3.115  -0.551  1.00  0.00    -0.246 OA
BRANCH   9  11
ATOM     11  C   UNL     1       3.380  -2.502   0.850  1.00  0.00     0.060 A 
ATOM     12  C   UNL     1       4.655  -1.990   1.100  1.00  0.00     0.016 A 
ATOM     13  C   UNL     1       2.657  -3.013   1.949  1.00  0.00     0.016 A 
ATOM     14  C   UNL     1       5.184  -1.937   2.377  1.00  0.00     0.010 A 
ATOM     15  C   UNL     1       3.211  -3.042   3.232  1.00  0.00     0.010 A 
ATOM     16  C   UNL     1       4.493  -2.527   3.428  1.00  0.00    -0.014 A 
BRANCH  16  17
ATOM     17  C   UNL     1       5.329  -2.898   4.576  1.00  0.00     0.031 A 
ATOM     18  C   UNL     1       6.037  -4.218   4.467  1.00  0.00     0.074 A 
ATOM     19  C   UNL     1       5.629  -1.984   5.511  1.00  0.00     0.049 A 
ATOM     20  N   UNL     1       6.926  -4.755   5.255  1.00  0.00    -0.248 NA
ATOM     21  C   UNL     1       5.734  -5.026   3.268  1.00  0.00     0.031 C 
ATOM     22  C   UNL     1       5.098  -0.620   5.559  1.00  0.00     0.029 A 
ATOM     23  N   UNL     1       6.488  -2.050   6.571  1.00  0.00    -0.354 N 
ATOM     24  C   UNL     1       7.292  -5.946   4.640  1.00  0.00     0.074 A 
ATOM     25  C   UNL     1       6.525  -6.071   3.426  1.00  0.00     0.031 C 
ATOM     26  C   UNL     1       5.639   0.021   6.610  1.00  0.00     0.029 A 
ATOM     27  C   UNL     1       6.518  -0.902   7.323  1.00  0.00     0.049 A 
ATOM     28  H   UNL     1       7.032  -2.844   6.777  1.00  0.00     0.167 HD
ATOM     29  C   UNL     1       8.197  -6.856   5.064  1.00  0.00     0.037 A 
ATOM     30  C   UNL     1       7.166  -0.663   8.478  1.00  0.00     0.037 A 
ATOM     31  C   UNL     1       8.900  -6.717   6.306  1.00  0.00     0.049 A 
ATOM     32  C   UNL     1       8.046  -1.765   9.015  1.00  0.00     0.074 A 
ATOM     33  C   UNL     1       9.737  -7.612   6.938  1.00  0.00     0.029 A 
ATOM     34  N   UNL     1       8.824  -5.586   7.113  1.00  0.00    -0.354 N 
ATOM     35  N   UNL     1       8.331  -2.933   8.482  1.00  0.00    -0.248 NA
ATOM     36  C   UNL     1       8.693  -1.525  10.309  1.00  0.00     0.031 C 
ATOM     37  C   UNL     1      10.130  -7.041   8.155  1.00  0.00     0.029 A 
ATOM     38  C   UNL     1       9.589  -5.765   8.249  1.00  0.00     0.049 A 
ATOM     39  H   UNL     1       8.302  -4.778   6.905  1.00  0.00     0.167 HD
ATOM     40  C   UNL     1       9.202  -3.558   9.363  1.00  0.00     0.074 A 
ATOM     41  C   UNL     1       9.420  -2.623  10.451  1.00  0.00     0.031 C 
ATOM     42  C   UNL     1       9.769  -4.790   9.296  1.00  0.00     0.037 A 
BRANCH  29  43
ATOM     43  C   UNL     1       8.380  -8.080   4.217  1.00  0.00     0.064 A 
ATOM     44  C   UNL     1       9.012  -8.026   2.964  1.00  0.00     0.173 A 
ATOM     45  C   UNL     1       7.853  -9.312   4.631  1.00  0.00     0.173 A 
ATOM     46  F   UNL     1       9.495  -6.864   2.500  1.00  0.00    -0.203 F 
ATOM     47  C   UNL     1       9.085  -9.154   2.148  1.00  0.00     0.198 A 
ATOM     48  C   UNL     1       7.951 -10.443   3.825  1.00  0.00     0.198 A 
ATOM     49  F   UNL     1       7.220  -9.414   5.809  1.00  0.00    -0.203 F 
ATOM     50  F   UNL     1       9.635  -9.064   0.929  1.00  0.00    -0.200 F 
ATOM     51  C   UNL     1       8.558 -10.362   2.581  1.00  0.00     0.200 A 
ATOM     52  F   UNL     1       7.438 -11.608   4.244  1.00  0.00    -0.200 F 
ATOM     53  F   UNL     1       8.619 -11.443   1.791  1.00  0.00    -0.200 F 
ENDBRANCH  29  43
BRANCH  30  54
ATOM     54  C   UNL     1       6.953   0.610   9.222  1.00  0.00     0.064 A 
ATOM     55  C   UNL     1       8.004   1.496   9.495  1.00  0.00     0.173 A 
ATOM     56  C   UNL     1       5.683   0.945   9.723  1.00  0.00     0.173 A 
ATOM     57  F   UNL     1       9.243   1.220   9.062  1.00  0.00    -0.203 F 
ATOM     58  C   UNL     1       7.802   2.644  10.263  1.00  0.00     0.198 A 
ATOM     59  C   UNL     1       5.474   2.110  10.458  1.00  0.00     0.198 A 
ATOM     60  F   UNL     1       4.637   0.135   9.501  1.00  0.00    -0.203 F 
ATOM     61  F   UNL     1       8.840   3.436  10.565  1.00  0.00    -0.200 F 
ATOM     62  C   UNL     1       6.537   2.952  10.741  1.00  0.00     0.200 A 
ATOM     63  F   UNL     1       4.247   2.406  10.906  1.00  0.00    -0.200 F 
ATOM     64  F   UNL     1       6.346   4.049  11.486  1.00  0.00    -0.200 F 
ENDBRANCH  30  54
BRANCH  42  65
ATOM     65  C   UNL     1      10.696  -5.164  10.412  1.00  0.00     0.064 A 
ATOM     66  C   UNL     1      10.219  -5.442  11.701  1.00  0.00     0.173 A 
ATOM     67  C   UNL     1      12.072  -5.288  10.172  1.00  0.00     0.173 A 
ATOM     68  F   UNL     1       8.912  -5.325  11.978  1.00  0.00    -0.203 F 
ATOM     69  C   UNL     1      11.096  -5.796  12.721  1.00  0.00     0.198 A 
ATOM     70  C   UNL     1      12.939  -5.680  11.184  1.00  0.00     0.198 A 
ATOM     71  F   UNL     1      12.571  -5.045   8.950  1.00  0.00    -0.203 F 
ATOM     72  F   UNL     1      10.629  -6.000  13.960  1.00  0.00    -0.200 F 
ATOM     73  C   UNL     1      12.452  -5.923  12.460  1.00  0.00     0.200 A 
ATOM     74  F   UNL     1      14.246  -5.822  10.926  1.00  0.00    -0.200 F 
ATOM     75  F   UNL     1      13.293  -6.273  13.442  1.00  0.00    -0.200 F 
ENDBRANCH  42  65
ENDBRANCH  16  17
ENDBRANCH   9  11
ENDBRANCH   8   9
ENDBRANCH   7   8
ENDBRANCH   6   7
ENDBRANCH   5   6
ENDBRANCH   4   5
ENDBRANCH   3   4
ENDBRANCH   2   3
ENDBRANCH   1   2
BRANCH   1  76
ATOM     76  C   UNL     1       5.358   3.655   2.740  1.00  0.00     0.188 C 
BRANCH  76  77
ATOM     77  O   UNL     1       4.503   3.905   3.845  1.00  0.00    -0.376 OA
BRANCH  77  78
ATOM     78  C   UNL     1       3.175   4.375   3.623  1.00  0.00     0.202 C 
BRANCH  78  79
ATOM     79  C   UNL     1       2.906   5.669   2.829  1.00  0.00     0.261 C 
BRANCH  79  80
ATOM     80  O   UNL     1       3.148   5.636   1.402  1.00  0.00    -0.461 OA
BRANCH  80  81
ATOM     81  C   UNL     1       4.286   6.261   1.024  1.00  0.00     0.336 C 
ATOM     82  O   UNL     1       5.095   6.675   1.859  1.00  0.00    -0.249 OA
BRANCH  81  83
ATOM     83  C   UNL     1       4.540   6.450  -0.546  1.00  0.00     0.164 C 
ATOM     84  C   UNL     1       5.827   5.670  -0.947  1.00  0.00     0.046 C 
ATOM     85  C   UNL     1       4.822   7.976  -0.567  1.00  0.00    -0.008 A 
ATOM     86  C   UNL     1       7.097   6.128  -0.222  1.00  0.00     0.008 C 
ATOM     87  C   UNL     1       6.106   8.499  -0.353  1.00  0.00    -0.042 A 
ATOM     88  C   UNL     1       3.699   8.838  -0.575  1.00  0.00     0.007 A 
ATOM     89  C   UNL     1       7.342   7.634  -0.342  1.00  0.00     0.036 C 
ATOM     90  C   UNL     1       6.228   9.877  -0.124  1.00  0.00     0.004 A 
ATOM     91  C   UNL     1       3.841  10.197  -0.357  1.00  0.00     0.000 A 
ATOM     92  C   UNL     1       5.106  10.713  -0.114  1.00  0.00     0.000 A 
BRANCH  83  93
ATOM     93  N   UNL     1       3.554   6.309  -1.677  1.00  0.00    -0.336 N 
ATOM     94  C   UNL     1       2.588   5.501  -2.146  1.00  0.00     0.224 C 
ATOM     95  H   UNL     1       3.652   7.077  -2.285  1.00  0.00     0.164 HD
ATOM     96  O   UNL     1       2.174   5.712  -3.290  1.00  0.00    -0.275 OA
BRANCH  94  97
ATOM     97  C   UNL     1       2.003   4.398  -1.327  1.00  0.00     0.082 C 
ATOM     98  C   UNL     1       2.419   3.091  -1.996  1.00  0.00     0.035 C 
ATOM     99  C   UNL     1       0.493   4.591  -1.091  1.00  0.00     0.035 C 
ATOM    100  C   UNL     1       1.342   2.286  -2.721  1.00  0.00     0.120 C 
ATOM    101  C   UNL     1      -0.379   3.834  -2.087  1.00  0.00     0.120 C 
ATOM    102  N   UNL     1       0.037   2.445  -2.096  1.00  0.00    -0.342 N 
ATOM    103  C   UNL     1      -0.565   1.327  -1.511  1.00  0.00     0.225 C 
ATOM    104  O   UNL     1       0.006   0.245  -1.512  1.00  0.00    -0.275 OA
BRANCH 103 105
ATOM    105  C   UNL     1      -1.909   1.325  -0.852  1.00  0.00     0.079 C 
ATOM    106  C   UNL     1      -2.721   2.438  -0.261  1.00  0.00     0.014 C 
ATOM    107  C   UNL     1      -3.130   1.833  -1.578  1.00  0.00     0.014 C 
ENDBRANCH 103 105
ENDBRANCH  94  97
ENDBRANCH  83  93
ENDBRANCH  81  83
ENDBRANCH  80  81
ENDBRANCH  79  80
ENDBRANCH  78  79
ENDBRANCH  77  78
ENDBRANCH  76  77
ENDBRANCH   1  76
TORSDOF 23
