REMARK SMILES Nc1c(N2CCCC2)ncnc1N1CCC(C(=O)OCCOCCOCCOCCOC(=O)c2ccc(-c3c4nc(c(-c5c(F)c(F)c(F)c(F)c5F)c5ccc([nH]5)c(-c5c(F)c(F)c(F)c(F)c5F)c5nc(c(-c6c(F)c(F)c(F)c(F)c6F)c6ccc3[nH]6)C=C5)C=C4)cc2)CC1
REMARK SMILES IDX 25 1 24 2 23 3 22 4 21 5 20 6 19 7 17 8 18 9 16 10 13 11
REMARK SMILES IDX 14 12 98 13 15 14 97 15 12 16 2 17 3 18 9 19 11 20 10 21
REMARK SMILES IDX 1 22 4 25 5 26 8 27 6 28 7 29 26 30 27 31 28 32 29 33 30 34
REMARK SMILES IDX 31 35 32 36 33 37 34 38 35 39 96 40 36 41 95 42 37 43 38 44
REMARK SMILES IDX 39 45 89 46 40 47 94 48 88 49 90 50 41 51 93 52 87 53 86 54
REMARK SMILES IDX 42 56 74 57 54 58 73 59 55 60 58 61 72 62 91 63 56 64 57 65
REMARK SMILES IDX 71 67 92 68 59 69 43 70 44 71 52 72 45 73 46 74 50 75 53 76
REMARK SMILES IDX 47 77 48 78 51 79 49 80 75 81 76 82 84 83 77 84 78 85 82 86
REMARK SMILES IDX 85 87 79 88 80 89 83 90 81 91 60 92 61 93 69 94 62 95 63 96
REMARK SMILES IDX 67 97 70 98 64 99 65 100 68 101 66 102
REMARK H PARENT 1 23 1 24 90 55 58 66
REMARK Flexibility Score: inf
ROOT
ATOM      1  O   UNL     1       3.643   3.661  -6.865  1.00  0.00    -0.377 OA
ENDROOT
BRANCH   1   2
ATOM      2  C   UNL     1       4.856   3.018  -6.532  1.00  0.00     0.188 C 
BRANCH   2   3
ATOM      3  C   UNL     1       5.293   1.899  -7.481  1.00  0.00     0.188 C 
BRANCH   3   4
ATOM      4  O   UNL     1       4.758   1.797  -8.789  1.00  0.00    -0.376 OA
BRANCH   4   5
ATOM      5  C   UNL     1       3.363   1.887  -9.035  1.00  0.00     0.202 C 
BRANCH   5   6
ATOM      6  C   UNL     1       2.307   1.167  -8.180  1.00  0.00     0.261 C 
BRANCH   6   7
ATOM      7  O   UNL     1       2.344   1.404  -6.764  1.00  0.00    -0.463 OA
BRANCH   7   8
ATOM      8  C   UNL     1       2.808   0.379  -6.019  1.00  0.00     0.309 C 
ATOM      9  O   UNL     1       3.201  -0.690  -6.478  1.00  0.00    -0.252 OA
BRANCH   8  10
ATOM     10  C   UNL     1       2.764   0.614  -4.527  1.00  0.00     0.103 C 
ATOM     11  N   UNL     1       1.792   1.055  -1.896  1.00  0.00    -0.355 N 
ATOM     12  C   UNL     1       2.752   1.989  -2.444  1.00  0.00     0.119 C 
ATOM     13  C   UNL     1       1.678  -0.282  -2.468  1.00  0.00     0.119 C 
ATOM     14  C   UNL     1       2.645   2.036  -3.964  1.00  0.00     0.037 C 
ATOM     15  C   UNL     1       1.604  -0.219  -3.982  1.00  0.00     0.037 C 
BRANCH  11  16
ATOM     16  C   UNL     1       0.686   1.597  -1.242  1.00  0.00     0.157 A 
ATOM     17  C   UNL     1       0.260   1.001  -0.046  1.00  0.00     0.118 A 
ATOM     18  C   UNL     1      -0.856   1.575   0.573  1.00  0.00     0.157 A 
ATOM     19  N   UNL     1      -1.519   2.603   0.012  1.00  0.00    -0.217 NA
ATOM     20  N   UNL     1       0.077   2.669  -1.774  1.00  0.00    -0.217 NA
ATOM     21  C   UNL     1      -1.004   3.108  -1.117  1.00  0.00     0.226 A 
BRANCH  17  22
ATOM     22  N   UNL     1       0.971  -0.091   0.489  1.00  0.00    -0.393 N 
ATOM     23  H   UNL     1       0.672  -0.510   1.329  1.00  0.00     0.156 HD
ATOM     24  H   UNL     1       1.767  -0.436   0.023  1.00  0.00     0.156 HD
ENDBRANCH  17  22
BRANCH  18  25
ATOM     25  N   UNL     1      -1.357   1.103   1.770  1.00  0.00    -0.355 N 
ATOM     26  C   UNL     1      -0.512   0.805   2.916  1.00  0.00     0.118 C 
ATOM     27  C   UNL     1      -2.507   0.217   1.685  1.00  0.00     0.118 C 
ATOM     28  C   UNL     1      -0.914  -0.619   3.286  1.00  0.00     0.023 C 
ATOM     29  C   UNL     1      -2.398  -0.648   2.943  1.00  0.00     0.023 C 
ENDBRANCH  18  25
ENDBRANCH  11  16
ENDBRANCH   8  10
ENDBRANCH   7   8
ENDBRANCH   6   7
ENDBRANCH   5   6
ENDBRANCH   4   5
ENDBRANCH   3   4
ENDBRANCH   2   3
ENDBRANCH   1   2
BRANCH   1  30
ATOM     30  C   UNL     1       3.717   4.876  -7.605  1.00  0.00     0.188 C 
BRANCH  30  31
ATOM     31  C   UNL     1       4.928   5.104  -8.532  1.00  0.00     0.188 C 
BRANCH  31  32
ATOM     32  O   UNL     1       6.185   4.885  -7.910  1.00  0.00    -0.376 OA
BRANCH  32  33
ATOM     33  C   UNL     1       6.865   5.985  -7.322  1.00  0.00     0.202 C 
BRANCH  33  34
ATOM     34  C   UNL     1       6.189   6.724  -6.154  1.00  0.00     0.261 C 
BRANCH  34  35
ATOM     35  O   UNL     1       4.924   7.350  -6.425  1.00  0.00    -0.460 OA
BRANCH  35  36
ATOM     36  C   UNL     1       4.841   8.225  -7.445  1.00  0.00     0.338 C 
ATOM     37  O   UNL     1       5.752   8.639  -8.142  1.00  0.00    -0.246 OA
BRANCH  36  38
ATOM     38  C   UNL     1       3.407   8.450  -7.723  1.00  0.00     0.060 A 
ATOM     39  C   UNL     1       2.904   8.118  -8.988  1.00  0.00     0.016 A 
ATOM     40  C   UNL     1       2.564   8.982  -6.745  1.00  0.00     0.016 A 
ATOM     41  C   UNL     1       1.563   8.350  -9.290  1.00  0.00     0.010 A 
ATOM     42  C   UNL     1       1.226   9.242  -7.058  1.00  0.00     0.010 A 
ATOM     43  C   UNL     1       0.731   8.961  -8.343  1.00  0.00    -0.014 A 
BRANCH  43  44
ATOM     44  C   UNL     1      -0.577   9.511  -8.774  1.00  0.00     0.031 A 
ATOM     45  C   UNL     1      -0.635  10.960  -9.174  1.00  0.00     0.074 A 
ATOM     46  C   UNL     1      -1.674   8.740  -8.860  1.00  0.00     0.049 A 
ATOM     47  N   UNL     1      -1.658  11.679  -9.557  1.00  0.00    -0.248 NA
ATOM     48  C   UNL     1       0.639  11.697  -9.141  1.00  0.00     0.031 C 
ATOM     49  C   UNL     1      -1.728   7.311  -8.566  1.00  0.00     0.029 A 
ATOM     50  N   UNL     1      -2.959   9.060  -9.224  1.00  0.00    -0.354 N 
ATOM     51  C   UNL     1      -1.151  12.945  -9.815  1.00  0.00     0.074 A 
ATOM     52  C   UNL     1       0.262  12.911  -9.508  1.00  0.00     0.031 C 
ATOM     53  C   UNL     1      -2.985   6.875  -8.760  1.00  0.00     0.029 A 
ATOM     54  C   UNL     1      -3.830   8.001  -9.157  1.00  0.00     0.049 A 
ATOM     55  H   UNL     1      -3.230   9.963  -9.507  1.00  0.00     0.167 HD
ATOM     56  C   UNL     1      -1.802  14.035 -10.282  1.00  0.00     0.037 A 
ATOM     57  C   UNL     1      -5.160   7.956  -9.376  1.00  0.00     0.037 A 
ATOM     58  C   UNL     1      -3.209  14.069 -10.577  1.00  0.00     0.049 A 
ATOM     59  C   UNL     1      -5.886   9.213  -9.785  1.00  0.00     0.074 A 
ATOM     60  C   UNL     1      -3.966  15.129 -11.041  1.00  0.00     0.029 A 
ATOM     61  N   UNL     1      -4.072  12.992 -10.432  1.00  0.00    -0.354 N 
ATOM     62  N   UNL     1      -5.402  10.408 -10.029  1.00  0.00    -0.248 NA
ATOM     63  C   UNL     1      -7.345   9.117  -9.949  1.00  0.00     0.031 C 
ATOM     64  C   UNL     1      -5.297  14.711 -11.123  1.00  0.00     0.029 A 
ATOM     65  C   UNL     1      -5.360  13.372 -10.772  1.00  0.00     0.049 A 
ATOM     66  H   UNL     1      -3.808  12.093 -10.131  1.00  0.00     0.167 HD
ATOM     67  C   UNL     1      -6.487  11.194 -10.402  1.00  0.00     0.074 A 
ATOM     68  C   UNL     1      -7.653  10.338 -10.365  1.00  0.00     0.031 C 
ATOM     69  C   UNL     1      -6.512  12.506 -10.743  1.00  0.00     0.037 A 
BRANCH  56  70
ATOM     70  C   UNL     1      -1.004  15.288 -10.490  1.00  0.00     0.064 A 
ATOM     71  C   UNL     1      -0.069  15.399 -11.530  1.00  0.00     0.173 A 
ATOM     72  C   UNL     1      -1.215  16.410  -9.675  1.00  0.00     0.173 A 
ATOM     73  F   UNL     1       0.184  14.349 -12.326  1.00  0.00    -0.203 F 
ATOM     74  C   UNL     1       0.636  16.582 -11.737  1.00  0.00     0.198 A 
ATOM     75  C   UNL     1      -0.532  17.601  -9.904  1.00  0.00     0.198 A 
ATOM     76  F   UNL     1      -2.098  16.357  -8.666  1.00  0.00    -0.203 F 
ATOM     77  F   UNL     1       1.552  16.652 -12.712  1.00  0.00    -0.200 F 
ATOM     78  C   UNL     1       0.396  17.685 -10.931  1.00  0.00     0.200 A 
ATOM     79  F   UNL     1      -0.776  18.670  -9.133  1.00  0.00    -0.200 F 
ATOM     80  F   UNL     1       1.061  18.829 -11.143  1.00  0.00    -0.200 F 
ENDBRANCH  56  70
BRANCH  57  81
ATOM     81  C   UNL     1      -5.894   6.671  -9.218  1.00  0.00     0.064 A 
ATOM     82  C   UNL     1      -6.460   6.024 -10.325  1.00  0.00     0.173 A 
ATOM     83  C   UNL     1      -6.045   6.064  -7.962  1.00  0.00     0.173 A 
ATOM     84  F   UNL     1      -6.370   6.578 -11.543  1.00  0.00    -0.203 F 
ATOM     85  C   UNL     1      -7.153   4.823 -10.181  1.00  0.00     0.198 A 
ATOM     86  C   UNL     1      -6.712   4.848  -7.824  1.00  0.00     0.198 A 
ATOM     87  F   UNL     1      -5.530   6.645  -6.868  1.00  0.00    -0.203 F 
ATOM     88  F   UNL     1      -7.717   4.246 -11.251  1.00  0.00    -0.200 F 
ATOM     89  C   UNL     1      -7.270   4.231  -8.933  1.00  0.00     0.200 A 
ATOM     90  F   UNL     1      -6.814   4.275  -6.617  1.00  0.00    -0.200 F 
ATOM     91  F   UNL     1      -7.926   3.071  -8.797  1.00  0.00    -0.200 F 
ENDBRANCH  57  81
BRANCH  69  92
ATOM     92  C   UNL     1      -7.832  13.106 -11.137  1.00  0.00     0.064 A 
ATOM     93  C   UNL     1      -8.841  13.350 -10.194  1.00  0.00     0.173 A 
ATOM     94  C   UNL     1      -8.055  13.524 -12.459  1.00  0.00     0.173 A 
ATOM     95  F   UNL     1      -8.682  12.961  -8.920  1.00  0.00    -0.203 F 
ATOM     96  C   UNL     1     -10.028  13.977 -10.563  1.00  0.00     0.198 A 
ATOM     97  C   UNL     1      -9.229  14.181 -12.816  1.00  0.00     0.198 A 
ATOM     98  F   UNL     1      -7.118  13.326 -13.399  1.00  0.00    -0.203 F 
ATOM     99  F   UNL     1     -10.993  14.168  -9.652  1.00  0.00    -0.200 F 
ATOM    100  C   UNL     1     -10.217  14.402 -11.869  1.00  0.00     0.200 A 
ATOM    101  F   UNL     1      -9.399  14.610 -14.075  1.00  0.00    -0.200 F 
ATOM    102  F   UNL     1     -11.351  15.025 -12.216  1.00  0.00    -0.200 F 
ENDBRANCH  69  92
ENDBRANCH  43  44
ENDBRANCH  36  38
ENDBRANCH  35  36
ENDBRANCH  34  35
ENDBRANCH  33  34
ENDBRANCH  32  33
ENDBRANCH  31  32
ENDBRANCH  30  31
ENDBRANCH   1  30
TORSDOF 23
