REMARK SMILES C[N@H+]1CCN(C(=O)c2cnn3c2CCCC3)C[C@@H]1C(=O)OCCOCCOCCOCCOC(=O)c1ccc(-c2c3nc(c(-c4c(F)c(F)c(F)c(F)c4F)c4ccc([nH]4)c(-c4c(F)c(F)c(F)c(F)c4F)c4nc(c(-c5c(F)c(F)c(F)c(F)c5F)c5ccc2[nH]5)C=C4)C=C3)cc1
REMARK SMILES IDX 27 1 26 2 25 3 24 4 23 5 22 6 21 7 19 8 20 9 18 10 1 11 2 12
REMARK SMILES IDX 3 13 4 15 17 16 5 17 6 18 7 19 8 20 9 21 12 22 10 23 11 24
REMARK SMILES IDX 13 25 16 26 14 27 15 28 28 29 29 30 30 31 31 32 32 33 33 34
REMARK SMILES IDX 34 35 35 36 36 37 37 38 98 39 38 40 97 41 39 42 40 43 41 44
REMARK SMILES IDX 91 45 42 46 96 47 90 48 92 49 43 50 95 51 89 52 88 53 44 55
REMARK SMILES IDX 76 56 56 57 75 58 57 59 60 60 74 61 93 62 58 63 59 64 73 66
REMARK SMILES IDX 94 67 61 68 45 69 46 70 54 71 47 72 48 73 52 74 55 75 49 76
REMARK SMILES IDX 50 77 53 78 51 79 77 80 78 81 86 82 79 83 80 84 84 85 87 86
REMARK SMILES IDX 81 87 82 88 85 89 83 90 62 91 63 92 71 93 64 94 65 95 69 96
REMARK SMILES IDX 72 97 66 98 67 99 70 100 68 101
REMARK H PARENT 2 14 92 54 60 65
REMARK Flexibility Score: inf
ROOT
ATOM      1  O   UNL     1       2.662   0.301   3.767  1.00  0.00    -0.377 OA
ENDROOT
BRANCH   1   2
ATOM      2  C   UNL     1       1.793   0.666   2.707  1.00  0.00     0.188 C 
BRANCH   2   3
ATOM      3  C   UNL     1       0.279   0.557   3.030  1.00  0.00     0.188 C 
BRANCH   3   4
ATOM      4  O   UNL     1      -0.180  -0.222   4.130  1.00  0.00    -0.376 OA
BRANCH   4   5
ATOM      5  C   UNL     1       0.617  -1.305   4.573  1.00  0.00     0.202 C 
BRANCH   5   6
ATOM      6  C   UNL     1       0.985  -2.399   3.556  1.00  0.00     0.261 C 
BRANCH   6   7
ATOM      7  O   UNL     1       1.038  -1.976   2.177  1.00  0.00    -0.459 OA
BRANCH   7   8
ATOM      8  C   UNL     1       0.052  -2.415   1.356  1.00  0.00     0.366 C 
ATOM      9  O   UNL     1      -0.754  -3.276   1.696  1.00  0.00    -0.245 OA
BRANCH   8  10
ATOM     10  C   UNL     1       0.057  -1.814  -0.074  1.00  0.00     0.314 C 
ATOM     11  C   UNL     1       2.248  -0.725  -0.631  1.00  0.00     0.333 C 
ATOM     12  N   UNL     1       0.859  -0.585  -0.251  1.00  0.00    -0.323 N 
ATOM     13  C   UNL     1       0.240   0.714  -0.501  1.00  0.00     0.284 C 
ATOM     14  H   UNL     1       0.879  -0.459   0.761  1.00  0.00     0.348 HD
ATOM     15  C   UNL     1      -1.290   0.789  -0.643  1.00  0.00     0.181 C 
ATOM     16  C   UNL     1      -1.422  -1.646  -0.504  1.00  0.00     0.197 C 
ATOM     17  N   UNL     1      -1.974  -0.358  -0.073  1.00  0.00    -0.326 N 
BRANCH  17  18
ATOM     18  C   UNL     1      -3.109  -0.154   0.707  1.00  0.00     0.257 C 
ATOM     19  O   UNL     1      -3.510   0.971   0.997  1.00  0.00    -0.269 OA
BRANCH  18  20
ATOM     20  C   UNL     1      -3.880  -1.322   1.077  1.00  0.00     0.081 A 
ATOM     21  C   UNL     1      -3.655  -2.284   2.086  1.00  0.00     0.149 A 
ATOM     22  C   UNL     1      -5.094  -1.690   0.525  1.00  0.00     0.051 A 
ATOM     23  N   UNL     1      -4.595  -3.238   2.108  1.00  0.00    -0.180 NA
ATOM     24  N   UNL     1      -5.448  -2.853   1.149  1.00  0.00    -0.269 N 
ATOM     25  C   UNL     1      -5.968  -1.040  -0.487  1.00  0.00     0.057 C 
ATOM     26  C   UNL     1      -6.595  -3.668   0.798  1.00  0.00     0.144 C 
ATOM     27  C   UNL     1      -7.010  -2.009  -1.052  1.00  0.00     0.008 C 
ATOM     28  C   UNL     1      -7.652  -2.850   0.056  1.00  0.00     0.024 C 
ENDBRANCH  18  20
ENDBRANCH  17  18
ENDBRANCH   8  10
ENDBRANCH   7   8
ENDBRANCH   6   7
ENDBRANCH   5   6
ENDBRANCH   4   5
ENDBRANCH   3   4
ENDBRANCH   2   3
ENDBRANCH   1   2
BRANCH   1  29
ATOM     29  C   UNL     1       3.279   1.372   4.458  1.00  0.00     0.188 C 
BRANCH  29  30
ATOM     30  C   UNL     1       2.342   2.474   4.985  1.00  0.00     0.188 C 
BRANCH  30  31
ATOM     31  O   UNL     1       1.386   2.922   4.029  1.00  0.00    -0.376 OA
BRANCH  31  32
ATOM     32  C   UNL     1       1.496   4.207   3.446  1.00  0.00     0.202 C 
BRANCH  32  33
ATOM     33  C   UNL     1       2.455   4.334   2.263  1.00  0.00     0.261 C 
BRANCH  33  34
ATOM     34  O   UNL     1       3.690   3.656   2.418  1.00  0.00    -0.460 OA
BRANCH  34  35
ATOM     35  C   UNL     1       4.497   4.156   3.355  1.00  0.00     0.338 C 
ATOM     36  O   UNL     1       4.203   4.982   4.232  1.00  0.00    -0.246 OA
BRANCH  35  37
ATOM     37  C   UNL     1       5.854   3.681   3.120  1.00  0.00     0.060 A 
ATOM     38  C   UNL     1       6.797   3.994   4.095  1.00  0.00     0.016 A 
ATOM     39  C   UNL     1       6.216   3.248   1.831  1.00  0.00     0.016 A 
ATOM     40  C   UNL     1       8.097   4.143   3.691  1.00  0.00     0.010 A 
ATOM     41  C   UNL     1       7.520   3.399   1.429  1.00  0.00     0.010 A 
ATOM     42  C   UNL     1       8.414   3.947   2.338  1.00  0.00    -0.014 A 
BRANCH  42  43
ATOM     43  C   UNL     1       9.745   4.327   1.931  1.00  0.00     0.031 A 
ATOM     44  C   UNL     1      10.778   3.442   2.490  1.00  0.00     0.074 A 
ATOM     45  C   UNL     1       9.996   5.400   1.162  1.00  0.00     0.049 A 
ATOM     46  N   UNL     1      11.596   3.718   3.447  1.00  0.00    -0.248 NA
ATOM     47  C   UNL     1      10.773   2.036   2.069  1.00  0.00     0.031 C 
ATOM     48  C   UNL     1       9.054   6.182   0.357  1.00  0.00     0.029 A 
ATOM     49  N   UNL     1      11.198   5.971   0.882  1.00  0.00    -0.354 N 
ATOM     50  C   UNL     1      12.347   2.566   3.629  1.00  0.00     0.074 A 
ATOM     51  C   UNL     1      11.696   1.521   2.882  1.00  0.00     0.031 C 
ATOM     52  C   UNL     1       9.751   6.974  -0.491  1.00  0.00     0.029 A 
ATOM     53  C   UNL     1      11.167   6.859  -0.180  1.00  0.00     0.049 A 
ATOM     54  H   UNL     1      12.018   5.770   1.389  1.00  0.00     0.167 HD
ATOM     55  C   UNL     1      13.594   2.640   4.158  1.00  0.00     0.037 A 
ATOM     56  C   UNL     1      12.250   7.391  -0.793  1.00  0.00     0.037 A 
ATOM     57  C   UNL     1      13.815   3.904   4.810  1.00  0.00     0.049 A 
ATOM     58  C   UNL     1      13.382   7.324   0.163  1.00  0.00     0.074 A 
ATOM     59  C   UNL     1      13.380   4.513   5.967  1.00  0.00     0.029 A 
ATOM     60  N   UNL     1      14.324   4.887   4.003  1.00  0.00    -0.354 N 
ATOM     61  N   UNL     1      13.447   8.023   1.262  1.00  0.00    -0.248 NA
ATOM     62  C   UNL     1      14.311   6.202   0.087  1.00  0.00     0.031 C 
ATOM     63  C   UNL     1      13.404   5.915   5.702  1.00  0.00     0.029 A 
ATOM     64  C   UNL     1      13.874   6.115   4.403  1.00  0.00     0.049 A 
ATOM     65  H   UNL     1      14.929   4.731   3.242  1.00  0.00     0.167 HD
ATOM     66  C   UNL     1      14.091   7.195   2.165  1.00  0.00     0.074 A 
ATOM     67  C   UNL     1      14.749   6.184   1.349  1.00  0.00     0.031 C 
ATOM     68  C   UNL     1      13.773   7.236   3.491  1.00  0.00     0.037 A 
BRANCH  55  69
ATOM     69  C   UNL     1      14.743   1.797   3.671  1.00  0.00     0.064 A 
ATOM     70  C   UNL     1      15.955   1.812   4.386  1.00  0.00     0.173 A 
ATOM     71  C   UNL     1      14.803   1.243   2.373  1.00  0.00     0.173 A 
ATOM     72  F   UNL     1      16.016   2.355   5.611  1.00  0.00    -0.203 F 
ATOM     73  C   UNL     1      17.146   1.353   3.819  1.00  0.00     0.198 A 
ATOM     74  C   UNL     1      15.980   0.735   1.833  1.00  0.00     0.198 A 
ATOM     75  F   UNL     1      13.762   1.284   1.532  1.00  0.00    -0.203 F 
ATOM     76  F   UNL     1      18.299   1.495   4.487  1.00  0.00    -0.200 F 
ATOM     77  C   UNL     1      17.158   0.816   2.544  1.00  0.00     0.200 A 
ATOM     78  F   UNL     1      15.975   0.249   0.584  1.00  0.00    -0.200 F 
ATOM     79  F   UNL     1      18.308   0.427   1.978  1.00  0.00    -0.200 F 
ENDBRANCH  55  69
BRANCH  56  80
ATOM     80  C   UNL     1      12.441   7.638  -2.241  1.00  0.00     0.064 A 
ATOM     81  C   UNL     1      13.503   8.433  -2.702  1.00  0.00     0.173 A 
ATOM     82  C   UNL     1      11.768   6.867  -3.209  1.00  0.00     0.173 A 
ATOM     83  F   UNL     1      14.221   9.164  -1.837  1.00  0.00    -0.203 F 
ATOM     84  C   UNL     1      13.893   8.426  -4.044  1.00  0.00     0.198 A 
ATOM     85  C   UNL     1      12.154   6.867  -4.549  1.00  0.00     0.198 A 
ATOM     86  F   UNL     1      10.790   6.020  -2.859  1.00  0.00    -0.203 F 
ATOM     87  F   UNL     1      14.958   9.141  -4.434  1.00  0.00    -0.200 F 
ATOM     88  C   UNL     1      13.227   7.633  -4.964  1.00  0.00     0.200 A 
ATOM     89  F   UNL     1      11.523   6.068  -5.421  1.00  0.00    -0.200 F 
ATOM     90  F   UNL     1      13.643   7.573  -6.236  1.00  0.00    -0.200 F 
ENDBRANCH  56  80
BRANCH  68  91
ATOM     91  C   UNL     1      13.104   8.481   3.993  1.00  0.00     0.064 A 
ATOM     92  C   UNL     1      11.826   8.912   3.601  1.00  0.00     0.173 A 
ATOM     93  C   UNL     1      13.766   9.228   4.978  1.00  0.00     0.173 A 
ATOM     94  F   UNL     1      11.094   8.203   2.732  1.00  0.00    -0.203 F 
ATOM     95  C   UNL     1      11.262  10.069   4.138  1.00  0.00     0.198 A 
ATOM     96  C   UNL     1      13.184  10.359   5.541  1.00  0.00     0.198 A 
ATOM     97  F   UNL     1      14.970   8.836   5.423  1.00  0.00    -0.203 F 
ATOM     98  F   UNL     1      10.052  10.479   3.730  1.00  0.00    -0.200 F 
ATOM     99  C   UNL     1      11.939  10.787   5.111  1.00  0.00     0.200 A 
ATOM    100  F   UNL     1      13.824  11.022   6.514  1.00  0.00    -0.200 F 
ATOM    101  F   UNL     1      11.383  11.881   5.651  1.00  0.00    -0.200 F 
ENDBRANCH  68  91
ENDBRANCH  42  43
ENDBRANCH  35  37
ENDBRANCH  34  35
ENDBRANCH  33  34
ENDBRANCH  32  33
ENDBRANCH  31  32
ENDBRANCH  30  31
ENDBRANCH  29  30
ENDBRANCH   1  29
TORSDOF 22
