REMARK SMILES COc1ccc(C(=O)N[C@@H]2CCC[C@H]2C(=O)OCCOCCOCCOCCOC(=O)c2ccc(-c3c4nc(c(-c5c(F)c(F)c(F)c(F)c5F)c5ccc([nH]5)c(-c5c(F)c(F)c(F)c(F)c5F)c5nc(c(-c6c(F)c(F)c(F)c(F)c6F)c6ccc3[nH]6)C=C5)C=C4)cc2)cc1O
REMARK SMILES IDX 22 1 21 2 20 3 19 4 18 5 17 6 15 7 16 8 14 9 10 10 11 11
REMARK SMILES IDX 12 12 13 13 9 14 7 15 8 16 6 18 3 19 4 20 96 21 5 22 95 23
REMARK SMILES IDX 2 24 1 25 97 26 23 28 24 29 25 30 26 31 27 32 28 33 29 34
REMARK SMILES IDX 30 35 31 36 32 37 33 38 94 39 34 40 93 41 35 42 36 43 37 44
REMARK SMILES IDX 87 45 38 46 92 47 86 48 88 49 39 50 91 51 85 52 84 53 40 55
REMARK SMILES IDX 72 56 52 57 71 58 53 59 56 60 70 61 89 62 54 63 55 64 69 66
REMARK SMILES IDX 90 67 57 68 41 69 42 70 50 71 43 72 44 73 48 74 51 75 45 76
REMARK SMILES IDX 46 77 49 78 47 79 73 80 74 81 82 82 75 83 76 84 80 85 83 86
REMARK SMILES IDX 77 87 78 88 81 89 79 90 58 91 59 92 67 93 60 94 61 95 65 96
REMARK SMILES IDX 68 97 62 98 63 99 66 100 64 101
REMARK H PARENT 9 17 97 27 88 54 56 65
REMARK Flexibility Score: inf
ROOT
ATOM      1  C   UNL     1      -2.899  -7.304  -3.775  1.00  0.00     0.188 C 
ENDROOT
BRANCH   1   2
ATOM      2  C   UNL     1      -2.396  -8.626  -4.401  1.00  0.00     0.188 C 
BRANCH   2   3
ATOM      3  O   UNL     1      -2.648  -9.891  -3.795  1.00  0.00    -0.376 OA
BRANCH   3   4
ATOM      4  C   UNL     1      -3.264  -9.960  -2.523  1.00  0.00     0.202 C 
BRANCH   4   5
ATOM      5  C   UNL     1      -2.442  -9.462  -1.318  1.00  0.00     0.261 C 
BRANCH   5   6
ATOM      6  O   UNL     1      -1.535  -8.359  -1.551  1.00  0.00    -0.463 OA
BRANCH   6   7
ATOM      7  C   UNL     1      -0.336  -8.697  -2.082  1.00  0.00     0.311 C 
ATOM      8  O   UNL     1       0.021  -9.854  -2.286  1.00  0.00    -0.252 OA
BRANCH   7   9
ATOM      9  C   UNL     1       0.625  -7.537  -2.303  1.00  0.00     0.121 C 
ATOM     10  C   UNL     1       0.226  -6.054  -2.506  1.00  0.00     0.096 C 
ATOM     11  C   UNL     1       1.568  -5.380  -2.193  1.00  0.00     0.026 C 
ATOM     12  C   UNL     1       2.025  -6.060  -0.922  1.00  0.00     0.003 C 
ATOM     13  C   UNL     1       1.466  -7.473  -1.012  1.00  0.00     0.017 C 
BRANCH  10  14
ATOM     14  N   UNL     1      -0.243  -5.620  -3.828  1.00  0.00    -0.348 N 
ATOM     15  C   UNL     1      -0.723  -4.395  -4.277  1.00  0.00     0.251 C 
ATOM     16  O   UNL     1      -1.138  -4.330  -5.435  1.00  0.00    -0.269 OA
ATOM     17  H   UNL     1      -0.212  -6.321  -4.519  1.00  0.00     0.164 HD
BRANCH  15  18
ATOM     18  C   UNL     1      -0.657  -3.136  -3.469  1.00  0.00     0.043 A 
ATOM     19  C   UNL     1      -0.007  -0.780  -2.025  1.00  0.00     0.160 A 
ATOM     20  C   UNL     1      -0.128  -0.756  -3.419  1.00  0.00     0.051 A 
ATOM     21  C   UNL     1      -0.317  -1.971  -1.373  1.00  0.00     0.158 A 
ATOM     22  C   UNL     1      -0.422  -1.925  -4.139  1.00  0.00     0.018 A 
ATOM     23  C   UNL     1      -0.730  -3.104  -2.081  1.00  0.00     0.064 A 
BRANCH  19  24
ATOM     24  O   UNL     1       0.400   0.407  -1.486  1.00  0.00    -0.493 OA
ATOM     25  C   UNL     1       0.740   0.456  -0.107  1.00  0.00     0.278 C 
ENDBRANCH  19  24
BRANCH  21  26
ATOM     26  O   UNL     1      -0.161  -2.167  -0.030  1.00  0.00    -0.504 OA
ATOM     27  H   UNL     1       0.113  -1.459   0.518  1.00  0.00     0.293 HD
ENDBRANCH  21  26
ENDBRANCH  15  18
ENDBRANCH  10  14
ENDBRANCH   7   9
ENDBRANCH   6   7
ENDBRANCH   5   6
ENDBRANCH   4   5
ENDBRANCH   3   4
ENDBRANCH   2   3
ENDBRANCH   1   2
BRANCH   1  28
ATOM     28  O   UNL     1      -4.014  -7.423  -2.908  1.00  0.00    -0.377 OA
BRANCH  28  29
ATOM     29  C   UNL     1      -5.248  -7.009  -3.465  1.00  0.00     0.188 C 
BRANCH  29  30
ATOM     30  C   UNL     1      -5.619  -7.710  -4.779  1.00  0.00     0.188 C 
BRANCH  30  31
ATOM     31  O   UNL     1      -4.634  -7.526  -5.785  1.00  0.00    -0.376 OA
BRANCH  31  32
ATOM     32  C   UNL     1      -4.811  -6.541  -6.787  1.00  0.00     0.202 C 
BRANCH  32  33
ATOM     33  C   UNL     1      -4.818  -5.055  -6.388  1.00  0.00     0.261 C 
BRANCH  33  34
ATOM     34  O   UNL     1      -5.674  -4.670  -5.303  1.00  0.00    -0.460 OA
BRANCH  34  35
ATOM     35  C   UNL     1      -7.001  -4.856  -5.436  1.00  0.00     0.338 C 
ATOM     36  O   UNL     1      -7.591  -5.286  -6.414  1.00  0.00    -0.246 OA
BRANCH  35  37
ATOM     37  C   UNL     1      -7.614  -4.664  -4.101  1.00  0.00     0.060 A 
ATOM     38  C   UNL     1      -8.364  -5.711  -3.549  1.00  0.00     0.016 A 
ATOM     39  C   UNL     1      -7.425  -3.481  -3.381  1.00  0.00     0.016 A 
ATOM     40  C   UNL     1      -8.955  -5.566  -2.293  1.00  0.00     0.010 A 
ATOM     41  C   UNL     1      -8.045  -3.323  -2.136  1.00  0.00     0.010 A 
ATOM     42  C   UNL     1      -8.842  -4.352  -1.604  1.00  0.00    -0.014 A 
BRANCH  42  43
ATOM     43  C   UNL     1      -9.745  -4.090  -0.457  1.00  0.00     0.031 A 
ATOM     44  C   UNL     1     -11.020  -3.335  -0.722  1.00  0.00     0.074 A 
ATOM     45  C   UNL     1      -9.481  -4.563   0.774  1.00  0.00     0.049 A 
ATOM     46  N   UNL     1     -11.965  -2.973   0.107  1.00  0.00    -0.248 NA
ATOM     47  C   UNL     1     -11.263  -2.939  -2.120  1.00  0.00     0.031 C 
ATOM     48  C   UNL     1      -8.312  -5.357   1.144  1.00  0.00     0.029 A 
ATOM     49  N   UNL     1     -10.190  -4.440   1.945  1.00  0.00    -0.354 N 
ATOM     50  C   UNL     1     -12.911  -2.312  -0.668  1.00  0.00     0.074 A 
ATOM     51  C   UNL     1     -12.411  -2.287  -2.024  1.00  0.00     0.031 C 
ATOM     52  C   UNL     1      -8.379  -5.646   2.456  1.00  0.00     0.029 A 
ATOM     53  C   UNL     1      -9.578  -5.029   3.024  1.00  0.00     0.049 A 
ATOM     54  H   UNL     1     -11.055  -3.974   2.005  1.00  0.00     0.167 HD
ATOM     55  C   UNL     1     -14.099  -1.788  -0.285  1.00  0.00     0.037 A 
ATOM     56  C   UNL     1      -9.939  -5.045   4.323  1.00  0.00     0.037 A 
ATOM     57  C   UNL     1     -14.591  -1.807   1.066  1.00  0.00     0.049 A 
ATOM     58  C   UNL     1     -11.219  -4.360   4.739  1.00  0.00     0.074 A 
ATOM     59  C   UNL     1     -15.776  -1.292   1.560  1.00  0.00     0.029 A 
ATOM     60  N   UNL     1     -13.918  -2.368   2.141  1.00  0.00    -0.354 N 
ATOM     61  N   UNL     1     -12.116  -3.751   4.000  1.00  0.00    -0.248 NA
ATOM     62  C   UNL     1     -11.540  -4.370   6.174  1.00  0.00     0.031 C 
ATOM     63  C   UNL     1     -15.795  -1.492   2.944  1.00  0.00     0.029 A 
ATOM     64  C   UNL     1     -14.654  -2.191   3.302  1.00  0.00     0.049 A 
ATOM     65  H   UNL     1     -13.047  -2.825   2.088  1.00  0.00     0.167 HD
ATOM     66  C   UNL     1     -13.120  -3.344   4.872  1.00  0.00     0.074 A 
ATOM     67  C   UNL     1     -12.731  -3.791   6.192  1.00  0.00     0.031 C 
ATOM     68  C   UNL     1     -14.261  -2.662   4.606  1.00  0.00     0.037 A 
BRANCH  55  69
ATOM     69  C   UNL     1     -14.940  -1.129  -1.340  1.00  0.00     0.064 A 
ATOM     70  C   UNL     1     -15.581  -1.872  -2.343  1.00  0.00     0.173 A 
ATOM     71  C   UNL     1     -15.143   0.260  -1.321  1.00  0.00     0.173 A 
ATOM     72  F   UNL     1     -15.405  -3.200  -2.416  1.00  0.00    -0.203 F 
ATOM     73  C   UNL     1     -16.378  -1.247  -3.299  1.00  0.00     0.198 A 
ATOM     74  C   UNL     1     -15.966   0.877  -2.259  1.00  0.00     0.198 A 
ATOM     75  F   UNL     1     -14.553   1.017  -0.384  1.00  0.00    -0.203 F 
ATOM     76  F   UNL     1     -16.945  -1.972  -4.273  1.00  0.00    -0.200 F 
ATOM     77  C   UNL     1     -16.577   0.124  -3.250  1.00  0.00     0.200 A 
ATOM     78  F   UNL     1     -16.168   2.200  -2.203  1.00  0.00    -0.200 F 
ATOM     79  F   UNL     1     -17.356   0.722  -4.162  1.00  0.00    -0.200 F 
ENDBRANCH  55  69
BRANCH  56  80
ATOM     80  C   UNL     1      -9.079  -5.711   5.341  1.00  0.00     0.064 A 
ATOM     81  C   UNL     1      -9.538  -6.820   6.067  1.00  0.00     0.173 A 
ATOM     82  C   UNL     1      -7.807  -5.211   5.659  1.00  0.00     0.173 A 
ATOM     83  F   UNL     1     -10.759  -7.321   5.824  1.00  0.00    -0.203 F 
ATOM     84  C   UNL     1      -8.776  -7.378   7.092  1.00  0.00     0.198 A 
ATOM     85  C   UNL     1      -7.031  -5.793   6.659  1.00  0.00     0.198 A 
ATOM     86  F   UNL     1      -7.319  -4.149   5.001  1.00  0.00    -0.203 F 
ATOM     87  F   UNL     1      -9.272  -8.391   7.817  1.00  0.00    -0.200 F 
ATOM     88  C   UNL     1      -7.522  -6.867   7.385  1.00  0.00     0.200 A 
ATOM     89  F   UNL     1      -5.814  -5.301   6.930  1.00  0.00    -0.200 F 
ATOM     90  F   UNL     1      -6.793  -7.397   8.376  1.00  0.00    -0.200 F 
ENDBRANCH  56  80
BRANCH  68  91
ATOM     91  C   UNL     1     -15.201  -2.407   5.752  1.00  0.00     0.064 A 
ATOM     92  C   UNL     1     -14.884  -1.518   6.789  1.00  0.00     0.173 A 
ATOM     93  C   UNL     1     -16.454  -3.040   5.792  1.00  0.00     0.173 A 
ATOM     94  F   UNL     1     -13.695  -0.895   6.805  1.00  0.00    -0.203 F 
ATOM     95  C   UNL     1     -15.769  -1.300   7.842  1.00  0.00     0.198 A 
ATOM     96  C   UNL     1     -17.352  -2.790   6.826  1.00  0.00     0.198 A 
ATOM     97  F   UNL     1     -16.814  -3.891   4.819  1.00  0.00    -0.203 F 
ATOM     98  F   UNL     1     -15.418  -0.494   8.853  1.00  0.00    -0.200 F 
ATOM     99  C   UNL     1     -17.004  -1.930   7.856  1.00  0.00     0.200 A 
ATOM    100  F   UNL     1     -18.553  -3.385   6.826  1.00  0.00    -0.200 F 
ATOM    101  F   UNL     1     -17.857  -1.714   8.866  1.00  0.00    -0.200 F 
ENDBRANCH  68  91
ENDBRANCH  42  43
ENDBRANCH  35  37
ENDBRANCH  34  35
ENDBRANCH  33  34
ENDBRANCH  32  33
ENDBRANCH  31  32
ENDBRANCH  30  31
ENDBRANCH  29  30
ENDBRANCH  28  29
ENDBRANCH   1  28
TORSDOF 24
