REMARK SMILES CS(=O)(=O)[C@@H]1CCC[C@@H](Sc2ccc(C(=O)OCCOCCOCCOCCOC(=O)c3ccc(-c4c5nc(c(-c6c(F)c(F)c(F)c(F)c6F)c6ccc([nH]6)c(-c6c(F)c(F)c(F)c(F)c6F)c6nc(c(-c7c(F)c(F)c(F)c(F)c7F)c7ccc4[nH]7)C=C6)C=C5)cc3)cn2)C1
REMARK SMILES IDX 22 1 21 2 20 3 19 4 18 5 17 6 15 7 16 8 14 9 11 10 12 11
REMARK SMILES IDX 96 12 13 13 95 14 10 15 9 16 5 17 6 18 97 19 7 20 8 21 2 22
REMARK SMILES IDX 1 23 3 24 4 25 23 26 24 27 25 28 26 29 27 30 28 31 29 32
REMARK SMILES IDX 30 33 31 34 32 35 33 36 94 37 34 38 93 39 35 40 36 41 37 42
REMARK SMILES IDX 87 43 38 44 92 45 86 46 88 47 39 48 91 49 85 50 84 51 40 53
REMARK SMILES IDX 72 54 52 55 71 56 53 57 56 58 70 59 89 60 54 61 55 62 69 64
REMARK SMILES IDX 90 65 57 66 41 67 42 68 50 69 43 70 44 71 48 72 51 73 45 74
REMARK SMILES IDX 46 75 49 76 47 77 73 78 74 79 82 80 75 81 76 82 80 83 83 84
REMARK SMILES IDX 77 85 78 86 81 87 79 88 58 89 59 90 67 91 60 92 61 93 65 94
REMARK SMILES IDX 68 95 62 96 63 97 66 98 64 99
REMARK H PARENT 88 52 56 63
REMARK Flexibility Score: inf
ROOT
ATOM      1  C   UNL     1       4.855  -0.327   2.586  1.00  0.00     0.188 C 
ENDROOT
BRANCH   1   2
ATOM      2  C   UNL     1       6.037  -0.205   3.566  1.00  0.00     0.188 C 
BRANCH   2   3
ATOM      3  O   UNL     1       5.968  -1.148   4.635  1.00  0.00    -0.376 OA
BRANCH   3   4
ATOM      4  C   UNL     1       5.660  -0.647   5.928  1.00  0.00     0.202 C 
BRANCH   4   5
ATOM      5  C   UNL     1       4.220  -0.170   6.118  1.00  0.00     0.261 C 
BRANCH   5   6
ATOM      6  O   UNL     1       3.857   0.956   5.309  1.00  0.00    -0.460 OA
BRANCH   6   7
ATOM      7  C   UNL     1       4.537   2.119   5.421  1.00  0.00     0.339 C 
ATOM      8  O   UNL     1       5.426   2.388   6.207  1.00  0.00    -0.246 OA
BRANCH   7   9
ATOM      9  C   UNL     1       4.120   2.951   4.276  1.00  0.00     0.078 A 
ATOM     10  C   UNL     1       3.485   4.276   1.915  1.00  0.00     0.096 A 
ATOM     11  C   UNL     1       2.602   3.388   2.487  1.00  0.00     0.036 A 
ATOM     12  N   UNL     1       4.683   4.508   2.506  1.00  0.00    -0.249 NA
ATOM     13  C   UNL     1       2.888   2.746   3.679  1.00  0.00     0.020 A 
ATOM     14  C   UNL     1       4.982   3.843   3.663  1.00  0.00     0.128 A 
BRANCH  10  15
ATOM     15  S   UNL     1       3.231   5.059   0.340  1.00  0.00    -0.103 SA
BRANCH  15  16
ATOM     16  C   UNL     1       1.410   5.184  -0.075  1.00  0.00     0.054 C 
ATOM     17  C   UNL     1       0.495   2.823  -0.188  1.00  0.00     0.109 C 
ATOM     18  C   UNL     1      -0.595   3.166   0.841  1.00  0.00     0.020 C 
ATOM     19  C   UNL     1       0.891   4.056  -0.982  1.00  0.00     0.034 C 
ATOM     20  C   UNL     1      -0.365   4.427   1.688  1.00  0.00     0.002 C 
ATOM     21  C   UNL     1       0.419   5.563   1.029  1.00  0.00     0.015 C 
BRANCH  17  22
ATOM     22  S   UNL     1       0.020   1.426  -1.225  1.00  0.00     0.150 S 
ATOM     23  C   UNL     1       0.651   0.038  -0.301  1.00  0.00     0.158 C 
ATOM     24  O   UNL     1       0.774   1.482  -2.462  1.00  0.00    -0.229 OA
ATOM     25  O   UNL     1      -1.425   1.318  -1.246  1.00  0.00    -0.229 OA
ENDBRANCH  17  22
ENDBRANCH  15  16
ENDBRANCH  10  15
ENDBRANCH   7   9
ENDBRANCH   6   7
ENDBRANCH   5   6
ENDBRANCH   4   5
ENDBRANCH   3   4
ENDBRANCH   2   3
ENDBRANCH   1   2
BRANCH   1  26
ATOM     26  O   UNL     1       3.844  -1.222   3.027  1.00  0.00    -0.377 OA
BRANCH  26  27
ATOM     27  C   UNL     1       4.083  -2.624   2.858  1.00  0.00     0.188 C 
BRANCH  27  28
ATOM     28  C   UNL     1       5.508  -3.199   2.684  1.00  0.00     0.188 C 
BRANCH  28  29
ATOM     29  O   UNL     1       6.302  -2.484   1.740  1.00  0.00    -0.376 OA
BRANCH  29  30
ATOM     30  C   UNL     1       6.648  -3.170   0.545  1.00  0.00     0.202 C 
BRANCH  30  31
ATOM     31  C   UNL     1       5.517  -3.158  -0.489  1.00  0.00     0.261 C 
BRANCH  31  32
ATOM     32  O   UNL     1       4.328  -3.848  -0.072  1.00  0.00    -0.460 OA
BRANCH  32  33
ATOM     33  C   UNL     1       4.455  -5.169   0.184  1.00  0.00     0.338 C 
ATOM     34  O   UNL     1       5.447  -5.860   0.051  1.00  0.00    -0.246 OA
BRANCH  33  35
ATOM     35  C   UNL     1       3.215  -5.617   0.841  1.00  0.00     0.060 A 
ATOM     36  C   UNL     1       3.298  -6.245   2.090  1.00  0.00     0.016 A 
ATOM     37  C   UNL     1       1.980  -5.427   0.217  1.00  0.00     0.016 A 
ATOM     38  C   UNL     1       2.141  -6.724   2.702  1.00  0.00     0.010 A 
ATOM     39  C   UNL     1       0.826  -5.922   0.822  1.00  0.00     0.010 A 
ATOM     40  C   UNL     1       0.907  -6.603   2.049  1.00  0.00    -0.014 A 
BRANCH  40  41
ATOM     41  C   UNL     1      -0.264  -7.367   2.535  1.00  0.00     0.031 A 
ATOM     42  C   UNL     1      -0.540  -8.709   1.916  1.00  0.00     0.074 A 
ATOM     43  C   UNL     1      -1.063  -6.884   3.501  1.00  0.00     0.049 A 
ATOM     44  N   UNL     1      -1.531  -9.536   2.128  1.00  0.00    -0.248 NA
ATOM     45  C   UNL     1       0.435  -9.179   0.918  1.00  0.00     0.031 C 
ATOM     46  C   UNL     1      -0.875  -5.615   4.199  1.00  0.00     0.029 A 
ATOM     47  N   UNL     1      -2.206  -7.408   4.050  1.00  0.00    -0.354 N 
ATOM     48  C   UNL     1      -1.298 -10.620   1.294  1.00  0.00     0.074 A 
ATOM     49  C   UNL     1      -0.093 -10.334   0.546  1.00  0.00     0.031 C 
ATOM     50  C   UNL     1      -1.880  -5.451   5.078  1.00  0.00     0.029 A 
ATOM     51  C   UNL     1      -2.794  -6.588   4.980  1.00  0.00     0.049 A 
ATOM     52  H   UNL     1      -2.569  -8.289   3.801  1.00  0.00     0.167 HD
ATOM     53  C   UNL     1      -2.018 -11.759   1.169  1.00  0.00     0.037 A 
ATOM     54  C   UNL     1      -3.951  -6.735   5.655  1.00  0.00     0.037 A 
ATOM     55  C   UNL     1      -3.224 -12.036   1.903  1.00  0.00     0.049 A 
ATOM     56  C   UNL     1      -4.781  -7.976   5.436  1.00  0.00     0.074 A 
ATOM     57  C   UNL     1      -4.027 -13.161   1.852  1.00  0.00     0.029 A 
ATOM     58  N   UNL     1      -3.804 -11.169   2.816  1.00  0.00    -0.354 N 
ATOM     59  N   UNL     1      -4.541  -9.011   4.668  1.00  0.00    -0.248 NA
ATOM     60  C   UNL     1      -6.045  -8.068   6.182  1.00  0.00     0.031 C 
ATOM     61  C   UNL     1      -5.120 -12.955   2.700  1.00  0.00     0.029 A 
ATOM     62  C   UNL     1      -4.969 -11.725   3.319  1.00  0.00     0.049 A 
ATOM     63  H   UNL     1      -3.443 -10.290   3.070  1.00  0.00     0.167 HD
ATOM     64  C   UNL     1      -5.601  -9.888   4.862  1.00  0.00     0.074 A 
ATOM     65  C   UNL     1      -6.482  -9.268   5.829  1.00  0.00     0.031 C 
ATOM     66  C   UNL     1      -5.826 -11.098   4.293  1.00  0.00     0.037 A 
BRANCH  53  67
ATOM     67  C   UNL     1      -1.529 -12.779   0.185  1.00  0.00     0.064 A 
ATOM     68  C   UNL     1      -0.372 -13.536   0.425  1.00  0.00     0.173 A 
ATOM     69  C   UNL     1      -2.235 -13.017  -1.003  1.00  0.00     0.173 A 
ATOM     70  F   UNL     1       0.349 -13.333   1.538  1.00  0.00    -0.203 F 
ATOM     71  C   UNL     1       0.073 -14.477  -0.500  1.00  0.00     0.198 A 
ATOM     72  C   UNL     1      -1.803 -13.978  -1.913  1.00  0.00     0.198 A 
ATOM     73  F   UNL     1      -3.347 -12.319  -1.281  1.00  0.00    -0.203 F 
ATOM     74  F   UNL     1       1.206 -15.154  -0.272  1.00  0.00    -0.200 F 
ATOM     75  C   UNL     1      -0.646 -14.702  -1.664  1.00  0.00     0.200 A 
ATOM     76  F   UNL     1      -2.504 -14.200  -3.033  1.00  0.00    -0.200 F 
ATOM     77  F   UNL     1      -0.220 -15.611  -2.551  1.00  0.00    -0.200 F 
ENDBRANCH  53  67
BRANCH  54  78
ATOM     78  C   UNL     1      -4.408  -5.679   6.596  1.00  0.00     0.064 A 
ATOM     79  C   UNL     1      -4.466  -5.916   7.976  1.00  0.00     0.173 A 
ATOM     80  C   UNL     1      -4.828  -4.424   6.132  1.00  0.00     0.173 A 
ATOM     81  F   UNL     1      -4.100  -7.110   8.466  1.00  0.00    -0.203 F 
ATOM     82  C   UNL     1      -4.947  -4.947   8.854  1.00  0.00     0.198 A 
ATOM     83  C   UNL     1      -5.282  -3.445   7.014  1.00  0.00     0.198 A 
ATOM     84  F   UNL     1      -4.795  -4.146   4.821  1.00  0.00    -0.203 F 
ATOM     85  F   UNL     1      -5.040  -5.219  10.163  1.00  0.00    -0.200 F 
ATOM     86  C   UNL     1      -5.351  -3.711   8.373  1.00  0.00     0.200 A 
ATOM     87  F   UNL     1      -5.660  -2.248   6.546  1.00  0.00    -0.200 F 
ATOM     88  F   UNL     1      -5.814  -2.779   9.217  1.00  0.00    -0.200 F 
ENDBRANCH  54  78
BRANCH  66  89
ATOM     89  C   UNL     1      -7.047 -11.854   4.732  1.00  0.00     0.064 A 
ATOM     90  C   UNL     1      -8.337 -11.460   4.350  1.00  0.00     0.173 A 
ATOM     91  C   UNL     1      -6.918 -13.018   5.507  1.00  0.00     0.173 A 
ATOM     92  F   UNL     1      -8.514 -10.347   3.621  1.00  0.00    -0.203 F 
ATOM     93  C   UNL     1      -9.455 -12.188   4.748  1.00  0.00     0.198 A 
ATOM     94  C   UNL     1      -8.035 -13.761   5.877  1.00  0.00     0.198 A 
ATOM     95  F   UNL     1      -5.705 -13.443   5.892  1.00  0.00    -0.203 F 
ATOM     96  F   UNL     1     -10.681 -11.767   4.409  1.00  0.00    -0.200 F 
ATOM     97  C   UNL     1      -9.303 -13.342   5.503  1.00  0.00     0.200 A 
ATOM     98  F   UNL     1      -7.885 -14.882   6.595  1.00  0.00    -0.200 F 
ATOM     99  F   UNL     1     -10.380 -14.046   5.878  1.00  0.00    -0.200 F 
ENDBRANCH  66  89
ENDBRANCH  40  41
ENDBRANCH  33  35
ENDBRANCH  32  33
ENDBRANCH  31  32
ENDBRANCH  30  31
ENDBRANCH  29  30
ENDBRANCH  28  29
ENDBRANCH  27  28
ENDBRANCH  26  27
ENDBRANCH   1  26
TORSDOF 23
