REMARK SMILES CCCCCCNC(=O)Oc1cccc(-c2ccc([C@@H](C)C(=O)OCCOCCOCCOCCOC(=O)c3ccc(-c4c5nc(c(-c6c(F)c(F)c(F)c(F)c6F)c6ccc([nH]6)c(-c6c(F)c(F)c(F)c(F)c6F)c6nc(c(-c7c(F)c(F)c(F)c(F)c7F)c7ccc4[nH]7)C=C6)C=C5)cc3)cc2F)c1
REMARK SMILES IDX 26 1 25 2 24 3 22 4 23 5 20 6 21 7 19 8 16 9 17 10 103 11
REMARK SMILES IDX 18 12 102 13 104 14 15 15 11 16 12 17 105 18 13 19 14 20
REMARK SMILES IDX 10 21 8 22 7 23 9 25 6 26 5 27 4 28 3 29 2 30 1 31 27 32
REMARK SMILES IDX 28 33 29 34 30 35 31 36 32 37 33 38 34 39 35 40 36 41 37 42
REMARK SMILES IDX 38 43 39 44 40 45 101 46 41 47 100 48 42 49 43 50 44 51
REMARK SMILES IDX 94 52 45 53 99 54 93 55 95 56 46 57 98 58 92 59 91 60 47 62
REMARK SMILES IDX 79 63 59 64 78 65 60 66 63 67 77 68 96 69 61 70 62 71 76 73
REMARK SMILES IDX 97 74 64 75 48 76 49 77 57 78 50 79 51 80 55 81 58 82 52 83
REMARK SMILES IDX 53 84 56 85 54 86 80 87 81 88 89 89 82 90 83 91 87 92 90 93
REMARK SMILES IDX 84 94 85 95 88 96 86 97 65 98 66 99 74 100 67 101 68 102
REMARK SMILES IDX 72 103 75 104 69 105 70 106 73 107 71 108
REMARK H PARENT 7 24 95 61 63 72
REMARK Flexibility Score: inf
ROOT
ATOM      1  C   UNL     1      -1.100  10.245 -11.680  1.00  0.00     0.202 C 
ENDROOT
BRANCH   1   2
ATOM      2  C   UNL     1      -2.546  10.726 -11.911  1.00  0.00     0.261 C 
BRANCH   2   3
ATOM      3  O   UNL     1      -3.596  10.008 -11.228  1.00  0.00    -0.463 OA
BRANCH   3   4
ATOM      4  C   UNL     1      -4.353   9.186 -11.992  1.00  0.00     0.313 C 
ATOM      5  O   UNL     1      -4.196   9.061 -13.206  1.00  0.00    -0.252 OA
BRANCH   4   6
ATOM      6  C   UNL     1      -5.464   8.425 -11.269  1.00  0.00     0.126 C 
ATOM      7  C   UNL     1      -6.804   9.012 -11.697  1.00  0.00     0.025 C 
BRANCH   6   8
ATOM      8  C   UNL     1      -5.419   8.184  -9.758  1.00  0.00    -0.031 A 
ATOM      9  C   UNL     1      -5.291   7.589  -6.944  1.00  0.00     0.018 A 
ATOM     10  C   UNL     1      -5.310   8.913  -7.424  1.00  0.00     0.012 A 
ATOM     11  C   UNL     1      -5.340   6.576  -7.906  1.00  0.00     0.131 A 
ATOM     12  C   UNL     1      -5.375   9.208  -8.804  1.00  0.00     0.005 A 
ATOM     13  C   UNL     1      -5.418   6.858  -9.277  1.00  0.00     0.044 A 
ATOM     14  F   UNL     1      -5.325   5.287  -7.531  1.00  0.00    -0.206 F 
BRANCH   9  15
ATOM     15  C   UNL     1      -5.279   7.288  -5.495  1.00  0.00    -0.012 A 
ATOM     16  C   UNL     1      -4.334   6.206  -3.524  1.00  0.00     0.133 A 
ATOM     17  C   UNL     1      -5.374   6.681  -2.728  1.00  0.00     0.047 A 
ATOM     18  C   UNL     1      -4.285   6.488  -4.896  1.00  0.00     0.056 A 
ATOM     19  C   UNL     1      -6.364   7.470  -3.304  1.00  0.00     0.004 A 
ATOM     20  C   UNL     1      -6.315   7.771  -4.670  1.00  0.00     0.009 A 
BRANCH  16  21
ATOM     21  O   UNL     1      -3.421   5.331  -2.907  1.00  0.00    -0.410 OA
BRANCH  21  22
ATOM     22  C   UNL     1      -2.088   5.711  -2.876  1.00  0.00     0.412 C 
ATOM     23  N   UNL     1      -1.284   4.848  -2.178  1.00  0.00    -0.321 N 
ATOM     24  H   UNL     1      -0.318   5.030  -2.209  1.00  0.00     0.167 HD
ATOM     25  O   UNL     1      -1.617   6.719  -3.391  1.00  0.00    -0.224 OA
BRANCH  23  26
ATOM     26  C   UNL     1      -1.698   3.696  -1.399  1.00  0.00     0.119 C 
BRANCH  26  27
ATOM     27  C   UNL     1      -1.068   2.394  -1.897  1.00  0.00     0.021 C 
BRANCH  27  28
ATOM     28  C   UNL     1       0.461   2.324  -1.788  1.00  0.00     0.002 C 
BRANCH  28  29
ATOM     29  C   UNL     1       1.036   2.433  -0.371  1.00  0.00    -0.000 C 
BRANCH  29  30
ATOM     30  C   UNL     1       0.574   1.357   0.616  1.00  0.00    -0.003 C 
ATOM     31  C   UNL     1       0.985  -0.052   0.214  1.00  0.00     0.004 C 
ENDBRANCH  29  30
ENDBRANCH  28  29
ENDBRANCH  27  28
ENDBRANCH  26  27
ENDBRANCH  23  26
ENDBRANCH  21  22
ENDBRANCH  16  21
ENDBRANCH   9  15
ENDBRANCH   6   8
ENDBRANCH   4   6
ENDBRANCH   3   4
ENDBRANCH   2   3
ENDBRANCH   1   2
BRANCH   1  32
ATOM     32  O   UNL     1      -0.748   8.878 -11.828  1.00  0.00    -0.376 OA
BRANCH  32  33
ATOM     33  C   UNL     1      -1.478   7.863 -11.152  1.00  0.00     0.188 C 
BRANCH  33  34
ATOM     34  C   UNL     1      -2.025   8.091  -9.736  1.00  0.00     0.188 C 
BRANCH  34  35
ATOM     35  O   UNL     1      -1.904   9.411  -9.246  1.00  0.00    -0.377 OA
BRANCH  35  36
ATOM     36  C   UNL     1      -0.859   9.647  -8.317  1.00  0.00     0.188 C 
BRANCH  36  37
ATOM     37  C   UNL     1       0.490   8.951  -8.581  1.00  0.00     0.188 C 
BRANCH  37  38
ATOM     38  O   UNL     1       0.392   7.545  -8.774  1.00  0.00    -0.376 OA
BRANCH  38  39
ATOM     39  C   UNL     1       0.615   6.686  -7.663  1.00  0.00     0.202 C 
BRANCH  39  40
ATOM     40  C   UNL     1      -0.384   6.739  -6.495  1.00  0.00     0.261 C 
BRANCH  40  41
ATOM     41  O   UNL     1      -0.564   8.016  -5.872  1.00  0.00    -0.460 OA
BRANCH  41  42
ATOM     42  C   UNL     1       0.507   8.597  -5.293  1.00  0.00     0.338 C 
ATOM     43  O   UNL     1       1.633   8.157  -5.216  1.00  0.00    -0.246 OA
BRANCH  42  44
ATOM     44  C   UNL     1       0.130   9.992  -4.962  1.00  0.00     0.060 A 
ATOM     45  C   UNL     1       0.853  11.039  -5.549  1.00  0.00     0.016 A 
ATOM     46  C   UNL     1      -0.916  10.267  -4.079  1.00  0.00     0.016 A 
ATOM     47  C   UNL     1       0.570  12.362  -5.210  1.00  0.00     0.010 A 
ATOM     48  C   UNL     1      -1.185  11.593  -3.721  1.00  0.00     0.010 A 
ATOM     49  C   UNL     1      -0.413  12.643  -4.252  1.00  0.00    -0.014 A 
BRANCH  49  50
ATOM     50  C   UNL     1      -0.470  13.999  -3.649  1.00  0.00     0.031 A 
ATOM     51  C   UNL     1       0.222  14.221  -2.330  1.00  0.00     0.074 A 
ATOM     52  C   UNL     1      -1.073  15.026  -4.272  1.00  0.00     0.049 A 
ATOM     53  N   UNL     1       0.310  15.307  -1.604  1.00  0.00    -0.248 NA
ATOM     54  C   UNL     1       0.908  13.054  -1.754  1.00  0.00     0.031 C 
ATOM     55  C   UNL     1      -1.731  14.956  -5.573  1.00  0.00     0.029 A 
ATOM     56  N   UNL     1      -1.226  16.335  -3.885  1.00  0.00    -0.354 N 
ATOM     57  C   UNL     1       1.056  14.951  -0.487  1.00  0.00     0.074 A 
ATOM     58  C   UNL     1       1.359  13.543  -0.610  1.00  0.00     0.031 C 
ATOM     59  C   UNL     1      -2.221  16.170  -5.878  1.00  0.00     0.029 A 
ATOM     60  C   UNL     1      -1.940  17.093  -4.779  1.00  0.00     0.049 A 
ATOM     61  H   UNL     1      -0.857  16.696  -3.046  1.00  0.00     0.167 HD
ATOM     62  C   UNL     1       1.463  15.731   0.544  1.00  0.00     0.037 A 
ATOM     63  C   UNL     1      -2.334  18.380  -4.706  1.00  0.00     0.037 A 
ATOM     64  C   UNL     1       1.150  17.130   0.670  1.00  0.00     0.049 A 
ATOM     65  C   UNL     1      -1.952  19.206  -3.502  1.00  0.00     0.074 A 
ATOM     66  C   UNL     1       1.520  18.011   1.671  1.00  0.00     0.029 A 
ATOM     67  N   UNL     1       0.376  17.850  -0.229  1.00  0.00    -0.354 N 
ATOM     68  N   UNL     1      -1.227  18.873  -2.462  1.00  0.00    -0.248 NA
ATOM     69  C   UNL     1      -2.443  20.592  -3.467  1.00  0.00     0.031 C 
ATOM     70  C   UNL     1       0.916  19.245   1.412  1.00  0.00     0.029 A 
ATOM     71  C   UNL     1       0.229  19.156   0.211  1.00  0.00     0.049 A 
ATOM     72  H   UNL     1      -0.012  17.486  -1.058  1.00  0.00     0.167 HD
ATOM     73  C   UNL     1      -1.144  20.012  -1.669  1.00  0.00     0.074 A 
ATOM     74  C   UNL     1      -1.886  21.049  -2.355  1.00  0.00     0.031 C 
ATOM     75  C   UNL     1      -0.507  20.183  -0.484  1.00  0.00     0.037 A 
BRANCH  62  76
ATOM     76  C   UNL     1       2.257  15.069   1.635  1.00  0.00     0.064 A 
ATOM     77  C   UNL     1       3.557  14.585   1.419  1.00  0.00     0.173 A 
ATOM     78  C   UNL     1       1.708  14.916   2.918  1.00  0.00     0.173 A 
ATOM     79  F   UNL     1       4.125  14.693   0.208  1.00  0.00    -0.203 F 
ATOM     80  C   UNL     1       4.259  13.936   2.431  1.00  0.00     0.198 A 
ATOM     81  C   UNL     1       2.428  14.300   3.938  1.00  0.00     0.198 A 
ATOM     82  F   UNL     1       0.472  15.364   3.184  1.00  0.00    -0.203 F 
ATOM     83  F   UNL     1       5.471  13.422   2.181  1.00  0.00    -0.200 F 
ATOM     84  C   UNL     1       3.696  13.799   3.691  1.00  0.00     0.200 A 
ATOM     85  F   UNL     1       1.888  14.182   5.159  1.00  0.00    -0.200 F 
ATOM     86  F   UNL     1       4.373  13.174   4.665  1.00  0.00    -0.200 F 
ENDBRANCH  62  76
BRANCH  63  87
ATOM     87  C   UNL     1      -3.137  18.974  -5.809  1.00  0.00     0.064 A 
ATOM     88  C   UNL     1      -2.607  19.980  -6.628  1.00  0.00     0.173 A 
ATOM     89  C   UNL     1      -4.452  18.555  -6.060  1.00  0.00     0.173 A 
ATOM     90  F   UNL     1      -1.364  20.435  -6.411  1.00  0.00    -0.203 F 
ATOM     91  C   UNL     1      -3.365  20.554  -7.647  1.00  0.00     0.198 A 
ATOM     92  C   UNL     1      -5.199  19.108  -7.098  1.00  0.00     0.198 A 
ATOM     93  F   UNL     1      -5.010  17.600  -5.302  1.00  0.00    -0.203 F 
ATOM     94  F   UNL     1      -2.849  21.546  -8.386  1.00  0.00    -0.200 F 
ATOM     95  C   UNL     1      -4.658  20.112  -7.886  1.00  0.00     0.200 A 
ATOM     96  F   UNL     1      -6.443  18.670  -7.333  1.00  0.00    -0.200 F 
ATOM     97  F   UNL     1      -5.384  20.659  -8.871  1.00  0.00    -0.200 F 
ENDBRANCH  63  87
BRANCH  75  98
ATOM     98  C   UNL     1      -0.540  21.555   0.133  1.00  0.00     0.064 A 
ATOM     99  C   UNL     1      -1.716  22.100   0.671  1.00  0.00     0.173 A 
ATOM    100  C   UNL     1       0.636  22.317   0.226  1.00  0.00     0.173 A 
ATOM    101  F   UNL     1      -2.870  21.420   0.598  1.00  0.00    -0.203 F 
ATOM    102  C   UNL     1      -1.718  23.366   1.252  1.00  0.00     0.198 A 
ATOM    103  C   UNL     1       0.637  23.567   0.840  1.00  0.00     0.198 A 
ATOM    104  F   UNL     1       1.791  21.842  -0.263  1.00  0.00    -0.203 F 
ATOM    105  F   UNL     1      -2.865  23.888   1.711  1.00  0.00    -0.200 F 
ATOM    106  C   UNL     1      -0.542  24.094   1.344  1.00  0.00     0.200 A 
ATOM    107  F   UNL     1       1.779  24.259   0.944  1.00  0.00    -0.200 F 
ATOM    108  F   UNL     1      -0.545  25.308   1.913  1.00  0.00    -0.200 F 
ENDBRANCH  75  98
ENDBRANCH  49  50
ENDBRANCH  42  44
ENDBRANCH  41  42
ENDBRANCH  40  41
ENDBRANCH  39  40
ENDBRANCH  38  39
ENDBRANCH  37  38
ENDBRANCH  36  37
ENDBRANCH  35  36
ENDBRANCH  34  35
ENDBRANCH  33  34
ENDBRANCH  32  33
ENDBRANCH   1  32
TORSDOF 29
