REMARK SMILES COc1ccc(Cc2ncc(C(=O)OCCOCCOCCOCCOC(=O)c3ccc(-c4c5nc(c(-c6c(F)c(F)c(F)c(F)c6F)c6ccc([nH]6)c(-c6c(F)c(F)c(F)c(F)c6F)c6nc(c(-c7c(F)c(F)c(F)c(F)c7F)c7ccc4[nH]7)C=C6)C=C5)cc3)c(C)n2)cn1
REMARK SMILES IDX 19 1 18 2 17 3 16 4 15 5 14 6 12 7 13 8 11 9 8 10 9 11 94 12
REMARK SMILES IDX 10 13 92 14 93 15 7 16 6 17 3 18 4 19 96 20 5 21 95 22 2 23
REMARK SMILES IDX 1 24 20 25 21 26 22 27 23 28 24 29 25 30 26 31 27 32 28 33
REMARK SMILES IDX 29 34 30 35 91 36 31 37 90 38 32 39 33 40 34 41 84 42 35 43
REMARK SMILES IDX 89 44 83 45 85 46 36 47 88 48 82 49 81 50 37 52 69 53 49 54
REMARK SMILES IDX 68 55 50 56 53 57 67 58 86 59 51 60 52 61 66 63 87 64 54 65
REMARK SMILES IDX 38 66 39 67 47 68 40 69 41 70 45 71 48 72 42 73 43 74 46 75
REMARK SMILES IDX 44 76 70 77 71 78 79 79 72 80 73 81 77 82 80 83 74 84 75 85
REMARK SMILES IDX 78 86 76 87 55 88 56 89 64 90 57 91 58 92 62 93 65 94 59 95
REMARK SMILES IDX 60 96 63 97 61 98
REMARK H PARENT 85 51 53 62
REMARK Flexibility Score: inf
ROOT
ATOM      1  C   UNL     1       1.633   9.168   1.579  1.00  0.00     0.188 C 
ENDROOT
BRANCH   1   2
ATOM      2  C   UNL     1       0.349   9.890   2.038  1.00  0.00     0.188 C 
BRANCH   2   3
ATOM      3  O   UNL     1       0.376  11.291   1.854  1.00  0.00    -0.376 OA
BRANCH   3   4
ATOM      4  C   UNL     1       0.798  12.178   2.873  1.00  0.00     0.202 C 
BRANCH   4   5
ATOM      5  C   UNL     1       1.806  11.841   3.988  1.00  0.00     0.261 C 
BRANCH   5   6
ATOM      6  O   UNL     1       2.127  10.464   4.181  1.00  0.00    -0.460 OA
BRANCH   6   7
ATOM      7  C   UNL     1       1.448   9.790   5.127  1.00  0.00     0.341 C 
ATOM      8  O   UNL     1       0.585  10.245   5.858  1.00  0.00    -0.246 OA
BRANCH   7   9
ATOM      9  C   UNL     1       1.727   8.350   5.002  1.00  0.00     0.099 A 
ATOM     10  C   UNL     1       1.935   5.641   4.804  1.00  0.00     0.133 A 
ATOM     11  N   UNL     1       0.705   6.160   4.969  1.00  0.00    -0.240 NA
ATOM     12  N   UNL     1       3.058   6.383   4.685  1.00  0.00    -0.237 NA
ATOM     13  C   UNL     1       0.635   7.504   5.069  1.00  0.00     0.130 A 
ATOM     14  C   UNL     1       2.948   7.739   4.764  1.00  0.00     0.056 A 
ATOM     15  C   UNL     1       4.249   8.476   4.646  1.00  0.00     0.068 C 
BRANCH  10  16
ATOM     16  C   UNL     1       2.077   4.139   4.892  1.00  0.00     0.114 C 
BRANCH  16  17
ATOM     17  C   UNL     1       1.732   3.374   3.641  1.00  0.00    -0.022 A 
ATOM     18  C   UNL     1       1.012   1.930   1.407  1.00  0.00     0.212 A 
ATOM     19  C   UNL     1       2.326   1.869   1.847  1.00  0.00     0.069 A 
ATOM     20  N   UNL     1       0.069   2.672   2.021  1.00  0.00    -0.222 NA
ATOM     21  C   UNL     1       2.686   2.597   2.980  1.00  0.00     0.011 A 
ATOM     22  C   UNL     1       0.442   3.368   3.120  1.00  0.00     0.119 A 
BRANCH  18  23
ATOM     23  O   UNL     1       0.582   1.318   0.261  1.00  0.00    -0.481 OA
ATOM     24  C   UNL     1       0.998  -0.036   0.139  1.00  0.00     0.280 C 
ENDBRANCH  18  23
ENDBRANCH  16  17
ENDBRANCH  10  16
ENDBRANCH   7   9
ENDBRANCH   6   7
ENDBRANCH   5   6
ENDBRANCH   4   5
ENDBRANCH   3   4
ENDBRANCH   2   3
ENDBRANCH   1   2
BRANCH   1  25
ATOM     25  O   UNL     1       2.798   9.977   1.558  1.00  0.00    -0.377 OA
BRANCH  25  26
ATOM     26  C   UNL     1       2.960  10.931   0.509  1.00  0.00     0.188 C 
BRANCH  26  27
ATOM     27  C   UNL     1       1.847  11.257  -0.518  1.00  0.00     0.188 C 
BRANCH  27  28
ATOM     28  O   UNL     1       0.944  10.196  -0.779  1.00  0.00    -0.376 OA
BRANCH  28  29
ATOM     29  C   UNL     1       1.040   9.509  -2.013  1.00  0.00     0.202 C 
BRANCH  29  30
ATOM     30  C   UNL     1       2.317   8.692  -2.250  1.00  0.00     0.261 C 
BRANCH  30  31
ATOM     31  O   UNL     1       3.553   9.409  -2.104  1.00  0.00    -0.460 OA
BRANCH  31  32
ATOM     32  C   UNL     1       3.809  10.386  -2.997  1.00  0.00     0.338 C 
ATOM     33  O   UNL     1       3.111  10.735  -3.935  1.00  0.00    -0.246 OA
BRANCH  32  34
ATOM     34  C   UNL     1       5.016  11.103  -2.541  1.00  0.00     0.060 A 
ATOM     35  C   UNL     1       4.924  12.466  -2.227  1.00  0.00     0.016 A 
ATOM     36  C   UNL     1       6.232  10.428  -2.417  1.00  0.00     0.016 A 
ATOM     37  C   UNL     1       6.060  13.166  -1.821  1.00  0.00     0.010 A 
ATOM     38  C   UNL     1       7.373  11.135  -2.029  1.00  0.00     0.010 A 
ATOM     39  C   UNL     1       7.299  12.514  -1.762  1.00  0.00    -0.014 A 
BRANCH  39  40
ATOM     40  C   UNL     1       8.545  13.305  -1.616  1.00  0.00     0.031 A 
ATOM     41  C   UNL     1       9.335  13.625  -2.856  1.00  0.00     0.074 A 
ATOM     42  C   UNL     1       8.965  13.741  -0.416  1.00  0.00     0.049 A 
ATOM     43  N   UNL     1      10.483  14.239  -2.979  1.00  0.00    -0.248 NA
ATOM     44  C   UNL     1       8.747  13.187  -4.132  1.00  0.00     0.031 C 
ATOM     45  C   UNL     1       8.267  13.533   0.850  1.00  0.00     0.029 A 
ATOM     46  N   UNL     1      10.093  14.442  -0.069  1.00  0.00    -0.354 N 
ATOM     47  C   UNL     1      10.758  14.253  -4.340  1.00  0.00     0.074 A 
ATOM     48  C   UNL     1       9.675  13.558  -5.000  1.00  0.00     0.031 C 
ATOM     49  C   UNL     1       8.991  14.084   1.841  1.00  0.00     0.029 A 
ATOM     50  C   UNL     1      10.219  14.648   1.282  1.00  0.00     0.049 A 
ATOM     51  H   UNL     1      10.749  14.767  -0.728  1.00  0.00     0.167 HD
ATOM     52  C   UNL     1      11.815  14.805  -4.983  1.00  0.00     0.037 A 
ATOM     53  C   UNL     1      11.227  15.202   1.986  1.00  0.00     0.037 A 
ATOM     54  C   UNL     1      12.892  15.493  -4.322  1.00  0.00     0.049 A 
ATOM     55  C   UNL     1      12.434  15.734   1.253  1.00  0.00     0.074 A 
ATOM     56  C   UNL     1      14.000  16.101  -4.884  1.00  0.00     0.029 A 
ATOM     57  N   UNL     1      13.001  15.653  -2.948  1.00  0.00    -0.354 N 
ATOM     58  N   UNL     1      12.676  15.770  -0.035  1.00  0.00    -0.248 NA
ATOM     59  C   UNL     1      13.510  16.308   2.076  1.00  0.00     0.031 C 
ATOM     60  C   UNL     1      14.812  16.573  -3.847  1.00  0.00     0.029 A 
ATOM     61  C   UNL     1      14.174  16.324  -2.642  1.00  0.00     0.049 A 
ATOM     62  H   UNL     1      12.342  15.338  -2.288  1.00  0.00     0.167 HD
ATOM     63  C   UNL     1      13.908  16.398  -0.178  1.00  0.00     0.074 A 
ATOM     64  C   UNL     1      14.358  16.740   1.154  1.00  0.00     0.031 C 
ATOM     65  C   UNL     1      14.604  16.669  -1.311  1.00  0.00     0.037 A 
BRANCH  52  66
ATOM     66  C   UNL     1      11.874  14.657  -6.476  1.00  0.00     0.064 A 
ATOM     67  C   UNL     1      10.979  15.329  -7.323  1.00  0.00     0.173 A 
ATOM     68  C   UNL     1      12.862  13.858  -7.069  1.00  0.00     0.173 A 
ATOM     69  F   UNL     1      10.005  16.094  -6.807  1.00  0.00    -0.203 F 
ATOM     70  C   UNL     1      11.055  15.183  -8.706  1.00  0.00     0.198 A 
ATOM     71  C   UNL     1      12.957  13.742  -8.453  1.00  0.00     0.198 A 
ATOM     72  F   UNL     1      13.745  13.195  -6.307  1.00  0.00    -0.203 F 
ATOM     73  F   UNL     1      10.158  15.793  -9.493  1.00  0.00    -0.200 F 
ATOM     74  C   UNL     1      12.049  14.397  -9.270  1.00  0.00     0.200 A 
ATOM     75  F   UNL     1      13.927  12.994  -8.996  1.00  0.00    -0.200 F 
ATOM     76  F   UNL     1      12.127  14.266 -10.601  1.00  0.00    -0.200 F 
ENDBRANCH  52  66
BRANCH  53  77
ATOM     77  C   UNL     1      11.154  15.270   3.471  1.00  0.00     0.064 A 
ATOM     78  C   UNL     1      11.078  16.500   4.139  1.00  0.00     0.173 A 
ATOM     79  C   UNL     1      11.197  14.107   4.255  1.00  0.00     0.173 A 
ATOM     80  F   UNL     1      11.062  17.643   3.436  1.00  0.00    -0.203 F 
ATOM     81  C   UNL     1      11.073  16.567   5.531  1.00  0.00     0.198 A 
ATOM     82  C   UNL     1      11.158  14.172   5.647  1.00  0.00     0.198 A 
ATOM     83  F   UNL     1      11.274  12.903   3.669  1.00  0.00    -0.203 F 
ATOM     84  F   UNL     1      11.059  17.759   6.142  1.00  0.00    -0.200 F 
ATOM     85  C   UNL     1      11.107  15.403   6.284  1.00  0.00     0.200 A 
ATOM     86  F   UNL     1      11.177  13.044   6.369  1.00  0.00    -0.200 F 
ATOM     87  F   UNL     1      11.101  15.467   7.622  1.00  0.00    -0.200 F 
ENDBRANCH  53  77
BRANCH  65  88
ATOM     88  C   UNL     1      15.902  17.415  -1.168  1.00  0.00     0.064 A 
ATOM     89  C   UNL     1      17.039  16.825  -0.595  1.00  0.00     0.173 A 
ATOM     90  C   UNL     1      16.021  18.726  -1.655  1.00  0.00     0.173 A 
ATOM     91  F   UNL     1      16.977  15.578  -0.103  1.00  0.00    -0.203 F 
ATOM     92  C   UNL     1      18.235  17.530  -0.487  1.00  0.00     0.198 A 
ATOM     93  C   UNL     1      17.229  19.415  -1.579  1.00  0.00     0.198 A 
ATOM     94  F   UNL     1      14.969  19.336  -2.223  1.00  0.00    -0.203 F 
ATOM     95  F   UNL     1      19.291  16.966   0.114  1.00  0.00    -0.200 F 
ATOM     96  C   UNL     1      18.331  18.821  -0.987  1.00  0.00     0.200 A 
ATOM     97  F   UNL     1      17.324  20.654  -2.081  1.00  0.00    -0.200 F 
ATOM     98  F   UNL     1      19.486  19.494  -0.891  1.00  0.00    -0.200 F 
ENDBRANCH  65  88
ENDBRANCH  39  40
ENDBRANCH  32  34
ENDBRANCH  31  32
ENDBRANCH  30  31
ENDBRANCH  29  30
ENDBRANCH  28  29
ENDBRANCH  27  28
ENDBRANCH  26  27
ENDBRANCH  25  26
ENDBRANCH   1  25
TORSDOF 23
