REMARK SMILES Nc1ccc(F)cc1SCCOc1ccc(C(=O)OCCOCCOCCOCCOC(=O)c2ccc(-c3c4nc(c(-c5c(F)c(F)c(F)c(F)c5F)c5ccc([nH]5)c(-c5c(F)c(F)c(F)c(F)c5F)c5nc(c(-c6c(F)c(F)c(F)c(F)c6F)c6ccc3[nH]6)C=C5)C=C4)cc2)cc1
REMARK SMILES IDX 23 1 22 2 21 3 20 4 19 5 17 6 18 7 16 8 13 9 14 10 98 11
REMARK SMILES IDX 15 12 97 13 12 14 11 15 10 16 9 17 8 18 2 19 3 20 4 21 7 22
REMARK SMILES IDX 5 23 6 24 1 25 24 28 25 29 26 30 27 31 28 32 29 33 30 34
REMARK SMILES IDX 31 35 32 36 33 37 34 38 35 39 96 40 36 41 95 42 37 43 38 44
REMARK SMILES IDX 39 45 89 46 40 47 94 48 88 49 90 50 41 51 93 52 87 53 86 54
REMARK SMILES IDX 42 56 74 57 54 58 73 59 55 60 58 61 72 62 91 63 56 64 57 65
REMARK SMILES IDX 71 67 92 68 59 69 43 70 44 71 52 72 45 73 46 74 50 75 53 76
REMARK SMILES IDX 47 77 48 78 51 79 49 80 75 81 76 82 84 83 77 84 78 85 82 86
REMARK SMILES IDX 85 87 79 88 80 89 83 90 81 91 60 92 61 93 69 94 62 95 63 96
REMARK SMILES IDX 67 97 70 98 64 99 65 100 68 101 66 102
REMARK H PARENT 1 26 1 27 90 55 58 66
REMARK Flexibility Score: inf
ROOT
ATOM      1  C   UNL     1      -5.202   1.916   3.255  1.00  0.00     0.188 C 
ENDROOT
BRANCH   1   2
ATOM      2  O   UNL     1      -5.601   2.926   4.174  1.00  0.00    -0.376 OA
BRANCH   2   3
ATOM      3  C   UNL     1      -4.586   3.371   5.067  1.00  0.00     0.202 C 
BRANCH   3   4
ATOM      4  C   UNL     1      -3.618   4.393   4.451  1.00  0.00     0.261 C 
BRANCH   4   5
ATOM      5  O   UNL     1      -2.931   3.928   3.276  1.00  0.00    -0.460 OA
BRANCH   5   6
ATOM      6  C   UNL     1      -2.023   2.953   3.495  1.00  0.00     0.338 C 
ATOM      7  O   UNL     1      -1.691   2.504   4.577  1.00  0.00    -0.246 OA
BRANCH   6   8
ATOM      8  C   UNL     1      -1.673   2.335   2.203  1.00  0.00     0.060 A 
ATOM      9  C   UNL     1      -0.958   0.980  -0.130  1.00  0.00     0.119 A 
ATOM     10  C   UNL     1      -1.780   0.363   0.804  1.00  0.00     0.047 A 
ATOM     11  C   UNL     1      -0.619   2.331   0.041  1.00  0.00     0.047 A 
ATOM     12  C   UNL     1      -2.060   1.008   2.002  1.00  0.00     0.019 A 
ATOM     13  C   UNL     1      -0.999   3.024   1.198  1.00  0.00     0.019 A 
BRANCH   9  14
ATOM     14  O   UNL     1      -0.329   0.332  -1.158  1.00  0.00    -0.493 OA
BRANCH  14  15
ATOM     15  C   UNL     1      -0.512  -1.086  -1.279  1.00  0.00     0.241 C 
BRANCH  15  16
ATOM     16  C   UNL     1       0.481  -1.977  -0.502  1.00  0.00     0.116 C 
BRANCH  16  17
ATOM     17  S   UNL     1       0.248  -2.261   1.299  1.00  0.00    -0.120 SA
BRANCH  17  18
ATOM     18  C   UNL     1       0.874  -0.819   2.186  1.00  0.00     0.033 A 
ATOM     19  C   UNL     1       1.788   0.158   1.736  1.00  0.00     0.045 A 
ATOM     20  C   UNL     1       2.064   1.272   2.554  1.00  0.00     0.029 A 
ATOM     21  C   UNL     1       1.526   1.387   3.833  1.00  0.00     0.041 A 
ATOM     22  C   UNL     1       0.371  -0.705   3.501  1.00  0.00     0.056 A 
ATOM     23  C   UNL     1       0.703   0.380   4.305  1.00  0.00     0.124 A 
ATOM     24  F   UNL     1       0.192   0.469   5.540  1.00  0.00    -0.207 F 
BRANCH  19  25
ATOM     25  N   UNL     1       2.300   0.193   0.435  1.00  0.00    -0.398 N 
ATOM     26  H   UNL     1       2.936   0.899   0.176  1.00  0.00     0.156 HD
ATOM     27  H   UNL     1       2.025  -0.488  -0.221  1.00  0.00     0.156 HD
ENDBRANCH  19  25
ENDBRANCH  17  18
ENDBRANCH  16  17
ENDBRANCH  15  16
ENDBRANCH  14  15
ENDBRANCH   9  14
ENDBRANCH   6   8
ENDBRANCH   5   6
ENDBRANCH   4   5
ENDBRANCH   3   4
ENDBRANCH   2   3
ENDBRANCH   1   2
BRANCH   1  28
ATOM     28  C   UNL     1      -5.172   2.340   1.770  1.00  0.00     0.188 C 
BRANCH  28  29
ATOM     29  O   UNL     1      -5.505   3.667   1.403  1.00  0.00    -0.377 OA
BRANCH  29  30
ATOM     30  C   UNL     1      -6.596   4.292   2.053  1.00  0.00     0.188 C 
BRANCH  30  31
ATOM     31  C   UNL     1      -7.867   3.481   2.382  1.00  0.00     0.188 C 
BRANCH  31  32
ATOM     32  O   UNL     1      -7.847   2.119   1.970  1.00  0.00    -0.376 OA
BRANCH  32  33
ATOM     33  C   UNL     1      -8.697   1.776   0.883  1.00  0.00     0.202 C 
BRANCH  33  34
ATOM     34  C   UNL     1      -8.190   2.215  -0.497  1.00  0.00     0.261 C 
BRANCH  34  35
ATOM     35  O   UNL     1      -8.001   3.628  -0.653  1.00  0.00    -0.460 OA
BRANCH  35  36
ATOM     36  C   UNL     1      -9.095   4.417  -0.532  1.00  0.00     0.338 C 
ATOM     37  O   UNL     1     -10.238   4.071  -0.345  1.00  0.00    -0.246 OA
BRANCH  36  38
ATOM     38  C   UNL     1      -8.608   5.813  -0.457  1.00  0.00     0.060 A 
ATOM     39  C   UNL     1      -7.722   6.309  -1.415  1.00  0.00     0.016 A 
ATOM     40  C   UNL     1      -8.991   6.601   0.637  1.00  0.00     0.016 A 
ATOM     41  C   UNL     1      -7.238   7.611  -1.295  1.00  0.00     0.010 A 
ATOM     42  C   UNL     1      -8.485   7.894   0.771  1.00  0.00     0.010 A 
ATOM     43  C   UNL     1      -7.629   8.416  -0.211  1.00  0.00    -0.014 A 
BRANCH  43  44
ATOM     44  C   UNL     1      -7.329   9.865  -0.232  1.00  0.00     0.031 A 
ATOM     45  C   UNL     1      -6.171  10.462   0.501  1.00  0.00     0.074 A 
ATOM     46  C   UNL     1      -8.161  10.646  -0.946  1.00  0.00     0.049 A 
ATOM     47  N   UNL     1      -5.757  11.704   0.501  1.00  0.00    -0.248 NA
ATOM     48  C   UNL     1      -5.379   9.561   1.349  1.00  0.00     0.031 C 
ATOM     49  C   UNL     1      -9.336  10.163  -1.675  1.00  0.00     0.029 A 
ATOM     50  N   UNL     1      -8.150  11.995  -1.180  1.00  0.00    -0.354 N 
ATOM     51  C   UNL     1      -4.640  11.735   1.322  1.00  0.00     0.074 A 
ATOM     52  C   UNL     1      -4.469  10.393   1.844  1.00  0.00     0.031 C 
ATOM     53  C   UNL     1      -9.924  11.199  -2.290  1.00  0.00     0.029 A 
ATOM     54  C   UNL     1      -9.179  12.415  -1.985  1.00  0.00     0.049 A 
ATOM     55  H   UNL     1      -7.472  12.603  -0.808  1.00  0.00     0.167 HD
ATOM     56  C   UNL     1      -3.829  12.787   1.594  1.00  0.00     0.037 A 
ATOM     57  C   UNL     1      -9.485  13.645  -2.436  1.00  0.00     0.037 A 
ATOM     58  C   UNL     1      -4.025  14.122   1.082  1.00  0.00     0.049 A 
ATOM     59  C   UNL     1      -8.594  14.798  -2.079  1.00  0.00     0.074 A 
ATOM     60  C   UNL     1      -3.229  15.241   1.265  1.00  0.00     0.029 A 
ATOM     61  N   UNL     1      -5.100  14.525   0.301  1.00  0.00    -0.354 N 
ATOM     62  N   UNL     1      -7.491  14.800  -1.372  1.00  0.00    -0.248 NA
ATOM     63  C   UNL     1      -8.985  16.118  -2.590  1.00  0.00     0.031 C 
ATOM     64  C   UNL     1      -3.848  16.329   0.641  1.00  0.00     0.029 A 
ATOM     65  C   UNL     1      -5.005  15.881   0.024  1.00  0.00     0.049 A 
ATOM     66  H   UNL     1      -5.824  13.934  -0.010  1.00  0.00     0.167 HD
ATOM     67  C   UNL     1      -7.045  16.113  -1.365  1.00  0.00     0.074 A 
ATOM     68  C   UNL     1      -7.987  16.877  -2.158  1.00  0.00     0.031 C 
ATOM     69  C   UNL     1      -5.954  16.635  -0.755  1.00  0.00     0.037 A 
BRANCH  56  70
ATOM     70  C   UNL     1      -2.636  12.549   2.473  1.00  0.00     0.064 A 
ATOM     71  C   UNL     1      -1.520  11.838   2.006  1.00  0.00     0.173 A 
ATOM     72  C   UNL     1      -2.558  13.125   3.750  1.00  0.00     0.173 A 
ATOM     73  F   UNL     1      -1.543  11.268   0.791  1.00  0.00    -0.203 F 
ATOM     74  C   UNL     1      -0.375  11.705   2.788  1.00  0.00     0.198 A 
ATOM     75  C   UNL     1      -1.402  13.010   4.520  1.00  0.00     0.198 A 
ATOM     76  F   UNL     1      -3.591  13.827   4.240  1.00  0.00    -0.203 F 
ATOM     77  F   UNL     1       0.671  11.004   2.328  1.00  0.00    -0.200 F 
ATOM     78  C   UNL     1      -0.314  12.299   4.039  1.00  0.00     0.200 A 
ATOM     79  F   UNL     1      -1.338  13.600   5.722  1.00  0.00    -0.200 F 
ATOM     80  F   UNL     1       0.797  12.188   4.781  1.00  0.00    -0.200 F 
ENDBRANCH  56  70
BRANCH  57  81
ATOM     81  C   UNL     1     -10.666  13.822  -3.315  1.00  0.00     0.064 A 
ATOM     82  C   UNL     1     -10.507  14.098  -4.679  1.00  0.00     0.173 A 
ATOM     83  C   UNL     1     -11.970  13.674  -2.822  1.00  0.00     0.173 A 
ATOM     84  F   UNL     1      -9.278  14.259  -5.191  1.00  0.00    -0.203 F 
ATOM     85  C   UNL     1     -11.611  14.228  -5.517  1.00  0.00     0.198 A 
ATOM     86  C   UNL     1     -13.072  13.779  -3.666  1.00  0.00     0.198 A 
ATOM     87  F   UNL     1     -12.171  13.398  -1.525  1.00  0.00    -0.203 F 
ATOM     88  F   UNL     1     -11.434  14.521  -6.813  1.00  0.00    -0.200 F 
ATOM     89  C   UNL     1     -12.892  14.061  -5.012  1.00  0.00     0.200 A 
ATOM     90  F   UNL     1     -14.307  13.599  -3.179  1.00  0.00    -0.200 F 
ATOM     91  F   UNL     1     -13.953  14.174  -5.823  1.00  0.00    -0.200 F 
ENDBRANCH  57  81
BRANCH  69  92
ATOM     92  C   UNL     1      -5.715  18.109  -0.917  1.00  0.00     0.064 A 
ATOM     93  C   UNL     1      -6.521  19.055  -0.266  1.00  0.00     0.173 A 
ATOM     94  C   UNL     1      -4.642  18.579  -1.689  1.00  0.00     0.173 A 
ATOM     95  F   UNL     1      -7.570  18.657   0.469  1.00  0.00    -0.203 F 
ATOM     96  C   UNL     1      -6.270  20.418  -0.395  1.00  0.00     0.198 A 
ATOM     97  C   UNL     1      -4.377  19.942  -1.792  1.00  0.00     0.198 A 
ATOM     98  F   UNL     1      -3.839  17.715  -2.329  1.00  0.00    -0.203 F 
ATOM     99  F   UNL     1      -7.077  21.305   0.203  1.00  0.00    -0.200 F 
ATOM    100  C   UNL     1      -5.193  20.860  -1.150  1.00  0.00     0.200 A 
ATOM    101  F   UNL     1      -3.328  20.367  -2.511  1.00  0.00    -0.200 F 
ATOM    102  F   UNL     1      -4.946  22.172  -1.262  1.00  0.00    -0.200 F 
ENDBRANCH  69  92
ENDBRANCH  43  44
ENDBRANCH  36  38
ENDBRANCH  35  36
ENDBRANCH  34  35
ENDBRANCH  33  34
ENDBRANCH  32  33
ENDBRANCH  31  32
ENDBRANCH  30  31
ENDBRANCH  29  30
ENDBRANCH  28  29
ENDBRANCH   1  28
TORSDOF 26
