REMARK SMILES COc1ccc(/C=C/c2cc(OC)cc(OC)c2/C=C/C(=O)OCCOCCOCCOCCOC(=O)c2ccc(-c3c4nc(c(-c5c(F)c(F)c(F)c(F)c5F)c5ccc([nH]5)c(-c5c(F)c(F)c(F)c(F)c5F)c5nc(c(-c6c(F)c(F)c(F)c(F)c6F)c6ccc3[nH]6)C=C5)C=C4)cc2)cc1
REMARK SMILES IDX 28 1 27 2 26 3 25 4 24 5 23 6 21 7 22 8 20 9 19 10 18 11
REMARK SMILES IDX 9 12 10 13 11 14 15 15 14 16 8 17 7 18 6 19 3 20 4 21 102 22
REMARK SMILES IDX 5 23 101 24 2 25 1 26 12 27 13 28 16 29 17 30 29 31 30 32
REMARK SMILES IDX 31 33 32 34 33 35 34 36 35 37 36 38 37 39 38 40 39 41 100 42
REMARK SMILES IDX 40 43 99 44 41 45 42 46 43 47 93 48 44 49 98 50 92 51 94 52
REMARK SMILES IDX 45 53 97 54 91 55 90 56 46 58 78 59 58 60 77 61 59 62 62 63
REMARK SMILES IDX 76 64 95 65 60 66 61 67 75 69 96 70 63 71 47 72 48 73 56 74
REMARK SMILES IDX 49 75 50 76 54 77 57 78 51 79 52 80 55 81 53 82 79 83 80 84
REMARK SMILES IDX 88 85 81 86 82 87 86 88 89 89 83 90 84 91 87 92 85 93 64 94
REMARK SMILES IDX 65 95 73 96 66 97 67 98 71 99 74 100 68 101 69 102 72 103
REMARK SMILES IDX 70 104
REMARK H PARENT 94 57 62 68
REMARK Flexibility Score: inf
ROOT
ATOM      1  C   UNL     1       5.032  -7.213   5.507  1.00  0.00     0.188 C 
ENDROOT
BRANCH   1   2
ATOM      2  C   UNL     1       6.529  -7.410   5.220  1.00  0.00     0.188 C 
BRANCH   2   3
ATOM      3  O   UNL     1       7.307  -6.262   5.499  1.00  0.00    -0.376 OA
BRANCH   3   4
ATOM      4  C   UNL     1       7.680  -5.375   4.457  1.00  0.00     0.202 C 
BRANCH   4   5
ATOM      5  C   UNL     1       6.760  -5.018   3.272  1.00  0.00     0.261 C 
BRANCH   5   6
ATOM      6  O   UNL     1       5.847  -6.030   2.832  1.00  0.00    -0.460 OA
BRANCH   6   7
ATOM      7  C   UNL     1       6.280  -6.896   1.893  1.00  0.00     0.330 C 
ATOM      8  O   UNL     1       7.380  -6.887   1.365  1.00  0.00    -0.247 OA
BRANCH   7   9
ATOM      9  C   UNL     1       5.279  -7.956   1.619  1.00  0.00     0.094 C 
ATOM     10  C   UNL     1       4.079  -8.060   2.212  1.00  0.00     0.020 C 
BRANCH  10  11
ATOM     11  C   UNL     1       3.107  -9.140   1.929  1.00  0.00     0.024 A 
ATOM     12  C   UNL     1       1.800  -8.774   1.503  1.00  0.00    -0.011 A 
ATOM     13  C   UNL     1       0.869  -9.755   1.130  1.00  0.00     0.055 A 
ATOM     14  C   UNL     1       1.181 -11.106   1.220  1.00  0.00     0.123 A 
ATOM     15  C   UNL     1       3.397 -10.515   2.054  1.00  0.00     0.130 A 
ATOM     16  C   UNL     1       2.436 -11.478   1.692  1.00  0.00     0.093 A 
BRANCH  12  17
ATOM     17  C   UNL     1       1.300  -7.389   1.512  1.00  0.00     0.009 C 
ATOM     18  C   UNL     1       1.897  -6.384   0.858  1.00  0.00     0.009 C 
BRANCH  18  19
ATOM     19  C   UNL     1       1.531  -4.976   1.030  1.00  0.00    -0.025 A 
ATOM     20  C   UNL     1       0.928  -2.273   1.206  1.00  0.00     0.118 A 
ATOM     21  C   UNL     1      -0.065  -3.208   1.471  1.00  0.00     0.047 A 
ATOM     22  C   UNL     1       2.236  -2.658   0.932  1.00  0.00     0.047 A 
ATOM     23  C   UNL     1       0.234  -4.562   1.363  1.00  0.00     0.012 A 
ATOM     24  C   UNL     1       2.533  -4.013   0.835  1.00  0.00     0.012 A 
BRANCH  20  25
ATOM     25  O   UNL     1       0.573  -0.956   1.131  1.00  0.00    -0.497 OA
ATOM     26  C   UNL     1       0.443  -0.618  -0.254  1.00  0.00     0.278 C 
ENDBRANCH  20  25
ENDBRANCH  18  19
ENDBRANCH  12  17
BRANCH  14  27
ATOM     27  O   UNL     1       0.184 -11.950   0.818  1.00  0.00    -0.497 OA
ATOM     28  C   UNL     1       0.365 -13.332   1.099  1.00  0.00     0.278 C 
ENDBRANCH  14  27
BRANCH  15  29
ATOM     29  O   UNL     1       4.587 -11.087   2.431  1.00  0.00    -0.496 OA
ATOM     30  C   UNL     1       5.263 -10.541   3.555  1.00  0.00     0.278 C 
ENDBRANCH  15  29
ENDBRANCH  10  11
ENDBRANCH   7   9
ENDBRANCH   6   7
ENDBRANCH   5   6
ENDBRANCH   4   5
ENDBRANCH   3   4
ENDBRANCH   2   3
ENDBRANCH   1   2
BRANCH   1  31
ATOM     31  O   UNL     1       4.561  -5.884   5.380  1.00  0.00    -0.377 OA
BRANCH  31  32
ATOM     32  C   UNL     1       4.886  -4.936   6.395  1.00  0.00     0.188 C 
BRANCH  32  33
ATOM     33  C   UNL     1       5.783  -5.271   7.614  1.00  0.00     0.188 C 
BRANCH  33  34
ATOM     34  O   UNL     1       5.805  -6.636   7.996  1.00  0.00    -0.376 OA
BRANCH  34  35
ATOM     35  C   UNL     1       5.090  -7.016   9.159  1.00  0.00     0.202 C 
BRANCH  35  36
ATOM     36  C   UNL     1       3.562  -6.882   9.105  1.00  0.00     0.261 C 
BRANCH  36  37
ATOM     37  O   UNL     1       3.055  -5.585   8.755  1.00  0.00    -0.460 OA
BRANCH  37  38
ATOM     38  C   UNL     1       3.281  -4.572   9.617  1.00  0.00     0.338 C 
ATOM     39  O   UNL     1       3.864  -4.632  10.689  1.00  0.00    -0.246 OA
BRANCH  38  40
ATOM     40  C   UNL     1       2.859  -3.318   8.960  1.00  0.00     0.060 A 
ATOM     41  C   UNL     1       3.815  -2.326   8.700  1.00  0.00     0.016 A 
ATOM     42  C   UNL     1       1.529  -3.130   8.579  1.00  0.00     0.016 A 
ATOM     43  C   UNL     1       3.435  -1.132   8.081  1.00  0.00     0.010 A 
ATOM     44  C   UNL     1       1.146  -1.926   7.980  1.00  0.00     0.010 A 
ATOM     45  C   UNL     1       2.091  -0.908   7.752  1.00  0.00    -0.014 A 
BRANCH  45  46
ATOM     46  C   UNL     1       1.637   0.452   7.362  1.00  0.00     0.031 A 
ATOM     47  C   UNL     1       1.017   1.327   8.422  1.00  0.00     0.074 A 
ATOM     48  C   UNL     1       1.790   0.920   6.109  1.00  0.00     0.049 A 
ATOM     49  N   UNL     1       0.490   2.521   8.321  1.00  0.00    -0.248 NA
ATOM     50  C   UNL     1       0.983   0.771   9.785  1.00  0.00     0.031 C 
ATOM     51  C   UNL     1       2.412   0.205   4.995  1.00  0.00     0.029 A 
ATOM     52  N   UNL     1       1.423   2.128   5.567  1.00  0.00    -0.354 N 
ATOM     53  C   UNL     1       0.050   2.850   9.598  1.00  0.00     0.074 A 
ATOM     54  C   UNL     1       0.346   1.721  10.452  1.00  0.00     0.031 C 
ATOM     55  C   UNL     1       2.398   0.996   3.904  1.00  0.00     0.029 A 
ATOM     56  C   UNL     1       1.740   2.257   4.236  1.00  0.00     0.049 A 
ATOM     57  H   UNL     1       0.975   2.836   6.084  1.00  0.00     0.167 HD
ATOM     58  C   UNL     1      -0.544   3.992  10.022  1.00  0.00     0.037 A 
ATOM     59  C   UNL     1       1.503   3.276   3.389  1.00  0.00     0.037 A 
ATOM     60  C   UNL     1      -0.841   5.115   9.171  1.00  0.00     0.049 A 
ATOM     61  C   UNL     1       0.725   4.474   3.861  1.00  0.00     0.074 A 
ATOM     62  C   UNL     1      -1.415   6.328   9.510  1.00  0.00     0.029 A 
ATOM     63  N   UNL     1      -0.598   5.156   7.806  1.00  0.00    -0.354 N 
ATOM     64  N   UNL     1       0.297   4.773   5.061  1.00  0.00    -0.248 NA
ATOM     65  C   UNL     1       0.379   5.468   2.833  1.00  0.00     0.031 C 
ATOM     66  C   UNL     1      -1.584   7.075   8.340  1.00  0.00     0.029 A 
ATOM     67  C   UNL     1      -1.048   6.359   7.283  1.00  0.00     0.049 A 
ATOM     68  H   UNL     1      -0.170   4.439   7.286  1.00  0.00     0.167 HD
ATOM     69  C   UNL     1      -0.345   5.998   4.939  1.00  0.00     0.074 A 
ATOM     70  C   UNL     1      -0.245   6.390   3.549  1.00  0.00     0.031 C 
ATOM     71  C   UNL     1      -0.956   6.736   5.897  1.00  0.00     0.037 A 
BRANCH  58  72
ATOM     72  C   UNL     1      -0.952   4.072  11.466  1.00  0.00     0.064 A 
ATOM     73  C   UNL     1      -0.008   4.151  12.502  1.00  0.00     0.173 A 
ATOM     74  C   UNL     1      -2.311   4.111  11.816  1.00  0.00     0.173 A 
ATOM     75  F   UNL     1       1.304   4.107  12.226  1.00  0.00    -0.203 F 
ATOM     76  C   UNL     1      -0.410   4.233  13.833  1.00  0.00     0.198 A 
ATOM     77  C   UNL     1      -2.708   4.229  13.145  1.00  0.00     0.198 A 
ATOM     78  F   UNL     1      -3.256   4.046  10.867  1.00  0.00    -0.203 F 
ATOM     79  F   UNL     1       0.509   4.253  14.809  1.00  0.00    -0.200 F 
ATOM     80  C   UNL     1      -1.758   4.280  14.153  1.00  0.00     0.200 A 
ATOM     81  F   UNL     1      -4.012   4.292  13.450  1.00  0.00    -0.200 F 
ATOM     82  F   UNL     1      -2.143   4.369  15.434  1.00  0.00    -0.200 F 
ENDBRANCH  58  72
BRANCH  59  83
ATOM     83  C   UNL     1       1.963   3.238   1.980  1.00  0.00     0.064 A 
ATOM     84  C   UNL     1       3.083   3.974   1.571  1.00  0.00     0.173 A 
ATOM     85  C   UNL     1       1.202   2.600   0.996  1.00  0.00     0.173 A 
ATOM     86  F   UNL     1       3.788   4.675   2.470  1.00  0.00    -0.203 F 
ATOM     87  C   UNL     1       3.435   4.058   0.224  1.00  0.00     0.198 A 
ATOM     88  C   UNL     1       1.557   2.684  -0.350  1.00  0.00     0.198 A 
ATOM     89  F   UNL     1       0.077   1.957   1.337  1.00  0.00    -0.203 F 
ATOM     90  F   UNL     1       4.478   4.810  -0.151  1.00  0.00    -0.200 F 
ATOM     91  C   UNL     1       2.676   3.405  -0.734  1.00  0.00     0.200 A 
ATOM     92  F   UNL     1       0.796   2.100  -1.285  1.00  0.00    -0.200 F 
ATOM     93  F   UNL     1       3.000   3.497  -2.031  1.00  0.00    -0.200 F 
ENDBRANCH  59  83
BRANCH  71  94
ATOM     94  C   UNL     1      -1.520   8.063   5.483  1.00  0.00     0.064 A 
ATOM     95  C   UNL     1      -2.656   8.165   4.666  1.00  0.00     0.173 A 
ATOM     96  C   UNL     1      -0.917   9.253   5.920  1.00  0.00     0.173 A 
ATOM     97  F   UNL     1      -3.256   7.058   4.202  1.00  0.00    -0.203 F 
ATOM     98  C   UNL     1      -3.148   9.408   4.277  1.00  0.00     0.198 A 
ATOM     99  C   UNL     1      -1.433  10.494   5.559  1.00  0.00     0.198 A 
ATOM    100  F   UNL     1       0.171   9.212   6.702  1.00  0.00    -0.203 F 
ATOM    101  F   UNL     1      -4.197   9.481   3.446  1.00  0.00    -0.200 F 
ATOM    102  C   UNL     1      -2.542  10.570   4.730  1.00  0.00     0.200 A 
ATOM    103  F   UNL     1      -0.853  11.615   6.008  1.00  0.00    -0.200 F 
ATOM    104  F   UNL     1      -3.019  11.766   4.357  1.00  0.00    -0.200 F 
ENDBRANCH  71  94
ENDBRANCH  45  46
ENDBRANCH  38  40
ENDBRANCH  37  38
ENDBRANCH  36  37
ENDBRANCH  35  36
ENDBRANCH  34  35
ENDBRANCH  33  34
ENDBRANCH  32  33
ENDBRANCH  31  32
ENDBRANCH   1  31
TORSDOF 26
