REMARK SMILES COC[C@@H](C)N(C)C(=O)N1CCC(CC(=O)OCCOCCOCCOCCOC(=O)c2ccc(-c3c4nc(c(-c5c(F)c(F)c(F)c(F)c5F)c5ccc([nH]5)c(-c5c(F)c(F)c(F)c(F)c5F)c5nc(c(-c6c(F)c(F)c(F)c(F)c6F)c6ccc3[nH]6)C=C5)C=C4)cc2)CC1
REMARK SMILES IDX 21 1 20 2 19 3 18 4 17 5 15 6 16 7 14 8 13 9 8 10 9 11 10 12
REMARK SMILES IDX 11 13 96 14 12 15 95 16 6 17 7 18 4 19 5 20 3 21 2 22 1 23
REMARK SMILES IDX 22 24 23 25 24 26 25 27 26 28 27 29 28 30 29 31 30 32 31 33
REMARK SMILES IDX 32 34 33 35 94 36 34 37 93 38 35 39 36 40 37 41 87 42 38 43
REMARK SMILES IDX 92 44 86 45 88 46 39 47 91 48 85 49 84 50 40 52 72 53 52 54
REMARK SMILES IDX 71 55 53 56 56 57 70 58 89 59 54 60 55 61 69 63 90 64 57 65
REMARK SMILES IDX 41 66 42 67 50 68 43 69 44 70 48 71 51 72 45 73 46 74 49 75
REMARK SMILES IDX 47 76 73 77 74 78 82 79 75 80 76 81 80 82 83 83 77 84 78 85
REMARK SMILES IDX 81 86 79 87 58 88 59 89 67 90 60 91 61 92 65 93 68 94 62 95
REMARK SMILES IDX 63 96 66 97 64 98
REMARK H PARENT 88 51 56 62
REMARK Flexibility Score: inf
ROOT
ATOM      1  C   UNL     1       6.948   9.893   5.270  1.00  0.00     0.188 C 
ENDROOT
BRANCH   1   2
ATOM      2  O   UNL     1       8.042  10.334   4.503  1.00  0.00    -0.376 OA
BRANCH   2   3
ATOM      3  C   UNL     1       8.998   9.416   4.004  1.00  0.00     0.202 C 
BRANCH   3   4
ATOM      4  C   UNL     1       8.868   7.879   4.023  1.00  0.00     0.261 C 
BRANCH   4   5
ATOM      5  O   UNL     1       7.564   7.307   4.193  1.00  0.00    -0.463 OA
BRANCH   5   6
ATOM      6  C   UNL     1       7.390   6.555   5.305  1.00  0.00     0.306 C 
ATOM      7  O   UNL     1       8.243   6.416   6.178  1.00  0.00    -0.252 OA
BRANCH   6   8
ATOM      8  C   UNL     1       6.028   5.904   5.452  1.00  0.00     0.126 C 
BRANCH   8   9
ATOM      9  C   UNL     1       4.911   6.079   4.417  1.00  0.00     0.003 C 
ATOM     10  C   UNL     1       2.442   4.035   1.987  1.00  0.00     0.320 C 
ATOM     11  O   UNL     1       3.271   3.299   1.451  1.00  0.00    -0.248 OA
ATOM     12  N   UNL     1       2.841   5.210   2.588  1.00  0.00    -0.325 N 
ATOM     13  C   UNL     1       4.045   5.862   2.088  1.00  0.00     0.121 C 
ATOM     14  C   UNL     1       2.459   5.551   3.954  1.00  0.00     0.121 C 
ATOM     15  C   UNL     1       5.243   5.596   3.001  1.00  0.00     0.026 C 
ATOM     16  C   UNL     1       3.637   5.360   4.915  1.00  0.00     0.026 C 
BRANCH  10  17
ATOM     17  N   UNL     1       1.084   3.751   1.977  1.00  0.00    -0.323 N 
ATOM     18  C   UNL     1       0.042   4.738   2.234  1.00  0.00     0.149 C 
BRANCH  17  19
ATOM     19  C   UNL     1       0.632   2.420   1.517  1.00  0.00     0.109 C 
ATOM     20  C   UNL     1       1.108   1.329   2.479  1.00  0.00     0.033 C 
BRANCH  19  21
ATOM     21  C   UNL     1       1.003   2.160   0.036  1.00  0.00     0.184 C 
BRANCH  21  22
ATOM     22  O   UNL     1       0.303   1.056  -0.545  1.00  0.00    -0.383 OA
ATOM     23  C   UNL     1       0.977  -0.187  -0.394  1.00  0.00     0.194 C 
ENDBRANCH  21  22
ENDBRANCH  19  21
ENDBRANCH  17  19
ENDBRANCH  10  17
ENDBRANCH   8   9
ENDBRANCH   6   8
ENDBRANCH   5   6
ENDBRANCH   4   5
ENDBRANCH   3   4
ENDBRANCH   2   3
ENDBRANCH   1   2
BRANCH   1  24
ATOM     24  C   UNL     1       5.667   9.592   4.484  1.00  0.00     0.188 C 
BRANCH  24  25
ATOM     25  O   UNL     1       5.782   9.062   3.172  1.00  0.00    -0.377 OA
BRANCH  25  26
ATOM     26  C   UNL     1       6.324   9.861   2.122  1.00  0.00     0.188 C 
BRANCH  26  27
ATOM     27  C   UNL     1       6.474  11.389   2.273  1.00  0.00     0.188 C 
BRANCH  27  28
ATOM     28  O   UNL     1       5.597  11.986   3.208  1.00  0.00    -0.376 OA
BRANCH  28  29
ATOM     29  C   UNL     1       4.380  12.541   2.732  1.00  0.00     0.202 C 
BRANCH  29  30
ATOM     30  C   UNL     1       3.420  11.612   1.974  1.00  0.00     0.261 C 
BRANCH  30  31
ATOM     31  O   UNL     1       3.917  11.040   0.751  1.00  0.00    -0.460 OA
BRANCH  31  32
ATOM     32  C   UNL     1       4.348  11.877  -0.220  1.00  0.00     0.338 C 
ATOM     33  O   UNL     1       4.330  13.088  -0.218  1.00  0.00    -0.246 OA
BRANCH  32  34
ATOM     34  C   UNL     1       5.022  11.046  -1.240  1.00  0.00     0.060 A 
ATOM     35  C   UNL     1       6.400  11.194  -1.449  1.00  0.00     0.016 A 
ATOM     36  C   UNL     1       4.289  10.119  -1.982  1.00  0.00     0.016 A 
ATOM     37  C   UNL     1       7.048  10.420  -2.414  1.00  0.00     0.010 A 
ATOM     38  C   UNL     1       4.934   9.363  -2.963  1.00  0.00     0.010 A 
ATOM     39  C   UNL     1       6.312   9.523  -3.199  1.00  0.00    -0.014 A 
BRANCH  39  40
ATOM     40  C   UNL     1       6.931   8.860  -4.374  1.00  0.00     0.031 A 
ATOM     41  C   UNL     1       6.683   9.443  -5.737  1.00  0.00     0.074 A 
ATOM     42  C   UNL     1       7.684   7.754  -4.237  1.00  0.00     0.049 A 
ATOM     43  N   UNL     1       6.987   8.966  -6.916  1.00  0.00    -0.248 NA
ATOM     44  C   UNL     1       5.996  10.745  -5.773  1.00  0.00     0.031 C 
ATOM     45  C   UNL     1       8.048   7.128  -2.968  1.00  0.00     0.029 A 
ATOM     46  N   UNL     1       8.261   6.947  -5.189  1.00  0.00    -0.354 N 
ATOM     47  C   UNL     1       6.530   9.905  -7.832  1.00  0.00     0.074 A 
ATOM     48  C   UNL     1       5.898  10.964  -7.076  1.00  0.00     0.031 C 
ATOM     49  C   UNL     1       8.766   6.019  -3.220  1.00  0.00     0.029 A 
ATOM     50  C   UNL     1       8.870   5.832  -4.666  1.00  0.00     0.049 A 
ATOM     51  H   UNL     1       8.240   7.150  -6.152  1.00  0.00     0.167 HD
ATOM     52  C   UNL     1       6.639   9.888  -9.181  1.00  0.00     0.037 A 
ATOM     53  C   UNL     1       9.407   4.763  -5.290  1.00  0.00     0.037 A 
ATOM     54  C   UNL     1       7.258   8.826  -9.929  1.00  0.00     0.049 A 
ATOM     55  C   UNL     1       9.392   4.708  -6.800  1.00  0.00     0.074 A 
ATOM     56  C   UNL     1       7.405   8.710 -11.300  1.00  0.00     0.029 A 
ATOM     57  N   UNL     1       7.826   7.694  -9.367  1.00  0.00    -0.354 N 
ATOM     58  N   UNL     1       8.973   5.603  -7.662  1.00  0.00    -0.248 NA
ATOM     59  C   UNL     1       9.919   3.484  -7.426  1.00  0.00     0.031 C 
ATOM     60  C   UNL     1       8.017   7.483 -11.570  1.00  0.00     0.029 A 
ATOM     61  C   UNL     1       8.302   6.861 -10.366  1.00  0.00     0.049 A 
ATOM     62  H   UNL     1       7.883   7.509  -8.401  1.00  0.00     0.167 HD
ATOM     63  C   UNL     1       9.218   5.068  -8.921  1.00  0.00     0.074 A 
ATOM     64  C   UNL     1       9.839   3.778  -8.715  1.00  0.00     0.031 C 
ATOM     65  C   UNL     1       8.945   5.592 -10.141  1.00  0.00     0.037 A 
BRANCH  52  66
ATOM     66  C   UNL     1       6.070  11.049  -9.942  1.00  0.00     0.064 A 
ATOM     67  C   UNL     1       6.680  12.312  -9.914  1.00  0.00     0.173 A 
ATOM     68  C   UNL     1       4.942  10.882 -10.760  1.00  0.00     0.173 A 
ATOM     69  F   UNL     1       7.753  12.526  -9.138  1.00  0.00    -0.203 F 
ATOM     70  C   UNL     1       6.173  13.368 -10.666  1.00  0.00     0.198 A 
ATOM     71  C   UNL     1       4.456  11.932 -11.534  1.00  0.00     0.198 A 
ATOM     72  F   UNL     1       4.324   9.693 -10.827  1.00  0.00    -0.203 F 
ATOM     73  F   UNL     1       6.751  14.575 -10.596  1.00  0.00    -0.200 F 
ATOM     74  C   UNL     1       5.069  13.175 -11.482  1.00  0.00     0.200 A 
ATOM     75  F   UNL     1       3.398  11.740 -12.334  1.00  0.00    -0.200 F 
ATOM     76  F   UNL     1       4.593  14.189 -12.219  1.00  0.00    -0.200 F 
ENDBRANCH  52  66
BRANCH  53  77
ATOM     77  C   UNL     1       9.966   3.625  -4.508  1.00  0.00     0.064 A 
ATOM     78  C   UNL     1      11.323   3.282  -4.601  1.00  0.00     0.173 A 
ATOM     79  C   UNL     1       9.144   2.808  -3.717  1.00  0.00     0.173 A 
ATOM     80  F   UNL     1      12.146   4.012  -5.368  1.00  0.00    -0.203 F 
ATOM     81  C   UNL     1      11.826   2.146  -3.969  1.00  0.00     0.198 A 
ATOM     82  C   UNL     1       9.656   1.694  -3.054  1.00  0.00     0.198 A 
ATOM     83  F   UNL     1       7.837   3.083  -3.596  1.00  0.00    -0.203 F 
ATOM     84  F   UNL     1      13.109   1.800  -4.141  1.00  0.00    -0.200 F 
ATOM     85  C   UNL     1      10.993   1.355  -3.193  1.00  0.00     0.200 A 
ATOM     86  F   UNL     1       8.850   0.938  -2.297  1.00  0.00    -0.200 F 
ATOM     87  F   UNL     1      11.474   0.256  -2.596  1.00  0.00    -0.200 F 
ENDBRANCH  53  77
BRANCH  65  88
ATOM     88  C   UNL     1       9.356   4.801 -11.351  1.00  0.00     0.064 A 
ATOM     89  C   UNL     1       8.686   3.627 -11.725  1.00  0.00     0.173 A 
ATOM     90  C   UNL     1      10.387   5.263 -12.184  1.00  0.00     0.173 A 
ATOM     91  F   UNL     1       7.703   3.136 -10.955  1.00  0.00    -0.203 F 
ATOM     92  C   UNL     1       9.046   2.935 -12.879  1.00  0.00     0.198 A 
ATOM     93  C   UNL     1      10.721   4.587 -13.354  1.00  0.00     0.198 A 
ATOM     94  F   UNL     1      11.054   6.385 -11.876  1.00  0.00    -0.203 F 
ATOM     95  F   UNL     1       8.419   1.794 -13.195  1.00  0.00    -0.200 F 
ATOM     96  C   UNL     1      10.054   3.421 -13.698  1.00  0.00     0.200 A 
ATOM     97  F   UNL     1      11.683   5.069 -14.153  1.00  0.00    -0.200 F 
ATOM     98  F   UNL     1      10.385   2.764 -14.818  1.00  0.00    -0.200 F 
ENDBRANCH  65  88
ENDBRANCH  39  40
ENDBRANCH  32  34
ENDBRANCH  31  32
ENDBRANCH  30  31
ENDBRANCH  29  30
ENDBRANCH  28  29
ENDBRANCH  27  28
ENDBRANCH  26  27
ENDBRANCH  25  26
ENDBRANCH  24  25
ENDBRANCH   1  24
TORSDOF 25
