REMARK SMILES C[C@H](NC(=O)N1CC[C@H](C(=O)OCCOCCOCCOCCOC(=O)c2ccc(-c3c4nc(c(-c5c(F)c(F)c(F)c(F)c5F)c5ccc([nH]5)c(-c5c(F)c(F)c(F)c(F)c5F)c5nc(c(-c6c(F)c(F)c(F)c(F)c6F)c6ccc3[nH]6)C=C5)C=C4)cc2)[C@@H]1C)[C@@H]1CCCO1
REMARK SMILES IDX 17 1 16 2 15 3 14 4 13 5 12 6 10 7 11 8 9 9 6 10 7 11 90 12
REMARK SMILES IDX 8 13 91 14 4 15 3 16 5 18 2 19 1 20 92 21 93 22 96 23 94 24
REMARK SMILES IDX 95 25 18 26 19 27 20 28 21 29 22 30 23 31 24 32 25 33 26 34
REMARK SMILES IDX 27 35 28 36 89 37 29 38 88 39 30 40 31 41 32 42 82 43 33 44
REMARK SMILES IDX 87 45 81 46 83 47 34 48 86 49 80 50 79 51 35 53 67 54 47 55
REMARK SMILES IDX 66 56 48 57 51 58 65 59 84 60 49 61 50 62 64 64 85 65 52 66
REMARK SMILES IDX 36 67 37 68 45 69 38 70 39 71 43 72 46 73 40 74 41 75 44 76
REMARK SMILES IDX 42 77 68 78 69 79 77 80 70 81 71 82 75 83 78 84 72 85 73 86
REMARK SMILES IDX 76 87 74 88 53 89 54 90 62 91 55 92 56 93 60 94 63 95 57 96
REMARK SMILES IDX 58 97 61 98 59 99
REMARK H PARENT 3 17 83 52 51 63
REMARK Flexibility Score: inf
ROOT
ATOM      1  C   UNL     1       4.132   5.106   3.117  1.00  0.00     0.188 C 
ENDROOT
BRANCH   1   2
ATOM      2  C   UNL     1       4.882   3.978   3.850  1.00  0.00     0.188 C 
BRANCH   2   3
ATOM      3  O   UNL     1       6.165   4.367   4.316  1.00  0.00    -0.376 OA
BRANCH   3   4
ATOM      4  C   UNL     1       7.314   3.814   3.696  1.00  0.00     0.202 C 
BRANCH   4   5
ATOM      5  C   UNL     1       7.530   4.013   2.187  1.00  0.00     0.261 C 
BRANCH   5   6
ATOM      6  O   UNL     1       6.348   3.920   1.390  1.00  0.00    -0.463 OA
BRANCH   6   7
ATOM      7  C   UNL     1       5.898   2.691   1.028  1.00  0.00     0.311 C 
ATOM      8  O   UNL     1       6.495   1.644   1.211  1.00  0.00    -0.252 OA
BRANCH   7   9
ATOM      9  C   UNL     1       4.535   2.859   0.387  1.00  0.00     0.123 C 
ATOM     10  N   UNL     1       3.188   1.020  -0.259  1.00  0.00    -0.321 N 
ATOM     11  C   UNL     1       4.243   1.158  -1.240  1.00  0.00     0.122 C 
ATOM     12  C   UNL     1       3.392   1.935   0.864  1.00  0.00     0.098 C 
ATOM     13  C   UNL     1       4.629   2.618  -1.117  1.00  0.00     0.039 C 
ATOM     14  C   UNL     1       3.530   1.177   2.185  1.00  0.00     0.032 C 
BRANCH  10  15
ATOM     15  C   UNL     1       2.251   0.049  -0.390  1.00  0.00     0.317 C 
ATOM     16  N   UNL     1       1.006   0.243   0.103  1.00  0.00    -0.333 N 
ATOM     17  H   UNL     1       0.538  -0.581   0.372  1.00  0.00     0.165 HD
ATOM     18  O   UNL     1       2.470  -1.001  -0.992  1.00  0.00    -0.249 OA
BRANCH  16  19
ATOM     19  C   UNL     1       0.236   1.480   0.303  1.00  0.00     0.109 C 
ATOM     20  C   UNL     1       0.453   2.507  -0.825  1.00  0.00     0.034 C 
BRANCH  19  21
ATOM     21  C   UNL     1      -1.280   1.164   0.465  1.00  0.00     0.140 C 
ATOM     22  C   UNL     1      -1.848   0.255  -0.629  1.00  0.00     0.036 C 
ATOM     23  O   UNL     1      -2.065   2.376   0.445  1.00  0.00    -0.376 OA
ATOM     24  C   UNL     1      -3.186   0.871  -0.947  1.00  0.00     0.031 C 
ATOM     25  C   UNL     1      -2.915   2.335  -0.710  1.00  0.00     0.160 C 
ENDBRANCH  19  21
ENDBRANCH  16  19
ENDBRANCH  10  15
ENDBRANCH   7   9
ENDBRANCH   6   7
ENDBRANCH   5   6
ENDBRANCH   4   5
ENDBRANCH   3   4
ENDBRANCH   2   3
ENDBRANCH   1   2
BRANCH   1  26
ATOM     26  O   UNL     1       4.977   6.114   2.592  1.00  0.00    -0.377 OA
BRANCH  26  27
ATOM     27  C   UNL     1       5.591   7.018   3.515  1.00  0.00     0.188 C 
BRANCH  27  28
ATOM     28  C   UNL     1       5.449   6.876   5.057  1.00  0.00     0.188 C 
BRANCH  28  29
ATOM     29  O   UNL     1       4.239   6.281   5.502  1.00  0.00    -0.376 OA
BRANCH  29  30
ATOM     30  C   UNL     1       3.255   7.124   6.077  1.00  0.00     0.202 C 
BRANCH  30  31
ATOM     31  C   UNL     1       2.603   8.144   5.133  1.00  0.00     0.261 C 
BRANCH  31  32
ATOM     32  O   UNL     1       3.503   9.054   4.480  1.00  0.00    -0.460 OA
BRANCH  32  33
ATOM     33  C   UNL     1       4.238   9.874   5.261  1.00  0.00     0.338 C 
ATOM     34  O   UNL     1       4.196   9.974   6.475  1.00  0.00    -0.246 OA
BRANCH  33  35
ATOM     35  C   UNL     1       5.272  10.492   4.405  1.00  0.00     0.060 A 
ATOM     36  C   UNL     1       6.625  10.272   4.699  1.00  0.00     0.016 A 
ATOM     37  C   UNL     1       4.904  11.258   3.297  1.00  0.00     0.016 A 
ATOM     38  C   UNL     1       7.616  10.840   3.897  1.00  0.00     0.010 A 
ATOM     39  C   UNL     1       5.896  11.849   2.512  1.00  0.00     0.010 A 
ATOM     40  C   UNL     1       7.255  11.666   2.826  1.00  0.00    -0.014 A 
BRANCH  40  41
ATOM     41  C   UNL     1       8.284  12.496   2.156  1.00  0.00     0.031 A 
ATOM     42  C   UNL     1       8.444  13.924   2.599  1.00  0.00     0.074 A 
ATOM     43  C   UNL     1       9.065  11.996   1.183  1.00  0.00     0.049 A 
ATOM     44  N   UNL     1       9.221  14.863   2.125  1.00  0.00    -0.248 NA
ATOM     45  C   UNL     1       7.607  14.349   3.733  1.00  0.00     0.031 C 
ATOM     46  C   UNL     1       9.036  10.619   0.699  1.00  0.00     0.029 A 
ATOM     47  N   UNL     1      10.032  12.604   0.420  1.00  0.00    -0.354 N 
ATOM     48  C   UNL     1       8.962  15.988   2.895  1.00  0.00     0.074 A 
ATOM     49  C   UNL     1       7.935  15.627   3.847  1.00  0.00     0.031 C 
ATOM     50  C   UNL     1       9.934  10.489  -0.294  1.00  0.00     0.029 A 
ATOM     51  C   UNL     1      10.572  11.783  -0.538  1.00  0.00     0.049 A 
ATOM     52  H   UNL     1      10.310  13.540   0.548  1.00  0.00     0.167 HD
ATOM     53  C   UNL     1       9.536  17.212   2.820  1.00  0.00     0.037 A 
ATOM     54  C   UNL     1      11.457  12.057  -1.517  1.00  0.00     0.037 A 
ATOM     55  C   UNL     1      10.553  17.569   1.866  1.00  0.00     0.049 A 
ATOM     56  C   UNL     1      12.016  13.454  -1.638  1.00  0.00     0.074 A 
ATOM     57  C   UNL     1      11.214  18.776   1.721  1.00  0.00     0.029 A 
ATOM     58  N   UNL     1      11.048  16.722   0.885  1.00  0.00    -0.354 N 
ATOM     59  N   UNL     1      11.792  14.506  -0.888  1.00  0.00    -0.248 NA
ATOM     60  C   UNL     1      12.953  13.699  -2.744  1.00  0.00     0.031 C 
ATOM     61  C   UNL     1      12.060  18.680   0.612  1.00  0.00     0.029 A 
ATOM     62  C   UNL     1      11.979  17.392   0.108  1.00  0.00     0.049 A 
ATOM     63  H   UNL     1      10.777  15.783   0.760  1.00  0.00     0.167 HD
ATOM     64  C   UNL     1      12.577  15.526  -1.413  1.00  0.00     0.074 A 
ATOM     65  C   UNL     1      13.299  14.961  -2.533  1.00  0.00     0.031 C 
ATOM     66  C   UNL     1      12.691  16.815  -1.004  1.00  0.00     0.037 A 
BRANCH  53  67
ATOM     67  C   UNL     1       9.051  18.265   3.772  1.00  0.00     0.064 A 
ATOM     68  C   UNL     1       9.322  18.203   5.148  1.00  0.00     0.173 A 
ATOM     69  C   UNL     1       8.328  19.370   3.297  1.00  0.00     0.173 A 
ATOM     70  F   UNL     1       9.995  17.159   5.656  1.00  0.00    -0.203 F 
ATOM     71  C   UNL     1       8.866  19.192   6.014  1.00  0.00     0.198 A 
ATOM     72  C   UNL     1       7.902  20.375   4.161  1.00  0.00     0.198 A 
ATOM     73  F   UNL     1       8.042  19.481   1.991  1.00  0.00    -0.203 F 
ATOM     74  F   UNL     1       9.093  19.085   7.331  1.00  0.00    -0.200 F 
ATOM     75  C   UNL     1       8.164  20.281   5.520  1.00  0.00     0.200 A 
ATOM     76  F   UNL     1       7.235  21.433   3.679  1.00  0.00    -0.200 F 
ATOM     77  F   UNL     1       7.732  21.238   6.354  1.00  0.00    -0.200 F 
ENDBRANCH  53  67
BRANCH  54  78
ATOM     78  C   UNL     1      11.857  10.996  -2.480  1.00  0.00     0.064 A 
ATOM     79  C   UNL     1      13.171  10.508  -2.515  1.00  0.00     0.173 A 
ATOM     80  C   UNL     1      10.943  10.470  -3.405  1.00  0.00     0.173 A 
ATOM     81  F   UNL     1      14.091  10.998  -1.672  1.00  0.00    -0.203 F 
ATOM     82  C   UNL     1      13.559   9.551  -3.452  1.00  0.00     0.198 A 
ATOM     83  C   UNL     1      11.324   9.490  -4.319  1.00  0.00     0.198 A 
ATOM     84  F   UNL     1       9.675  10.906  -3.419  1.00  0.00    -0.203 F 
ATOM     85  F   UNL     1      14.835   9.142  -3.499  1.00  0.00    -0.200 F 
ATOM     86  C   UNL     1      12.634   9.038  -4.348  1.00  0.00     0.200 A 
ATOM     87  F   UNL     1      10.423   8.989  -5.176  1.00  0.00    -0.200 F 
ATOM     88  F   UNL     1      13.007   8.117  -5.247  1.00  0.00    -0.200 F 
ENDBRANCH  54  78
BRANCH  66  89
ATOM     89  C   UNL     1      13.653  17.697  -1.751  1.00  0.00     0.064 A 
ATOM     90  C   UNL     1      13.399  18.122  -3.064  1.00  0.00     0.173 A 
ATOM     91  C   UNL     1      14.823  18.159  -1.128  1.00  0.00     0.173 A 
ATOM     92  F   UNL     1      12.301  17.700  -3.710  1.00  0.00    -0.203 F 
ATOM     93  C   UNL     1      14.293  18.953  -3.734  1.00  0.00     0.198 A 
ATOM     94  C   UNL     1      15.697  19.018  -1.789  1.00  0.00     0.198 A 
ATOM     95  F   UNL     1      15.111  17.792   0.129  1.00  0.00    -0.203 F 
ATOM     96  F   UNL     1      14.056  19.303  -5.005  1.00  0.00    -0.200 F 
ATOM     97  C   UNL     1      15.437  19.407  -3.094  1.00  0.00     0.200 A 
ATOM     98  F   UNL     1      16.792  19.470  -1.161  1.00  0.00    -0.200 F 
ATOM     99  F   UNL     1      16.292  20.214  -3.737  1.00  0.00    -0.200 F 
ENDBRANCH  66  89
ENDBRANCH  40  41
ENDBRANCH  33  35
ENDBRANCH  32  33
ENDBRANCH  31  32
ENDBRANCH  30  31
ENDBRANCH  29  30
ENDBRANCH  28  29
ENDBRANCH  27  28
ENDBRANCH  26  27
ENDBRANCH   1  26
TORSDOF 23
