REMARK SMILES CS(=O)(=O)c1ccc(C2=NN(c3ccc(C(=O)OCCOCCOCCOCCOC(=O)c4ccc(-c5c6nc(c(-c7c(F)c(F)c(F)c(F)c7F)c7ccc([nH]7)c(-c7c(F)c(F)c(F)c(F)c7F)c7nc(c(-c8c(F)c(F)c(F)c(F)c8F)c8ccc5[nH]8)C=C7)C=C6)cc4)cc3)[C@H](c3ccc(F)cc3)C2)cc1
REMARK SMILES IDX 23 1 22 2 21 3 20 4 19 5 18 6 16 7 17 8 15 9 12 10 13 11
REMARK SMILES IDX 97 12 14 13 96 14 11 15 9 16 10 17 106 18 98 19 8 20 5 21
REMARK SMILES IDX 6 22 108 23 7 24 107 25 2 26 1 27 3 28 4 29 99 30 100 31
REMARK SMILES IDX 105 32 101 33 104 34 102 35 103 36 24 37 25 38 26 39 27 40
REMARK SMILES IDX 28 41 29 42 30 43 31 44 32 45 33 46 34 47 95 48 35 49 94 50
REMARK SMILES IDX 36 51 37 52 38 53 88 54 39 55 93 56 87 57 89 58 40 59 92 60
REMARK SMILES IDX 86 61 85 62 41 64 73 65 53 66 72 67 54 68 57 69 71 70 90 71
REMARK SMILES IDX 55 72 56 73 70 75 91 76 58 77 42 78 43 79 51 80 44 81 45 82
REMARK SMILES IDX 49 83 52 84 46 85 47 86 50 87 48 88 74 89 75 90 83 91 76 92
REMARK SMILES IDX 77 93 81 94 84 95 78 96 79 97 82 98 80 99 59 100 60 101
REMARK SMILES IDX 68 102 61 103 62 104 66 105 69 106 63 107 64 108 67 109
REMARK SMILES IDX 65 110
REMARK H PARENT 89 63 57 74
REMARK Flexibility Score: inf
ROOT
ATOM      1  C   UNL     1       3.504   5.400 -12.789  1.00  0.00     0.188 C 
ENDROOT
BRANCH   1   2
ATOM      2  C   UNL     1       2.450   6.297 -13.470  1.00  0.00     0.188 C 
BRANCH   2   3
ATOM      3  O   UNL     1       2.931   6.934 -14.642  1.00  0.00    -0.376 OA
BRANCH   3   4
ATOM      4  C   UNL     1       3.239   8.315 -14.620  1.00  0.00     0.202 C 
BRANCH   4   5
ATOM      5  C   UNL     1       4.209   8.887 -13.575  1.00  0.00     0.261 C 
BRANCH   5   6
ATOM      6  O   UNL     1       4.138   8.322 -12.265  1.00  0.00    -0.460 OA
BRANCH   6   7
ATOM      7  C   UNL     1       3.109   8.698 -11.478  1.00  0.00     0.338 C 
ATOM      8  O   UNL     1       2.244   9.511 -11.753  1.00  0.00    -0.246 OA
BRANCH   7   9
ATOM      9  C   UNL     1       3.104   7.830 -10.272  1.00  0.00     0.060 A 
ATOM     10  C   UNL     1       3.043   6.319  -7.910  1.00  0.00     0.060 A 
ATOM     11  C   UNL     1       1.850   6.742  -8.507  1.00  0.00     0.029 A 
ATOM     12  C   UNL     1       4.249   6.533  -8.589  1.00  0.00     0.029 A 
ATOM     13  C   UNL     1       1.878   7.501  -9.681  1.00  0.00     0.018 A 
ATOM     14  C   UNL     1       4.290   7.304  -9.750  1.00  0.00     0.018 A 
BRANCH  10  15
ATOM     15  N   UNL     1       3.082   5.879  -6.585  1.00  0.00    -0.257 N 
ATOM     16  C   UNL     1       2.251   4.775  -4.968  1.00  0.00     0.071 C 
ATOM     17  N   UNL     1       2.547   4.686  -6.229  1.00  0.00    -0.176 NA
ATOM     18  C   UNL     1       2.410   6.140  -4.355  1.00  0.00     0.091 C 
ATOM     19  C   UNL     1       3.103   6.881  -5.505  1.00  0.00     0.144 C 
BRANCH  16  20
ATOM     20  C   UNL     1       1.794   3.620  -4.171  1.00  0.00    -0.002 A 
ATOM     21  C   UNL     1       0.996   1.379  -2.719  1.00  0.00     0.067 A 
ATOM     22  C   UNL     1       1.972   1.246  -3.709  1.00  0.00     0.021 A 
ATOM     23  C   UNL     1       0.411   2.623  -2.453  1.00  0.00     0.021 A 
ATOM     24  C   UNL     1       2.364   2.369  -4.439  1.00  0.00     0.011 A 
ATOM     25  C   UNL     1       0.823   3.751  -3.172  1.00  0.00     0.011 A 
BRANCH  21  26
ATOM     26  S   UNL     1       0.416  -0.064  -1.852  1.00  0.00     0.175 S 
ATOM     27  C   UNL     1       1.098   0.105  -0.225  1.00  0.00     0.163 C 
ATOM     28  O   UNL     1       1.030  -1.225  -2.467  1.00  0.00    -0.224 OA
ATOM     29  O   UNL     1      -1.026   0.054  -1.754  1.00  0.00    -0.224 OA
ENDBRANCH  21  26
ENDBRANCH  16  20
BRANCH  19  30
ATOM     30  C   UNL     1       4.526   7.393  -5.286  1.00  0.00    -0.023 A 
ATOM     31  C   UNL     1       5.402   6.878  -4.319  1.00  0.00     0.009 A 
ATOM     32  C   UNL     1       5.025   8.380  -6.167  1.00  0.00     0.009 A 
ATOM     33  C   UNL     1       6.731   7.315  -4.256  1.00  0.00     0.039 A 
ATOM     34  C   UNL     1       6.363   8.774  -6.139  1.00  0.00     0.039 A 
ATOM     35  C   UNL     1       7.205   8.238  -5.180  1.00  0.00     0.123 A 
ATOM     36  F   UNL     1       8.492   8.606  -5.149  1.00  0.00    -0.207 F 
ENDBRANCH  19  30
ENDBRANCH  10  15
ENDBRANCH   7   9
ENDBRANCH   6   7
ENDBRANCH   5   6
ENDBRANCH   4   5
ENDBRANCH   3   4
ENDBRANCH   2   3
ENDBRANCH   1   2
BRANCH   1  37
ATOM     37  O   UNL     1       4.859   5.595 -13.168  1.00  0.00    -0.377 OA
BRANCH  37  38
ATOM     38  C   UNL     1       5.242   5.415 -14.530  1.00  0.00     0.188 C 
BRANCH  38  39
ATOM     39  C   UNL     1       4.312   4.774 -15.593  1.00  0.00     0.188 C 
BRANCH  39  40
ATOM     40  O   UNL     1       3.201   4.066 -15.074  1.00  0.00    -0.376 OA
BRANCH  40  41
ATOM     41  C   UNL     1       3.220   2.652 -15.126  1.00  0.00     0.202 C 
BRANCH  41  42
ATOM     42  C   UNL     1       4.311   1.940 -14.316  1.00  0.00     0.261 C 
BRANCH  42  43
ATOM     43  O   UNL     1       5.659   2.368 -14.564  1.00  0.00    -0.460 OA
BRANCH  43  44
ATOM     44  C   UNL     1       6.175   2.116 -15.784  1.00  0.00     0.338 C 
ATOM     45  O   UNL     1       5.626   1.555 -16.720  1.00  0.00    -0.246 OA
BRANCH  44  46
ATOM     46  C   UNL     1       7.479   2.801 -15.867  1.00  0.00     0.060 A 
ATOM     47  C   UNL     1       7.668   3.803 -16.829  1.00  0.00     0.016 A 
ATOM     48  C   UNL     1       8.508   2.462 -14.986  1.00  0.00     0.016 A 
ATOM     49  C   UNL     1       8.903   4.444 -16.934  1.00  0.00     0.010 A 
ATOM     50  C   UNL     1       9.750   3.089 -15.106  1.00  0.00     0.010 A 
ATOM     51  C   UNL     1       9.963   4.059 -16.102  1.00  0.00    -0.014 A 
BRANCH  51  52
ATOM     52  C   UNL     1      11.342   4.516 -16.402  1.00  0.00     0.031 A 
ATOM     53  C   UNL     1      12.249   3.586 -17.159  1.00  0.00     0.074 A 
ATOM     54  C   UNL     1      11.778   5.732 -16.029  1.00  0.00     0.049 A 
ATOM     55  N   UNL     1      13.513   3.720 -17.469  1.00  0.00    -0.248 NA
ATOM     56  C   UNL     1      11.646   2.327 -17.627  1.00  0.00     0.031 C 
ATOM     57  C   UNL     1      10.983   6.739 -15.330  1.00  0.00     0.029 A 
ATOM     58  N   UNL     1      13.012   6.318 -16.176  1.00  0.00    -0.354 N 
ATOM     59  C   UNL     1      13.852   2.569 -18.168  1.00  0.00     0.074 A 
ATOM     60  C   UNL     1      12.677   1.727 -18.200  1.00  0.00     0.031 C 
ATOM     61  C   UNL     1      11.757   7.812 -15.087  1.00  0.00     0.029 A 
ATOM     62  C   UNL     1      13.109   7.551 -15.580  1.00  0.00     0.049 A 
ATOM     63  H   UNL     1      13.756   5.894 -16.663  1.00  0.00     0.167 HD
ATOM     64  C   UNL     1      15.034   2.250 -18.747  1.00  0.00     0.037 A 
ATOM     65  C   UNL     1      14.178   8.358 -15.423  1.00  0.00     0.037 A 
ATOM     66  C   UNL     1      16.206   3.083 -18.702  1.00  0.00     0.049 A 
ATOM     67  C   UNL     1      15.511   7.936 -15.995  1.00  0.00     0.074 A 
ATOM     68  C   UNL     1      17.457   2.845 -19.244  1.00  0.00     0.029 A 
ATOM     69  N   UNL     1      16.272   4.317 -18.071  1.00  0.00    -0.354 N 
ATOM     70  N   UNL     1      15.823   6.854 -16.668  1.00  0.00    -0.248 NA
ATOM     71  C   UNL     1      16.642   8.854 -15.789  1.00  0.00     0.031 C 
ATOM     72  C   UNL     1      18.294   3.909 -18.896  1.00  0.00     0.029 A 
ATOM     73  C   UNL     1      17.548   4.842 -18.194  1.00  0.00     0.049 A 
ATOM     74  H   UNL     1      15.523   4.754 -17.604  1.00  0.00     0.167 HD
ATOM     75  C   UNL     1      17.168   6.978 -16.994  1.00  0.00     0.074 A 
ATOM     76  C   UNL     1      17.611   8.248 -16.460  1.00  0.00     0.031 C 
ATOM     77  C   UNL     1      17.968   6.118 -17.673  1.00  0.00     0.037 A 
BRANCH  64  78
ATOM     78  C   UNL     1      15.122   0.935 -19.465  1.00  0.00     0.064 A 
ATOM     79  C   UNL     1      14.443   0.711 -20.674  1.00  0.00     0.173 A 
ATOM     80  C   UNL     1      15.923  -0.101 -18.962  1.00  0.00     0.173 A 
ATOM     81  F   UNL     1      13.651   1.663 -21.189  1.00  0.00    -0.203 F 
ATOM     82  C   UNL     1      14.546  -0.508 -21.338  1.00  0.00     0.198 A 
ATOM     83  C   UNL     1      16.050  -1.306 -19.647  1.00  0.00     0.198 A 
ATOM     84  F   UNL     1      16.595   0.061 -17.813  1.00  0.00    -0.203 F 
ATOM     85  F   UNL     1      13.851  -0.715 -22.466  1.00  0.00    -0.200 F 
ATOM     86  C   UNL     1      15.356  -1.512 -20.830  1.00  0.00     0.200 A 
ATOM     87  F   UNL     1      16.845  -2.270 -19.162  1.00  0.00    -0.200 F 
ATOM     88  F   UNL     1      15.464  -2.680 -21.477  1.00  0.00    -0.200 F 
ENDBRANCH  64  78
BRANCH  65  89
ATOM     89  C   UNL     1      14.053   9.632 -14.664  1.00  0.00     0.064 A 
ATOM     90  C   UNL     1      14.245  10.874 -15.286  1.00  0.00     0.173 A 
ATOM     91  C   UNL     1      13.793   9.631 -13.284  1.00  0.00     0.173 A 
ATOM     92  F   UNL     1      14.523  10.931 -16.597  1.00  0.00    -0.203 F 
ATOM     93  C   UNL     1      14.216  12.060 -14.553  1.00  0.00     0.198 A 
ATOM     94  C   UNL     1      13.728  10.819 -12.560  1.00  0.00     0.198 A 
ATOM     95  F   UNL     1      13.605   8.472 -12.637  1.00  0.00    -0.203 F 
ATOM     96  F   UNL     1      14.472  13.227 -15.161  1.00  0.00    -0.200 F 
ATOM     97  C   UNL     1      13.953  12.032 -13.192  1.00  0.00     0.200 A 
ATOM     98  F   UNL     1      13.461  10.787 -11.247  1.00  0.00    -0.200 F 
ATOM     99  F   UNL     1      13.931  13.172 -12.488  1.00  0.00    -0.200 F 
ENDBRANCH  65  89
BRANCH  77 100
ATOM    100  C   UNL     1      19.387   6.542 -17.929  1.00  0.00     0.064 A 
ATOM    101  C   UNL     1      20.335   6.626 -16.898  1.00  0.00     0.173 A 
ATOM    102  C   UNL     1      19.815   6.826 -19.236  1.00  0.00     0.173 A 
ATOM    103  F   UNL     1      19.977   6.376 -15.630  1.00  0.00    -0.203 F 
ATOM    104  C   UNL     1      21.648   7.008 -17.162  1.00  0.00     0.198 A 
ATOM    105  C   UNL     1      21.137   7.172 -19.500  1.00  0.00     0.198 A 
ATOM    106  F   UNL     1      18.953   6.752 -20.262  1.00  0.00    -0.203 F 
ATOM    107  F   UNL     1      22.522   7.133 -16.153  1.00  0.00    -0.200 F 
ATOM    108  C   UNL     1      22.050   7.272 -18.462  1.00  0.00     0.200 A 
ATOM    109  F   UNL     1      21.528   7.408 -20.761  1.00  0.00    -0.200 F 
ATOM    110  F   UNL     1      23.317   7.630 -18.715  1.00  0.00    -0.200 F 
ENDBRANCH  77 100
ENDBRANCH  51  52
ENDBRANCH  44  46
ENDBRANCH  43  44
ENDBRANCH  42  43
ENDBRANCH  41  42
ENDBRANCH  40  41
ENDBRANCH  39  40
ENDBRANCH  38  39
ENDBRANCH  37  38
ENDBRANCH   1  37
TORSDOF 24
