REMARK SMILES Cc1c(C)c2c(c(C)c1O)CC[C@@](C)(C(=O)OCCOCCOCCOCCOC(=O)c1ccc(-c3c4nc(c(-c5c(F)c(F)c(F)c(F)c5F)c5ccc([nH]5)c(-c5c(F)c(F)c(F)c(F)c5F)c5nc(c(-c6c(F)c(F)c(F)c(F)c6F)c6ccc3[nH]6)C=C5)C=C4)cc1)O2
REMARK SMILES IDX 24 1 23 2 22 3 21 4 20 5 19 6 18 7 17 8 15 9 16 10 13 11
REMARK SMILES IDX 1 12 2 13 3 14 9 15 4 16 5 17 7 18 6 19 95 20 8 21 11 22
REMARK SMILES IDX 12 23 14 24 10 25 25 27 26 28 27 29 28 30 29 31 30 32 31 33
REMARK SMILES IDX 32 34 33 35 94 36 34 37 93 38 35 39 36 40 37 41 87 42 38 43
REMARK SMILES IDX 92 44 86 45 88 46 39 47 91 48 85 49 84 50 40 52 72 53 52 54
REMARK SMILES IDX 71 55 53 56 56 57 70 58 89 59 54 60 55 61 69 63 90 64 57 65
REMARK SMILES IDX 41 66 42 67 50 68 43 69 44 70 48 71 51 72 45 73 46 74 49 75
REMARK SMILES IDX 47 76 73 77 74 78 82 79 75 80 76 81 80 82 83 83 77 84 78 85
REMARK SMILES IDX 81 86 79 87 58 88 59 89 67 90 60 91 61 92 65 93 68 94 62 95
REMARK SMILES IDX 63 96 66 97 64 98
REMARK H PARENT 10 26 88 51 56 62
REMARK Flexibility Score: inf
ROOT
ATOM      1  C   UNL     1      -4.910  -1.633   8.172  1.00  0.00     0.188 C 
ENDROOT
BRANCH   1   2
ATOM      2  O   UNL     1      -3.671  -1.637   7.468  1.00  0.00    -0.377 OA
BRANCH   2   3
ATOM      3  C   UNL     1      -3.717  -1.901   6.079  1.00  0.00     0.188 C 
BRANCH   3   4
ATOM      4  C   UNL     1      -3.454  -3.358   5.681  1.00  0.00     0.188 C 
BRANCH   4   5
ATOM      5  O   UNL     1      -3.506  -4.400   6.641  1.00  0.00    -0.376 OA
BRANCH   5   6
ATOM      6  C   UNL     1      -2.905  -4.280   7.920  1.00  0.00     0.202 C 
BRANCH   6   7
ATOM      7  C   UNL     1      -1.487  -3.727   8.147  1.00  0.00     0.261 C 
BRANCH   7   8
ATOM      8  O   UNL     1      -1.158  -2.451   7.570  1.00  0.00    -0.460 OA
BRANCH   8   9
ATOM      9  C   UNL     1      -0.413  -2.518   6.439  1.00  0.00     0.350 C 
ATOM     10  O   UNL     1      -0.072  -3.584   5.927  1.00  0.00    -0.247 OA
BRANCH   9  11
ATOM     11  C   UNL     1       0.032  -1.152   5.882  1.00  0.00     0.203 C 
ATOM     12  C   UNL     1       0.832   0.046  -0.098  1.00  0.00     0.049 C 
ATOM     13  C   UNL     1       0.494   0.372   1.335  1.00  0.00    -0.002 A 
ATOM     14  C   UNL     1       0.177  -0.647   2.260  1.00  0.00    -0.002 A 
ATOM     15  C   UNL     1       0.556   1.700   1.802  1.00  0.00     0.122 A 
ATOM     16  C   UNL     1       0.048  -2.086   1.812  1.00  0.00     0.049 C 
ATOM     17  C   UNL     1       0.003  -0.315   3.620  1.00  0.00     0.127 A 
ATOM     18  C   UNL     1       0.290   2.039   3.142  1.00  0.00    -0.002 A 
ATOM     19  C   UNL     1       0.009   1.013   4.068  1.00  0.00     0.001 A 
ATOM     20  O   UNL     1      -0.163  -1.370   4.471  1.00  0.00    -0.475 OA
ATOM     21  C   UNL     1       0.300   3.481   3.584  1.00  0.00     0.049 C 
ATOM     22  C   UNL     1      -0.227   1.322   5.529  1.00  0.00     0.044 C 
ATOM     23  C   UNL     1      -0.717   0.107   6.319  1.00  0.00     0.065 C 
ATOM     24  C   UNL     1       1.524  -1.060   6.232  1.00  0.00     0.069 C 
BRANCH  15  25
ATOM     25  O   UNL     1       0.890   2.727   0.957  1.00  0.00    -0.507 OA
ATOM     26  H   UNL     1       1.076   2.551   0.055  1.00  0.00     0.293 HD
ENDBRANCH  15  25
ENDBRANCH   9  11
ENDBRANCH   8   9
ENDBRANCH   7   8
ENDBRANCH   6   7
ENDBRANCH   5   6
ENDBRANCH   4   5
ENDBRANCH   3   4
ENDBRANCH   2   3
ENDBRANCH   1   2
BRANCH   1  27
ATOM     27  C   UNL     1      -6.047  -2.548   7.675  1.00  0.00     0.188 C 
BRANCH  27  28
ATOM     28  O   UNL     1      -6.341  -2.405   6.293  1.00  0.00    -0.376 OA
BRANCH  28  29
ATOM     29  C   UNL     1      -7.379  -1.519   5.900  1.00  0.00     0.202 C 
BRANCH  29  30
ATOM     30  C   UNL     1      -7.212  -0.022   6.214  1.00  0.00     0.261 C 
BRANCH  30  31
ATOM     31  O   UNL     1      -7.091   0.339   7.600  1.00  0.00    -0.460 OA
BRANCH  31  32
ATOM     32  C   UNL     1      -8.061  -0.042   8.453  1.00  0.00     0.338 C 
ATOM     33  O   UNL     1      -9.110  -0.599   8.180  1.00  0.00    -0.246 OA
BRANCH  32  34
ATOM     34  C   UNL     1      -7.544   0.141   9.827  1.00  0.00     0.060 A 
ATOM     35  C   UNL     1      -7.450  -0.976  10.667  1.00  0.00     0.016 A 
ATOM     36  C   UNL     1      -7.152   1.403  10.284  1.00  0.00     0.016 A 
ATOM     37  C   UNL     1      -6.997  -0.830  11.977  1.00  0.00     0.010 A 
ATOM     38  C   UNL     1      -6.726   1.553  11.607  1.00  0.00     0.010 A 
ATOM     39  C   UNL     1      -6.682   0.443  12.470  1.00  0.00    -0.014 A 
BRANCH  39  40
ATOM     40  C   UNL     1      -6.539   0.635  13.934  1.00  0.00     0.031 A 
ATOM     41  C   UNL     1      -7.752   1.071  14.710  1.00  0.00     0.074 A 
ATOM     42  C   UNL     1      -5.385   0.375  14.572  1.00  0.00     0.049 A 
ATOM     43  N   UNL     1      -7.881   1.311  15.989  1.00  0.00    -0.248 NA
ATOM     44  C   UNL     1      -8.991   1.256  13.935  1.00  0.00     0.031 C 
ATOM     45  C   UNL     1      -4.161  -0.111  13.941  1.00  0.00     0.029 A 
ATOM     46  N   UNL     1      -5.061   0.481  15.903  1.00  0.00    -0.354 N 
ATOM     47  C   UNL     1      -9.211   1.666  16.171  1.00  0.00     0.074 A 
ATOM     48  C   UNL     1      -9.840   1.653  14.870  1.00  0.00     0.031 C 
ATOM     49  C   UNL     1      -3.216  -0.262  14.886  1.00  0.00     0.029 A 
ATOM     50  C   UNL     1      -3.759   0.147  16.182  1.00  0.00     0.049 A 
ATOM     51  H   UNL     1      -5.702   0.769  16.592  1.00  0.00     0.167 HD
ATOM     52  C   UNL     1      -9.855   1.960  17.324  1.00  0.00     0.037 A 
ATOM     53  C   UNL     1      -3.083   0.182  17.349  1.00  0.00     0.037 A 
ATOM     54  C   UNL     1      -9.227   1.978  18.617  1.00  0.00     0.049 A 
ATOM     55  C   UNL     1      -3.796   0.619  18.605  1.00  0.00     0.074 A 
ATOM     56  C   UNL     1      -9.795   2.267  19.845  1.00  0.00     0.029 A 
ATOM     57  N   UNL     1      -7.888   1.699  18.849  1.00  0.00    -0.354 N 
ATOM     58  N   UNL     1      -5.056   0.942  18.773  1.00  0.00    -0.248 NA
ATOM     59  C   UNL     1      -2.992   0.698  19.835  1.00  0.00     0.031 C 
ATOM     60  C   UNL     1      -8.788   2.221  20.812  1.00  0.00     0.029 A 
ATOM     61  C   UNL     1      -7.605   1.841  20.197  1.00  0.00     0.049 A 
ATOM     62  H   UNL     1      -7.237   1.440  18.158  1.00  0.00     0.167 HD
ATOM     63  C   UNL     1      -5.202   1.234  20.124  1.00  0.00     0.074 A 
ATOM     64  C   UNL     1      -3.905   1.036  20.736  1.00  0.00     0.031 C 
ATOM     65  C   UNL     1      -6.311   1.631  20.795  1.00  0.00     0.037 A 
BRANCH  52  66
ATOM     66  C   UNL     1     -11.313   2.303  17.241  1.00  0.00     0.064 A 
ATOM     67  C   UNL     1     -12.281   1.329  16.953  1.00  0.00     0.173 A 
ATOM     68  C   UNL     1     -11.754   3.607  17.512  1.00  0.00     0.173 A 
ATOM     69  F   UNL     1     -11.910   0.071  16.670  1.00  0.00    -0.203 F 
ATOM     70  C   UNL     1     -13.635   1.651  16.926  1.00  0.00     0.198 A 
ATOM     71  C   UNL     1     -13.110   3.918  17.515  1.00  0.00     0.198 A 
ATOM     72  F   UNL     1     -10.869   4.575  17.794  1.00  0.00    -0.203 F 
ATOM     73  F   UNL     1     -14.539   0.713  16.612  1.00  0.00    -0.200 F 
ATOM     74  C   UNL     1     -14.049   2.942  17.218  1.00  0.00     0.200 A 
ATOM     75  F   UNL     1     -13.509   5.163  17.811  1.00  0.00    -0.200 F 
ATOM     76  F   UNL     1     -15.354   3.246  17.210  1.00  0.00    -0.200 F 
ENDBRANCH  52  66
BRANCH  53  77
ATOM     77  C   UNL     1      -1.648  -0.211  17.386  1.00  0.00     0.064 A 
ATOM     78  C   UNL     1      -1.233  -1.365  18.064  1.00  0.00     0.173 A 
ATOM     79  C   UNL     1      -0.663   0.558  16.748  1.00  0.00     0.173 A 
ATOM     80  F   UNL     1      -2.131  -2.118  18.716  1.00  0.00    -0.203 F 
ATOM     81  C   UNL     1       0.111  -1.732  18.108  1.00  0.00     0.198 A 
ATOM     82  C   UNL     1       0.676   0.174  16.767  1.00  0.00     0.198 A 
ATOM     83  F   UNL     1      -1.004   1.676  16.091  1.00  0.00    -0.203 F 
ATOM     84  F   UNL     1       0.485  -2.820  18.795  1.00  0.00    -0.200 F 
ATOM     85  C   UNL     1       1.063  -0.968  17.451  1.00  0.00     0.200 A 
ATOM     86  F   UNL     1       1.591   0.910  16.120  1.00  0.00    -0.200 F 
ATOM     87  F   UNL     1       2.354  -1.327  17.482  1.00  0.00    -0.200 F 
ENDBRANCH  53  77
BRANCH  65  88
ATOM     88  C   UNL     1      -6.194   1.864  22.275  1.00  0.00     0.064 A 
ATOM     89  C   UNL     1      -5.511   2.975  22.792  1.00  0.00     0.173 A 
ATOM     90  C   UNL     1      -6.858   1.022  23.182  1.00  0.00     0.173 A 
ATOM     91  F   UNL     1      -4.853   3.805  21.969  1.00  0.00    -0.203 F 
ATOM     92  C   UNL     1      -5.488   3.228  24.161  1.00  0.00     0.198 A 
ATOM     93  C   UNL     1      -6.860   1.297  24.547  1.00  0.00     0.198 A 
ATOM     94  F   UNL     1      -7.536  -0.047  22.740  1.00  0.00    -0.203 F 
ATOM     95  F   UNL     1      -4.803   4.278  24.634  1.00  0.00    -0.200 F 
ATOM     96  C   UNL     1      -6.173   2.397  25.036  1.00  0.00     0.200 A 
ATOM     97  F   UNL     1      -7.540   0.505  25.387  1.00  0.00    -0.200 F 
ATOM     98  F   UNL     1      -6.170   2.657  26.350  1.00  0.00    -0.200 F 
ENDBRANCH  65  88
ENDBRANCH  39  40
ENDBRANCH  32  34
ENDBRANCH  31  32
ENDBRANCH  30  31
ENDBRANCH  29  30
ENDBRANCH  28  29
ENDBRANCH  27  28
ENDBRANCH   1  27
TORSDOF 21
