REMARK SMILES O=C(Cc1ccc(Cl)nc1)OCCOCCOCCOCCOC(=O)c1ccc(-c2c3nc(c(-c4c(F)c(F)c(F)c(F)c4F)c4ccc([nH]4)c(-c4c(F)c(F)c(F)c(F)c4F)c4nc(c(-c5c(F)c(F)c(F)c(F)c5F)c5ccc2[nH]5)C=C4)C=C3)cc1
REMARK SMILES IDX 18 1 17 2 16 3 15 4 14 5 13 6 12 7 11 8 2 9 1 10 3 11 4 12
REMARK SMILES IDX 5 13 10 14 6 15 9 16 7 17 8 18 19 19 20 20 21 21 22 22 23 23
REMARK SMILES IDX 24 24 25 25 26 26 27 27 88 28 28 29 87 30 29 31 30 32 31 33
REMARK SMILES IDX 81 34 32 35 86 36 80 37 82 38 33 39 85 40 79 41 78 42 34 44
REMARK SMILES IDX 66 45 46 46 65 47 47 48 50 49 64 50 83 51 48 52 49 53 63 55
REMARK SMILES IDX 84 56 51 57 35 58 36 59 44 60 37 61 38 62 42 63 45 64 39 65
REMARK SMILES IDX 40 66 43 67 41 68 67 69 68 70 76 71 69 72 70 73 74 74 77 75
REMARK SMILES IDX 71 76 72 77 75 78 73 79 52 80 53 81 61 82 54 83 55 84 59 85
REMARK SMILES IDX 62 86 56 87 57 88 60 89 58 90
REMARK H PARENT 82 43 50 54
REMARK Flexibility Score: inf
ROOT
ATOM      1  C   UNL     1       4.211  -1.125   3.243  1.00  0.00     0.188 C 
ENDROOT
BRANCH   1   2
ATOM      2  O   UNL     1       2.838  -1.472   3.229  1.00  0.00    -0.377 OA
BRANCH   2   3
ATOM      3  C   UNL     1       2.149  -1.153   2.027  1.00  0.00     0.188 C 
BRANCH   3   4
ATOM      4  C   UNL     1       2.736  -1.716   0.726  1.00  0.00     0.188 C 
BRANCH   4   5
ATOM      5  O   UNL     1       4.123  -1.528   0.522  1.00  0.00    -0.376 OA
BRANCH   5   6
ATOM      6  C   UNL     1       4.743  -0.385  -0.020  1.00  0.00     0.202 C 
BRANCH   6   7
ATOM      7  C   UNL     1       4.114   1.002   0.032  1.00  0.00     0.261 C 
BRANCH   7   8
ATOM      8  O   UNL     1       2.699   1.108  -0.190  1.00  0.00    -0.463 OA
BRANCH   8   9
ATOM      9  C   UNL     1       1.979   0.765  -1.274  1.00  0.00     0.310 C 
ATOM     10  O   UNL     1       0.783   1.048  -1.305  1.00  0.00    -0.252 OA
BRANCH   9  11
ATOM     11  C   UNL     1       2.591  -0.072  -2.370  1.00  0.00     0.159 C 
BRANCH  11  12
ATOM     12  C   UNL     1       3.753   0.506  -3.116  1.00  0.00    -0.018 A 
ATOM     13  C   UNL     1       4.769  -0.339  -3.583  1.00  0.00     0.009 A 
ATOM     14  C   UNL     1       3.850   1.860  -3.408  1.00  0.00     0.117 A 
ATOM     15  C   UNL     1       5.854   0.198  -4.261  1.00  0.00     0.041 A 
ATOM     16  N   UNL     1       4.895   2.408  -4.058  1.00  0.00    -0.244 NA
ATOM     17  C   UNL     1       5.865   1.565  -4.468  1.00  0.00     0.129 A 
ATOM     18  Cl  UNL     1       7.168   2.317  -5.287  1.00  0.00    -0.062 Cl
ENDBRANCH  11  12
ENDBRANCH   9  11
ENDBRANCH   8   9
ENDBRANCH   7   8
ENDBRANCH   6   7
ENDBRANCH   5   6
ENDBRANCH   4   5
ENDBRANCH   3   4
ENDBRANCH   2   3
ENDBRANCH   1   2
BRANCH   1  19
ATOM     19  C   UNL     1       5.160  -2.321   3.030  1.00  0.00     0.188 C 
BRANCH  19  20
ATOM     20  O   UNL     1       4.686  -3.533   2.476  1.00  0.00    -0.376 OA
BRANCH  20  21
ATOM     21  C   UNL     1       3.581  -4.243   3.010  1.00  0.00     0.202 C 
BRANCH  21  22
ATOM     22  C   UNL     1       3.101  -4.218   4.474  1.00  0.00     0.261 C 
BRANCH  22  23
ATOM     23  O   UNL     1       3.490  -3.117   5.291  1.00  0.00    -0.460 OA
BRANCH  23  24
ATOM     24  C   UNL     1       4.616  -3.297   6.004  1.00  0.00     0.338 C 
ATOM     25  O   UNL     1       5.317  -4.298   6.052  1.00  0.00    -0.246 OA
BRANCH  24  26
ATOM     26  C   UNL     1       5.011  -1.997   6.573  1.00  0.00     0.060 A 
ATOM     27  C   UNL     1       6.301  -1.528   6.290  1.00  0.00     0.016 A 
ATOM     28  C   UNL     1       4.141  -1.257   7.379  1.00  0.00     0.016 A 
ATOM     29  C   UNL     1       6.755  -0.353   6.869  1.00  0.00     0.010 A 
ATOM     30  C   UNL     1       4.611  -0.095   7.994  1.00  0.00     0.010 A 
ATOM     31  C   UNL     1       5.939   0.318   7.787  1.00  0.00    -0.014 A 
BRANCH  31  32
ATOM     32  C   UNL     1       6.606   1.224   8.747  1.00  0.00     0.031 A 
ATOM     33  C   UNL     1       7.042   0.637  10.062  1.00  0.00     0.074 A 
ATOM     34  C   UNL     1       6.917   2.489   8.420  1.00  0.00     0.049 A 
ATOM     35  N   UNL     1       7.693   1.193  11.051  1.00  0.00    -0.248 NA
ATOM     36  C   UNL     1       6.700  -0.778  10.291  1.00  0.00     0.031 C 
ATOM     37  C   UNL     1       6.603   3.136   7.149  1.00  0.00     0.029 A 
ATOM     38  N   UNL     1       7.582   3.448   9.137  1.00  0.00    -0.354 N 
ATOM     39  C   UNL     1       7.827   0.202  12.015  1.00  0.00     0.074 A 
ATOM     40  C   UNL     1       7.162  -0.978  11.514  1.00  0.00     0.031 C 
ATOM     41  C   UNL     1       7.077   4.395   7.177  1.00  0.00     0.029 A 
ATOM     42  C   UNL     1       7.702   4.643   8.475  1.00  0.00     0.049 A 
ATOM     43  H   UNL     1       7.940   3.294  10.042  1.00  0.00     0.167 HD
ATOM     44  C   UNL     1       8.460   0.267  13.209  1.00  0.00     0.037 A 
ATOM     45  C   UNL     1       8.247   5.804   8.886  1.00  0.00     0.037 A 
ATOM     46  C   UNL     1       9.122   1.445  13.699  1.00  0.00     0.049 A 
ATOM     47  C   UNL     1       8.881   5.872  10.253  1.00  0.00     0.074 A 
ATOM     48  C   UNL     1       9.801   1.621  14.890  1.00  0.00     0.029 A 
ATOM     49  N   UNL     1       9.179   2.655  13.021  1.00  0.00    -0.354 N 
ATOM     50  N   UNL     1       9.023   4.929  11.154  1.00  0.00    -0.248 NA
ATOM     51  C   UNL     1       9.443   7.169  10.654  1.00  0.00     0.031 C 
ATOM     52  C   UNL     1      10.211   2.956  14.964  1.00  0.00     0.029 A 
ATOM     53  C   UNL     1       9.858   3.591  13.783  1.00  0.00     0.049 A 
ATOM     54  H   UNL     1       8.793   2.823  12.131  1.00  0.00     0.167 HD
ATOM     55  C   UNL     1       9.728   5.503  12.205  1.00  0.00     0.074 A 
ATOM     56  C   UNL     1       9.993   6.875  11.823  1.00  0.00     0.031 C 
ATOM     57  C   UNL     1      10.126   4.948  13.377  1.00  0.00     0.037 A 
BRANCH  44  58
ATOM     58  C   UNL     1       8.422  -0.955  14.080  1.00  0.00     0.064 A 
ATOM     59  C   UNL     1       9.109  -2.132  13.746  1.00  0.00     0.173 A 
ATOM     60  C   UNL     1       7.690  -0.942  15.278  1.00  0.00     0.173 A 
ATOM     61  F   UNL     1       9.807  -2.207  12.603  1.00  0.00    -0.203 F 
ATOM     62  C   UNL     1       9.040  -3.259  14.563  1.00  0.00     0.198 A 
ATOM     63  C   UNL     1       7.653  -2.057  16.109  1.00  0.00     0.198 A 
ATOM     64  F   UNL     1       7.012   0.156  15.644  1.00  0.00    -0.203 F 
ATOM     65  F   UNL     1       9.657  -4.391  14.195  1.00  0.00    -0.200 F 
ATOM     66  C   UNL     1       8.320  -3.217  15.747  1.00  0.00     0.200 A 
ATOM     67  F   UNL     1       6.967  -2.010  17.259  1.00  0.00    -0.200 F 
ATOM     68  F   UNL     1       8.261  -4.299  16.536  1.00  0.00    -0.200 F 
ENDBRANCH  44  58
BRANCH  45  69
ATOM     69  C   UNL     1       8.223   6.997   7.998  1.00  0.00     0.064 A 
ATOM     70  C   UNL     1       9.407   7.544   7.484  1.00  0.00     0.173 A 
ATOM     71  C   UNL     1       7.017   7.636   7.674  1.00  0.00     0.173 A 
ATOM     72  F   UNL     1      10.589   6.984   7.784  1.00  0.00    -0.203 F 
ATOM     73  C   UNL     1       9.389   8.699   6.705  1.00  0.00     0.198 A 
ATOM     74  C   UNL     1       6.997   8.772   6.867  1.00  0.00     0.198 A 
ATOM     75  F   UNL     1       5.855   7.155   8.139  1.00  0.00    -0.203 F 
ATOM     76  F   UNL     1      10.541   9.233   6.276  1.00  0.00    -0.200 F 
ATOM     77  C   UNL     1       8.184   9.309   6.393  1.00  0.00     0.200 A 
ATOM     78  F   UNL     1       5.829   9.349   6.556  1.00  0.00    -0.200 F 
ATOM     79  F   UNL     1       8.166  10.420   5.644  1.00  0.00    -0.200 F 
ENDBRANCH  45  69
BRANCH  57  80
ATOM     80  C   UNL     1      10.953   5.800  14.301  1.00  0.00     0.064 A 
ATOM     81  C   UNL     1      10.421   6.912  14.968  1.00  0.00     0.173 A 
ATOM     82  C   UNL     1      12.299   5.477  14.538  1.00  0.00     0.173 A 
ATOM     83  F   UNL     1       9.142   7.271  14.772  1.00  0.00    -0.203 F 
ATOM     84  C   UNL     1      11.216   7.697  15.800  1.00  0.00     0.198 A 
ATOM     85  C   UNL     1      13.080   6.238  15.402  1.00  0.00     0.198 A 
ATOM     86  F   UNL     1      12.857   4.415  13.937  1.00  0.00    -0.203 F 
ATOM     87  F   UNL     1      10.704   8.796  16.371  1.00  0.00    -0.200 F 
ATOM     88  C   UNL     1      12.542   7.356  16.021  1.00  0.00     0.200 A 
ATOM     89  F   UNL     1      14.354   5.893  15.631  1.00  0.00    -0.200 F 
ATOM     90  F   UNL     1      13.305   8.110  16.825  1.00  0.00    -0.200 F 
ENDBRANCH  57  80
ENDBRANCH  31  32
ENDBRANCH  24  26
ENDBRANCH  23  24
ENDBRANCH  22  23
ENDBRANCH  21  22
ENDBRANCH  20  21
ENDBRANCH  19  20
ENDBRANCH   1  19
TORSDOF 21
