REMARK SMILES C[C@@H](C(=O)OCCOCCOCCOCCOC(=O)c1ccc(-c2c3nc(c(-c4c(F)c(F)c(F)c(F)c4F)c4ccc([nH]4)c(-c4c(F)c(F)c(F)c(F)c4F)c4nc(c(-c5c(F)c(F)c(F)c(F)c5F)c5ccc2[nH]5)C=C4)C=C3)cc1)c1ccc(-c2ccccc2)c(F)c1
REMARK SMILES IDX 11 1 10 2 9 3 8 4 7 5 6 6 5 7 3 8 4 9 2 10 1 11 83 12 84 13
REMARK SMILES IDX 95 14 85 15 93 16 86 17 94 18 87 19 88 20 92 21 89 22 91 23
REMARK SMILES IDX 90 24 12 25 13 26 14 27 15 28 16 29 17 30 18 31 19 32 20 33
REMARK SMILES IDX 21 34 82 35 22 36 81 37 23 38 24 39 25 40 75 41 26 42 80 43
REMARK SMILES IDX 74 44 76 45 27 46 79 47 73 48 72 49 28 51 60 52 40 53 59 54
REMARK SMILES IDX 41 55 44 56 58 57 77 58 42 59 43 60 57 62 78 63 45 64 29 65
REMARK SMILES IDX 30 66 38 67 31 68 32 69 36 70 39 71 33 72 34 73 37 74 35 75
REMARK SMILES IDX 61 76 62 77 70 78 63 79 64 80 68 81 71 82 65 83 66 84 69 85
REMARK SMILES IDX 67 86 46 87 47 88 55 89 48 90 49 91 53 92 56 93 50 94 51 95
REMARK SMILES IDX 54 96 52 97
REMARK H PARENT 76 50 44 61
REMARK Flexibility Score: inf
ROOT
ATOM      1  O   UNL     1       2.105  -0.476   2.747  1.00  0.00    -0.377 OA
ENDROOT
BRANCH   1   2
ATOM      2  C   UNL     1       0.691  -0.456   2.702  1.00  0.00     0.188 C 
BRANCH   2   3
ATOM      3  C   UNL     1      -0.002  -1.752   3.152  1.00  0.00     0.188 C 
BRANCH   3   4
ATOM      4  O   UNL     1       0.712  -2.591   4.036  1.00  0.00    -0.376 OA
BRANCH   4   5
ATOM      5  C   UNL     1       1.820  -3.361   3.593  1.00  0.00     0.202 C 
BRANCH   5   6
ATOM      6  C   UNL     1       2.329  -3.474   2.139  1.00  0.00     0.261 C 
BRANCH   6   7
ATOM      7  O   UNL     1       1.792  -2.554   1.185  1.00  0.00    -0.463 OA
BRANCH   7   8
ATOM      8  C   UNL     1       1.083  -3.064   0.152  1.00  0.00     0.313 C 
ATOM      9  O   UNL     1       0.914  -4.264  -0.037  1.00  0.00    -0.252 OA
BRANCH   8  10
ATOM     10  C   UNL     1       0.425  -1.977  -0.718  1.00  0.00     0.126 C 
ATOM     11  C   UNL     1       1.302  -0.723  -0.884  1.00  0.00     0.025 C 
BRANCH  10  12
ATOM     12  C   UNL     1      -1.057  -1.766  -0.376  1.00  0.00    -0.031 A 
ATOM     13  C   UNL     1      -1.664  -0.511  -0.209  1.00  0.00     0.005 A 
ATOM     14  C   UNL     1      -1.889  -2.893  -0.262  1.00  0.00     0.044 A 
ATOM     15  C   UNL     1      -3.045  -0.396   0.052  1.00  0.00     0.012 A 
ATOM     16  C   UNL     1      -3.254  -2.774   0.001  1.00  0.00     0.131 A 
ATOM     17  C   UNL     1      -3.870  -1.528   0.144  1.00  0.00     0.017 A 
ATOM     18  F   UNL     1      -3.978  -3.901   0.077  1.00  0.00    -0.206 F 
BRANCH  17  19
ATOM     19  C   UNL     1      -5.330  -1.416   0.309  1.00  0.00    -0.015 A 
ATOM     20  C   UNL     1      -6.099  -0.694  -0.620  1.00  0.00     0.009 A 
ATOM     21  C   UNL     1      -6.006  -2.074   1.350  1.00  0.00     0.009 A 
ATOM     22  C   UNL     1      -7.492  -0.643  -0.522  1.00  0.00     0.001 A 
ATOM     23  C   UNL     1      -7.401  -2.020   1.452  1.00  0.00     0.001 A 
ATOM     24  C   UNL     1      -8.143  -1.308   0.513  1.00  0.00     0.000 A 
ENDBRANCH  17  19
ENDBRANCH  10  12
ENDBRANCH   8  10
ENDBRANCH   7   8
ENDBRANCH   6   7
ENDBRANCH   5   6
ENDBRANCH   4   5
ENDBRANCH   3   4
ENDBRANCH   2   3
ENDBRANCH   1   2
BRANCH   1  25
ATOM     25  C   UNL     1       2.751  -0.167   3.975  1.00  0.00     0.188 C 
BRANCH  25  26
ATOM     26  C   UNL     1       1.976  -0.176   5.309  1.00  0.00     0.188 C 
BRANCH  26  27
ATOM     27  O   UNL     1       0.659   0.344   5.242  1.00  0.00    -0.376 OA
BRANCH  27  28
ATOM     28  C   UNL     1       0.435   1.692   5.625  1.00  0.00     0.202 C 
BRANCH  28  29
ATOM     29  C   UNL     1       1.096   2.790   4.776  1.00  0.00     0.261 C 
BRANCH  29  30
ATOM     30  O   UNL     1       2.530   2.754   4.694  1.00  0.00    -0.460 OA
BRANCH  30  31
ATOM     31  C   UNL     1       3.229   2.832   5.844  1.00  0.00     0.338 C 
ATOM     32  O   UNL     1       2.787   2.995   6.969  1.00  0.00    -0.246 OA
BRANCH  31  33
ATOM     33  C   UNL     1       4.634   2.490   5.542  1.00  0.00     0.060 A 
ATOM     34  C   UNL     1       5.214   1.385   6.179  1.00  0.00     0.016 A 
ATOM     35  C   UNL     1       5.374   3.253   4.637  1.00  0.00     0.016 A 
ATOM     36  C   UNL     1       6.552   1.065   5.944  1.00  0.00     0.010 A 
ATOM     37  C   UNL     1       6.720   2.946   4.419  1.00  0.00     0.010 A 
ATOM     38  C   UNL     1       7.324   1.873   5.100  1.00  0.00    -0.014 A 
BRANCH  38  39
ATOM     39  C   UNL     1       8.801   1.728   5.093  1.00  0.00     0.031 A 
ATOM     40  C   UNL     1       9.612   2.675   5.935  1.00  0.00     0.074 A 
ATOM     41  C   UNL     1       9.412   0.767   4.380  1.00  0.00     0.049 A 
ATOM     42  N   UNL     1      10.910   2.789   6.049  1.00  0.00    -0.248 NA
ATOM     43  C   UNL     1       8.850   3.627   6.760  1.00  0.00     0.031 C 
ATOM     44  C   UNL     1       8.736  -0.238   3.564  1.00  0.00     0.029 A 
ATOM     45  N   UNL     1      10.748   0.491   4.222  1.00  0.00    -0.354 N 
ATOM     46  C   UNL     1      11.119   3.826   6.950  1.00  0.00     0.074 A 
ATOM     47  C   UNL     1       9.817   4.333   7.324  1.00  0.00     0.031 C 
ATOM     48  C   UNL     1       9.664  -1.014   2.976  1.00  0.00     0.029 A 
ATOM     49  C   UNL     1      10.996  -0.535   3.344  1.00  0.00     0.049 A 
ATOM     50  H   UNL     1      11.459   0.982   4.692  1.00  0.00     0.167 HD
ATOM     51  C   UNL     1      12.290   4.305   7.431  1.00  0.00     0.037 A 
ATOM     52  C   UNL     1      12.166  -1.011   2.873  1.00  0.00     0.037 A 
ATOM     53  C   UNL     1      13.584   3.803   7.051  1.00  0.00     0.049 A 
ATOM     54  C   UNL     1      13.460  -0.404   3.356  1.00  0.00     0.074 A 
ATOM     55  C   UNL     1      14.832   4.215   7.485  1.00  0.00     0.029 A 
ATOM     56  N   UNL     1      13.797   2.783   6.134  1.00  0.00    -0.354 N 
ATOM     57  N   UNL     1      13.652   0.562   4.222  1.00  0.00    -0.248 NA
ATOM     58  C   UNL     1      14.702  -0.958   2.797  1.00  0.00     0.031 C 
ATOM     59  C   UNL     1      15.800   3.488   6.785  1.00  0.00     0.029 A 
ATOM     60  C   UNL     1      15.156   2.572   5.968  1.00  0.00     0.049 A 
ATOM     61  H   UNL     1      13.087   2.283   5.671  1.00  0.00     0.167 HD
ATOM     62  C   UNL     1      15.030   0.709   4.336  1.00  0.00     0.074 A 
ATOM     63  C   UNL     1      15.626  -0.278   3.461  1.00  0.00     0.031 C 
ATOM     64  C   UNL     1      15.737   1.580   5.099  1.00  0.00     0.037 A 
BRANCH  51  65
ATOM     65  C   UNL     1      12.224   5.453   8.397  1.00  0.00     0.064 A 
ATOM     66  C   UNL     1      11.714   5.301   9.696  1.00  0.00     0.173 A 
ATOM     67  C   UNL     1      12.699   6.720   8.025  1.00  0.00     0.173 A 
ATOM     68  F   UNL     1      11.233   4.115  10.098  1.00  0.00    -0.203 F 
ATOM     69  C   UNL     1      11.653   6.380  10.574  1.00  0.00     0.198 A 
ATOM     70  C   UNL     1      12.669   7.789   8.918  1.00  0.00     0.198 A 
ATOM     71  F   UNL     1      13.200   6.922   6.797  1.00  0.00    -0.203 F 
ATOM     72  F   UNL     1      11.110   6.224  11.789  1.00  0.00    -0.200 F 
ATOM     73  C   UNL     1      12.138   7.621  10.187  1.00  0.00     0.200 A 
ATOM     74  F   UNL     1      13.152   8.983   8.546  1.00  0.00    -0.200 F 
ATOM     75  F   UNL     1      12.085   8.657  11.035  1.00  0.00    -0.200 F 
ENDBRANCH  51  65
BRANCH  52  76
ATOM     76  C   UNL     1      12.172  -2.110   1.869  1.00  0.00     0.064 A 
ATOM     77  C   UNL     1      12.692  -3.375   2.178  1.00  0.00     0.173 A 
ATOM     78  C   UNL     1      11.683  -1.908   0.569  1.00  0.00     0.173 A 
ATOM     79  F   UNL     1      13.197  -3.611   3.397  1.00  0.00    -0.203 F 
ATOM     80  C   UNL     1      12.741  -4.387   1.221  1.00  0.00     0.198 A 
ATOM     81  C   UNL     1      11.702  -2.931  -0.376  1.00  0.00     0.198 A 
ATOM     82  F   UNL     1      11.179  -0.716   0.218  1.00  0.00    -0.203 F 
ATOM     83  F   UNL     1      13.292  -5.569   1.528  1.00  0.00    -0.200 F 
ATOM     84  C   UNL     1      12.239  -4.167  -0.053  1.00  0.00     0.200 A 
ATOM     85  F   UNL     1      11.204  -2.717  -1.602  1.00  0.00    -0.200 F 
ATOM     86  F   UNL     1      12.284  -5.142  -0.971  1.00  0.00    -0.200 F 
ENDBRANCH  52  76
BRANCH  64  87
ATOM     87  C   UNL     1      17.237   1.478   5.061  1.00  0.00     0.064 A 
ATOM     88  C   UNL     1      17.979   1.847   3.929  1.00  0.00     0.173 A 
ATOM     89  C   UNL     1      17.946   1.048   6.195  1.00  0.00     0.173 A 
ATOM     90  F   UNL     1      17.352   2.255   2.815  1.00  0.00    -0.203 F 
ATOM     91  C   UNL     1      19.369   1.760   3.923  1.00  0.00     0.198 A 
ATOM     92  C   UNL     1      19.337   0.997   6.197  1.00  0.00     0.198 A 
ATOM     93  F   UNL     1      17.288   0.693   7.309  1.00  0.00    -0.203 F 
ATOM     94  F   UNL     1      20.052   2.067   2.811  1.00  0.00    -0.200 F 
ATOM     95  C   UNL     1      20.047   1.344   5.059  1.00  0.00     0.200 A 
ATOM     96  F   UNL     1      19.990   0.613   7.303  1.00  0.00    -0.200 F 
ATOM     97  F   UNL     1      21.385   1.271   5.054  1.00  0.00    -0.200 F 
ENDBRANCH  64  87
ENDBRANCH  38  39
ENDBRANCH  31  33
ENDBRANCH  30  31
ENDBRANCH  29  30
ENDBRANCH  28  29
ENDBRANCH  27  28
ENDBRANCH  26  27
ENDBRANCH  25  26
ENDBRANCH   1  25
TORSDOF 22
