REMARK SMILES CCc1nc(C)c(C(=O)OCCOCCOCCOCCOC(=O)c2ccc(-c3c4nc(c(-c5c(F)c(F)c(F)c(F)c5F)c5ccc([nH]5)c(-c5c(F)c(F)c(F)c(F)c5F)c5nc(c(-c6c(F)c(F)c(F)c(F)c6F)c6ccc3[nH]6)C=C5)C=C4)cc2)c(SCc2cnc(Cl)s2)n1
REMARK SMILES IDX 15 1 14 2 13 3 12 4 11 5 10 6 8 7 9 8 7 9 3 10 4 11 97 12
REMARK SMILES IDX 5 13 88 14 6 15 2 16 1 17 89 18 90 19 91 20 92 21 96 22
REMARK SMILES IDX 93 23 94 24 95 25 16 26 17 27 18 28 19 29 20 30 21 31 22 32
REMARK SMILES IDX 23 33 24 34 25 35 26 36 87 37 27 38 86 39 28 40 29 41 30 42
REMARK SMILES IDX 80 43 31 44 85 45 79 46 81 47 32 48 84 49 78 50 77 51 33 53
REMARK SMILES IDX 65 54 45 55 64 56 46 57 49 58 63 59 82 60 47 61 48 62 62 64
REMARK SMILES IDX 83 65 50 66 34 67 35 68 43 69 36 70 37 71 41 72 44 73 38 74
REMARK SMILES IDX 39 75 42 76 40 77 66 78 67 79 75 80 68 81 69 82 73 83 76 84
REMARK SMILES IDX 70 85 71 86 74 87 72 88 51 89 52 90 60 91 53 92 54 93 58 94
REMARK SMILES IDX 61 95 55 96 56 97 59 98 57 99
REMARK H PARENT 81 52 49 63
REMARK Flexibility Score: inf
ROOT
ATOM      1  C   UNL     1       3.973  -6.233   1.846  1.00  0.00     0.188 C 
ENDROOT
BRANCH   1   2
ATOM      2  C   UNL     1       3.954  -6.103   3.378  1.00  0.00     0.188 C 
BRANCH   2   3
ATOM      3  O   UNL     1       3.772  -7.330   4.072  1.00  0.00    -0.376 OA
BRANCH   3   4
ATOM      4  C   UNL     1       2.501  -7.638   4.625  1.00  0.00     0.202 C 
BRANCH   4   5
ATOM      5  C   UNL     1       1.264  -7.513   3.737  1.00  0.00     0.261 C 
BRANCH   5   6
ATOM      6  O   UNL     1       1.274  -6.274   3.016  1.00  0.00    -0.460 OA
BRANCH   6   7
ATOM      7  C   UNL     1       0.367  -5.317   3.259  1.00  0.00     0.342 C 
ATOM      8  O   UNL     1      -0.556  -5.348   4.055  1.00  0.00    -0.246 OA
BRANCH   7   9
ATOM      9  C   UNL     1       0.639  -4.255   2.295  1.00  0.00     0.113 A 
ATOM     10  C   UNL     1       0.899  -2.367   0.359  1.00  0.00     0.129 A 
ATOM     11  N   UNL     1       0.506  -3.586  -0.021  1.00  0.00    -0.237 NA
ATOM     12  N   UNL     1       1.228  -2.057   1.619  1.00  0.00    -0.226 NA
ATOM     13  C   UNL     1       0.385  -4.525   0.943  1.00  0.00     0.057 A 
ATOM     14  C   UNL     1       1.081  -2.978   2.605  1.00  0.00     0.115 A 
ATOM     15  C   UNL     1      -0.121  -5.853   0.447  1.00  0.00     0.068 C 
BRANCH  10  16
ATOM     16  C   UNL     1       0.795  -1.263  -0.659  1.00  0.00     0.074 C 
ATOM     17  C   UNL     1       1.278   0.093  -0.164  1.00  0.00     0.012 C 
ENDBRANCH  10  16
BRANCH  14  18
ATOM     18  S   UNL     1       1.369  -2.130   4.142  1.00  0.00    -0.100 SA
BRANCH  18  19
ATOM     19  C   UNL     1       2.169  -3.227   5.345  1.00  0.00     0.125 C 
BRANCH  19  20
ATOM     20  C   UNL     1       1.237  -3.973   6.242  1.00  0.00     0.036 A 
ATOM     21  C   UNL     1       1.486  -5.122   6.974  1.00  0.00     0.129 A 
ATOM     22  S   UNL     1      -0.362  -3.441   6.619  1.00  0.00    -0.107 S 
ATOM     23  N   UNL     1       0.397  -5.694   7.601  1.00  0.00    -0.233 NA
ATOM     24  C   UNL     1      -0.636  -4.907   7.421  1.00  0.00     0.183 A 
ATOM     25  Cl  UNL     1      -2.205  -5.280   7.997  1.00  0.00    -0.051 Cl
ENDBRANCH  19  20
ENDBRANCH  18  19
ENDBRANCH  14  18
ENDBRANCH   7   9
ENDBRANCH   6   7
ENDBRANCH   5   6
ENDBRANCH   4   5
ENDBRANCH   3   4
ENDBRANCH   2   3
ENDBRANCH   1   2
BRANCH   1  26
ATOM     26  O   UNL     1       3.753  -7.524   1.310  1.00  0.00    -0.377 OA
BRANCH  26  27
ATOM     27  C   UNL     1       4.519  -8.615   1.811  1.00  0.00     0.188 C 
BRANCH  27  28
ATOM     28  C   UNL     1       5.882  -8.416   2.518  1.00  0.00     0.188 C 
BRANCH  28  29
ATOM     29  O   UNL     1       6.500  -7.151   2.315  1.00  0.00    -0.376 OA
BRANCH  29  30
ATOM     30  C   UNL     1       7.705  -7.162   1.561  1.00  0.00     0.202 C 
BRANCH  30  31
ATOM     31  C   UNL     1       7.452  -7.180   0.051  1.00  0.00     0.261 C 
BRANCH  31  32
ATOM     32  O   UNL     1       6.743  -8.338  -0.414  1.00  0.00    -0.460 OA
BRANCH  32  33
ATOM     33  C   UNL     1       7.341  -9.535  -0.230  1.00  0.00     0.338 C 
ATOM     34  O   UNL     1       8.441  -9.752   0.244  1.00  0.00    -0.246 OA
BRANCH  33  35
ATOM     35  C   UNL     1       6.343 -10.579  -0.528  1.00  0.00     0.060 A 
ATOM     36  C   UNL     1       6.094 -11.572   0.431  1.00  0.00     0.016 A 
ATOM     37  C   UNL     1       5.632 -10.551  -1.730  1.00  0.00     0.016 A 
ATOM     38  C   UNL     1       5.157 -12.571   0.168  1.00  0.00     0.010 A 
ATOM     39  C   UNL     1       4.721 -11.567  -2.007  1.00  0.00     0.010 A 
ATOM     40  C   UNL     1       4.515 -12.602  -1.078  1.00  0.00    -0.014 A 
BRANCH  40  41
ATOM     41  C   UNL     1       3.878 -13.851  -1.549  1.00  0.00     0.031 A 
ATOM     42  C   UNL     1       4.762 -14.842  -2.253  1.00  0.00     0.074 A 
ATOM     43  C   UNL     1       2.562 -14.080  -1.407  1.00  0.00     0.049 A 
ATOM     44  N   UNL     1       4.447 -15.947  -2.876  1.00  0.00    -0.248 NA
ATOM     45  C   UNL     1       6.204 -14.535  -2.263  1.00  0.00     0.031 C 
ATOM     46  C   UNL     1       1.618 -13.211  -0.712  1.00  0.00     0.029 A 
ATOM     47  N   UNL     1       1.793 -15.119  -1.870  1.00  0.00    -0.354 N 
ATOM     48  C   UNL     1       5.646 -16.458  -3.353  1.00  0.00     0.074 A 
ATOM     49  C   UNL     1       6.693 -15.541  -2.968  1.00  0.00     0.031 C 
ATOM     50  C   UNL     1       0.385 -13.742  -0.814  1.00  0.00     0.029 A 
ATOM     51  C   UNL     1       0.454 -14.967  -1.610  1.00  0.00     0.049 A 
ATOM     52  H   UNL     1       2.167 -15.897  -2.343  1.00  0.00     0.167 HD
ATOM     53  C   UNL     1       5.856 -17.594  -4.056  1.00  0.00     0.037 A 
ATOM     54  C   UNL     1      -0.591 -15.722  -2.003  1.00  0.00     0.037 A 
ATOM     55  C   UNL     1       4.812 -18.490  -4.461  1.00  0.00     0.049 A 
ATOM     56  C   UNL     1      -0.341 -16.947  -2.850  1.00  0.00     0.074 A 
ATOM     57  C   UNL     1       4.913 -19.661  -5.188  1.00  0.00     0.029 A 
ATOM     58  N   UNL     1       3.468 -18.303  -4.177  1.00  0.00    -0.354 N 
ATOM     59  N   UNL     1       0.796 -17.437  -3.284  1.00  0.00    -0.248 NA
ATOM     60  C   UNL     1      -1.520 -17.720  -3.267  1.00  0.00     0.031 C 
ATOM     61  C   UNL     1       3.622 -20.165  -5.378  1.00  0.00     0.029 A 
ATOM     62  C   UNL     1       2.725 -19.332  -4.727  1.00  0.00     0.049 A 
ATOM     63  H   UNL     1       3.098 -17.551  -3.661  1.00  0.00     0.167 HD
ATOM     64  C   UNL     1       0.474 -18.591  -3.986  1.00  0.00     0.074 A 
ATOM     65  C   UNL     1      -0.966 -18.729  -3.927  1.00  0.00     0.031 C 
ATOM     66  C   UNL     1       1.295 -19.462  -4.622  1.00  0.00     0.037 A 
BRANCH  53  67
ATOM     67  C   UNL     1       7.266 -17.899  -4.456  1.00  0.00     0.064 A 
ATOM     68  C   UNL     1       8.217 -18.329  -3.518  1.00  0.00     0.173 A 
ATOM     69  C   UNL     1       7.672 -17.758  -5.791  1.00  0.00     0.173 A 
ATOM     70  F   UNL     1       7.882 -18.452  -2.225  1.00  0.00    -0.203 F 
ATOM     71  C   UNL     1       9.530 -18.587  -3.900  1.00  0.00     0.198 A 
ATOM     72  C   UNL     1       8.979 -18.042  -6.173  1.00  0.00     0.198 A 
ATOM     73  F   UNL     1       6.801 -17.342  -6.722  1.00  0.00    -0.203 F 
ATOM     74  F   UNL     1      10.434 -18.951  -2.980  1.00  0.00    -0.200 F 
ATOM     75  C   UNL     1       9.908 -18.450  -5.228  1.00  0.00     0.200 A 
ATOM     76  F   UNL     1       9.343 -17.912  -7.457  1.00  0.00    -0.200 F 
ATOM     77  F   UNL     1      11.173 -18.700  -5.594  1.00  0.00    -0.200 F 
ENDBRANCH  53  67
BRANCH  54  78
ATOM     78  C   UNL     1      -1.975 -15.343  -1.617  1.00  0.00     0.064 A 
ATOM     79  C   UNL     1      -2.711 -16.121  -0.713  1.00  0.00     0.173 A 
ATOM     80  C   UNL     1      -2.602 -14.214  -2.166  1.00  0.00     0.173 A 
ATOM     81  F   UNL     1      -2.165 -17.226  -0.184  1.00  0.00    -0.203 F 
ATOM     82  C   UNL     1      -4.026 -15.797  -0.387  1.00  0.00     0.198 A 
ATOM     83  C   UNL     1      -3.909 -13.876  -1.819  1.00  0.00     0.198 A 
ATOM     84  F   UNL     1      -1.944 -13.439  -3.040  1.00  0.00    -0.203 F 
ATOM     85  F   UNL     1      -4.722 -16.585   0.444  1.00  0.00    -0.200 F 
ATOM     86  C   UNL     1      -4.623 -14.672  -0.936  1.00  0.00     0.200 A 
ATOM     87  F   UNL     1      -4.479 -12.784  -2.348  1.00  0.00    -0.200 F 
ATOM     88  F   UNL     1      -5.888 -14.361  -0.624  1.00  0.00    -0.200 F 
ENDBRANCH  54  78
BRANCH  66  89
ATOM     89  C   UNL     1       0.678 -20.677  -5.247  1.00  0.00     0.064 A 
ATOM     90  C   UNL     1      -0.023 -20.607  -6.458  1.00  0.00     0.173 A 
ATOM     91  C   UNL     1       0.875 -21.940  -4.668  1.00  0.00     0.173 A 
ATOM     92  F   UNL     1      -0.244 -19.420  -7.043  1.00  0.00    -0.203 F 
ATOM     93  C   UNL     1      -0.512 -21.761  -7.065  1.00  0.00     0.198 A 
ATOM     94  C   UNL     1       0.406 -23.093  -5.290  1.00  0.00     0.198 A 
ATOM     95  F   UNL     1       1.549 -22.057  -3.514  1.00  0.00    -0.203 F 
ATOM     96  F   UNL     1      -1.199 -21.672  -8.212  1.00  0.00    -0.200 F 
ATOM     97  C   UNL     1      -0.288 -23.002  -6.487  1.00  0.00     0.200 A 
ATOM     98  F   UNL     1       0.636 -24.292  -4.738  1.00  0.00    -0.200 F 
ATOM     99  F   UNL     1      -0.743 -24.112  -7.084  1.00  0.00    -0.200 F 
ENDBRANCH  66  89
ENDBRANCH  40  41
ENDBRANCH  33  35
ENDBRANCH  32  33
ENDBRANCH  31  32
ENDBRANCH  30  31
ENDBRANCH  29  30
ENDBRANCH  28  29
ENDBRANCH  27  28
ENDBRANCH  26  27
ENDBRANCH   1  26
TORSDOF 24
