REMARK SMILES CCC(=O)N1CCc2cc(C(=O)NC3(C(=O)OCCOCCOCCOCCOC(=O)c4ccc(-c5c6nc(c(-c7c(F)c(F)c(F)c(F)c7F)c7ccc([nH]7)c(-c7c(F)c(F)c(F)c(F)c7F)c7nc(c(-c8c(F)c(F)c(F)c(F)c8F)c8ccc5[nH]8)C=C7)C=C6)cc4)CCCC3)ccc21
REMARK SMILES IDX 22 1 21 2 20 3 19 4 18 5 17 6 15 7 16 8 14 9 95 10 98 11
REMARK SMILES IDX 96 12 97 13 13 14 11 15 12 16 10 18 5 19 6 20 101 21 7 22
REMARK SMILES IDX 8 23 100 24 9 25 99 26 3 27 4 28 2 29 1 30 23 31 24 32 25 33
REMARK SMILES IDX 26 34 27 35 28 36 29 37 30 38 31 39 32 40 33 41 94 42 34 43
REMARK SMILES IDX 93 44 35 45 36 46 37 47 87 48 38 49 92 50 86 51 88 52 39 53
REMARK SMILES IDX 91 54 85 55 84 56 40 58 72 59 52 60 71 61 53 62 56 63 70 64
REMARK SMILES IDX 89 65 54 66 55 67 69 69 90 70 57 71 41 72 42 73 50 74 43 75
REMARK SMILES IDX 44 76 48 77 51 78 45 79 46 80 49 81 47 82 73 83 74 84 82 85
REMARK SMILES IDX 75 86 76 87 80 88 83 89 77 90 78 91 81 92 79 93 58 94 59 95
REMARK SMILES IDX 67 96 60 97 61 98 65 99 68 100 62 101 63 102 66 103 64 104
REMARK H PARENT 13 17 88 57 56 68
REMARK Flexibility Score: inf
ROOT
ATOM      1  C   UNL     1       3.997  -1.290  -1.678  1.00  0.00     0.188 C 
ENDROOT
BRANCH   1   2
ATOM      2  C   UNL     1       4.363  -0.150  -0.735  1.00  0.00     0.188 C 
BRANCH   2   3
ATOM      3  O   UNL     1       3.352   0.461   0.055  1.00  0.00    -0.376 OA
BRANCH   3   4
ATOM      4  C   UNL     1       2.141   0.997  -0.456  1.00  0.00     0.202 C 
BRANCH   4   5
ATOM      5  C   UNL     1       2.131   2.296  -1.232  1.00  0.00     0.261 C 
BRANCH   5   6
ATOM      6  O   UNL     1       3.151   2.228  -2.202  1.00  0.00    -0.461 OA
BRANCH   6   7
ATOM      7  C   UNL     1       3.998   3.282  -2.192  1.00  0.00     0.331 C 
ATOM      8  O   UNL     1       3.732   4.401  -1.774  1.00  0.00    -0.249 OA
BRANCH   7   9
ATOM      9  C   UNL     1       5.356   2.850  -2.739  1.00  0.00     0.138 C 
ATOM     10  C   UNL     1       5.621   3.816  -3.926  1.00  0.00     0.040 C 
ATOM     11  C   UNL     1       5.338   1.544  -3.578  1.00  0.00     0.040 C 
ATOM     12  C   UNL     1       4.632   3.361  -5.012  1.00  0.00     0.003 C 
ATOM     13  C   UNL     1       4.551   1.850  -4.858  1.00  0.00     0.003 C 
BRANCH   9  14
ATOM     14  N   UNL     1       6.454   2.921  -1.705  1.00  0.00    -0.336 N 
ATOM     15  C   UNL     1       6.679   2.481  -0.399  1.00  0.00     0.252 C 
ATOM     16  O   UNL     1       7.838   2.130  -0.151  1.00  0.00    -0.269 OA
ATOM     17  H   UNL     1       7.230   3.419  -2.048  1.00  0.00     0.165 HD
BRANCH  15  18
ATOM     18  C   UNL     1       5.695   2.394   0.746  1.00  0.00     0.040 A 
ATOM     19  N   UNL     1       2.642   1.175   3.307  1.00  0.00    -0.312 N 
ATOM     20  C   UNL     1       3.219  -0.069   3.852  1.00  0.00     0.130 C 
ATOM     21  C   UNL     1       3.678   1.878   2.642  1.00  0.00     0.047 A 
ATOM     22  C   UNL     1       4.747   0.052   3.696  1.00  0.00     0.059 C 
ATOM     23  C   UNL     1       4.855   1.134   2.664  1.00  0.00    -0.022 A 
ATOM     24  C   UNL     1       3.592   3.010   1.851  1.00  0.00     0.027 A 
ATOM     25  C   UNL     1       5.874   1.389   1.734  1.00  0.00     0.019 A 
ATOM     26  C   UNL     1       4.625   3.279   0.923  1.00  0.00     0.016 A 
BRANCH  19  27
ATOM     27  C   UNL     1       1.298   1.469   3.132  1.00  0.00     0.226 C 
ATOM     28  O   UNL     1       0.844   2.610   3.225  1.00  0.00    -0.275 OA
BRANCH  27  29
ATOM     29  C   UNL     1       0.394   0.307   2.697  1.00  0.00     0.097 C 
ATOM     30  C   UNL     1      -0.622   0.709   1.617  1.00  0.00     0.014 C 
ENDBRANCH  27  29
ENDBRANCH  19  27
ENDBRANCH  15  18
ENDBRANCH   9  14
ENDBRANCH   7   9
ENDBRANCH   6   7
ENDBRANCH   5   6
ENDBRANCH   4   5
ENDBRANCH   3   4
ENDBRANCH   2   3
ENDBRANCH   1   2
BRANCH   1  31
ATOM     31  O   UNL     1       2.613  -1.427  -1.808  1.00  0.00    -0.377 OA
BRANCH  31  32
ATOM     32  C   UNL     1       1.977  -2.215  -0.812  1.00  0.00     0.188 C 
BRANCH  32  33
ATOM     33  C   UNL     1       2.482  -2.310   0.648  1.00  0.00     0.188 C 
BRANCH  33  34
ATOM     34  O   UNL     1       2.946  -3.573   1.119  1.00  0.00    -0.376 OA
BRANCH  34  35
ATOM     35  C   UNL     1       4.139  -4.085   0.551  1.00  0.00     0.202 C 
BRANCH  35  36
ATOM     36  C   UNL     1       3.879  -5.201  -0.478  1.00  0.00     0.261 C 
BRANCH  36  37
ATOM     37  O   UNL     1       2.571  -5.176  -1.084  1.00  0.00    -0.460 OA
BRANCH  37  38
ATOM     38  C   UNL     1       1.517  -5.490  -0.279  1.00  0.00     0.338 C 
ATOM     39  O   UNL     1       1.572  -6.028   0.816  1.00  0.00    -0.246 OA
BRANCH  38  40
ATOM     40  C   UNL     1       0.265  -4.899  -0.841  1.00  0.00     0.060 A 
ATOM     41  C   UNL     1      -0.566  -4.136  -0.001  1.00  0.00     0.016 A 
ATOM     42  C   UNL     1      -0.057  -5.019  -2.196  1.00  0.00     0.016 A 
ATOM     43  C   UNL     1      -1.747  -3.560  -0.494  1.00  0.00     0.010 A 
ATOM     44  C   UNL     1      -1.252  -4.467  -2.683  1.00  0.00     0.010 A 
ATOM     45  C   UNL     1      -2.132  -3.781  -1.823  1.00  0.00    -0.014 A 
BRANCH  45  46
ATOM     46  C   UNL     1      -3.562  -3.613  -2.218  1.00  0.00     0.031 A 
ATOM     47  C   UNL     1      -4.445  -4.834  -2.118  1.00  0.00     0.074 A 
ATOM     48  C   UNL     1      -4.098  -2.447  -2.628  1.00  0.00     0.049 A 
ATOM     49  N   UNL     1      -5.693  -5.005  -2.472  1.00  0.00    -0.248 NA
ATOM     50  C   UNL     1      -3.818  -6.033  -1.536  1.00  0.00     0.031 C 
ATOM     51  C   UNL     1      -3.396  -1.172  -2.716  1.00  0.00     0.029 A 
ATOM     52  N   UNL     1      -5.374  -2.160  -3.059  1.00  0.00    -0.354 N 
ATOM     53  C   UNL     1      -5.993  -6.326  -2.164  1.00  0.00     0.074 A 
ATOM     54  C   UNL     1      -4.790  -6.923  -1.629  1.00  0.00     0.031 C 
ATOM     55  C   UNL     1      -4.244  -0.240  -3.191  1.00  0.00     0.029 A 
ATOM     56  C   UNL     1      -5.540  -0.861  -3.477  1.00  0.00     0.049 A 
ATOM     57  H   UNL     1      -6.101  -2.824  -3.068  1.00  0.00     0.167 HD
ATOM     58  C   UNL     1      -7.165  -6.989  -2.303  1.00  0.00     0.037 A 
ATOM     59  C   UNL     1      -6.602  -0.254  -4.051  1.00  0.00     0.037 A 
ATOM     60  C   UNL     1      -8.364  -6.411  -2.845  1.00  0.00     0.049 A 
ATOM     61  C   UNL     1      -7.875  -1.037  -4.290  1.00  0.00     0.074 A 
ATOM     62  C   UNL     1      -9.598  -7.005  -3.037  1.00  0.00     0.029 A 
ATOM     63  N   UNL     1      -8.475  -5.103  -3.291  1.00  0.00    -0.354 N 
ATOM     64  N   UNL     1      -8.151  -2.285  -3.996  1.00  0.00    -0.248 NA
ATOM     65  C   UNL     1      -8.985  -0.324  -4.943  1.00  0.00     0.031 C 
ATOM     66  C   UNL     1     -10.439  -6.074  -3.654  1.00  0.00     0.029 A 
ATOM     67  C   UNL     1      -9.750  -4.879  -3.784  1.00  0.00     0.049 A 
ATOM     68  H   UNL     1      -7.754  -4.433  -3.262  1.00  0.00     0.167 HD
ATOM     69  C   UNL     1      -9.467  -2.495  -4.397  1.00  0.00     0.074 A 
ATOM     70  C   UNL     1      -9.940  -1.243  -4.944  1.00  0.00     0.031 C 
ATOM     71  C   UNL     1     -10.215  -3.624  -4.317  1.00  0.00     0.037 A 
BRANCH  58  72
ATOM     72  C   UNL     1      -7.185  -8.435  -1.897  1.00  0.00     0.064 A 
ATOM     73  C   UNL     1      -7.078  -8.829  -0.554  1.00  0.00     0.173 A 
ATOM     74  C   UNL     1      -7.304  -9.441  -2.867  1.00  0.00     0.173 A 
ATOM     75  F   UNL     1      -6.940  -7.908   0.412  1.00  0.00    -0.203 F 
ATOM     76  C   UNL     1      -7.050 -10.177  -0.202  1.00  0.00     0.198 A 
ATOM     77  C   UNL     1      -7.313 -10.786  -2.509  1.00  0.00     0.198 A 
ATOM     78  F   UNL     1      -7.410  -9.120  -4.165  1.00  0.00    -0.203 F 
ATOM     79  F   UNL     1      -6.879 -10.530   1.079  1.00  0.00    -0.200 F 
ATOM     80  C   UNL     1      -7.174 -11.153  -1.179  1.00  0.00     0.200 A 
ATOM     81  F   UNL     1      -7.444 -11.728  -3.453  1.00  0.00    -0.200 F 
ATOM     82  F   UNL     1      -7.147 -12.449  -0.840  1.00  0.00    -0.200 F 
ENDBRANCH  58  72
BRANCH  59  83
ATOM     83  C   UNL     1      -6.509   1.170  -4.483  1.00  0.00     0.064 A 
ATOM     84  C   UNL     1      -7.289   2.170  -3.883  1.00  0.00     0.173 A 
ATOM     85  C   UNL     1      -5.670   1.553  -5.540  1.00  0.00     0.173 A 
ATOM     86  F   UNL     1      -8.138   1.853  -2.894  1.00  0.00    -0.203 F 
ATOM     87  C   UNL     1      -7.244   3.490  -4.332  1.00  0.00     0.198 A 
ATOM     88  C   UNL     1      -5.601   2.878  -5.967  1.00  0.00     0.198 A 
ATOM     89  F   UNL     1      -4.913   0.637  -6.162  1.00  0.00    -0.203 F 
ATOM     90  F   UNL     1      -8.042   4.412  -3.777  1.00  0.00    -0.200 F 
ATOM     91  C   UNL     1      -6.394   3.844  -5.369  1.00  0.00     0.200 A 
ATOM     92  F   UNL     1      -4.772   3.216  -6.965  1.00  0.00    -0.200 F 
ATOM     93  F   UNL     1      -6.350   5.112  -5.799  1.00  0.00    -0.200 F 
ENDBRANCH  59  83
BRANCH  71  94
ATOM     94  C   UNL     1     -11.642  -3.556  -4.790  1.00  0.00     0.064 A 
ATOM     95  C   UNL     1     -11.969  -3.441  -6.149  1.00  0.00     0.173 A 
ATOM     96  C   UNL     1     -12.698  -3.666  -3.870  1.00  0.00     0.173 A 
ATOM     97  F   UNL     1     -11.000  -3.323  -7.069  1.00  0.00    -0.203 F 
ATOM     98  C   UNL     1     -13.298  -3.412  -6.567  1.00  0.00     0.198 A 
ATOM     99  C   UNL     1     -14.024  -3.671  -4.295  1.00  0.00     0.198 A 
ATOM    100  F   UNL     1     -12.443  -3.790  -2.559  1.00  0.00    -0.203 F 
ATOM    101  F   UNL     1     -13.587  -3.255  -7.866  1.00  0.00    -0.200 F 
ATOM    102  C   UNL     1     -14.324  -3.536  -5.641  1.00  0.00     0.200 A 
ATOM    103  F   UNL     1     -15.012  -3.810  -3.400  1.00  0.00    -0.200 F 
ATOM    104  F   UNL     1     -15.601  -3.520  -6.046  1.00  0.00    -0.200 F 
ENDBRANCH  71  94
ENDBRANCH  45  46
ENDBRANCH  38  40
ENDBRANCH  37  38
ENDBRANCH  36  37
ENDBRANCH  35  36
ENDBRANCH  34  35
ENDBRANCH  33  34
ENDBRANCH  32  33
ENDBRANCH  31  32
ENDBRANCH   1  31
TORSDOF 24
