REMARK SMILES NC(=O)[C@H]1CCCN1S(=O)(=O)Cc1ccc(C(=O)OCCOCCOCCOCCOC(=O)c2ccc(-c3c4nc(c(-c5c(F)c(F)c(F)c(F)c5F)c5ccc([nH]5)c(-c5c(F)c(F)c(F)c(F)c5F)c5nc(c(-c6c(F)c(F)c(F)c(F)c6F)c6ccc3[nH]6)C=C5)C=C4)cc2)cc1
REMARK SMILES IDX 24 1 23 2 22 3 21 4 20 5 19 6 17 7 18 8 16 9 13 10 14 11
REMARK SMILES IDX 98 12 15 13 97 14 12 15 9 16 10 17 11 18 8 19 4 20 5 21 6 22
REMARK SMILES IDX 7 23 2 24 1 25 3 28 25 29 26 30 27 31 28 32 29 33 30 34
REMARK SMILES IDX 31 35 32 36 33 37 34 38 35 39 96 40 36 41 95 42 37 43 38 44
REMARK SMILES IDX 39 45 89 46 40 47 94 48 88 49 90 50 41 51 93 52 87 53 86 54
REMARK SMILES IDX 42 56 74 57 54 58 73 59 55 60 58 61 72 62 91 63 56 64 57 65
REMARK SMILES IDX 71 67 92 68 59 69 43 70 44 71 52 72 45 73 46 74 50 75 53 76
REMARK SMILES IDX 47 77 48 78 51 79 49 80 75 81 76 82 84 83 77 84 78 85 82 86
REMARK SMILES IDX 85 87 79 88 80 89 83 90 81 91 60 92 61 93 69 94 62 95 63 96
REMARK SMILES IDX 67 97 70 98 64 99 65 100 68 101 66 102
REMARK H PARENT 1 26 1 27 90 55 58 66
REMARK Flexibility Score: inf
ROOT
ATOM      1  C   UNL     1      -6.805   4.024   0.218  1.00  0.00     0.188 C 
ENDROOT
BRANCH   1   2
ATOM      2  C   UNL     1      -6.867   5.164  -0.821  1.00  0.00     0.188 C 
BRANCH   2   3
ATOM      3  O   UNL     1      -8.023   5.125  -1.641  1.00  0.00    -0.376 OA
BRANCH   3   4
ATOM      4  C   UNL     1      -7.882   4.752  -2.999  1.00  0.00     0.202 C 
BRANCH   4   5
ATOM      5  C   UNL     1      -7.349   3.346  -3.322  1.00  0.00     0.261 C 
BRANCH   5   6
ATOM      6  O   UNL     1      -6.188   2.931  -2.591  1.00  0.00    -0.460 OA
BRANCH   6   7
ATOM      7  C   UNL     1      -5.028   3.531  -2.932  1.00  0.00     0.338 C 
ATOM      8  O   UNL     1      -4.866   4.346  -3.822  1.00  0.00    -0.246 OA
BRANCH   7   9
ATOM      9  C   UNL     1      -4.010   3.202  -1.909  1.00  0.00     0.060 A 
ATOM     10  C   UNL     1      -1.991   2.692  -0.023  1.00  0.00    -0.032 A 
ATOM     11  C   UNL     1      -2.279   4.003  -0.426  1.00  0.00     0.006 A 
ATOM     12  C   UNL     1      -2.824   1.655  -0.481  1.00  0.00     0.006 A 
ATOM     13  C   UNL     1      -3.251   4.253  -1.391  1.00  0.00     0.016 A 
ATOM     14  C   UNL     1      -3.834   1.907  -1.416  1.00  0.00     0.016 A 
BRANCH  10  15
ATOM     15  C   UNL     1      -0.860   2.373   0.925  1.00  0.00     0.189 C 
BRANCH  15  16
ATOM     16  S   UNL     1       0.678   3.227   0.506  1.00  0.00     0.219 S 
ATOM     17  O   UNL     1       1.770   2.498   1.118  1.00  0.00    -0.212 OA
ATOM     18  O   UNL     1       0.507   4.637   0.796  1.00  0.00    -0.212 OA
BRANCH  16  19
ATOM     19  N   UNL     1       0.835   3.058  -1.182  1.00  0.00    -0.189 NA
ATOM     20  C   UNL     1       1.215   1.702  -1.689  1.00  0.00     0.161 C 
ATOM     21  C   UNL     1       2.737   1.749  -1.760  1.00  0.00     0.032 C 
ATOM     22  C   UNL     1       3.056   3.183  -2.155  1.00  0.00     0.019 C 
ATOM     23  C   UNL     1       1.820   4.005  -1.799  1.00  0.00     0.103 C 
BRANCH  20  24
ATOM     24  C   UNL     1       0.627   1.469  -3.093  1.00  0.00     0.235 C 
ATOM     25  N   UNL     1      -0.502   0.706  -3.161  1.00  0.00    -0.368 N 
ATOM     26  H   UNL     1      -0.921   0.524  -4.033  1.00  0.00     0.159 HD
ATOM     27  H   UNL     1      -0.897   0.337  -2.338  1.00  0.00     0.159 HD
ATOM     28  O   UNL     1       1.110   1.919  -4.130  1.00  0.00    -0.273 OA
ENDBRANCH  20  24
ENDBRANCH  16  19
ENDBRANCH  15  16
ENDBRANCH  10  15
ENDBRANCH   7   9
ENDBRANCH   6   7
ENDBRANCH   5   6
ENDBRANCH   4   5
ENDBRANCH   3   4
ENDBRANCH   2   3
ENDBRANCH   1   2
BRANCH   1  29
ATOM     29  O   UNL     1      -7.705   2.935   0.074  1.00  0.00    -0.377 OA
BRANCH  29  30
ATOM     30  C   UNL     1      -9.104   3.181  -0.061  1.00  0.00     0.188 C 
BRANCH  30  31
ATOM     31  C   UNL     1      -9.760   4.517   0.368  1.00  0.00     0.188 C 
BRANCH  31  32
ATOM     32  O   UNL     1      -8.924   5.370   1.128  1.00  0.00    -0.376 OA
BRANCH  32  33
ATOM     33  C   UNL     1      -9.216   5.534   2.503  1.00  0.00     0.202 C 
BRANCH  33  34
ATOM     34  C   UNL     1      -9.081   4.288   3.387  1.00  0.00     0.261 C 
BRANCH  34  35
ATOM     35  O   UNL     1      -9.788   3.119   2.946  1.00  0.00    -0.460 OA
BRANCH  35  36
ATOM     36  C   UNL     1     -11.140   3.172   2.962  1.00  0.00     0.338 C 
ATOM     37  O   UNL     1     -11.840   4.098   3.309  1.00  0.00    -0.246 OA
BRANCH  36  38
ATOM     38  C   UNL     1     -11.632   1.943   2.301  1.00  0.00     0.060 A 
ATOM     39  C   UNL     1     -12.405   2.050   1.137  1.00  0.00     0.016 A 
ATOM     40  C   UNL     1     -11.316   0.691   2.831  1.00  0.00     0.016 A 
ATOM     41  C   UNL     1     -12.897   0.899   0.519  1.00  0.00     0.010 A 
ATOM     42  C   UNL     1     -11.827  -0.458   2.225  1.00  0.00     0.010 A 
ATOM     43  C   UNL     1     -12.650  -0.356   1.089  1.00  0.00    -0.014 A 
BRANCH  43  44
ATOM     44  C   UNL     1     -13.425  -1.539   0.645  1.00  0.00     0.031 A 
ATOM     45  C   UNL     1     -14.627  -1.938   1.457  1.00  0.00     0.074 A 
ATOM     46  C   UNL     1     -13.078  -2.246  -0.443  1.00  0.00     0.049 A 
ATOM     47  N   UNL     1     -15.410  -2.978   1.337  1.00  0.00    -0.248 NA
ATOM     48  C   UNL     1     -14.987  -1.038   2.565  1.00  0.00     0.031 C 
ATOM     49  C   UNL     1     -11.967  -1.933  -1.337  1.00  0.00     0.029 A 
ATOM     50  N   UNL     1     -13.627  -3.389  -0.971  1.00  0.00    -0.354 N 
ATOM     51  C   UNL     1     -16.344  -2.864   2.358  1.00  0.00     0.074 A 
ATOM     52  C   UNL     1     -16.012  -1.674   3.109  1.00  0.00     0.031 C 
ATOM     53  C   UNL     1     -11.904  -2.872  -2.297  1.00  0.00     0.029 A 
ATOM     54  C   UNL     1     -12.945  -3.872  -2.061  1.00  0.00     0.049 A 
ATOM     55  H   UNL     1     -14.431  -3.820  -0.604  1.00  0.00     0.167 HD
ATOM     56  C   UNL     1     -17.391  -3.675   2.638  1.00  0.00     0.037 A 
ATOM     57  C   UNL     1     -13.128  -5.007  -2.764  1.00  0.00     0.037 A 
ATOM     58  C   UNL     1     -17.713  -4.861   1.890  1.00  0.00     0.049 A 
ATOM     59  C   UNL     1     -14.249  -5.942  -2.380  1.00  0.00     0.074 A 
ATOM     60  C   UNL     1     -18.759  -5.745   2.083  1.00  0.00     0.029 A 
ATOM     61  N   UNL     1     -16.983  -5.334   0.810  1.00  0.00    -0.354 N 
ATOM     62  N   UNL     1     -15.143  -5.821  -1.427  1.00  0.00    -0.248 NA
ATOM     63  C   UNL     1     -14.387  -7.173  -3.172  1.00  0.00     0.031 C 
ATOM     64  C   UNL     1     -18.624  -6.788   1.162  1.00  0.00     0.029 A 
ATOM     65  C   UNL     1     -17.538  -6.516   0.345  1.00  0.00     0.049 A 
ATOM     66  H   UNL     1     -16.187  -4.896   0.430  1.00  0.00     0.167 HD
ATOM     67  C   UNL     1     -15.969  -6.934  -1.530  1.00  0.00     0.074 A 
ATOM     68  C   UNL     1     -15.475  -7.716  -2.644  1.00  0.00     0.031 C 
ATOM     69  C   UNL     1     -17.043  -7.276  -0.775  1.00  0.00     0.037 A 
BRANCH  56  70
ATOM     70  C   UNL     1     -18.238  -3.325   3.828  1.00  0.00     0.064 A 
ATOM     71  C   UNL     1     -19.063  -2.190   3.844  1.00  0.00     0.173 A 
ATOM     72  C   UNL     1     -18.235  -4.147   4.965  1.00  0.00     0.173 A 
ATOM     73  F   UNL     1     -19.091  -1.360   2.789  1.00  0.00    -0.203 F 
ATOM     74  C   UNL     1     -19.826  -1.873   4.965  1.00  0.00     0.198 A 
ATOM     75  C   UNL     1     -19.027  -3.848   6.070  1.00  0.00     0.198 A 
ATOM     76  F   UNL     1     -17.467  -5.246   5.004  1.00  0.00    -0.203 F 
ATOM     77  F   UNL     1     -20.560  -0.752   4.979  1.00  0.00    -0.200 F 
ATOM     78  C   UNL     1     -19.814  -2.706   6.074  1.00  0.00     0.200 A 
ATOM     79  F   UNL     1     -19.024  -4.662   7.135  1.00  0.00    -0.200 F 
ATOM     80  F   UNL     1     -20.553  -2.404   7.150  1.00  0.00    -0.200 F 
ENDBRANCH  56  70
BRANCH  57  81
ATOM     81  C   UNL     1     -12.222  -5.337  -3.897  1.00  0.00     0.064 A 
ATOM     82  C   UNL     1     -12.697  -5.370  -5.216  1.00  0.00     0.173 A 
ATOM     83  C   UNL     1     -10.871  -5.648  -3.684  1.00  0.00     0.173 A 
ATOM     84  F   UNL     1     -13.987  -5.107  -5.470  1.00  0.00    -0.203 F 
ATOM     85  C   UNL     1     -11.861  -5.723  -6.275  1.00  0.00     0.198 A 
ATOM     86  C   UNL     1     -10.028  -5.968  -4.747  1.00  0.00     0.198 A 
ATOM     87  F   UNL     1     -10.365  -5.635  -2.442  1.00  0.00    -0.203 F 
ATOM     88  F   UNL     1     -12.354  -5.798  -7.518  1.00  0.00    -0.200 F 
ATOM     89  C   UNL     1     -10.526  -6.015  -6.040  1.00  0.00     0.200 A 
ATOM     90  F   UNL     1      -8.736  -6.237  -4.517  1.00  0.00    -0.200 F 
ATOM     91  F   UNL     1      -9.722  -6.349  -7.058  1.00  0.00    -0.200 F 
ENDBRANCH  57  81
BRANCH  69  92
ATOM     92  C   UNL     1     -17.796  -8.520  -1.156  1.00  0.00     0.064 A 
ATOM     93  C   UNL     1     -17.256  -9.802  -0.978  1.00  0.00     0.173 A 
ATOM     94  C   UNL     1     -19.103  -8.426  -1.661  1.00  0.00     0.173 A 
ATOM     95  F   UNL     1     -16.007  -9.950  -0.510  1.00  0.00    -0.203 F 
ATOM     96  C   UNL     1     -17.984 -10.940  -1.317  1.00  0.00     0.198 A 
ATOM     97  C   UNL     1     -19.842  -9.566  -1.964  1.00  0.00     0.198 A 
ATOM     98  F   UNL     1     -19.674  -7.225  -1.843  1.00  0.00    -0.203 F 
ATOM     99  F   UNL     1     -17.427 -12.153  -1.186  1.00  0.00    -0.200 F 
ATOM    100  C   UNL     1     -19.278 -10.822  -1.800  1.00  0.00     0.200 A 
ATOM    101  F   UNL     1     -21.099  -9.449  -2.413  1.00  0.00    -0.200 F 
ATOM    102  F   UNL     1     -19.981 -11.919  -2.114  1.00  0.00    -0.200 F 
ENDBRANCH  69  92
ENDBRANCH  43  44
ENDBRANCH  36  38
ENDBRANCH  35  36
ENDBRANCH  34  35
ENDBRANCH  33  34
ENDBRANCH  32  33
ENDBRANCH  31  32
ENDBRANCH  30  31
ENDBRANCH  29  30
ENDBRANCH   1  29
TORSDOF 24
