REMARK SMILES O=C(Cc1cc(C2CC[NH+](Cc3cccs3)CC2)n[nH]1)OCCOCCOCCOCCOC(=O)c1ccc(-c2c3nc(c(-c4c(F)c(F)c(F)c(F)c4F)c4ccc([nH]4)c(-c4c(F)c(F)c(F)c(F)c4F)c4nc(c(-c5c(F)c(F)c(F)c(F)c5F)c5ccc2[nH]5)C=C4)C=C3)cc1
REMARK SMILES IDX 26 1 25 2 24 3 23 4 22 5 21 6 2 7 1 8 3 9 4 10 5 11 20 12
REMARK SMILES IDX 6 13 19 14 7 16 8 17 18 18 9 19 17 20 10 21 11 23 12 24
REMARK SMILES IDX 13 25 16 26 14 27 15 28 27 29 28 30 29 31 30 32 31 33 32 34
REMARK SMILES IDX 33 35 34 36 35 37 36 38 37 39 98 40 38 41 97 42 39 43 40 44
REMARK SMILES IDX 41 45 91 46 42 47 96 48 90 49 92 50 43 51 95 52 89 53 88 54
REMARK SMILES IDX 44 56 76 57 56 58 75 59 57 60 60 61 74 62 93 63 58 64 59 65
REMARK SMILES IDX 73 67 94 68 61 69 45 70 46 71 54 72 47 73 48 74 52 75 55 76
REMARK SMILES IDX 49 77 50 78 53 79 51 80 77 81 78 82 86 83 79 84 80 85 84 86
REMARK SMILES IDX 87 87 81 88 82 89 85 90 83 91 62 92 63 93 71 94 64 95 65 96
REMARK SMILES IDX 69 97 72 98 66 99 67 100 70 101 68 102
REMARK H PARENT 20 15 10 22 92 55 60 66
REMARK Flexibility Score: inf
ROOT
ATOM      1  C   UNL     1       1.554  -2.301   0.483  1.00  0.00     0.188 C 
ENDROOT
BRANCH   1   2
ATOM      2  C   UNL     1       2.039  -1.267  -0.545  1.00  0.00     0.188 C 
BRANCH   2   3
ATOM      3  O   UNL     1       3.325  -0.674  -0.438  1.00  0.00    -0.376 OA
BRANCH   3   4
ATOM      4  C   UNL     1       3.766  -0.161   0.804  1.00  0.00     0.202 C 
BRANCH   4   5
ATOM      5  C   UNL     1       3.050   1.024   1.429  1.00  0.00     0.261 C 
BRANCH   5   6
ATOM      6  O   UNL     1       1.734   1.292   0.946  1.00  0.00    -0.463 OA
BRANCH   6   7
ATOM      7  C   UNL     1       1.452   2.070  -0.124  1.00  0.00     0.311 C 
ATOM      8  O   UNL     1       0.322   2.547  -0.233  1.00  0.00    -0.252 OA
BRANCH   7   9
ATOM      9  C   UNL     1       2.470   2.264  -1.235  1.00  0.00     0.178 C 
BRANCH   9  10
ATOM     10  C   UNL     1       3.647   3.068  -0.823  1.00  0.00     0.047 A 
ATOM     11  C   UNL     1       4.987   2.756  -0.727  1.00  0.00     0.049 A 
ATOM     12  N   UNL     1       3.538   4.358  -0.390  1.00  0.00    -0.282 N 
ATOM     13  C   UNL     1       5.564   3.838  -0.019  1.00  0.00     0.066 A 
ATOM     14  N   UNL     1       4.672   4.825   0.148  1.00  0.00    -0.180 NA
ATOM     15  H   UNL     1       2.712   4.890  -0.466  1.00  0.00     0.190 HD
BRANCH  13  16
ATOM     16  C   UNL     1       6.921   3.968   0.632  1.00  0.00     0.051 C 
ATOM     17  C   UNL     1       8.112   3.746  -0.301  1.00  0.00     0.071 C 
ATOM     18  C   UNL     1       7.048   3.097   1.892  1.00  0.00     0.071 C 
ATOM     19  C   UNL     1       8.449   2.274  -0.510  1.00  0.00     0.263 C 
ATOM     20  C   UNL     1       7.413   1.640   1.595  1.00  0.00     0.263 C 
ATOM     21  N   UNL     1       8.602   1.540   0.749  1.00  0.00    -0.330 N 
ATOM     22  H   UNL     1       9.358   2.002   1.255  1.00  0.00     0.348 HD
BRANCH  21  23
ATOM     23  C   UNL     1       9.054   0.142   0.558  1.00  0.00     0.310 C 
BRANCH  23  24
ATOM     24  C   UNL     1       8.237  -0.680  -0.409  1.00  0.00     0.059 A 
ATOM     25  C   UNL     1       8.236  -0.626  -1.792  1.00  0.00     0.021 A 
ATOM     26  S   UNL     1       7.171  -1.898   0.152  1.00  0.00    -0.143 S 
ATOM     27  C   UNL     1       7.213  -1.427  -2.370  1.00  0.00     0.012 A 
ATOM     28  C   UNL     1       6.542  -2.159  -1.418  1.00  0.00     0.065 A 
ENDBRANCH  23  24
ENDBRANCH  21  23
ENDBRANCH  13  16
ENDBRANCH   9  10
ENDBRANCH   7   9
ENDBRANCH   6   7
ENDBRANCH   5   6
ENDBRANCH   4   5
ENDBRANCH   3   4
ENDBRANCH   2   3
ENDBRANCH   1   2
BRANCH   1  29
ATOM     29  O   UNL     1       2.464  -2.805   1.447  1.00  0.00    -0.377 OA
BRANCH  29  30
ATOM     30  C   UNL     1       3.656  -3.395   0.958  1.00  0.00     0.188 C 
BRANCH  30  31
ATOM     31  C   UNL     1       3.510  -4.425  -0.138  1.00  0.00     0.188 C 
BRANCH  31  32
ATOM     32  O   UNL     1       3.000  -3.959  -1.381  1.00  0.00    -0.376 OA
BRANCH  32  33
ATOM     33  C   UNL     1       3.253  -4.867  -2.468  1.00  0.00     0.202 C 
BRANCH  33  34
ATOM     34  C   UNL     1       2.688  -6.290  -2.269  1.00  0.00     0.261 C 
BRANCH  34  35
ATOM     35  O   UNL     1       3.225  -6.999  -1.126  1.00  0.00    -0.460 OA
BRANCH  35  36
ATOM     36  C   UNL     1       4.574  -7.163  -1.070  1.00  0.00     0.338 C 
ATOM     37  O   UNL     1       5.342  -7.052  -1.999  1.00  0.00    -0.246 OA
BRANCH  36  38
ATOM     38  C   UNL     1       4.997  -7.197   0.371  1.00  0.00     0.060 A 
ATOM     39  C   UNL     1       6.246  -6.645   0.699  1.00  0.00     0.016 A 
ATOM     40  C   UNL     1       4.153  -7.633   1.401  1.00  0.00     0.016 A 
ATOM     41  C   UNL     1       6.682  -6.605   2.028  1.00  0.00     0.010 A 
ATOM     42  C   UNL     1       4.591  -7.595   2.735  1.00  0.00     0.010 A 
ATOM     43  C   UNL     1       5.882  -7.133   3.050  1.00  0.00    -0.014 A 
BRANCH  43  44
ATOM     44  C   UNL     1       6.511  -7.477   4.357  1.00  0.00     0.031 A 
ATOM     45  C   UNL     1       7.022  -8.887   4.528  1.00  0.00     0.074 A 
ATOM     46  C   UNL     1       6.702  -6.583   5.346  1.00  0.00     0.049 A 
ATOM     47  N   UNL     1       7.645  -9.438   5.539  1.00  0.00    -0.248 NA
ATOM     48  C   UNL     1       6.799  -9.799   3.393  1.00  0.00     0.031 C 
ATOM     49  C   UNL     1       6.294  -5.182   5.321  1.00  0.00     0.029 A 
ATOM     50  N   UNL     1       7.299  -6.737   6.577  1.00  0.00    -0.354 N 
ATOM     51  C   UNL     1       7.904 -10.747   5.152  1.00  0.00     0.074 A 
ATOM     52  C   UNL     1       7.321 -10.928   3.842  1.00  0.00     0.031 C 
ATOM     53  C   UNL     1       6.644  -4.606   6.486  1.00  0.00     0.029 A 
ATOM     54  C   UNL     1       7.289  -5.600   7.347  1.00  0.00     0.049 A 
ATOM     55  H   UNL     1       7.698  -7.586   6.878  1.00  0.00     0.167 HD
ATOM     56  C   UNL     1       8.587 -11.712   5.810  1.00  0.00     0.037 A 
ATOM     57  C   UNL     1       7.738  -5.390   8.603  1.00  0.00     0.037 A 
ATOM     58  C   UNL     1       9.155 -11.561   7.121  1.00  0.00     0.049 A 
ATOM     59  C   UNL     1       8.421  -6.511   9.355  1.00  0.00     0.074 A 
ATOM     60  C   UNL     1       9.844 -12.495   7.875  1.00  0.00     0.029 A 
ATOM     61  N   UNL     1       9.091 -10.402   7.878  1.00  0.00    -0.354 N 
ATOM     62  N   UNL     1       8.689  -7.734   8.967  1.00  0.00    -0.248 NA
ATOM     63  C   UNL     1       8.877  -6.212  10.723  1.00  0.00     0.031 C 
ATOM     64  C   UNL     1      10.159 -11.914   9.108  1.00  0.00     0.029 A 
ATOM     65  C   UNL     1       9.715 -10.602   9.098  1.00  0.00     0.049 A 
ATOM     66  H   UNL     1       8.666  -9.562   7.591  1.00  0.00     0.167 HD
ATOM     67  C   UNL     1       9.368  -8.334  10.023  1.00  0.00     0.074 A 
ATOM     68  C   UNL     1       9.490  -7.337  11.062  1.00  0.00     0.031 C 
ATOM     69  C   UNL     1       9.846  -9.600  10.123  1.00  0.00     0.037 A 
BRANCH  56  70
ATOM     70  C   UNL     1       8.746 -13.030   5.113  1.00  0.00     0.064 A 
ATOM     71  C   UNL     1       9.592 -13.172   4.002  1.00  0.00     0.173 A 
ATOM     72  C   UNL     1       8.060 -14.166   5.567  1.00  0.00     0.173 A 
ATOM     73  F   UNL     1      10.252 -12.109   3.516  1.00  0.00    -0.203 F 
ATOM     74  C   UNL     1       9.727 -14.398   3.357  1.00  0.00     0.198 A 
ATOM     75  C   UNL     1       8.221 -15.397   4.938  1.00  0.00     0.198 A 
ATOM     76  F   UNL     1       7.237 -14.082   6.623  1.00  0.00    -0.203 F 
ATOM     77  F   UNL     1      10.500 -14.498   2.267  1.00  0.00    -0.200 F 
ATOM     78  C   UNL     1       9.047 -15.510   3.830  1.00  0.00     0.200 A 
ATOM     79  F   UNL     1       7.571 -16.473   5.401  1.00  0.00    -0.200 F 
ATOM     80  F   UNL     1       9.182 -16.691   3.212  1.00  0.00    -0.200 F 
ENDBRANCH  56  70
BRANCH  57  81
ATOM     81  C   UNL     1       7.551  -4.066   9.260  1.00  0.00     0.064 A 
ATOM     82  C   UNL     1       8.646  -3.256   9.598  1.00  0.00     0.173 A 
ATOM     83  C   UNL     1       6.275  -3.620   9.633  1.00  0.00     0.173 A 
ATOM     84  F   UNL     1       9.891  -3.653   9.296  1.00  0.00    -0.203 F 
ATOM     85  C   UNL     1       8.473  -2.069  10.310  1.00  0.00     0.198 A 
ATOM     86  C   UNL     1       6.101  -2.417  10.317  1.00  0.00     0.198 A 
ATOM     87  F   UNL     1       5.194  -4.360   9.346  1.00  0.00    -0.203 F 
ATOM     88  F   UNL     1       9.543  -1.351  10.680  1.00  0.00    -0.200 F 
ATOM     89  C   UNL     1       7.201  -1.649  10.665  1.00  0.00     0.200 A 
ATOM     90  F   UNL     1       4.869  -2.013  10.653  1.00  0.00    -0.200 F 
ATOM     91  F   UNL     1       7.036  -0.514  11.358  1.00  0.00    -0.200 F 
ENDBRANCH  57  81
BRANCH  69  92
ATOM     92  C   UNL     1      10.585  -9.971  11.379  1.00  0.00     0.064 A 
ATOM     93  C   UNL     1       9.928 -10.112  12.611  1.00  0.00     0.173 A 
ATOM     94  C   UNL     1      11.965 -10.226  11.341  1.00  0.00     0.173 A 
ATOM     95  F   UNL     1       8.612  -9.872  12.706  1.00  0.00    -0.203 F 
ATOM     96  C   UNL     1      10.631 -10.459  13.763  1.00  0.00     0.198 A 
ATOM     97  C   UNL     1      12.658 -10.605  12.488  1.00  0.00     0.198 A 
ATOM     98  F   UNL     1      12.642 -10.119  10.188  1.00  0.00    -0.203 F 
ATOM     99  F   UNL     1       9.992 -10.534  14.938  1.00  0.00    -0.200 F 
ATOM    100  C   UNL     1      11.993 -10.712  13.699  1.00  0.00     0.200 A 
ATOM    101  F   UNL     1      13.971 -10.866  12.420  1.00  0.00    -0.200 F 
ATOM    102  F   UNL     1      12.666 -11.050  14.808  1.00  0.00    -0.200 F 
ENDBRANCH  69  92
ENDBRANCH  43  44
ENDBRANCH  36  38
ENDBRANCH  35  36
ENDBRANCH  34  35
ENDBRANCH  33  34
ENDBRANCH  32  33
ENDBRANCH  31  32
ENDBRANCH  30  31
ENDBRANCH  29  30
ENDBRANCH   1  29
TORSDOF 24
