REMARK SMILES CCc1n[nH]c(C(=O)N[C@@]2(C(=O)OCCOCCOCCOCCOC(=O)c3ccc(-c4c5nc(c(-c6c(F)c(F)c(F)c(F)c6F)c6ccc([nH]6)c(-c6c(F)c(F)c(F)c(F)c6F)c6nc(c(-c7c(F)c(F)c(F)c(F)c7F)c7ccc4[nH]7)C=C6)C=C5)cc3)CCCC[C@H]2C)n1
REMARK SMILES IDX 18 1 17 2 16 3 15 4 14 5 13 6 11 7 12 8 10 9 91 10 95 11
REMARK SMILES IDX 92 12 94 13 96 14 93 15 9 16 7 17 8 18 6 20 3 21 4 22 97 23
REMARK SMILES IDX 5 24 2 26 1 27 19 28 20 29 21 30 22 31 23 32 24 33 25 34
REMARK SMILES IDX 26 35 27 36 28 37 29 38 90 39 30 40 89 41 31 42 32 43 33 44
REMARK SMILES IDX 83 45 34 46 88 47 82 48 84 49 35 50 87 51 81 52 80 53 36 55
REMARK SMILES IDX 68 56 48 57 67 58 49 59 52 60 66 61 85 62 50 63 51 64 65 66
REMARK SMILES IDX 86 67 53 68 37 69 38 70 46 71 39 72 40 73 44 74 47 75 41 76
REMARK SMILES IDX 42 77 45 78 43 79 69 80 70 81 78 82 71 83 72 84 76 85 79 86
REMARK SMILES IDX 73 87 74 88 77 89 75 90 54 91 55 92 63 93 56 94 57 95 61 96
REMARK SMILES IDX 64 97 58 98 59 99 62 100 60 101
REMARK H PARENT 9 19 5 25 84 54 52 65
REMARK Flexibility Score: inf
ROOT
ATOM      1  C   UNL     1       1.445   0.362  -4.569  1.00  0.00     0.188 C 
ENDROOT
BRANCH   1   2
ATOM      2  C   UNL     1       1.459  -0.068  -3.126  1.00  0.00     0.188 C 
BRANCH   2   3
ATOM      3  O   UNL     1       1.772   0.855  -2.100  1.00  0.00    -0.376 OA
BRANCH   3   4
ATOM      4  C   UNL     1       2.816   1.793  -2.289  1.00  0.00     0.202 C 
BRANCH   4   5
ATOM      5  C   UNL     1       4.192   1.408  -2.877  1.00  0.00     0.261 C 
BRANCH   5   6
ATOM      6  O   UNL     1       4.250   0.376  -3.878  1.00  0.00    -0.461 OA
BRANCH   6   7
ATOM      7  C   UNL     1       4.582  -0.863  -3.422  1.00  0.00     0.332 C 
ATOM      8  O   UNL     1       4.801  -1.107  -2.239  1.00  0.00    -0.249 OA
BRANCH   7   9
ATOM      9  C   UNL     1       4.598  -1.969  -4.536  1.00  0.00     0.141 C 
ATOM     10  C   UNL     1       5.863  -2.803  -4.138  1.00  0.00     0.041 C 
ATOM     11  C   UNL     1       4.843  -1.422  -6.027  1.00  0.00     0.023 C 
ATOM     12  C   UNL     1       6.320  -3.844  -5.149  1.00  0.00     0.003 C 
ATOM     13  C   UNL     1       5.336  -2.523  -6.995  1.00  0.00     0.006 C 
ATOM     14  C   UNL     1       3.680  -0.751  -6.777  1.00  0.00     0.011 C 
ATOM     15  C   UNL     1       6.586  -3.212  -6.498  1.00  0.00     0.000 C 
BRANCH   9  16
ATOM     16  N   UNL     1       3.354  -2.817  -4.474  1.00  0.00    -0.333 N 
ATOM     17  C   UNL     1       3.051  -3.794  -3.526  1.00  0.00     0.289 C 
ATOM     18  O   UNL     1       3.300  -4.959  -3.852  1.00  0.00    -0.266 OA
ATOM     19  H   UNL     1       2.683  -2.666  -5.178  1.00  0.00     0.165 HD
BRANCH  17  20
ATOM     20  C   UNL     1       2.160  -3.513  -2.410  1.00  0.00     0.214 A 
ATOM     21  C   UNL     1       0.863  -2.635  -0.954  1.00  0.00     0.151 A 
ATOM     22  N   UNL     1       0.334  -3.852  -1.131  1.00  0.00    -0.158 NA
ATOM     23  N   UNL     1       2.017  -2.424  -1.681  1.00  0.00    -0.207 NA
ATOM     24  N   UNL     1       1.206  -4.404  -1.995  1.00  0.00    -0.255 N 
ATOM     25  H   UNL     1       1.164  -5.341  -2.293  1.00  0.00     0.192 HD
BRANCH  21  26
ATOM     26  C   UNL     1       0.122  -1.542  -0.247  1.00  0.00     0.076 C 
ATOM     27  C   UNL     1       0.959  -0.691   0.692  1.00  0.00     0.012 C 
ENDBRANCH  21  26
ENDBRANCH  17  20
ENDBRANCH   9  16
ENDBRANCH   7   9
ENDBRANCH   6   7
ENDBRANCH   5   6
ENDBRANCH   4   5
ENDBRANCH   3   4
ENDBRANCH   2   3
ENDBRANCH   1   2
BRANCH   1  28
ATOM     28  O   UNL     1       1.552   1.747  -4.729  1.00  0.00    -0.377 OA
BRANCH  28  29
ATOM     29  C   UNL     1       0.297   2.367  -4.895  1.00  0.00     0.188 C 
BRANCH  29  30
ATOM     30  C   UNL     1      -0.851   2.017  -3.924  1.00  0.00     0.188 C 
BRANCH  30  31
ATOM     31  O   UNL     1      -1.391   0.709  -3.846  1.00  0.00    -0.376 OA
BRANCH  31  32
ATOM     32  C   UNL     1      -1.906  -0.075  -4.905  1.00  0.00     0.202 C 
BRANCH  32  33
ATOM     33  C   UNL     1      -2.489   0.443  -6.226  1.00  0.00     0.261 C 
BRANCH  33  34
ATOM     34  O   UNL     1      -1.886   1.607  -6.778  1.00  0.00    -0.460 OA
BRANCH  34  35
ATOM     35  C   UNL     1      -2.548   2.766  -6.530  1.00  0.00     0.338 C 
ATOM     36  O   UNL     1      -3.584   2.909  -5.922  1.00  0.00    -0.246 OA
BRANCH  35  37
ATOM     37  C   UNL     1      -1.672   3.886  -6.941  1.00  0.00     0.060 A 
ATOM     38  C   UNL     1      -1.413   4.898  -6.005  1.00  0.00     0.016 A 
ATOM     39  C   UNL     1      -1.073   3.908  -8.202  1.00  0.00     0.016 A 
ATOM     40  C   UNL     1      -0.573   5.957  -6.337  1.00  0.00     0.010 A 
ATOM     41  C   UNL     1      -0.272   4.992  -8.553  1.00  0.00     0.010 A 
ATOM     42  C   UNL     1      -0.059   6.037  -7.636  1.00  0.00    -0.014 A 
BRANCH  42  43
ATOM     43  C   UNL     1       0.405   7.342  -8.152  1.00  0.00     0.031 A 
ATOM     44  C   UNL     1      -0.632   8.212  -8.805  1.00  0.00     0.074 A 
ATOM     45  C   UNL     1       1.688   7.727  -8.076  1.00  0.00     0.049 A 
ATOM     46  N   UNL     1      -0.487   9.321  -9.479  1.00  0.00    -0.248 NA
ATOM     47  C   UNL     1      -2.029   7.753  -8.694  1.00  0.00     0.031 C 
ATOM     48  C   UNL     1       2.759   6.988  -7.413  1.00  0.00     0.029 A 
ATOM     49  N   UNL     1       2.307   8.837  -8.591  1.00  0.00    -0.354 N 
ATOM     50  C   UNL     1      -1.767   9.678  -9.883  1.00  0.00     0.074 A 
ATOM     51  C   UNL     1      -2.674   8.664  -9.402  1.00  0.00     0.031 C 
ATOM     52  C   UNL     1       3.915   7.653  -7.587  1.00  0.00     0.029 A 
ATOM     53  C   UNL     1       3.668   8.838  -8.408  1.00  0.00     0.049 A 
ATOM     54  H   UNL     1       1.823   9.563  -9.047  1.00  0.00     0.167 HD
ATOM     55  C   UNL     1      -2.150  10.760 -10.598  1.00  0.00     0.037 A 
ATOM     56  C   UNL     1       4.599   9.686  -8.888  1.00  0.00     0.037 A 
ATOM     57  C   UNL     1      -1.235  11.755 -11.082  1.00  0.00     0.049 A 
ATOM     58  C   UNL     1       4.159  10.845  -9.750  1.00  0.00     0.074 A 
ATOM     59  C   UNL     1      -1.507  12.891 -11.819  1.00  0.00     0.029 A 
ATOM     60  N   UNL     1       0.137  11.720 -10.879  1.00  0.00    -0.354 N 
ATOM     61  N   UNL     1       2.949  11.186 -10.126  1.00  0.00    -0.248 NA
ATOM     62  C   UNL     1       5.213  11.735 -10.258  1.00  0.00     0.031 C 
ATOM     63  C   UNL     1      -0.292  13.520 -12.106  1.00  0.00     0.029 A 
ATOM     64  C   UNL     1       0.729  12.809 -11.493  1.00  0.00     0.049 A 
ATOM     65  H   UNL     1       0.617  11.026 -10.373  1.00  0.00     0.167 HD
ATOM     66  C   UNL     1       3.091  12.350 -10.873  1.00  0.00     0.074 A 
ATOM     67  C   UNL     1       4.507  12.653 -10.903  1.00  0.00     0.031 C 
ATOM     68  C   UNL     1       2.139  13.104 -11.474  1.00  0.00     0.037 A 
BRANCH  55  69
ATOM     69  C   UNL     1      -3.606  10.890 -10.927  1.00  0.00     0.064 A 
ATOM     70  C   UNL     1      -4.563  11.182  -9.944  1.00  0.00     0.173 A 
ATOM     71  C   UNL     1      -4.050  10.725 -12.248  1.00  0.00     0.173 A 
ATOM     72  F   UNL     1      -4.193  11.323  -8.662  1.00  0.00    -0.203 F 
ATOM     73  C   UNL     1      -5.914  11.279 -10.267  1.00  0.00     0.198 A 
ATOM     74  C   UNL     1      -5.397  10.854 -12.572  1.00  0.00     0.198 A 
ATOM     75  F   UNL     1      -3.176  10.438 -13.224  1.00  0.00    -0.203 F 
ATOM     76  F   UNL     1      -6.817  11.505  -9.303  1.00  0.00    -0.200 F 
ATOM     77  C   UNL     1      -6.329  11.123 -11.581  1.00  0.00     0.200 A 
ATOM     78  F   UNL     1      -5.794  10.711 -13.844  1.00  0.00    -0.200 F 
ATOM     79  F   UNL     1      -7.628  11.223 -11.891  1.00  0.00    -0.200 F 
ENDBRANCH  55  69
BRANCH  56  80
ATOM     80  C   UNL     1       6.038   9.466  -8.584  1.00  0.00     0.064 A 
ATOM     81  C   UNL     1       6.751  10.361  -7.775  1.00  0.00     0.173 A 
ATOM     82  C   UNL     1       6.736   8.370  -9.114  1.00  0.00     0.173 A 
ATOM     83  F   UNL     1       6.135  11.438  -7.266  1.00  0.00    -0.203 F 
ATOM     84  C   UNL     1       8.110  10.180  -7.522  1.00  0.00     0.198 A 
ATOM     85  C   UNL     1       8.088   8.174  -8.837  1.00  0.00     0.198 A 
ATOM     86  F   UNL     1       6.104   7.484  -9.897  1.00  0.00    -0.203 F 
ATOM     87  F   UNL     1       8.777  11.078  -6.785  1.00  0.00    -0.200 F 
ATOM     88  C   UNL     1       8.776   9.084  -8.048  1.00  0.00     0.200 A 
ATOM     89  F   UNL     1       8.725   7.107  -9.339  1.00  0.00    -0.200 F 
ATOM     90  F   UNL     1      10.082   8.910  -7.804  1.00  0.00    -0.200 F 
ENDBRANCH  56  80
BRANCH  68  91
ATOM     91  C   UNL     1       2.571  14.370 -12.151  1.00  0.00     0.064 A 
ATOM     92  C   UNL     1       3.240  14.362 -13.382  1.00  0.00     0.173 A 
ATOM     93  C   UNL     1       2.218  15.613 -11.599  1.00  0.00     0.173 A 
ATOM     94  F   UNL     1       3.607  13.200 -13.943  1.00  0.00    -0.203 F 
ATOM     95  C   UNL     1       3.549  15.554 -14.033  1.00  0.00     0.198 A 
ATOM     96  C   UNL     1       2.502  16.799 -12.266  1.00  0.00     0.198 A 
ATOM     97  F   UNL     1       1.567  15.671 -10.428  1.00  0.00    -0.203 F 
ATOM     98  F   UNL     1       4.214  15.526 -15.196  1.00  0.00    -0.200 F 
ATOM     99  C   UNL     1       3.170  16.769 -13.481  1.00  0.00     0.200 A 
ATOM    100  F   UNL     1       2.118  17.971 -11.741  1.00  0.00    -0.200 F 
ATOM    101  F   UNL     1       3.448  17.913 -14.121  1.00  0.00    -0.200 F 
ENDBRANCH  68  91
ENDBRANCH  42  43
ENDBRANCH  35  37
ENDBRANCH  34  35
ENDBRANCH  33  34
ENDBRANCH  32  33
ENDBRANCH  31  32
ENDBRANCH  30  31
ENDBRANCH  29  30
ENDBRANCH  28  29
ENDBRANCH   1  28
TORSDOF 23
