REMARK SMILES Cc1cc(Cl)c2c(c1)C=C(C(=O)OCCOCCOCCOCCOC(=O)c1ccc(-c3c4nc(c(-c5c(F)c(F)c(F)c(F)c5F)c5ccc([nH]5)c(-c5c(F)c(F)c(F)c(F)c5F)c5nc(c(-c6c(F)c(F)c(F)c(F)c6F)c6ccc3[nH]6)C=C5)C=C4)cc1)[C@@H](C(F)(F)F)O2
REMARK SMILES IDX 20 1 19 2 18 3 17 4 16 5 15 6 14 7 13 8 11 9 12 10 10 11
REMARK SMILES IDX 1 12 2 13 3 14 8 15 4 16 7 17 5 18 6 19 9 20 96 21 91 22
REMARK SMILES IDX 92 23 93 24 94 25 95 26 21 27 22 28 23 29 24 30 25 31 26 32
REMARK SMILES IDX 27 33 28 34 29 35 90 36 30 37 89 38 31 39 32 40 33 41 83 42
REMARK SMILES IDX 34 43 88 44 82 45 84 46 35 47 87 48 81 49 80 50 36 52 68 53
REMARK SMILES IDX 48 54 67 55 49 56 52 57 66 58 85 59 50 60 51 61 65 63 86 64
REMARK SMILES IDX 53 65 37 66 38 67 46 68 39 69 40 70 44 71 47 72 41 73 42 74
REMARK SMILES IDX 45 75 43 76 69 77 70 78 78 79 71 80 72 81 76 82 79 83 73 84
REMARK SMILES IDX 74 85 77 86 75 87 54 88 55 89 63 90 56 91 57 92 61 93 64 94
REMARK SMILES IDX 58 95 59 96 62 97 60 98
REMARK H PARENT 84 51 52 62
REMARK Flexibility Score: inf
ROOT
ATOM      1  C   UNL     1      -1.613   9.557  -2.137  1.00  0.00     0.188 C 
ENDROOT
BRANCH   1   2
ATOM      2  O   UNL     1      -0.935   8.355  -2.502  1.00  0.00    -0.377 OA
BRANCH   2   3
ATOM      3  C   UNL     1      -0.713   7.392  -1.483  1.00  0.00     0.188 C 
BRANCH   3   4
ATOM      4  C   UNL     1       0.566   7.659  -0.665  1.00  0.00     0.188 C 
BRANCH   4   5
ATOM      5  O   UNL     1       1.070   8.977  -0.747  1.00  0.00    -0.376 OA
BRANCH   5   6
ATOM      6  C   UNL     1       1.854   9.438  -1.834  1.00  0.00     0.202 C 
BRANCH   6   7
ATOM      7  C   UNL     1       1.966   8.794  -3.231  1.00  0.00     0.261 C 
BRANCH   7   8
ATOM      8  O   UNL     1       1.472   7.470  -3.400  1.00  0.00    -0.460 OA
BRANCH   8   9
ATOM      9  C   UNL     1       2.301   6.465  -3.068  1.00  0.00     0.338 C 
ATOM     10  O   UNL     1       3.446   6.563  -2.663  1.00  0.00    -0.246 OA
BRANCH   9  11
ATOM     11  C   UNL     1       1.521   5.210  -3.107  1.00  0.00     0.087 C 
ATOM     12  C   UNL     1       0.914  -0.087  -0.068  1.00  0.00     0.044 C 
ATOM     13  C   UNL     1       0.604   0.917  -1.138  1.00  0.00    -0.049 A 
ATOM     14  C   UNL     1      -0.190   0.586  -2.240  1.00  0.00     0.028 A 
ATOM     15  C   UNL     1       1.151   2.201  -1.058  1.00  0.00     0.015 A 
ATOM     16  C   UNL     1      -0.439   1.531  -3.242  1.00  0.00     0.084 A 
ATOM     17  C   UNL     1       0.949   3.129  -2.088  1.00  0.00     0.019 A 
ATOM     18  Cl  UNL     1      -1.420   1.058  -4.584  1.00  0.00    -0.080 Cl
ATOM     19  C   UNL     1       0.130   2.809  -3.173  1.00  0.00     0.146 A 
ATOM     20  C   UNL     1       1.666   4.389  -2.061  1.00  0.00     0.027 C 
ATOM     21  O   UNL     1      -0.137   3.689  -4.185  1.00  0.00    -0.474 OA
ATOM     22  C   UNL     1       0.579   4.951  -4.252  1.00  0.00     0.316 C 
BRANCH  22  23
ATOM     23  C   UNL     1       1.290   5.037  -5.609  1.00  0.00     0.430 C 
ATOM     24  F   UNL     1       0.454   4.728  -6.628  1.00  0.00    -0.167 F 
ATOM     25  F   UNL     1       1.755   6.285  -5.856  1.00  0.00    -0.167 F 
ATOM     26  F   UNL     1       2.345   4.194  -5.676  1.00  0.00    -0.167 F 
ENDBRANCH  22  23
ENDBRANCH   9  11
ENDBRANCH   8   9
ENDBRANCH   7   8
ENDBRANCH   6   7
ENDBRANCH   5   6
ENDBRANCH   4   5
ENDBRANCH   3   4
ENDBRANCH   2   3
ENDBRANCH   1   2
BRANCH   1  27
ATOM     27  C   UNL     1      -1.557  10.103  -0.690  1.00  0.00     0.188 C 
BRANCH  27  28
ATOM     28  O   UNL     1      -1.672   9.106   0.315  1.00  0.00    -0.376 OA
BRANCH  28  29
ATOM     29  C   UNL     1      -2.891   8.975   1.024  1.00  0.00     0.202 C 
BRANCH  29  30
ATOM     30  C   UNL     1      -4.103   8.483   0.222  1.00  0.00     0.261 C 
BRANCH  30  31
ATOM     31  O   UNL     1      -4.429   9.249  -0.945  1.00  0.00    -0.460 OA
BRANCH  31  32
ATOM     32  C   UNL     1      -4.800  10.531  -0.755  1.00  0.00     0.338 C 
ATOM     33  O   UNL     1      -4.921  11.118   0.309  1.00  0.00    -0.246 OA
BRANCH  32  34
ATOM     34  C   UNL     1      -4.867  11.179  -2.077  1.00  0.00     0.060 A 
ATOM     35  C   UNL     1      -4.045  12.284  -2.340  1.00  0.00     0.016 A 
ATOM     36  C   UNL     1      -5.745  10.698  -3.050  1.00  0.00     0.016 A 
ATOM     37  C   UNL     1      -4.133  12.941  -3.566  1.00  0.00     0.010 A 
ATOM     38  C   UNL     1      -5.852  11.372  -4.266  1.00  0.00     0.010 A 
ATOM     39  C   UNL     1      -5.074  12.517  -4.513  1.00  0.00    -0.014 A 
BRANCH  39  40
ATOM     40  C   UNL     1      -5.406  13.378  -5.670  1.00  0.00     0.031 A 
ATOM     41  C   UNL     1      -6.599  14.284  -5.557  1.00  0.00     0.074 A 
ATOM     42  C   UNL     1      -4.672  13.351  -6.795  1.00  0.00     0.049 A 
ATOM     43  N   UNL     1      -7.173  15.023  -6.471  1.00  0.00    -0.248 NA
ATOM     44  C   UNL     1      -7.234  14.365  -4.231  1.00  0.00     0.031 C 
ATOM     45  C   UNL     1      -3.456  12.567  -6.992  1.00  0.00     0.029 A 
ATOM     46  N   UNL     1      -4.860  13.995  -7.992  1.00  0.00    -0.354 N 
ATOM     47  C   UNL     1      -8.238  15.646  -5.833  1.00  0.00     0.074 A 
ATOM     48  C   UNL     1      -8.247  15.185  -4.463  1.00  0.00     0.031 C 
ATOM     49  C   UNL     1      -3.016  12.759  -8.248  1.00  0.00     0.029 A 
ATOM     50  C   UNL     1      -3.946  13.640  -8.953  1.00  0.00     0.049 A 
ATOM     51  H   UNL     1      -5.581  14.648  -8.147  1.00  0.00     0.167 HD
ATOM     52  C   UNL     1      -9.125  16.527  -6.350  1.00  0.00     0.037 A 
ATOM     53  C   UNL     1      -3.893  13.965 -10.260  1.00  0.00     0.037 A 
ATOM     54  C   UNL     1      -9.110  16.975  -7.718  1.00  0.00     0.049 A 
ATOM     55  C   UNL     1      -4.950  14.875 -10.835  1.00  0.00     0.074 A 
ATOM     56  C   UNL     1      -9.971  17.858  -8.344  1.00  0.00     0.029 A 
ATOM     57  N   UNL     1      -8.188  16.568  -8.672  1.00  0.00    -0.354 N 
ATOM     58  N   UNL     1      -5.965  15.451 -10.237  1.00  0.00    -0.248 NA
ATOM     59  C   UNL     1      -4.850  15.182 -12.269  1.00  0.00     0.031 C 
ATOM     60  C   UNL     1      -9.605  17.942  -9.690  1.00  0.00     0.029 A 
ATOM     61  C   UNL     1      -8.472  17.170  -9.887  1.00  0.00     0.049 A 
ATOM     62  H   UNL     1      -7.443  15.946  -8.509  1.00  0.00     0.167 HD
ATOM     63  C   UNL     1      -6.601  16.215 -11.207  1.00  0.00     0.074 A 
ATOM     64  C   UNL     1      -5.849  16.038 -12.432  1.00  0.00     0.031 C 
ATOM     65  C   UNL     1      -7.705  16.995 -11.095  1.00  0.00     0.037 A 
BRANCH  52  66
ATOM     66  C   UNL     1     -10.201  17.055  -5.447  1.00  0.00     0.064 A 
ATOM     67  C   UNL     1      -9.921  17.968  -4.420  1.00  0.00     0.173 A 
ATOM     68  C   UNL     1     -11.542  16.703  -5.665  1.00  0.00     0.173 A 
ATOM     69  F   UNL     1      -8.653  18.321  -4.158  1.00  0.00    -0.203 F 
ATOM     70  C   UNL     1     -10.943  18.507  -3.643  1.00  0.00     0.198 A 
ATOM     71  C   UNL     1     -12.564  17.267  -4.906  1.00  0.00     0.198 A 
ATOM     72  F   UNL     1     -11.865  15.831  -6.632  1.00  0.00    -0.203 F 
ATOM     73  F   UNL     1     -10.649  19.356  -2.649  1.00  0.00    -0.200 F 
ATOM     74  C   UNL     1     -12.264  18.167  -3.895  1.00  0.00     0.200 A 
ATOM     75  F   UNL     1     -13.840  16.947  -5.161  1.00  0.00    -0.200 F 
ATOM     76  F   UNL     1     -13.248  18.707  -3.164  1.00  0.00    -0.200 F 
ENDBRANCH  52  66
BRANCH  53  77
ATOM     77  C   UNL     1      -2.807  13.419 -11.116  1.00  0.00     0.064 A 
ATOM     78  C   UNL     1      -1.825  14.259 -11.659  1.00  0.00     0.173 A 
ATOM     79  C   UNL     1      -2.727  12.049 -11.411  1.00  0.00     0.173 A 
ATOM     80  F   UNL     1      -1.873  15.579 -11.430  1.00  0.00    -0.203 F 
ATOM     81  C   UNL     1      -0.812  13.753 -12.472  1.00  0.00     0.198 A 
ATOM     82  C   UNL     1      -1.696  11.540 -12.197  1.00  0.00     0.198 A 
ATOM     83  F   UNL     1      -3.644  11.201 -10.922  1.00  0.00    -0.203 F 
ATOM     84  F   UNL     1       0.087  14.585 -13.014  1.00  0.00    -0.200 F 
ATOM     85  C   UNL     1      -0.743  12.393 -12.733  1.00  0.00     0.200 A 
ATOM     86  F   UNL     1      -1.625  10.223 -12.436  1.00  0.00    -0.200 F 
ATOM     87  F   UNL     1       0.237  11.906 -13.506  1.00  0.00    -0.200 F 
ENDBRANCH  53  77
BRANCH  65  88
ATOM     88  C   UNL     1      -8.143  17.763 -12.310  1.00  0.00     0.064 A 
ATOM     89  C   UNL     1      -8.689  17.127 -13.435  1.00  0.00     0.173 A 
ATOM     90  C   UNL     1      -8.060  19.165 -12.327  1.00  0.00     0.173 A 
ATOM     91  F   UNL     1      -8.784  15.790 -13.474  1.00  0.00    -0.203 F 
ATOM     92  C   UNL     1      -9.105  17.863 -14.542  1.00  0.00     0.198 A 
ATOM     93  C   UNL     1      -8.512  19.899 -13.420  1.00  0.00     0.198 A 
ATOM     94  F   UNL     1      -7.559  19.827 -11.273  1.00  0.00    -0.203 F 
ATOM     95  F   UNL     1      -9.572  17.229 -15.627  1.00  0.00    -0.200 F 
ATOM     96  C   UNL     1      -9.024  19.247 -14.530  1.00  0.00     0.200 A 
ATOM     97  F   UNL     1      -8.453  21.238 -13.396  1.00  0.00    -0.200 F 
ATOM     98  F   UNL     1      -9.435  19.953 -15.593  1.00  0.00    -0.200 F 
ENDBRANCH  65  88
ENDBRANCH  39  40
ENDBRANCH  32  34
ENDBRANCH  31  32
ENDBRANCH  30  31
ENDBRANCH  29  30
ENDBRANCH  28  29
ENDBRANCH  27  28
ENDBRANCH   1  27
TORSDOF 21
