REMARK SMILES COc1ccc2c(c1)c(Cc1nc(-c3ccc(C(=O)OCCOCCOCCOCCOC(=O)c4ccc(-c5c6nc(c(-c7c(F)c(F)c(F)c(F)c7F)c7ccc([nH]7)c(-c7c(F)c(F)c(F)c(F)c7F)c7nc(c(-c8c(F)c(F)c(F)c(F)c8F)c8ccc5[nH]8)C=C7)C=C6)cc4)cc3)cs1)c(C)n2C(=O)c1ccc(Cl)cc1
REMARK SMILES IDX 24 1 23 2 22 3 21 4 20 5 18 6 19 7 17 8 14 9 15 10 99 11
REMARK SMILES IDX 16 12 98 13 13 14 11 15 12 16 101 17 100 18 10 19 9 20 3 21
REMARK SMILES IDX 4 22 8 23 5 24 7 25 6 26 104 27 102 28 103 29 2 30 1 31
REMARK SMILES IDX 105 32 106 33 107 34 108 35 113 36 109 37 112 38 110 39
REMARK SMILES IDX 111 40 25 41 26 42 27 43 28 44 29 45 30 46 31 47 32 48 33 49
REMARK SMILES IDX 34 50 35 51 36 52 97 53 37 54 96 55 38 56 39 57 40 58 90 59
REMARK SMILES IDX 41 60 95 61 89 62 91 63 42 64 94 65 88 66 87 67 43 69 75 70
REMARK SMILES IDX 55 71 74 72 56 73 59 74 73 75 92 76 57 77 58 78 72 80 93 81
REMARK SMILES IDX 60 82 44 83 45 84 53 85 46 86 47 87 51 88 54 89 48 90 49 91
REMARK SMILES IDX 52 92 50 93 76 94 77 95 85 96 78 97 79 98 83 99 86 100
REMARK SMILES IDX 80 101 81 102 84 103 82 104 61 105 62 106 70 107 63 108
REMARK SMILES IDX 64 109 68 110 71 111 65 112 66 113 69 114 67 115
REMARK H PARENT 91 68 59 79
REMARK Flexibility Score: inf
ROOT
ATOM      1  C   UNL     1      -2.067  -3.379  -8.585  1.00  0.00     0.188 C 
ENDROOT
BRANCH   1   2
ATOM      2  O   UNL     1      -1.982  -4.776  -8.779  1.00  0.00    -0.376 OA
BRANCH   2   3
ATOM      3  C   UNL     1      -1.964  -5.718  -7.715  1.00  0.00     0.202 C 
BRANCH   3   4
ATOM      4  C   UNL     1      -1.968  -5.477  -6.189  1.00  0.00     0.261 C 
BRANCH   4   5
ATOM      5  O   UNL     1      -2.049  -4.141  -5.716  1.00  0.00    -0.460 OA
BRANCH   5   6
ATOM      6  C   UNL     1      -0.884  -3.490  -5.523  1.00  0.00     0.338 C 
ATOM      7  O   UNL     1       0.241  -3.929  -5.664  1.00  0.00    -0.246 OA
BRANCH   6   8
ATOM      8  C   UNL     1      -1.230  -2.054  -5.409  1.00  0.00     0.060 A 
ATOM      9  C   UNL     1      -2.026   0.617  -5.574  1.00  0.00     0.001 A 
ATOM     10  C   UNL     1      -0.937   0.159  -6.327  1.00  0.00     0.011 A 
ATOM     11  C   UNL     1      -2.706  -0.266  -4.723  1.00  0.00     0.011 A 
ATOM     12  C   UNL     1      -0.525  -1.166  -6.228  1.00  0.00     0.016 A 
ATOM     13  C   UNL     1      -2.324  -1.609  -4.655  1.00  0.00     0.016 A 
BRANCH   9  14
ATOM     14  C   UNL     1      -2.328   2.032  -5.554  1.00  0.00     0.081 A 
ATOM     15  C   UNL     1      -2.211   3.988  -4.563  1.00  0.00     0.098 A 
ATOM     16  N   UNL     1      -2.338   2.697  -4.354  1.00  0.00    -0.241 NA
ATOM     17  S   UNL     1      -2.438   4.483  -6.194  1.00  0.00    -0.126 S 
ATOM     18  C   UNL     1      -2.484   2.830  -6.669  1.00  0.00     0.095 A 
BRANCH  15  19
ATOM     19  C   UNL     1      -1.839   4.958  -3.482  1.00  0.00     0.105 C 
BRANCH  19  20
ATOM     20  C   UNL     1      -0.359   4.909  -3.157  1.00  0.00    -0.012 A 
ATOM     21  C   UNL     1       0.813   1.644  -1.529  1.00  0.00     0.119 A 
ATOM     22  C   UNL     1       2.110   2.054  -1.285  1.00  0.00     0.048 A 
ATOM     23  C   UNL     1      -0.075   2.518  -2.155  1.00  0.00     0.057 A 
ATOM     24  C   UNL     1       2.534   3.334  -1.659  1.00  0.00     0.031 A 
ATOM     25  C   UNL     1       0.331   3.812  -2.561  1.00  0.00     0.008 A 
ATOM     26  C   UNL     1       1.657   4.203  -2.347  1.00  0.00     0.057 A 
ATOM     27  N   UNL     1       1.831   5.486  -2.905  1.00  0.00    -0.280 N 
ATOM     28  C   UNL     1       0.570   5.925  -3.349  1.00  0.00     0.028 A 
ATOM     29  C   UNL     1       0.271   7.265  -3.948  1.00  0.00     0.065 C 
BRANCH  21  30
ATOM     30  O   UNL     1       0.312   0.407  -1.227  1.00  0.00    -0.497 OA
ATOM     31  C   UNL     1       0.840  -0.185  -0.045  1.00  0.00     0.278 C 
ENDBRANCH  21  30
BRANCH  27  32
ATOM     32  C   UNL     1       3.063   6.205  -2.979  1.00  0.00     0.262 C 
ATOM     33  O   UNL     1       3.057   7.379  -3.342  1.00  0.00    -0.268 OA
BRANCH  32  34
ATOM     34  C   UNL     1       4.389   5.672  -2.618  1.00  0.00     0.040 A 
ATOM     35  C   UNL     1       4.969   4.624  -3.342  1.00  0.00     0.015 A 
ATOM     36  C   UNL     1       5.047   6.229  -1.514  1.00  0.00     0.015 A 
ATOM     37  C   UNL     1       6.179   4.078  -2.902  1.00  0.00     0.021 A 
ATOM     38  C   UNL     1       6.257   5.684  -1.086  1.00  0.00     0.021 A 
ATOM     39  C   UNL     1       6.809   4.601  -1.770  1.00  0.00     0.041 A 
ATOM     40  Cl  UNL     1       8.268   3.890  -1.200  1.00  0.00    -0.084 Cl
ENDBRANCH  32  34
ENDBRANCH  27  32
ENDBRANCH  19  20
ENDBRANCH  15  19
ENDBRANCH   9  14
ENDBRANCH   6   8
ENDBRANCH   5   6
ENDBRANCH   4   5
ENDBRANCH   3   4
ENDBRANCH   2   3
ENDBRANCH   1   2
BRANCH   1  41
ATOM     41  C   UNL     1      -3.385  -2.802  -8.056  1.00  0.00     0.188 C 
BRANCH  41  42
ATOM     42  O   UNL     1      -4.125  -3.743  -7.312  1.00  0.00    -0.377 OA
BRANCH  42  43
ATOM     43  C   UNL     1      -5.144  -4.446  -8.002  1.00  0.00     0.188 C 
BRANCH  43  44
ATOM     44  C   UNL     1      -5.001  -4.750  -9.504  1.00  0.00     0.188 C 
BRANCH  44  45
ATOM     45  O   UNL     1      -4.992  -3.573 -10.311  1.00  0.00    -0.376 OA
BRANCH  45  46
ATOM     46  C   UNL     1      -6.191  -3.294 -11.033  1.00  0.00     0.202 C 
BRANCH  46  47
ATOM     47  C   UNL     1      -7.341  -2.737 -10.179  1.00  0.00     0.261 C 
BRANCH  47  48
ATOM     48  O   UNL     1      -7.829  -3.687  -9.219  1.00  0.00    -0.460 OA
BRANCH  48  49
ATOM     49  C   UNL     1      -8.597  -4.705  -9.675  1.00  0.00     0.338 C 
ATOM     50  O   UNL     1      -9.161  -4.777 -10.747  1.00  0.00    -0.246 OA
BRANCH  49  51
ATOM     51  C   UNL     1      -8.290  -5.853  -8.786  1.00  0.00     0.060 A 
ATOM     52  C   UNL     1      -8.153  -5.689  -7.402  1.00  0.00     0.016 A 
ATOM     53  C   UNL     1      -7.842  -7.023  -9.414  1.00  0.00     0.016 A 
ATOM     54  C   UNL     1      -7.459  -6.649  -6.670  1.00  0.00     0.010 A 
ATOM     55  C   UNL     1      -7.132  -7.970  -8.682  1.00  0.00     0.010 A 
ATOM     56  C   UNL     1      -6.898  -7.761  -7.319  1.00  0.00    -0.014 A 
BRANCH  56  57
ATOM     57  C   UNL     1      -6.202  -8.760  -6.498  1.00  0.00     0.031 A 
ATOM     58  C   UNL     1      -7.078  -9.483  -5.534  1.00  0.00     0.074 A 
ATOM     59  C   UNL     1      -4.935  -9.185  -6.682  1.00  0.00     0.049 A 
ATOM     60  N   UNL     1      -6.905  -9.691  -4.268  1.00  0.00    -0.248 NA
ATOM     61  C   UNL     1      -8.347 -10.006  -6.067  1.00  0.00     0.031 C 
ATOM     62  C   UNL     1      -4.032  -8.847  -7.779  1.00  0.00     0.029 A 
ATOM     63  N   UNL     1      -4.227 -10.120  -5.972  1.00  0.00    -0.354 N 
ATOM     64  C   UNL     1      -7.978 -10.483  -3.868  1.00  0.00     0.074 A 
ATOM     65  C   UNL     1      -8.883 -10.564  -4.985  1.00  0.00     0.031 C 
ATOM     66  C   UNL     1      -2.981  -9.695  -7.769  1.00  0.00     0.029 A 
ATOM     67  C   UNL     1      -3.110 -10.603  -6.640  1.00  0.00     0.049 A 
ATOM     68  H   UNL     1      -4.487 -10.422  -5.072  1.00  0.00     0.167 HD
ATOM     69  C   UNL     1      -7.994 -11.176  -2.699  1.00  0.00     0.037 A 
ATOM     70  C   UNL     1      -2.409 -11.732  -6.362  1.00  0.00     0.037 A 
ATOM     71  C   UNL     1      -7.064 -10.668  -1.736  1.00  0.00     0.049 A 
ATOM     72  C   UNL     1      -2.715 -12.139  -4.967  1.00  0.00     0.074 A 
ATOM     73  C   UNL     1      -6.893  -9.444  -1.118  1.00  0.00     0.029 A 
ATOM     74  N   UNL     1      -5.919 -11.374  -1.469  1.00  0.00    -0.354 N 
ATOM     75  N   UNL     1      -2.314 -11.502  -3.901  1.00  0.00    -0.248 NA
ATOM     76  C   UNL     1      -3.811 -13.073  -4.759  1.00  0.00     0.031 C 
ATOM     77  C   UNL     1      -5.486  -9.304  -0.953  1.00  0.00     0.029 A 
ATOM     78  C   UNL     1      -4.897 -10.459  -1.467  1.00  0.00     0.049 A 
ATOM     79  H   UNL     1      -5.845 -12.343  -1.310  1.00  0.00     0.167 HD
ATOM     80  C   UNL     1      -3.354 -11.643  -2.995  1.00  0.00     0.074 A 
ATOM     81  C   UNL     1      -4.198 -12.700  -3.538  1.00  0.00     0.031 C 
ATOM     82  C   UNL     1      -3.593 -10.704  -2.033  1.00  0.00     0.037 A 
BRANCH  69  83
ATOM     83  C   UNL     1      -8.698 -12.491  -2.546  1.00  0.00     0.064 A 
ATOM     84  C   UNL     1      -9.012 -12.988  -1.270  1.00  0.00     0.173 A 
ATOM     85  C   UNL     1      -8.851 -13.397  -3.619  1.00  0.00     0.173 A 
ATOM     86  F   UNL     1      -8.845 -12.223  -0.181  1.00  0.00    -0.203 F 
ATOM     87  C   UNL     1      -9.435 -14.306  -1.083  1.00  0.00     0.198 A 
ATOM     88  C   UNL     1      -9.327 -14.691  -3.436  1.00  0.00     0.198 A 
ATOM     89  F   UNL     1      -8.451 -13.086  -4.861  1.00  0.00    -0.203 F 
ATOM     90  F   UNL     1      -9.633 -14.771   0.158  1.00  0.00    -0.200 F 
ATOM     91  C   UNL     1      -9.598 -15.154  -2.166  1.00  0.00     0.200 A 
ATOM     92  F   UNL     1      -9.454 -15.504  -4.495  1.00  0.00    -0.200 F 
ATOM     93  F   UNL     1      -9.969 -16.428  -1.982  1.00  0.00    -0.200 F 
ENDBRANCH  69  83
BRANCH  70  94
ATOM     94  C   UNL     1      -1.701 -12.620  -7.324  1.00  0.00     0.064 A 
ATOM     95  C   UNL     1      -0.772 -13.584  -6.897  1.00  0.00     0.173 A 
ATOM     96  C   UNL     1      -2.081 -12.692  -8.680  1.00  0.00     0.173 A 
ATOM     97  F   UNL     1      -0.406 -13.647  -5.608  1.00  0.00    -0.203 F 
ATOM     98  C   UNL     1      -0.248 -14.542  -7.775  1.00  0.00     0.198 A 
ATOM     99  C   UNL     1      -1.539 -13.628  -9.560  1.00  0.00     0.198 A 
ATOM    100  F   UNL     1      -3.057 -11.914  -9.168  1.00  0.00    -0.203 F 
ATOM    101  F   UNL     1       0.595 -15.479  -7.319  1.00  0.00    -0.200 F 
ATOM    102  C   UNL     1      -0.628 -14.559  -9.107  1.00  0.00     0.200 A 
ATOM    103  F   UNL     1      -1.950 -13.652 -10.836  1.00  0.00    -0.200 F 
ATOM    104  F   UNL     1      -0.152 -15.494  -9.941  1.00  0.00    -0.200 F 
ENDBRANCH  70  94
BRANCH  82 105
ATOM    105  C   UNL     1      -2.551  -9.655  -1.775  1.00  0.00     0.064 A 
ATOM    106  C   UNL     1      -2.152  -8.710  -2.735  1.00  0.00     0.173 A 
ATOM    107  C   UNL     1      -2.102  -9.471  -0.458  1.00  0.00     0.173 A 
ATOM    108  F   UNL     1      -2.623  -8.756  -3.988  1.00  0.00    -0.203 F 
ATOM    109  C   UNL     1      -1.319  -7.646  -2.393  1.00  0.00     0.198 A 
ATOM    110  C   UNL     1      -1.299  -8.387  -0.115  1.00  0.00     0.198 A 
ATOM    111  F   UNL     1      -2.500 -10.309   0.512  1.00  0.00    -0.203 F 
ATOM    112  F   UNL     1      -0.960  -6.753  -3.326  1.00  0.00    -0.200 F 
ATOM    113  C   UNL     1      -0.903  -7.479  -1.083  1.00  0.00     0.200 A 
ATOM    114  F   UNL     1      -0.944  -8.198   1.164  1.00  0.00    -0.200 F 
ATOM    115  F   UNL     1      -0.153  -6.421  -0.745  1.00  0.00    -0.200 F 
ENDBRANCH  82 105
ENDBRANCH  56  57
ENDBRANCH  49  51
ENDBRANCH  48  49
ENDBRANCH  47  48
ENDBRANCH  46  47
ENDBRANCH  45  46
ENDBRANCH  44  45
ENDBRANCH  43  44
ENDBRANCH  42  43
ENDBRANCH  41  42
ENDBRANCH   1  41
TORSDOF 26
