REMARK SMILES CC[C@H](C)c1ccccc1Oc1cccc(F)c1C(=O)OCCOCCOCCOCCOC(=O)c1ccc(-c2c3nc(c(-c4c(F)c(F)c(F)c(F)c4F)c4ccc([nH]4)c(-c4c(F)c(F)c(F)c(F)c4F)c4nc(c(-c5c(F)c(F)c(F)c(F)c5F)c5ccc2[nH]5)C=C4)C=C3)cc1
REMARK SMILES IDX 26 1 25 2 24 3 23 4 22 5 21 6 19 7 20 8 18 9 12 10 13 11
REMARK SMILES IDX 14 12 16 13 15 14 17 15 11 16 10 17 5 18 6 19 7 20 9 21 8 22
REMARK SMILES IDX 3 23 4 24 2 25 1 26 27 27 28 28 29 29 30 30 31 31 32 32
REMARK SMILES IDX 33 33 34 34 35 35 36 36 37 37 98 38 38 39 97 40 39 41 40 42
REMARK SMILES IDX 41 43 91 44 42 45 96 46 90 47 92 48 43 49 95 50 89 51 88 52
REMARK SMILES IDX 44 54 76 55 56 56 75 57 57 58 60 59 74 60 93 61 58 62 59 63
REMARK SMILES IDX 73 65 94 66 61 67 45 68 46 69 54 70 47 71 48 72 52 73 55 74
REMARK SMILES IDX 49 75 50 76 53 77 51 78 77 79 78 80 86 81 79 82 80 83 84 84
REMARK SMILES IDX 87 85 81 86 82 87 85 88 83 89 62 90 63 91 71 92 64 93 65 94
REMARK SMILES IDX 69 95 72 96 66 97 67 98 70 99 68 100
REMARK H PARENT 92 53 60 64
REMARK Flexibility Score: inf
ROOT
ATOM      1  C   UNL     1       4.578  -1.832   2.897  1.00  0.00     0.188 C 
ENDROOT
BRANCH   1   2
ATOM      2  C   UNL     1       5.238  -0.450   2.691  1.00  0.00     0.188 C 
BRANCH   2   3
ATOM      3  O   UNL     1       5.665   0.214   3.863  1.00  0.00    -0.376 OA
BRANCH   3   4
ATOM      4  C   UNL     1       4.819   1.054   4.626  1.00  0.00     0.202 C 
BRANCH   4   5
ATOM      5  C   UNL     1       3.284   1.056   4.595  1.00  0.00     0.261 C 
BRANCH   5   6
ATOM      6  O   UNL     1       2.658   0.130   3.716  1.00  0.00    -0.459 OA
BRANCH   6   7
ATOM      7  C   UNL     1       2.358   0.606   2.491  1.00  0.00     0.345 C 
ATOM      8  O   UNL     1       2.613   1.726   2.077  1.00  0.00    -0.246 OA
BRANCH   7   9
ATOM      9  C   UNL     1       1.779  -0.474   1.659  1.00  0.00     0.138 A 
ATOM     10  C   UNL     1       0.738  -1.329   2.044  1.00  0.00     0.144 A 
ATOM     11  C   UNL     1       0.324  -2.342   1.157  1.00  0.00     0.048 A 
ATOM     12  C   UNL     1       0.860  -2.451  -0.125  1.00  0.00     0.007 A 
ATOM     13  C   UNL     1       2.296  -0.586   0.360  1.00  0.00     0.141 A 
ATOM     14  C   UNL     1       1.840  -1.555  -0.529  1.00  0.00     0.040 A 
ATOM     15  F   UNL     1       3.284   0.219  -0.059  1.00  0.00    -0.206 F 
BRANCH  10  16
ATOM     16  O   UNL     1      -0.010  -1.334   3.194  1.00  0.00    -0.456 OA
BRANCH  16  17
ATOM     17  C   UNL     1      -0.203  -0.225   3.982  1.00  0.00     0.130 A 
ATOM     18  C   UNL     1      -0.506   1.091   3.560  1.00  0.00    -0.002 A 
ATOM     19  C   UNL     1      -0.578   2.066   4.577  1.00  0.00     0.008 A 
ATOM     20  C   UNL     1      -0.442   1.746   5.935  1.00  0.00     0.001 A 
ATOM     21  C   UNL     1      -0.130  -0.549   5.352  1.00  0.00     0.047 A 
ATOM     22  C   UNL     1      -0.248   0.431   6.327  1.00  0.00     0.004 A 
BRANCH  18  23
ATOM     23  C   UNL     1      -0.691   1.493   2.091  1.00  0.00     0.019 C 
ATOM     24  C   UNL     1      -1.732   0.649   1.343  1.00  0.00     0.013 C 
BRANCH  23  25
ATOM     25  C   UNL     1      -0.809   3.002   1.784  1.00  0.00     0.005 C 
ATOM     26  C   UNL     1      -0.709   3.309   0.291  1.00  0.00     0.004 C 
ENDBRANCH  23  25
ENDBRANCH  18  23
ENDBRANCH  16  17
ENDBRANCH  10  16
ENDBRANCH   7   9
ENDBRANCH   6   7
ENDBRANCH   5   6
ENDBRANCH   4   5
ENDBRANCH   3   4
ENDBRANCH   2   3
ENDBRANCH   1   2
BRANCH   1  27
ATOM     27  O   UNL     1       4.030  -2.109   4.173  1.00  0.00    -0.377 OA
BRANCH  27  28
ATOM     28  C   UNL     1       4.898  -2.249   5.290  1.00  0.00     0.188 C 
BRANCH  28  29
ATOM     29  C   UNL     1       6.437  -2.145   5.162  1.00  0.00     0.188 C 
BRANCH  29  30
ATOM     30  O   UNL     1       6.962  -2.361   3.865  1.00  0.00    -0.376 OA
BRANCH  30  31
ATOM     31  C   UNL     1       7.526  -3.615   3.534  1.00  0.00     0.202 C 
BRANCH  31  32
ATOM     32  C   UNL     1       6.634  -4.863   3.622  1.00  0.00     0.261 C 
BRANCH  32  33
ATOM     33  O   UNL     1       5.945  -5.060   4.863  1.00  0.00    -0.460 OA
BRANCH  33  34
ATOM     34  C   UNL     1       6.705  -5.264   5.957  1.00  0.00     0.338 C 
ATOM     35  O   UNL     1       7.923  -5.337   6.010  1.00  0.00    -0.246 OA
BRANCH  34  36
ATOM     36  C   UNL     1       5.825  -5.192   7.138  1.00  0.00     0.060 A 
ATOM     37  C   UNL     1       6.075  -4.213   8.108  1.00  0.00     0.016 A 
ATOM     38  C   UNL     1       4.759  -6.083   7.284  1.00  0.00     0.016 A 
ATOM     39  C   UNL     1       5.291  -4.155   9.256  1.00  0.00     0.010 A 
ATOM     40  C   UNL     1       3.992  -6.045   8.450  1.00  0.00     0.010 A 
ATOM     41  C   UNL     1       4.289  -5.111   9.459  1.00  0.00    -0.014 A 
BRANCH  41  42
ATOM     42  C   UNL     1       3.747  -5.294  10.825  1.00  0.00     0.031 A 
ATOM     43  C   UNL     1       4.371  -6.355  11.689  1.00  0.00     0.074 A 
ATOM     44  C   UNL     1       2.771  -4.507  11.307  1.00  0.00     0.049 A 
ATOM     45  N   UNL     1       4.070  -6.724  12.907  1.00  0.00    -0.248 NA
ATOM     46  C   UNL     1       5.492  -7.102  11.094  1.00  0.00     0.031 C 
ATOM     47  C   UNL     1       2.131  -3.412  10.583  1.00  0.00     0.029 A 
ATOM     48  N   UNL     1       2.148  -4.517  12.529  1.00  0.00    -0.354 N 
ATOM     49  C   UNL     1       4.957  -7.747  13.218  1.00  0.00     0.074 A 
ATOM     50  C   UNL     1       5.783  -7.967  12.053  1.00  0.00     0.031 C 
ATOM     51  C   UNL     1       1.194  -2.860  11.373  1.00  0.00     0.029 A 
ATOM     52  C   UNL     1       1.148  -3.584  12.643  1.00  0.00     0.049 A 
ATOM     53  H   UNL     1       2.395  -5.134  13.255  1.00  0.00     0.167 HD
ATOM     54  C   UNL     1       5.078  -8.435  14.377  1.00  0.00     0.037 A 
ATOM     55  C   UNL     1       0.284  -3.362  13.653  1.00  0.00     0.037 A 
ATOM     56  C   UNL     1       4.250  -8.214  15.533  1.00  0.00     0.049 A 
ATOM     57  C   UNL     1       0.385  -4.200  14.905  1.00  0.00     0.074 A 
ATOM     58  C   UNL     1       4.293  -8.850  16.760  1.00  0.00     0.029 A 
ATOM     59  N   UNL     1       3.219  -7.287  15.597  1.00  0.00    -0.354 N 
ATOM     60  N   UNL     1       1.236  -5.152  15.203  1.00  0.00    -0.248 NA
ATOM     61  C   UNL     1      -0.594  -3.923  15.965  1.00  0.00     0.031 C 
ATOM     62  C   UNL     1       3.247  -8.354  17.544  1.00  0.00     0.029 A 
ATOM     63  C   UNL     1       2.599  -7.356  16.834  1.00  0.00     0.049 A 
ATOM     64  H   UNL     1       2.965  -6.673  14.871  1.00  0.00     0.167 HD
ATOM     65  C   UNL     1       0.920  -5.561  16.493  1.00  0.00     0.074 A 
ATOM     66  C   UNL     1      -0.193  -4.742  16.926  1.00  0.00     0.031 C 
ATOM     67  C   UNL     1       1.498  -6.525  17.253  1.00  0.00     0.037 A 
BRANCH  54  68
ATOM     68  C   UNL     1       6.118  -9.516  14.436  1.00  0.00     0.064 A 
ATOM     69  C   UNL     1       7.492  -9.226  14.431  1.00  0.00     0.173 A 
ATOM     70  C   UNL     1       5.734 -10.863  14.519  1.00  0.00     0.173 A 
ATOM     71  F   UNL     1       7.914  -7.957  14.333  1.00  0.00    -0.203 F 
ATOM     72  C   UNL     1       8.439 -10.246  14.478  1.00  0.00     0.198 A 
ATOM     73  C   UNL     1       6.683 -11.877  14.602  1.00  0.00     0.198 A 
ATOM     74  F   UNL     1       4.434 -11.196  14.527  1.00  0.00    -0.203 F 
ATOM     75  F   UNL     1       9.745  -9.949  14.415  1.00  0.00    -0.200 F 
ATOM     76  C   UNL     1       8.034 -11.569  14.572  1.00  0.00     0.200 A 
ATOM     77  F   UNL     1       6.289 -13.154  14.706  1.00  0.00    -0.200 F 
ATOM     78  F   UNL     1       8.947 -12.549  14.626  1.00  0.00    -0.200 F 
ENDBRANCH  54  68
BRANCH  55  79
ATOM     79  C   UNL     1      -0.762  -2.313  13.524  1.00  0.00     0.064 A 
ATOM     80  C   UNL     1      -0.754  -1.174  14.341  1.00  0.00     0.173 A 
ATOM     81  C   UNL     1      -1.811  -2.444  12.601  1.00  0.00     0.173 A 
ATOM     82  F   UNL     1       0.213  -1.014  15.256  1.00  0.00    -0.203 F 
ATOM     83  C   UNL     1      -1.767  -0.220  14.258  1.00  0.00     0.198 A 
ATOM     84  C   UNL     1      -2.805  -1.473  12.496  1.00  0.00     0.198 A 
ATOM     85  F   UNL     1      -1.869  -3.515  11.796  1.00  0.00    -0.203 F 
ATOM     86  F   UNL     1      -1.764   0.830  15.091  1.00  0.00    -0.200 F 
ATOM     87  C   UNL     1      -2.788  -0.367  13.331  1.00  0.00     0.200 A 
ATOM     88  F   UNL     1      -3.782  -1.613  11.589  1.00  0.00    -0.200 F 
ATOM     89  F   UNL     1      -3.760   0.551  13.251  1.00  0.00    -0.200 F 
ENDBRANCH  55  79
BRANCH  67  90
ATOM     90  C   UNL     1       0.976  -6.711  18.651  1.00  0.00     0.064 A 
ATOM     91  C   UNL     1      -0.299  -7.237  18.905  1.00  0.00     0.173 A 
ATOM     92  C   UNL     1       1.781  -6.388  19.755  1.00  0.00     0.173 A 
ATOM     93  F   UNL     1      -1.114  -7.554  17.887  1.00  0.00    -0.203 F 
ATOM     94  C   UNL     1      -0.763  -7.396  20.209  1.00  0.00     0.198 A 
ATOM     95  C   UNL     1       1.330  -6.584  21.057  1.00  0.00     0.198 A 
ATOM     96  F   UNL     1       3.015  -5.892  19.571  1.00  0.00    -0.203 F 
ATOM     97  F   UNL     1      -2.008  -7.841  20.425  1.00  0.00    -0.200 F 
ATOM     98  C   UNL     1       0.054  -7.076  21.283  1.00  0.00     0.200 A 
ATOM     99  F   UNL     1       2.129  -6.293  22.093  1.00  0.00    -0.200 F 
ATOM    100  F   UNL     1      -0.392  -7.234  22.537  1.00  0.00    -0.200 F 
ENDBRANCH  67  90
ENDBRANCH  41  42
ENDBRANCH  34  36
ENDBRANCH  33  34
ENDBRANCH  32  33
ENDBRANCH  31  32
ENDBRANCH  30  31
ENDBRANCH  29  30
ENDBRANCH  28  29
ENDBRANCH  27  28
ENDBRANCH   1  27
TORSDOF 24
