REMARK SMILES Cc1nc(CCc2ccc(S(=O)(=O)N3CCCC3)cc2)ncc1C(=O)OCCOCCOCCOCCOC(=O)c1ccc(-c2c3nc(c(-c4c(F)c(F)c(F)c(F)c4F)c4ccc([nH]4)c(-c4c(F)c(F)c(F)c(F)c4F)c4nc(c(-c5c(F)c(F)c(F)c(F)c5F)c5ccc2[nH]5)C=C4)C=C3)cc1
REMARK SMILES IDX 30 1 29 2 28 3 27 4 26 5 24 6 25 7 23 8 1 9 2 10 3 11 4 12
REMARK SMILES IDX 22 13 21 14 5 15 6 16 7 17 8 18 20 19 9 20 19 21 10 22 11 23
REMARK SMILES IDX 12 24 13 25 14 26 15 27 18 28 16 29 17 30 31 31 32 32 33 33
REMARK SMILES IDX 34 34 35 35 36 36 37 37 38 38 39 39 40 40 41 41 42 42 103 43
REMARK SMILES IDX 43 44 102 45 44 46 45 47 46 48 96 49 47 50 101 51 95 52
REMARK SMILES IDX 97 53 48 54 100 55 94 56 93 57 49 59 81 60 61 61 80 62 62 63
REMARK SMILES IDX 65 64 79 65 98 66 63 67 64 68 78 70 99 71 66 72 50 73 51 74
REMARK SMILES IDX 59 75 52 76 53 77 57 78 60 79 54 80 55 81 58 82 56 83 82 84
REMARK SMILES IDX 83 85 91 86 84 87 85 88 89 89 92 90 86 91 87 92 90 93 88 94
REMARK SMILES IDX 67 95 68 96 76 97 69 98 70 99 74 100 77 101 71 102 72 103
REMARK SMILES IDX 75 104 73 105
REMARK H PARENT 97 58 65 69
REMARK Flexibility Score: inf
ROOT
ATOM      1  C   UNL     1      -0.122  -3.887  -1.365  1.00  0.00     0.188 C 
ENDROOT
BRANCH   1   2
ATOM      2  O   UNL     1      -0.983  -4.988  -1.127  1.00  0.00    -0.376 OA
BRANCH   2   3
ATOM      3  C   UNL     1      -1.548  -5.202   0.151  1.00  0.00     0.202 C 
BRANCH   3   4
ATOM      4  C   UNL     1      -2.151  -4.049   0.959  1.00  0.00     0.261 C 
BRANCH   4   5
ATOM      5  O   UNL     1      -1.476  -2.793   0.864  1.00  0.00    -0.460 OA
BRANCH   5   6
ATOM      6  C   UNL     1      -0.349  -2.575   1.570  1.00  0.00     0.341 C 
ATOM      7  O   UNL     1       0.232  -3.379   2.279  1.00  0.00    -0.246 OA
BRANCH   6   8
ATOM      8  C   UNL     1       0.159  -1.240   1.203  1.00  0.00     0.099 A 
ATOM      9  C   UNL     1      -2.127  -0.168   1.004  1.00  0.00     0.068 C 
ATOM     10  C   UNL     1      -0.640  -0.135   0.995  1.00  0.00     0.056 A 
ATOM     11  N   UNL     1      -0.139   1.057   0.607  1.00  0.00    -0.237 NA
ATOM     12  C   UNL     1       1.168   1.151   0.342  1.00  0.00     0.128 A 
ATOM     13  C   UNL     1       1.500  -1.046   0.943  1.00  0.00     0.130 A 
ATOM     14  N   UNL     1       2.028   0.125   0.493  1.00  0.00    -0.240 NA
BRANCH  12  15
ATOM     15  C   UNL     1       1.666   2.506  -0.089  1.00  0.00     0.082 C 
BRANCH  15  16
ATOM     16  C   UNL     1       1.069   3.045  -1.406  1.00  0.00     0.043 C 
BRANCH  16  17
ATOM     17  C   UNL     1      -0.427   3.310  -1.432  1.00  0.00    -0.047 A 
ATOM     18  C   UNL     1      -0.961   4.524  -0.982  1.00  0.00     0.005 A 
ATOM     19  C   UNL     1      -1.313   2.329  -1.909  1.00  0.00     0.005 A 
ATOM     20  C   UNL     1      -2.347   4.736  -0.979  1.00  0.00     0.022 A 
ATOM     21  C   UNL     1      -2.700   2.534  -1.904  1.00  0.00     0.022 A 
ATOM     22  C   UNL     1      -3.221   3.734  -1.426  1.00  0.00     0.082 A 
BRANCH  22  23
ATOM     23  S   UNL     1      -4.982   4.051  -1.366  1.00  0.00     0.243 S 
ATOM     24  O   UNL     1      -5.183   5.034  -0.320  1.00  0.00    -0.207 OA
ATOM     25  O   UNL     1      -5.409   4.301  -2.726  1.00  0.00    -0.207 OA
BRANCH  23  26
ATOM     26  N   UNL     1      -5.735   2.647  -0.835  1.00  0.00    -0.198 NA
ATOM     27  C   UNL     1      -5.422   2.075   0.480  1.00  0.00     0.102 C 
ATOM     28  C   UNL     1      -6.150   1.589  -1.776  1.00  0.00     0.102 C 
ATOM     29  C   UNL     1      -5.176   0.613   0.157  1.00  0.00     0.018 C 
ATOM     30  C   UNL     1      -6.169   0.310  -0.942  1.00  0.00     0.018 C 
ENDBRANCH  23  26
ENDBRANCH  22  23
ENDBRANCH  16  17
ENDBRANCH  15  16
ENDBRANCH  12  15
ENDBRANCH   6   8
ENDBRANCH   5   6
ENDBRANCH   4   5
ENDBRANCH   3   4
ENDBRANCH   2   3
ENDBRANCH   1   2
BRANCH   1  31
ATOM     31  C   UNL     1      -0.838  -2.692  -2.033  1.00  0.00     0.188 C 
BRANCH  31  32
ATOM     32  O   UNL     1      -2.258  -2.748  -2.006  1.00  0.00    -0.377 OA
BRANCH  32  33
ATOM     33  C   UNL     1      -2.930  -3.726  -2.806  1.00  0.00     0.188 C 
BRANCH  33  34
ATOM     34  C   UNL     1      -2.189  -4.842  -3.590  1.00  0.00     0.188 C 
BRANCH  34  35
ATOM     35  O   UNL     1      -0.859  -4.519  -3.956  1.00  0.00    -0.376 OA
BRANCH  35  36
ATOM     36  C   UNL     1      -0.550  -4.312  -5.319  1.00  0.00     0.202 C 
BRANCH  36  37
ATOM     37  C   UNL     1      -1.156  -3.057  -5.955  1.00  0.00     0.261 C 
BRANCH  37  38
ATOM     38  O   UNL     1      -2.579  -2.925  -5.824  1.00  0.00    -0.460 OA
BRANCH  38  39
ATOM     39  C   UNL     1      -3.335  -3.834  -6.479  1.00  0.00     0.338 C 
ATOM     40  O   UNL     1      -2.950  -4.757  -7.171  1.00  0.00    -0.246 OA
BRANCH  39  41
ATOM     41  C   UNL     1      -4.734  -3.623  -6.061  1.00  0.00     0.060 A 
ATOM     42  C   UNL     1      -5.420  -4.664  -5.422  1.00  0.00     0.016 A 
ATOM     43  C   UNL     1      -5.359  -2.398  -6.299  1.00  0.00     0.016 A 
ATOM     44  C   UNL     1      -6.753  -4.491  -5.049  1.00  0.00     0.010 A 
ATOM     45  C   UNL     1      -6.699  -2.232  -5.943  1.00  0.00     0.010 A 
ATOM     46  C   UNL     1      -7.410  -3.290  -5.348  1.00  0.00    -0.014 A 
BRANCH  46  47
ATOM     47  C   UNL     1      -8.884  -3.204  -5.223  1.00  0.00     0.031 A 
ATOM     48  C   UNL     1      -9.714  -3.404  -6.461  1.00  0.00     0.074 A 
ATOM     49  C   UNL     1      -9.473  -2.964  -4.039  1.00  0.00     0.049 A 
ATOM     50  N   UNL     1     -11.009  -3.312  -6.620  1.00  0.00    -0.248 NA
ATOM     51  C   UNL     1      -8.980  -3.751  -7.689  1.00  0.00     0.031 C 
ATOM     52  C   UNL     1      -8.778  -2.801  -2.765  1.00  0.00     0.029 A 
ATOM     53  N   UNL     1     -10.800  -2.808  -3.724  1.00  0.00    -0.354 N 
ATOM     54  C   UNL     1     -11.242  -3.578  -7.963  1.00  0.00     0.074 A 
ATOM     55  C   UNL     1      -9.955  -3.806  -8.583  1.00  0.00     0.031 C 
ATOM     56  C   UNL     1      -9.686  -2.554  -1.804  1.00  0.00     0.029 A 
ATOM     57  C   UNL     1     -11.019  -2.504  -2.403  1.00  0.00     0.049 A 
ATOM     58  H   UNL     1     -11.526  -2.904  -4.382  1.00  0.00     0.167 HD
ATOM     59  C   UNL     1     -12.425  -3.632  -8.619  1.00  0.00     0.037 A 
ATOM     60  C   UNL     1     -12.165  -2.196  -1.763  1.00  0.00     0.037 A 
ATOM     61  C   UNL     1     -13.702  -3.405  -7.998  1.00  0.00     0.049 A 
ATOM     62  C   UNL     1     -13.462  -2.184  -2.537  1.00  0.00     0.074 A 
ATOM     63  C   UNL     1     -14.961  -3.460  -8.570  1.00  0.00     0.029 A 
ATOM     64  N   UNL     1     -13.882  -3.067  -6.665  1.00  0.00    -0.354 N 
ATOM     65  N   UNL     1     -13.680  -2.469  -3.799  1.00  0.00    -0.248 NA
ATOM     66  C   UNL     1     -14.673  -1.808  -1.794  1.00  0.00     0.031 C 
ATOM     67  C   UNL     1     -15.897  -3.092  -7.600  1.00  0.00     0.029 A 
ATOM     68  C   UNL     1     -15.230  -2.879  -6.404  1.00  0.00     0.049 A 
ATOM     69  H   UNL     1     -13.160  -2.975  -6.003  1.00  0.00     0.167 HD
ATOM     70  C   UNL     1     -15.052  -2.345  -3.989  1.00  0.00     0.074 A 
ATOM     71  C   UNL     1     -15.617  -1.972  -2.710  1.00  0.00     0.031 C 
ATOM     72  C   UNL     1     -15.779  -2.525  -5.120  1.00  0.00     0.037 A 
BRANCH  59  73
ATOM     73  C   UNL     1     -12.393  -3.917 -10.093  1.00  0.00     0.064 A 
ATOM     74  C   UNL     1     -12.045  -5.180 -10.597  1.00  0.00     0.173 A 
ATOM     75  C   UNL     1     -12.757  -2.922 -11.013  1.00  0.00     0.173 A 
ATOM     76  F   UNL     1     -11.673  -6.162  -9.762  1.00  0.00    -0.203 F 
ATOM     77  C   UNL     1     -12.043  -5.428 -11.967  1.00  0.00     0.198 A 
ATOM     78  C   UNL     1     -12.785  -3.183 -12.380  1.00  0.00     0.198 A 
ATOM     79  F   UNL     1     -13.099  -1.698 -10.584  1.00  0.00    -0.203 F 
ATOM     80  F   UNL     1     -11.663  -6.627 -12.429  1.00  0.00    -0.200 F 
ATOM     81  C   UNL     1     -12.421  -4.433 -12.856  1.00  0.00     0.200 A 
ATOM     82  F   UNL     1     -13.165  -2.224 -13.235  1.00  0.00    -0.200 F 
ATOM     83  F   UNL     1     -12.431  -4.677 -14.174  1.00  0.00    -0.200 F 
ENDBRANCH  59  73
BRANCH  60  84
ATOM     84  C   UNL     1     -12.149  -1.855  -0.315  1.00  0.00     0.064 A 
ATOM     85  C   UNL     1     -12.793  -2.669   0.628  1.00  0.00     0.173 A 
ATOM     86  C   UNL     1     -11.525  -0.689   0.153  1.00  0.00     0.173 A 
ATOM     87  F   UNL     1     -13.423  -3.784   0.230  1.00  0.00    -0.203 F 
ATOM     88  C   UNL     1     -12.841  -2.315   1.975  1.00  0.00     0.198 A 
ATOM     89  C   UNL     1     -11.543  -0.353   1.506  1.00  0.00     0.198 A 
ATOM     90  F   UNL     1     -10.889   0.124  -0.703  1.00  0.00    -0.203 F 
ATOM     91  F   UNL     1     -13.514  -3.082   2.843  1.00  0.00    -0.200 F 
ATOM     92  C   UNL     1     -12.212  -1.160   2.413  1.00  0.00     0.200 A 
ATOM     93  F   UNL     1     -10.917   0.753   1.927  1.00  0.00    -0.200 F 
ATOM     94  F   UNL     1     -12.257  -0.821   3.709  1.00  0.00    -0.200 F 
ENDBRANCH  60  84
BRANCH  72  95
ATOM     95  C   UNL     1     -17.272  -2.376  -5.019  1.00  0.00     0.064 A 
ATOM     96  C   UNL     1     -17.883  -1.131  -4.811  1.00  0.00     0.173 A 
ATOM     97  C   UNL     1     -18.105  -3.495  -5.179  1.00  0.00     0.173 A 
ATOM     98  F   UNL     1     -17.133  -0.032  -4.640  1.00  0.00    -0.203 F 
ATOM     99  C   UNL     1     -19.269  -1.016  -4.737  1.00  0.00     0.198 A 
ATOM    100  C   UNL     1     -19.491  -3.371  -5.141  1.00  0.00     0.198 A 
ATOM    101  F   UNL     1     -17.575  -4.710  -5.390  1.00  0.00    -0.203 F 
ATOM    102  F   UNL     1     -19.828   0.175  -4.483  1.00  0.00    -0.200 F 
ATOM    103  C   UNL     1     -20.071  -2.134  -4.911  1.00  0.00     0.200 A 
ATOM    104  F   UNL     1     -20.264  -4.450  -5.329  1.00  0.00    -0.200 F 
ATOM    105  F   UNL     1     -21.405  -2.020  -4.849  1.00  0.00    -0.200 F 
ENDBRANCH  72  95
ENDBRANCH  46  47
ENDBRANCH  39  41
ENDBRANCH  38  39
ENDBRANCH  37  38
ENDBRANCH  36  37
ENDBRANCH  35  36
ENDBRANCH  34  35
ENDBRANCH  33  34
ENDBRANCH  32  33
ENDBRANCH  31  32
ENDBRANCH   1  31
TORSDOF 25
