REMARK SMILES Cc1c(NC(=O)c2cccc(-c3cc4ccccc4oc3=O)c2)cccc1C(=O)OCCOCCOCCOCCOC(=O)c1ccc(-c2c3nc(c(-c4c(F)c(F)c(F)c(F)c4F)c4ccc([nH]4)c(-c4c(F)c(F)c(F)c(F)c4F)c4nc(c(-c5c(F)c(F)c(F)c(F)c5F)c5ccc2[nH]5)C=C4)C=C3)cc1
REMARK SMILES IDX 35 1 34 2 33 3 32 4 31 5 30 6 28 7 29 8 27 9 1 10 2 11 3 12
REMARK SMILES IDX 24 13 26 14 25 15 4 16 5 17 6 19 7 20 8 21 23 22 9 23 11 24
REMARK SMILES IDX 10 25 12 26 13 27 21 28 14 29 20 30 22 31 15 32 19 33 16 34
REMARK SMILES IDX 18 35 17 36 36 37 37 38 38 39 39 40 40 41 41 42 42 43 43 44
REMARK SMILES IDX 44 45 45 46 46 47 107 48 47 49 106 50 48 51 49 52 50 53
REMARK SMILES IDX 100 54 51 55 105 56 99 57 101 58 52 59 104 60 98 61 97 62
REMARK SMILES IDX 53 64 85 65 65 66 84 67 66 68 69 69 83 70 102 71 67 72 68 73
REMARK SMILES IDX 82 75 103 76 70 77 54 78 55 79 63 80 56 81 57 82 61 83 64 84
REMARK SMILES IDX 58 85 59 86 62 87 60 88 86 89 87 90 95 91 88 92 89 93 93 94
REMARK SMILES IDX 96 95 90 96 91 97 94 98 92 99 71 100 72 101 80 102 73 103
REMARK SMILES IDX 74 104 78 105 81 106 75 107 76 108 79 109 77 110
REMARK H PARENT 4 18 101 63 69 74
REMARK Flexibility Score: inf
ROOT
ATOM      1  C   UNL     1      -0.157   2.488  -3.041  1.00  0.00     0.188 C 
ENDROOT
BRANCH   1   2
ATOM      2  C   UNL     1      -1.215   2.768  -1.983  1.00  0.00     0.188 C 
BRANCH   2   3
ATOM      3  O   UNL     1      -1.115   4.111  -1.505  1.00  0.00    -0.376 OA
BRANCH   3   4
ATOM      4  C   UNL     1      -0.011   4.303  -0.627  1.00  0.00     0.202 C 
BRANCH   4   5
ATOM      5  C   UNL     1      -0.317   3.779   0.763  1.00  0.00     0.261 C 
BRANCH   5   6
ATOM      6  O   UNL     1      -0.265   2.345   0.842  1.00  0.00    -0.460 OA
BRANCH   6   7
ATOM      7  C   UNL     1      -1.131   1.839   1.756  1.00  0.00     0.338 C 
ATOM      8  O   UNL     1      -1.813   2.463   2.531  1.00  0.00    -0.246 OA
BRANCH   7   9
ATOM      9  C   UNL     1      -1.423   0.416   1.458  1.00  0.00     0.065 A 
ATOM     10  C   UNL     1       0.959  -0.446   1.669  1.00  0.00     0.047 C 
ATOM     11  C   UNL     1      -0.511  -0.668   1.418  1.00  0.00    -0.013 A 
ATOM     12  C   UNL     1      -1.031  -1.958   1.124  1.00  0.00     0.045 A 
ATOM     13  C   UNL     1      -2.417  -2.119   0.971  1.00  0.00     0.026 A 
ATOM     14  C   UNL     1      -2.788   0.228   1.195  1.00  0.00     0.016 A 
ATOM     15  C   UNL     1      -3.286  -1.037   0.962  1.00  0.00     0.003 A 
BRANCH  12  16
ATOM     16  N   UNL     1      -0.173  -3.079   0.989  1.00  0.00    -0.322 N 
ATOM     17  C   UNL     1      -0.357  -4.316   0.379  1.00  0.00     0.255 C 
ATOM     18  H   UNL     1       0.713  -2.961   1.401  1.00  0.00     0.170 HD
ATOM     19  O   UNL     1       0.444  -5.223   0.605  1.00  0.00    -0.269 OA
BRANCH  17  20
ATOM     20  C   UNL     1      -1.422  -4.563  -0.637  1.00  0.00     0.040 A 
ATOM     21  C   UNL     1      -2.118  -5.764  -0.694  1.00  0.00     0.014 A 
ATOM     22  C   UNL     1      -1.675  -3.608  -1.621  1.00  0.00     0.022 A 
ATOM     23  C   UNL     1      -3.107  -5.944  -1.671  1.00  0.00     0.001 A 
ATOM     24  C   UNL     1      -2.656  -3.756  -2.619  1.00  0.00    -0.010 A 
ATOM     25  C   UNL     1      -3.384  -4.944  -2.616  1.00  0.00     0.009 A 
BRANCH  24  26
ATOM     26  C   UNL     1      -2.910  -2.752  -3.703  1.00  0.00     0.068 A 
ATOM     27  C   UNL     1      -2.803  -1.414  -3.529  1.00  0.00     0.028 A 
ATOM     28  C   UNL     1      -2.272  -3.054  -5.035  1.00  0.00     0.344 A 
ATOM     29  C   UNL     1      -1.383  -1.094  -3.304  1.00  0.00     0.018 A 
ATOM     30  O   UNL     1      -0.936  -2.618  -5.130  1.00  0.00    -0.422 OA
ATOM     31  O   UNL     1      -2.860  -3.629  -5.939  1.00  0.00    -0.246 OA
ATOM     32  C   UNL     1      -0.965  -0.425  -2.171  1.00  0.00     0.012 A 
ATOM     33  C   UNL     1      -0.450  -1.786  -4.094  1.00  0.00     0.138 A 
ATOM     34  C   UNL     1       0.389  -0.461  -1.831  1.00  0.00     0.001 A 
ATOM     35  C   UNL     1       0.900  -1.813  -3.768  1.00  0.00     0.048 A 
ATOM     36  C   UNL     1       1.317  -1.151  -2.615  1.00  0.00     0.004 A 
ENDBRANCH  24  26
ENDBRANCH  17  20
ENDBRANCH  12  16
ENDBRANCH   7   9
ENDBRANCH   6   7
ENDBRANCH   5   6
ENDBRANCH   4   5
ENDBRANCH   3   4
ENDBRANCH   2   3
ENDBRANCH   1   2
BRANCH   1  37
ATOM     37  O   UNL     1       1.099   2.126  -2.475  1.00  0.00    -0.377 OA
BRANCH  37  38
ATOM     38  C   UNL     1       2.280   2.412  -3.220  1.00  0.00     0.188 C 
BRANCH  38  39
ATOM     39  C   UNL     1       2.152   2.701  -4.708  1.00  0.00     0.188 C 
BRANCH  39  40
ATOM     40  O   UNL     1       1.456   3.935  -4.804  1.00  0.00    -0.376 OA
BRANCH  40  41
ATOM     41  C   UNL     1       0.615   4.106  -5.933  1.00  0.00     0.202 C 
BRANCH  41  42
ATOM     42  C   UNL     1       1.467   4.492  -7.129  1.00  0.00     0.261 C 
BRANCH  42  43
ATOM     43  O   UNL     1       2.110   5.751  -6.814  1.00  0.00    -0.460 OA
BRANCH  43  44
ATOM     44  C   UNL     1       3.403   5.642  -6.401  1.00  0.00     0.338 C 
ATOM     45  O   UNL     1       4.281   5.068  -7.026  1.00  0.00    -0.246 OA
BRANCH  44  46
ATOM     46  C   UNL     1       3.564   6.089  -4.979  1.00  0.00     0.060 A 
ATOM     47  C   UNL     1       4.771   5.834  -4.305  1.00  0.00     0.016 A 
ATOM     48  C   UNL     1       2.442   6.450  -4.239  1.00  0.00     0.016 A 
ATOM     49  C   UNL     1       4.810   5.782  -2.899  1.00  0.00     0.010 A 
ATOM     50  C   UNL     1       2.458   6.264  -2.864  1.00  0.00     0.010 A 
ATOM     51  C   UNL     1       3.626   5.900  -2.170  1.00  0.00    -0.014 A 
BRANCH  51  52
ATOM     52  C   UNL     1       3.431   5.472  -0.760  1.00  0.00     0.031 A 
ATOM     53  C   UNL     1       2.591   6.325   0.159  1.00  0.00     0.074 A 
ATOM     54  C   UNL     1       3.697   4.176  -0.444  1.00  0.00     0.049 A 
ATOM     55  N   UNL     1       2.172   5.979   1.331  1.00  0.00    -0.248 NA
ATOM     56  C   UNL     1       2.123   7.669  -0.192  1.00  0.00     0.031 C 
ATOM     57  C   UNL     1       3.004   3.344   0.539  1.00  0.00     0.029 A 
ATOM     58  N   UNL     1       4.614   3.278  -0.998  1.00  0.00    -0.354 N 
ATOM     59  C   UNL     1       1.194   6.869   1.751  1.00  0.00     0.074 A 
ATOM     60  C   UNL     1       1.250   7.937   0.788  1.00  0.00     0.031 C 
ATOM     61  C   UNL     1       3.515   2.108   0.574  1.00  0.00     0.029 A 
ATOM     62  C   UNL     1       4.750   2.168  -0.148  1.00  0.00     0.049 A 
ATOM     63  H   UNL     1       5.090   3.404  -1.851  1.00  0.00     0.167 HD
ATOM     64  C   UNL     1       0.386   6.532   2.807  1.00  0.00     0.037 A 
ATOM     65  C   UNL     1       5.930   1.929   0.496  1.00  0.00     0.037 A 
ATOM     66  C   UNL     1       0.913   5.351   3.521  1.00  0.00     0.049 A 
ATOM     67  C   UNL     1       5.826   2.264   1.982  1.00  0.00     0.074 A 
ATOM     68  C   UNL     1       0.379   4.154   3.966  1.00  0.00     0.029 A 
ATOM     69  N   UNL     1       2.289   5.241   3.736  1.00  0.00    -0.354 N 
ATOM     70  N   UNL     1       5.008   3.186   2.450  1.00  0.00    -0.248 NA
ATOM     71  C   UNL     1       6.412   1.460   3.055  1.00  0.00     0.031 C 
ATOM     72  C   UNL     1       1.458   3.257   4.225  1.00  0.00     0.029 A 
ATOM     73  C   UNL     1       2.646   3.966   4.113  1.00  0.00     0.049 A 
ATOM     74  H   UNL     1       2.926   5.984   3.632  1.00  0.00     0.167 HD
ATOM     75  C   UNL     1       4.881   3.042   3.806  1.00  0.00     0.074 A 
ATOM     76  C   UNL     1       5.807   1.974   4.143  1.00  0.00     0.031 C 
ATOM     77  C   UNL     1       3.985   3.698   4.604  1.00  0.00     0.037 A 
BRANCH  64  78
ATOM     78  C   UNL     1      -0.993   7.136   3.127  1.00  0.00     0.064 A 
ATOM     79  C   UNL     1      -1.677   6.788   4.320  1.00  0.00     0.173 A 
ATOM     80  C   UNL     1      -1.752   7.955   2.260  1.00  0.00     0.173 A 
ATOM     81  F   UNL     1      -1.085   6.047   5.267  1.00  0.00    -0.203 F 
ATOM     82  C   UNL     1      -2.994   7.188   4.598  1.00  0.00     0.198 A 
ATOM     83  C   UNL     1      -3.046   8.411   2.571  1.00  0.00     0.198 A 
ATOM     84  F   UNL     1      -1.303   8.314   1.053  1.00  0.00    -0.203 F 
ATOM     85  F   UNL     1      -3.600   6.764   5.718  1.00  0.00    -0.200 F 
ATOM     86  C   UNL     1      -3.675   8.012   3.730  1.00  0.00     0.200 A 
ATOM     87  F   UNL     1      -3.686   9.229   1.720  1.00  0.00    -0.200 F 
ATOM     88  F   UNL     1      -4.924   8.416   4.004  1.00  0.00    -0.200 F 
ENDBRANCH  64  78
BRANCH  65  89
ATOM     89  C   UNL     1       7.040   1.824  -0.507  1.00  0.00     0.064 A 
ATOM     90  C   UNL     1       6.834   0.725  -1.382  1.00  0.00     0.173 A 
ATOM     91  C   UNL     1       7.546   3.001  -1.090  1.00  0.00     0.173 A 
ATOM     92  F   UNL     1       6.388  -0.439  -0.882  1.00  0.00    -0.203 F 
ATOM     93  C   UNL     1       6.765   0.912  -2.764  1.00  0.00     0.198 A 
ATOM     94  C   UNL     1       7.530   3.164  -2.485  1.00  0.00     0.198 A 
ATOM     95  F   UNL     1       7.816   4.068  -0.325  1.00  0.00    -0.203 F 
ATOM     96  F   UNL     1       6.247  -0.052  -3.541  1.00  0.00    -0.200 F 
ATOM     97  C   UNL     1       7.059   2.149  -3.308  1.00  0.00     0.200 A 
ATOM     98  F   UNL     1       7.809   4.361  -3.022  1.00  0.00    -0.200 F 
ATOM     99  F   UNL     1       6.794   2.393  -4.600  1.00  0.00    -0.200 F 
ENDBRANCH  65  89
BRANCH  77 100
ATOM    100  C   UNL     1       4.312   4.176   6.005  1.00  0.00     0.064 A 
ATOM    101  C   UNL     1       5.630   4.291   6.471  1.00  0.00     0.173 A 
ATOM    102  C   UNL     1       3.322   4.777   6.830  1.00  0.00     0.173 A 
ATOM    103  F   UNL     1       6.670   3.865   5.742  1.00  0.00    -0.203 F 
ATOM    104  C   UNL     1       5.932   4.913   7.682  1.00  0.00     0.198 A 
ATOM    105  C   UNL     1       3.635   5.447   8.008  1.00  0.00     0.198 A 
ATOM    106  F   UNL     1       2.022   4.783   6.504  1.00  0.00    -0.203 F 
ATOM    107  F   UNL     1       7.207   4.971   8.089  1.00  0.00    -0.200 F 
ATOM    108  C   UNL     1       4.940   5.503   8.442  1.00  0.00     0.200 A 
ATOM    109  F   UNL     1       2.667   6.066   8.699  1.00  0.00    -0.200 F 
ATOM    110  F   UNL     1       5.245   6.141   9.578  1.00  0.00    -0.200 F 
ENDBRANCH  77 100
ENDBRANCH  51  52
ENDBRANCH  44  46
ENDBRANCH  43  44
ENDBRANCH  42  43
ENDBRANCH  41  42
ENDBRANCH  40  41
ENDBRANCH  39  40
ENDBRANCH  38  39
ENDBRANCH  37  38
ENDBRANCH   1  37
TORSDOF 23
