REMARK SMILES CSCC[C@@H](NS(=O)(=O)c1ccc(F)c(C)c1)C(=O)OCCOCCOCCOCCOC(=O)c1ccc(-c2c3nc(c(-c4c(F)c(F)c(F)c(F)c4F)c4ccc([nH]4)c(-c4c(F)c(F)c(F)c(F)c4F)c4nc(c(-c5c(F)c(F)c(F)c(F)c5F)c5ccc2[nH]5)C=C4)C=C3)cc1
REMARK SMILES IDX 25 1 24 2 23 3 22 4 21 5 20 6 18 7 19 8 5 9 4 10 3 11 2 12
REMARK SMILES IDX 1 13 6 14 7 16 8 17 9 18 10 19 11 20 17 21 12 22 15 23 13 24
REMARK SMILES IDX 16 25 14 26 26 27 27 28 28 29 29 30 30 31 31 32 32 33 33 34
REMARK SMILES IDX 34 35 35 36 36 37 97 38 37 39 96 40 38 41 39 42 40 43 90 44
REMARK SMILES IDX 41 45 95 46 89 47 91 48 42 49 94 50 88 51 87 52 43 54 75 55
REMARK SMILES IDX 55 56 74 57 56 58 59 59 73 60 92 61 57 62 58 63 72 65 93 66
REMARK SMILES IDX 60 67 44 68 45 69 53 70 46 71 47 72 51 73 54 74 48 75 49 76
REMARK SMILES IDX 52 77 50 78 76 79 77 80 85 81 78 82 79 83 83 84 86 85 80 86
REMARK SMILES IDX 81 87 84 88 82 89 61 90 62 91 70 92 63 93 64 94 68 95 71 96
REMARK SMILES IDX 65 97 66 98 69 99 67 100
REMARK H PARENT 6 15 91 53 59 64
REMARK Flexibility Score: inf
ROOT
ATOM      1  C   UNL     1      -1.607   3.257   1.817  1.00  0.00     0.188 C 
ENDROOT
BRANCH   1   2
ATOM      2  C   UNL     1      -1.715   2.589   3.193  1.00  0.00     0.188 C 
BRANCH   2   3
ATOM      3  O   UNL     1      -1.714   3.481   4.283  1.00  0.00    -0.376 OA
BRANCH   3   4
ATOM      4  C   UNL     1      -0.538   3.968   4.887  1.00  0.00     0.202 C 
BRANCH   4   5
ATOM      5  C   UNL     1       0.743   4.450   4.173  1.00  0.00     0.261 C 
BRANCH   5   6
ATOM      6  O   UNL     1       1.118   4.047   2.858  1.00  0.00    -0.462 OA
BRANCH   6   7
ATOM      7  C   UNL     1       1.390   2.739   2.681  1.00  0.00     0.324 C 
ATOM      8  O   UNL     1       1.137   1.868   3.503  1.00  0.00    -0.250 OA
BRANCH   7   9
ATOM      9  C   UNL     1       2.194   2.457   1.422  1.00  0.00     0.180 C 
BRANCH   9  10
ATOM     10  C   UNL     1       1.820   3.310   0.200  1.00  0.00     0.043 C 
BRANCH  10  11
ATOM     11  C   UNL     1       1.832   2.524  -1.121  1.00  0.00     0.071 C 
BRANCH  11  12
ATOM     12  S   UNL     1       0.420   1.379  -1.349  1.00  0.00    -0.165 SA
ATOM     13  C   UNL     1       1.056  -0.134  -0.569  1.00  0.00     0.085 C 
ENDBRANCH  11  12
ENDBRANCH  10  11
ENDBRANCH   9  10
BRANCH   9  14
ATOM     14  N   UNL     1       3.647   2.570   1.718  1.00  0.00    -0.197 NA
ATOM     15  H   UNL     1       3.816   3.517   2.057  1.00  0.00     0.142 HD
BRANCH  14  16
ATOM     16  S   UNL     1       4.307   1.498   2.857  1.00  0.00     0.241 S 
ATOM     17  O   UNL     1       3.593   0.249   2.738  1.00  0.00    -0.207 OA
ATOM     18  O   UNL     1       5.739   1.570   2.659  1.00  0.00    -0.207 OA
BRANCH  16  19
ATOM     19  C   UNL     1       3.962   2.258   4.430  1.00  0.00     0.082 A 
ATOM     20  C   UNL     1       4.426   3.554   4.675  1.00  0.00     0.025 A 
ATOM     21  C   UNL     1       3.153   1.599   5.371  1.00  0.00     0.028 A 
ATOM     22  C   UNL     1       4.061   4.199   5.859  1.00  0.00     0.041 A 
ATOM     23  C   UNL     1       2.735   2.267   6.532  1.00  0.00    -0.014 A 
ATOM     24  C   UNL     1       3.214   3.559   6.767  1.00  0.00     0.126 A 
ATOM     25  C   UNL     1       1.691   1.675   7.433  1.00  0.00     0.047 C 
ATOM     26  F   UNL     1       2.783   4.244   7.835  1.00  0.00    -0.207 F 
ENDBRANCH  16  19
ENDBRANCH  14  16
ENDBRANCH   9  14
ENDBRANCH   7   9
ENDBRANCH   6   7
ENDBRANCH   5   6
ENDBRANCH   4   5
ENDBRANCH   3   4
ENDBRANCH   2   3
ENDBRANCH   1   2
BRANCH   1  27
ATOM     27  O   UNL     1      -1.233   4.626   1.770  1.00  0.00    -0.377 OA
BRANCH  27  28
ATOM     28  C   UNL     1      -1.952   5.582   2.541  1.00  0.00     0.188 C 
BRANCH  28  29
ATOM     29  C   UNL     1      -3.381   5.317   3.064  1.00  0.00     0.188 C 
BRANCH  29  30
ATOM     30  O   UNL     1      -4.029   4.180   2.506  1.00  0.00    -0.376 OA
BRANCH  30  31
ATOM     31  C   UNL     1      -5.050   4.431   1.557  1.00  0.00     0.202 C 
BRANCH  31  32
ATOM     32  C   UNL     1      -4.557   4.707   0.131  1.00  0.00     0.261 C 
BRANCH  32  33
ATOM     33  O   UNL     1      -3.529   5.693   0.030  1.00  0.00    -0.460 OA
BRANCH  33  34
ATOM     34  C   UNL     1      -3.913   6.908   0.456  1.00  0.00     0.338 C 
ATOM     35  O   UNL     1      -5.002   7.215   0.915  1.00  0.00    -0.246 OA
BRANCH  34  36
ATOM     36  C   UNL     1      -2.846   7.905   0.198  1.00  0.00     0.060 A 
ATOM     37  C   UNL     1      -2.976   9.011   1.055  1.00  0.00     0.016 A 
ATOM     38  C   UNL     1      -2.696   8.057  -1.176  1.00  0.00     0.016 A 
ATOM     39  C   UNL     1      -3.531  10.154   0.525  1.00  0.00     0.010 A 
ATOM     40  C   UNL     1      -3.271   9.179  -1.709  1.00  0.00     0.010 A 
ATOM     41  C   UNL     1      -3.788  10.155  -0.842  1.00  0.00    -0.014 A 
BRANCH  41  42
ATOM     42  C   UNL     1      -4.576  11.176  -1.477  1.00  0.00     0.031 A 
ATOM     43  C   UNL     1      -3.909  12.431  -1.825  1.00  0.00     0.074 A 
ATOM     44  C   UNL     1      -5.860  10.950  -1.819  1.00  0.00     0.049 A 
ATOM     45  N   UNL     1      -4.532  13.543  -1.992  1.00  0.00    -0.248 NA
ATOM     46  C   UNL     1      -2.457  12.533  -1.945  1.00  0.00     0.031 C 
ATOM     47  C   UNL     1      -6.612  11.681  -2.828  1.00  0.00     0.029 A 
ATOM     48  N   UNL     1      -6.789  10.074  -1.255  1.00  0.00    -0.354 N 
ATOM     49  C   UNL     1      -3.630  14.408  -2.546  1.00  0.00     0.074 A 
ATOM     50  C   UNL     1      -2.333  13.788  -2.384  1.00  0.00     0.031 C 
ATOM     51  C   UNL     1      -7.913  11.385  -2.707  1.00  0.00     0.029 A 
ATOM     52  C   UNL     1      -8.077  10.595  -1.502  1.00  0.00     0.049 A 
ATOM     53  H   UNL     1      -6.582   9.243  -0.770  1.00  0.00     0.167 HD
ATOM     54  C   UNL     1      -4.081  15.478  -3.251  1.00  0.00     0.037 A 
ATOM     55  C   UNL     1      -8.904  10.944  -0.471  1.00  0.00     0.037 A 
ATOM     56  C   UNL     1      -5.537  15.527  -3.313  1.00  0.00     0.049 A 
ATOM     57  C   UNL     1      -9.164  12.424  -0.324  1.00  0.00     0.074 A 
ATOM     58  C   UNL     1      -6.470  15.105  -4.247  1.00  0.00     0.029 A 
ATOM     59  N   UNL     1      -6.249  15.737  -2.146  1.00  0.00    -0.354 N 
ATOM     60  N   UNL     1      -8.680  13.334  -1.119  1.00  0.00    -0.248 NA
ATOM     61  C   UNL     1      -9.905  13.001   0.797  1.00  0.00     0.031 C 
ATOM     62  C   UNL     1      -7.756  15.114  -3.637  1.00  0.00     0.029 A 
ATOM     63  C   UNL     1      -7.604  15.543  -2.332  1.00  0.00     0.049 A 
ATOM     64  H   UNL     1      -5.840  15.994  -1.288  1.00  0.00     0.167 HD
ATOM     65  C   UNL     1      -8.960  14.573  -0.616  1.00  0.00     0.074 A 
ATOM     66  C   UNL     1      -9.736  14.316   0.583  1.00  0.00     0.031 C 
ATOM     67  C   UNL     1      -8.497  15.716  -1.199  1.00  0.00     0.037 A 
BRANCH  54  68
ATOM     68  C   UNL     1      -3.148  16.260  -4.121  1.00  0.00     0.064 A 
ATOM     69  C   UNL     1      -3.514  16.629  -5.427  1.00  0.00     0.173 A 
ATOM     70  C   UNL     1      -1.843  16.609  -3.725  1.00  0.00     0.173 A 
ATOM     71  F   UNL     1      -4.747  16.407  -5.897  1.00  0.00    -0.203 F 
ATOM     72  C   UNL     1      -2.607  17.215  -6.308  1.00  0.00     0.198 A 
ATOM     73  C   UNL     1      -0.920  17.145  -4.624  1.00  0.00     0.198 A 
ATOM     74  F   UNL     1      -1.435  16.422  -2.460  1.00  0.00    -0.203 F 
ATOM     75  F   UNL     1      -3.002  17.534  -7.548  1.00  0.00    -0.200 F 
ATOM     76  C   UNL     1      -1.301  17.440  -5.919  1.00  0.00     0.200 A 
ATOM     77  F   UNL     1       0.346  17.355  -4.235  1.00  0.00    -0.200 F 
ATOM     78  F   UNL     1      -0.416  17.945  -6.788  1.00  0.00    -0.200 F 
ENDBRANCH  54  68
BRANCH  55  79
ATOM     79  C   UNL     1      -8.845   9.981   0.649  1.00  0.00     0.064 A 
ATOM     80  C   UNL     1      -9.449   8.730   0.441  1.00  0.00     0.173 A 
ATOM     81  C   UNL     1      -7.846  10.089   1.625  1.00  0.00     0.173 A 
ATOM     82  F   UNL     1     -10.435   8.602  -0.460  1.00  0.00    -0.203 F 
ATOM     83  C   UNL     1      -8.953   7.594   1.064  1.00  0.00     0.198 A 
ATOM     84  C   UNL     1      -7.354   8.948   2.251  1.00  0.00     0.198 A 
ATOM     85  F   UNL     1      -7.268  11.273   1.873  1.00  0.00    -0.203 F 
ATOM     86  F   UNL     1      -9.443   6.388   0.743  1.00  0.00    -0.200 F 
ATOM     87  C   UNL     1      -7.890   7.702   1.947  1.00  0.00     0.200 A 
ATOM     88  F   UNL     1      -6.309   9.044   3.085  1.00  0.00    -0.200 F 
ATOM     89  F   UNL     1      -7.373   6.595   2.494  1.00  0.00    -0.200 F 
ENDBRANCH  55  79
BRANCH  67  90
ATOM     90  C   UNL     1      -8.843  17.099  -0.723  1.00  0.00     0.064 A 
ATOM     91  C   UNL     1     -10.133  17.442  -0.288  1.00  0.00     0.173 A 
ATOM     92  C   UNL     1      -7.917  18.162  -0.801  1.00  0.00     0.173 A 
ATOM     93  F   UNL     1     -11.122  16.537  -0.279  1.00  0.00    -0.203 F 
ATOM     94  C   UNL     1     -10.448  18.738   0.124  1.00  0.00     0.198 A 
ATOM     95  C   UNL     1      -8.251  19.466  -0.445  1.00  0.00     0.198 A 
ATOM     96  F   UNL     1      -6.654  17.972  -1.204  1.00  0.00    -0.203 F 
ATOM     97  F   UNL     1     -11.673  19.004   0.598  1.00  0.00    -0.200 F 
ATOM     98  C   UNL     1      -9.510  19.750   0.040  1.00  0.00     0.200 A 
ATOM     99  F   UNL     1      -7.339  20.441  -0.570  1.00  0.00    -0.200 F 
ATOM    100  F   UNL     1      -9.819  20.997   0.420  1.00  0.00    -0.200 F 
ENDBRANCH  67  90
ENDBRANCH  41  42
ENDBRANCH  34  36
ENDBRANCH  33  34
ENDBRANCH  32  33
ENDBRANCH  31  32
ENDBRANCH  30  31
ENDBRANCH  29  30
ENDBRANCH  28  29
ENDBRANCH  27  28
ENDBRANCH   1  27
TORSDOF 26
