REMARK SMILES O=C(OCCOCCOCCOCCOC(=O)c1cnccc1-c1cccc(C(F)(F)F)c1)c1ccc(-c2c3nc(c(-c4c(F)c(F)c(F)c(F)c4F)c4ccc([nH]4)c(-c4c(F)c(F)c(F)c(F)c4F)c4nc(c(-c5c(F)c(F)c(F)c(F)c5F)c5ccc2[nH]5)C=C4)C=C3)cc1
REMARK SMILES IDX 9 1 8 2 7 3 6 4 5 5 4 6 3 7 2 8 1 9 34 10 35 11 96 12 36 13
REMARK SMILES IDX 95 14 37 15 38 16 39 17 89 18 40 19 94 20 88 21 90 22 41 23
REMARK SMILES IDX 93 24 87 25 86 26 42 28 74 29 54 30 73 31 55 32 58 33 72 34
REMARK SMILES IDX 91 35 56 36 57 37 71 39 92 40 59 41 43 42 44 43 52 44 45 45
REMARK SMILES IDX 46 46 50 47 53 48 47 49 48 50 51 51 49 52 75 53 76 54 84 55
REMARK SMILES IDX 77 56 78 57 82 58 85 59 79 60 80 61 83 62 81 63 60 64 61 65
REMARK SMILES IDX 69 66 62 67 63 68 67 69 70 70 64 71 65 72 68 73 66 74 10 75
REMARK SMILES IDX 11 76 12 77 13 78 14 79 15 80 16 81 17 82 18 83 19 84 23 85
REMARK SMILES IDX 20 86 22 87 21 88 24 89 25 90 33 91 26 92 28 93 27 94 29 95
REMARK SMILES IDX 30 96 31 97 32 98
REMARK H PARENT 90 27 58 38
REMARK Flexibility Score: inf
ROOT
ATOM      1  O   UNL     1       2.578   3.341   2.048  1.00  0.00    -0.377 OA
ENDROOT
BRANCH   1   2
ATOM      2  C   UNL     1       1.859   2.154   1.711  1.00  0.00     0.188 C 
BRANCH   2   3
ATOM      3  C   UNL     1       2.257   1.507   0.384  1.00  0.00     0.188 C 
BRANCH   3   4
ATOM      4  O   UNL     1       3.580   0.973   0.460  1.00  0.00    -0.376 OA
BRANCH   4   5
ATOM      5  C   UNL     1       4.374   1.122  -0.717  1.00  0.00     0.202 C 
BRANCH   5   6
ATOM      6  C   UNL     1       4.114   0.057  -1.784  1.00  0.00     0.261 C 
BRANCH   6   7
ATOM      7  O   UNL     1       2.758  -0.413  -1.776  1.00  0.00    -0.460 OA
BRANCH   7   8
ATOM      8  C   UNL     1       2.244  -1.466  -1.091  1.00  0.00     0.338 C 
ATOM      9  O   UNL     1       1.060  -1.754  -1.260  1.00  0.00    -0.246 OA
BRANCH   8  10
ATOM     10  C   UNL     1       3.037  -2.324  -0.153  1.00  0.00     0.060 A 
ATOM     11  C   UNL     1       4.180  -1.919   0.532  1.00  0.00     0.016 A 
ATOM     12  C   UNL     1       2.553  -3.620   0.100  1.00  0.00     0.016 A 
ATOM     13  C   UNL     1       4.875  -2.773   1.368  1.00  0.00     0.010 A 
ATOM     14  C   UNL     1       3.226  -4.485   0.972  1.00  0.00     0.010 A 
ATOM     15  C   UNL     1       4.412  -4.065   1.582  1.00  0.00    -0.014 A 
BRANCH  15  16
ATOM     16  C   UNL     1       5.317  -4.974   2.305  1.00  0.00     0.031 A 
ATOM     17  C   UNL     1       6.109  -5.953   1.494  1.00  0.00     0.074 A 
ATOM     18  C   UNL     1       5.576  -4.754   3.606  1.00  0.00     0.049 A 
ATOM     19  N   UNL     1       6.976  -6.846   1.885  1.00  0.00    -0.248 NA
ATOM     20  C   UNL     1       5.918  -5.900   0.033  1.00  0.00     0.031 C 
ATOM     21  C   UNL     1       4.967  -3.697   4.420  1.00  0.00     0.029 A 
ATOM     22  N   UNL     1       6.454  -5.365   4.459  1.00  0.00    -0.354 N 
ATOM     23  C   UNL     1       7.415  -7.471   0.726  1.00  0.00     0.074 A 
ATOM     24  C   UNL     1       6.718  -6.867  -0.385  1.00  0.00     0.031 C 
ATOM     25  C   UNL     1       5.509  -3.721   5.648  1.00  0.00     0.029 A 
ATOM     26  C   UNL     1       6.441  -4.840   5.729  1.00  0.00     0.049 A 
ATOM     27  H   UNL     1       7.039  -6.110   4.190  1.00  0.00     0.167 HD
ATOM     28  C   UNL     1       8.322  -8.467   0.613  1.00  0.00     0.037 A 
ATOM     29  C   UNL     1       7.083  -5.257   6.835  1.00  0.00     0.037 A 
ATOM     30  C   UNL     1       8.995  -9.043   1.743  1.00  0.00     0.049 A 
ATOM     31  C   UNL     1       7.989  -6.454   6.700  1.00  0.00     0.074 A 
ATOM     32  C   UNL     1       9.851 -10.125   1.788  1.00  0.00     0.029 A 
ATOM     33  N   UNL     1       8.880  -8.560   3.042  1.00  0.00    -0.354 N 
ATOM     34  N   UNL     1       8.322  -7.122   5.619  1.00  0.00    -0.248 NA
ATOM     35  C   UNL     1       8.594  -6.967   7.933  1.00  0.00     0.031 C 
ATOM     36  C   UNL     1      10.223 -10.323   3.123  1.00  0.00     0.029 A 
ATOM     37  C   UNL     1       9.641  -9.332   3.901  1.00  0.00     0.049 A 
ATOM     38  H   UNL     1       8.338  -7.784   3.311  1.00  0.00     0.167 HD
ATOM     39  C   UNL     1       9.182  -8.126   6.038  1.00  0.00     0.074 A 
ATOM     40  C   UNL     1       9.347  -7.954   7.469  1.00  0.00     0.031 C 
ATOM     41  C   UNL     1       9.775  -9.111   5.319  1.00  0.00     0.037 A 
BRANCH  28  42
ATOM     42  C   UNL     1       8.560  -9.024  -0.758  1.00  0.00     0.064 A 
ATOM     43  C   UNL     1       9.266  -8.311  -1.739  1.00  0.00     0.173 A 
ATOM     44  C   UNL     1       8.041 -10.280  -1.107  1.00  0.00     0.173 A 
ATOM     45  F   UNL     1       9.751  -7.090  -1.469  1.00  0.00    -0.203 F 
ATOM     46  C   UNL     1       9.424  -8.827  -3.024  1.00  0.00     0.198 A 
ATOM     47  C   UNL     1       8.222 -10.803  -2.384  1.00  0.00     0.198 A 
ATOM     48  F   UNL     1       7.345 -10.995  -0.211  1.00  0.00    -0.203 F 
ATOM     49  F   UNL     1      10.054  -8.104  -3.962  1.00  0.00    -0.200 F 
ATOM     50  C   UNL     1       8.907 -10.073  -3.344  1.00  0.00     0.200 A 
ATOM     51  F   UNL     1       7.720 -12.007  -2.691  1.00  0.00    -0.200 F 
ATOM     52  F   UNL     1       9.055 -10.565  -4.582  1.00  0.00    -0.200 F 
ENDBRANCH  28  42
BRANCH  29  53
ATOM     53  C   UNL     1       6.833  -4.613   8.154  1.00  0.00     0.064 A 
ATOM     54  C   UNL     1       7.862  -4.005   8.886  1.00  0.00     0.173 A 
ATOM     55  C   UNL     1       5.556  -4.642   8.741  1.00  0.00     0.173 A 
ATOM     56  F   UNL     1       9.107  -3.967   8.387  1.00  0.00    -0.203 F 
ATOM     57  C   UNL     1       7.634  -3.484  10.160  1.00  0.00     0.198 A 
ATOM     58  C   UNL     1       5.321  -4.088   9.997  1.00  0.00     0.198 A 
ATOM     59  F   UNL     1       4.531  -5.216   8.095  1.00  0.00    -0.203 F 
ATOM     60  F   UNL     1       8.652  -2.971  10.864  1.00  0.00    -0.200 F 
ATOM     61  C   UNL     1       6.363  -3.522  10.713  1.00  0.00     0.200 A 
ATOM     62  F   UNL     1       4.086  -4.116  10.519  1.00  0.00    -0.200 F 
ATOM     63  F   UNL     1       6.146  -3.030  11.940  1.00  0.00    -0.200 F 
ENDBRANCH  29  53
BRANCH  41  64
ATOM     64  C   UNL     1      10.669 -10.046   6.075  1.00  0.00     0.064 A 
ATOM     65  C   UNL     1      10.149 -10.999   6.964  1.00  0.00     0.173 A 
ATOM     66  C   UNL     1      12.057 -10.006   5.883  1.00  0.00     0.173 A 
ATOM     67  F   UNL     1       8.828 -11.062   7.190  1.00  0.00    -0.203 F 
ATOM     68  C   UNL     1      10.994 -11.857   7.660  1.00  0.00     0.198 A 
ATOM     69  C   UNL     1      12.895 -10.890   6.553  1.00  0.00     0.198 A 
ATOM     70  F   UNL     1      12.598  -9.118   5.035  1.00  0.00    -0.203 F 
ATOM     71  F   UNL     1      10.483 -12.720   8.548  1.00  0.00    -0.200 F 
ATOM     72  C   UNL     1      12.364 -11.807   7.448  1.00  0.00     0.200 A 
ATOM     73  F   UNL     1      14.217 -10.852   6.336  1.00  0.00    -0.200 F 
ATOM     74  F   UNL     1      13.175 -12.639   8.115  1.00  0.00    -0.200 F 
ENDBRANCH  41  64
ENDBRANCH  15  16
ENDBRANCH   8  10
ENDBRANCH   7   8
ENDBRANCH   6   7
ENDBRANCH   5   6
ENDBRANCH   4   5
ENDBRANCH   3   4
ENDBRANCH   2   3
ENDBRANCH   1   2
BRANCH   1  75
ATOM     75  C   UNL     1       3.996   3.290   1.908  1.00  0.00     0.188 C 
BRANCH  75  76
ATOM     76  C   UNL     1       4.782   2.254   2.746  1.00  0.00     0.188 C 
BRANCH  76  77
ATOM     77  O   UNL     1       3.955   1.355   3.467  1.00  0.00    -0.376 OA
BRANCH  77  78
ATOM     78  C   UNL     1       3.826   1.572   4.865  1.00  0.00     0.202 C 
BRANCH  78  79
ATOM     79  C   UNL     1       3.345   2.938   5.376  1.00  0.00     0.261 C 
BRANCH  79  80
ATOM     80  O   UNL     1       3.850   4.088   4.687  1.00  0.00    -0.460 OA
BRANCH  80  81
ATOM     81  C   UNL     1       5.075   4.579   4.970  1.00  0.00     0.340 C 
ATOM     82  O   UNL     1       5.906   4.101   5.722  1.00  0.00    -0.246 OA
BRANCH  81  83
ATOM     83  C   UNL     1       5.289   5.737   4.068  1.00  0.00     0.086 A 
ATOM     84  C   UNL     1       6.366   5.669   3.194  1.00  0.00     0.127 A 
ATOM     85  C   UNL     1       4.351   6.786   3.934  1.00  0.00    -0.001 A 
ATOM     86  N   UNL     1       6.537   6.517   2.153  1.00  0.00    -0.264 NA
ATOM     87  C   UNL     1       4.524   7.665   2.856  1.00  0.00     0.030 A 
ATOM     88  C   UNL     1       5.604   7.484   2.000  1.00  0.00     0.111 A 
BRANCH  85  89
ATOM     89  C   UNL     1       3.226   6.925   4.883  1.00  0.00    -0.017 A 
ATOM     90  C   UNL     1       1.900   7.084   4.459  1.00  0.00     0.009 A 
ATOM     91  C   UNL     1       3.461   6.739   6.258  1.00  0.00     0.021 A 
ATOM     92  C   UNL     1       0.845   6.993   5.374  1.00  0.00     0.001 A 
ATOM     93  C   UNL     1       2.413   6.535   7.163  1.00  0.00     0.056 A 
ATOM     94  C   UNL     1       1.099   6.694   6.714  1.00  0.00     0.013 A 
BRANCH  93  95
ATOM     95  C   UNL     1       2.719   6.079   8.567  1.00  0.00     0.416 C 
ATOM     96  F   UNL     1       2.646   7.083   9.479  1.00  0.00    -0.166 F 
ATOM     97  F   UNL     1       1.867   5.107   8.997  1.00  0.00    -0.166 F 
ATOM     98  F   UNL     1       3.968   5.545   8.693  1.00  0.00    -0.166 F 
ENDBRANCH  93  95
ENDBRANCH  85  89
ENDBRANCH  81  83
ENDBRANCH  80  81
ENDBRANCH  79  80
ENDBRANCH  78  79
ENDBRANCH  77  78
ENDBRANCH  76  77
ENDBRANCH  75  76
ENDBRANCH   1  75
TORSDOF 22
