REMARK SMILES Nc1c(CC(=O)OCCOCCOCCOCCOC(=O)c2ccc(-c3c4nc(c(-c5c(F)c(F)c(F)c(F)c5F)c5ccc([nH]5)c(-c5c(F)c(F)c(F)c(F)c5F)c5nc(c(-c6c(F)c(F)c(F)c(F)c6F)c6ccc3[nH]6)C=C5)C=C4)cc2)cccc1C(=O)c1ccc(Br)cc1
REMARK SMILES IDX 12 1 11 2 10 3 9 4 8 5 7 6 5 7 6 8 4 9 3 10 2 11 88 12 85 13
REMARK SMILES IDX 87 14 86 15 1 16 89 19 90 20 91 21 92 22 97 23 93 24 96 25
REMARK SMILES IDX 94 26 95 27 13 28 14 29 15 30 16 31 17 32 18 33 19 34 20 35
REMARK SMILES IDX 21 36 22 37 23 38 84 39 24 40 83 41 25 42 26 43 27 44 77 45
REMARK SMILES IDX 28 46 82 47 76 48 78 49 29 50 81 51 75 52 74 53 30 55 62 56
REMARK SMILES IDX 42 57 61 58 43 59 46 60 60 61 79 62 44 63 45 64 59 66 80 67
REMARK SMILES IDX 47 68 31 69 32 70 40 71 33 72 34 73 38 74 41 75 35 76 36 77
REMARK SMILES IDX 39 78 37 79 63 80 64 81 72 82 65 83 66 84 70 85 73 86 67 87
REMARK SMILES IDX 68 88 71 89 69 90 48 91 49 92 57 93 50 94 51 95 55 96 58 97
REMARK SMILES IDX 52 98 53 99 56 100 54 101
REMARK H PARENT 1 17 1 18 78 54 46 65
REMARK Flexibility Score: inf
ROOT
ATOM      1  C   UNL     1      -1.279  -2.638   2.005  1.00  0.00     0.188 C 
ENDROOT
BRANCH   1   2
ATOM      2  C   UNL     1      -1.164  -4.083   1.464  1.00  0.00     0.188 C 
BRANCH   2   3
ATOM      3  O   UNL     1      -0.533  -5.118   2.217  1.00  0.00    -0.376 OA
BRANCH   3   4
ATOM      4  C   UNL     1       0.309  -4.775   3.303  1.00  0.00     0.202 C 
BRANCH   4   5
ATOM      5  C   UNL     1       1.577  -3.962   2.978  1.00  0.00     0.261 C 
BRANCH   5   6
ATOM      6  O   UNL     1       1.457  -3.052   1.862  1.00  0.00    -0.463 OA
BRANCH   6   7
ATOM      7  C   UNL     1       1.996  -3.439   0.684  1.00  0.00     0.310 C 
ATOM      8  O   UNL     1       2.727  -4.419   0.564  1.00  0.00    -0.252 OA
BRANCH   7   9
ATOM      9  C   UNL     1       1.583  -2.630  -0.537  1.00  0.00     0.160 C 
BRANCH   9  10
ATOM     10  C   UNL     1       0.811  -1.319  -0.431  1.00  0.00    -0.013 A 
ATOM     11  C   UNL     1       1.398  -0.124   0.044  1.00  0.00     0.047 A 
ATOM     12  C   UNL     1       0.649   1.085  -0.054  1.00  0.00     0.046 A 
ATOM     13  C   UNL     1      -0.524  -1.287  -0.900  1.00  0.00     0.006 A 
ATOM     14  C   UNL     1      -0.696   1.068  -0.458  1.00  0.00     0.014 A 
ATOM     15  C   UNL     1      -1.284  -0.118  -0.871  1.00  0.00     0.001 A 
BRANCH  11  16
ATOM     16  N   UNL     1       2.704  -0.153   0.522  1.00  0.00    -0.398 N 
ATOM     17  H   UNL     1       3.190  -1.007   0.575  1.00  0.00     0.156 HD
ATOM     18  H   UNL     1       3.142   0.681   0.808  1.00  0.00     0.156 HD
ENDBRANCH  11  16
BRANCH  12  19
ATOM     19  C   UNL     1       1.212   2.448   0.202  1.00  0.00     0.195 C 
ATOM     20  O   UNL     1       0.499   3.346   0.646  1.00  0.00    -0.289 OA
BRANCH  19  21
ATOM     21  C   UNL     1       2.633   2.749  -0.085  1.00  0.00     0.023 A 
ATOM     22  C   UNL     1       3.373   3.422   0.891  1.00  0.00     0.013 A 
ATOM     23  C   UNL     1       3.255   2.272  -1.246  1.00  0.00     0.013 A 
ATOM     24  C   UNL     1       4.758   3.528   0.754  1.00  0.00     0.016 A 
ATOM     25  C   UNL     1       4.640   2.376  -1.377  1.00  0.00     0.016 A 
ATOM     26  C   UNL     1       5.386   2.982  -0.366  1.00  0.00     0.018 A 
ATOM     27  Br  UNL     1       7.271   3.026  -0.495  1.00  0.00    -0.051 Br
ENDBRANCH  19  21
ENDBRANCH  12  19
ENDBRANCH   9  10
ENDBRANCH   7   9
ENDBRANCH   6   7
ENDBRANCH   5   6
ENDBRANCH   4   5
ENDBRANCH   3   4
ENDBRANCH   2   3
ENDBRANCH   1   2
BRANCH   1  28
ATOM     28  O   UNL     1      -1.161  -2.519   3.413  1.00  0.00    -0.377 OA
BRANCH  28  29
ATOM     29  C   UNL     1      -2.370  -2.213   4.079  1.00  0.00     0.188 C 
BRANCH  29  30
ATOM     30  C   UNL     1      -3.477  -3.254   3.862  1.00  0.00     0.188 C 
BRANCH  30  31
ATOM     31  O   UNL     1      -3.776  -3.442   2.485  1.00  0.00    -0.376 OA
BRANCH  31  32
ATOM     32  C   UNL     1      -4.928  -2.841   1.923  1.00  0.00     0.202 C 
BRANCH  32  33
ATOM     33  C   UNL     1      -4.982  -1.308   1.788  1.00  0.00     0.261 C 
BRANCH  33  34
ATOM     34  O   UNL     1      -4.596  -0.537   2.932  1.00  0.00    -0.460 OA
BRANCH  34  35
ATOM     35  C   UNL     1      -5.376  -0.618   4.027  1.00  0.00     0.338 C 
ATOM     36  O   UNL     1      -6.413  -1.254   4.140  1.00  0.00    -0.246 OA
BRANCH  35  37
ATOM     37  C   UNL     1      -4.659   0.013   5.158  1.00  0.00     0.060 A 
ATOM     38  C   UNL     1      -4.429  -0.758   6.305  1.00  0.00     0.016 A 
ATOM     39  C   UNL     1      -4.205   1.335   5.095  1.00  0.00     0.016 A 
ATOM     40  C   UNL     1      -3.799  -0.196   7.412  1.00  0.00     0.010 A 
ATOM     41  C   UNL     1      -3.600   1.909   6.220  1.00  0.00     0.010 A 
ATOM     42  C   UNL     1      -3.442   1.158   7.399  1.00  0.00    -0.014 A 
BRANCH  42  43
ATOM     43  C   UNL     1      -3.164   1.817   8.698  1.00  0.00     0.031 A 
ATOM     44  C   UNL     1      -4.301   2.529   9.383  1.00  0.00     0.074 A 
ATOM     45  C   UNL     1      -1.972   1.700   9.309  1.00  0.00     0.049 A 
ATOM     46  N   UNL     1      -4.335   3.128  10.546  1.00  0.00    -0.248 NA
ATOM     47  C   UNL     1      -5.580   2.563   8.654  1.00  0.00     0.031 C 
ATOM     48  C   UNL     1      -0.814   0.990   8.774  1.00  0.00     0.029 A 
ATOM     49  N   UNL     1      -1.548   2.172  10.527  1.00  0.00    -0.354 N 
ATOM     50  C   UNL     1      -5.632   3.606  10.684  1.00  0.00     0.074 A 
ATOM     51  C   UNL     1      -6.344   3.266   9.473  1.00  0.00     0.031 C 
ATOM     52  C   UNL     1       0.194   1.073   9.660  1.00  0.00     0.029 A 
ATOM     53  C   UNL     1      -0.241   1.864  10.811  1.00  0.00     0.049 A 
ATOM     54  H   UNL     1      -2.126   2.682  11.138  1.00  0.00     0.167 HD
ATOM     55  C   UNL     1      -6.185   4.258  11.734  1.00  0.00     0.037 A 
ATOM     56  C   UNL     1       0.516   2.197  11.875  1.00  0.00     0.037 A 
ATOM     57  C   UNL     1      -5.473   4.598  12.937  1.00  0.00     0.049 A 
ATOM     58  C   UNL     1      -0.102   2.996  12.997  1.00  0.00     0.074 A 
ATOM     59  C   UNL     1      -5.941   5.251  14.062  1.00  0.00     0.029 A 
ATOM     60  N   UNL     1      -4.132   4.319  13.164  1.00  0.00    -0.354 N 
ATOM     61  N   UNL     1      -1.335   3.422  13.134  1.00  0.00    -0.248 NA
ATOM     62  C   UNL     1       0.779   3.349  14.119  1.00  0.00     0.031 C 
ATOM     63  C   UNL     1      -4.869   5.426  14.943  1.00  0.00     0.029 A 
ATOM     64  C   UNL     1      -3.749   4.817  14.399  1.00  0.00     0.049 A 
ATOM     65  H   UNL     1      -3.541   3.840  12.539  1.00  0.00     0.167 HD
ATOM     66  C   UNL     1      -1.385   4.066  14.365  1.00  0.00     0.074 A 
ATOM     67  C   UNL     1      -0.063   3.952  14.945  1.00  0.00     0.031 C 
ATOM     68  C   UNL     1      -2.428   4.695  14.963  1.00  0.00     0.037 A 
BRANCH  55  69
ATOM     69  C   UNL     1      -7.622   4.679  11.608  1.00  0.00     0.064 A 
ATOM     70  C   UNL     1      -8.671   3.746  11.598  1.00  0.00     0.173 A 
ATOM     71  C   UNL     1      -7.954   6.039  11.513  1.00  0.00     0.173 A 
ATOM     72  F   UNL     1      -8.409   2.432  11.666  1.00  0.00    -0.203 F 
ATOM     73  C   UNL     1      -9.995   4.159  11.468  1.00  0.00     0.198 A 
ATOM     74  C   UNL     1      -9.281   6.449  11.419  1.00  0.00     0.198 A 
ATOM     75  F   UNL     1      -6.991   6.972  11.518  1.00  0.00    -0.203 F 
ATOM     76  F   UNL     1     -10.976   3.247  11.403  1.00  0.00    -0.200 F 
ATOM     77  C   UNL     1     -10.300   5.509  11.387  1.00  0.00     0.200 A 
ATOM     78  F   UNL     1      -9.573   7.755  11.354  1.00  0.00    -0.200 F 
ATOM     79  F   UNL     1     -11.575   5.904  11.269  1.00  0.00    -0.200 F 
ENDBRANCH  55  69
BRANCH  56  80
ATOM     80  C   UNL     1       1.947   1.792  11.931  1.00  0.00     0.064 A 
ATOM     81  C   UNL     1       2.413   0.891  12.900  1.00  0.00     0.173 A 
ATOM     82  C   UNL     1       2.887   2.327  11.037  1.00  0.00     0.173 A 
ATOM     83  F   UNL     1       1.561   0.371  13.796  1.00  0.00    -0.203 F 
ATOM     84  C   UNL     1       3.764   0.561  12.987  1.00  0.00     0.198 A 
ATOM     85  C   UNL     1       4.232   1.970  11.104  1.00  0.00     0.198 A 
ATOM     86  F   UNL     1       2.498   3.197  10.094  1.00  0.00    -0.203 F 
ATOM     87  F   UNL     1       4.190  -0.258  13.959  1.00  0.00    -0.200 F 
ATOM     88  C   UNL     1       4.672   1.095  12.085  1.00  0.00     0.200 A 
ATOM     89  F   UNL     1       5.103   2.480  10.222  1.00  0.00    -0.200 F 
ATOM     90  F   UNL     1       5.971   0.777  12.169  1.00  0.00    -0.200 F 
ENDBRANCH  56  80
BRANCH  68  91
ATOM     91  C   UNL     1      -2.192   5.274  16.330  1.00  0.00     0.064 A 
ATOM     92  C   UNL     1      -1.352   6.380  16.532  1.00  0.00     0.173 A 
ATOM     93  C   UNL     1      -2.833   4.727  17.453  1.00  0.00     0.173 A 
ATOM     94  F   UNL     1      -0.707   6.937  15.496  1.00  0.00    -0.203 F 
ATOM     95  C   UNL     1      -1.129   6.888  17.810  1.00  0.00     0.198 A 
ATOM     96  C   UNL     1      -2.639   5.262  18.724  1.00  0.00     0.198 A 
ATOM     97  F   UNL     1      -3.658   3.677  17.318  1.00  0.00    -0.203 F 
ATOM     98  F   UNL     1      -0.269   7.901  17.986  1.00  0.00    -0.200 F 
ATOM     99  C   UNL     1      -1.777   6.333  18.903  1.00  0.00     0.200 A 
ATOM    100  F   UNL     1      -3.283   4.737  19.775  1.00  0.00    -0.200 F 
ATOM    101  F   UNL     1      -1.563   6.823  20.132  1.00  0.00    -0.200 F 
ENDBRANCH  68  91
ENDBRANCH  42  43
ENDBRANCH  35  37
ENDBRANCH  34  35
ENDBRANCH  33  34
ENDBRANCH  32  33
ENDBRANCH  31  32
ENDBRANCH  30  31
ENDBRANCH  29  30
ENDBRANCH  28  29
ENDBRANCH   1  28
TORSDOF 24
