REMARK SMILES COc1ccc(N2C(=O)/C(=C\c3ccc(-c4ccc(Cl)c(C(=O)OCCOCCOCCOCCOC(=O)c5ccc(-c6c7nc(c(-c8c(F)c(F)c(F)c(F)c8F)c8ccc([nH]8)c(-c8c(F)c(F)c(F)c(F)c8F)c8nc(c(-c9c(F)c(F)c(F)c(F)c9F)c9ccc6[nH]9)C=C8)C=C7)cc5)c4)o3)SC2=S)cc1
REMARK SMILES IDX 29 1 28 2 27 3 26 4 25 5 24 6 22 7 23 8 21 9 16 10 17 11
REMARK SMILES IDX 102 12 18 13 19 14 20 15 15 16 12 17 13 18 103 19 14 20
REMARK SMILES IDX 11 21 7 22 8 23 105 24 9 25 10 26 104 27 106 28 6 29 3 30
REMARK SMILES IDX 4 31 108 32 5 33 107 34 2 35 1 36 30 37 31 38 32 39 33 40
REMARK SMILES IDX 34 41 35 42 36 43 37 44 38 45 39 46 40 47 101 48 41 49
REMARK SMILES IDX 100 50 42 51 43 52 44 53 94 54 45 55 99 56 93 57 95 58 46 59
REMARK SMILES IDX 98 60 92 61 91 62 47 64 79 65 59 66 78 67 60 68 63 69 77 70
REMARK SMILES IDX 96 71 61 72 62 73 76 75 97 76 64 77 48 78 49 79 57 80 50 81
REMARK SMILES IDX 51 82 55 83 58 84 52 85 53 86 56 87 54 88 80 89 81 90 89 91
REMARK SMILES IDX 82 92 83 93 87 94 90 95 84 96 85 97 88 98 86 99 65 100
REMARK SMILES IDX 66 101 74 102 67 103 68 104 72 105 75 106 69 107 70 108
REMARK SMILES IDX 73 109 71 110
REMARK H PARENT 95 63 63 74
REMARK Flexibility Score: inf
ROOT
ATOM      1  C   UNL     1      -2.440 -14.042   6.865  1.00  0.00     0.188 C 
ENDROOT
BRANCH   1   2
ATOM      2  C   UNL     1      -3.638 -14.849   6.335  1.00  0.00     0.188 C 
BRANCH   2   3
ATOM      3  O   UNL     1      -3.281 -15.903   5.442  1.00  0.00    -0.376 OA
BRANCH   3   4
ATOM      4  C   UNL     1      -3.687 -15.721   4.090  1.00  0.00     0.202 C 
BRANCH   4   5
ATOM      5  C   UNL     1      -2.780 -14.768   3.310  1.00  0.00     0.261 C 
BRANCH   5   6
ATOM      6  O   UNL     1      -2.755 -13.439   3.849  1.00  0.00    -0.460 OA
BRANCH   6   7
ATOM      7  C   UNL     1      -3.869 -12.682   3.712  1.00  0.00     0.339 C 
ATOM      8  O   UNL     1      -4.880 -12.979   3.104  1.00  0.00    -0.246 OA
BRANCH   7   9
ATOM      9  C   UNL     1      -3.653 -11.468   4.532  1.00  0.00     0.079 A 
ATOM     10  C   UNL     1      -2.091  -9.726   5.237  1.00  0.00     0.018 A 
ATOM     11  C   UNL     1      -3.015  -9.315   6.203  1.00  0.00     0.013 A 
ATOM     12  C   UNL     1      -2.419 -10.809   4.413  1.00  0.00     0.029 A 
ATOM     13  C   UNL     1      -4.256  -9.955   6.316  1.00  0.00     0.022 A 
ATOM     14  C   UNL     1      -4.584 -11.026   5.476  1.00  0.00     0.055 A 
ATOM     15  Cl  UNL     1      -6.115 -11.784   5.721  1.00  0.00    -0.083 Cl
BRANCH  10  16
ATOM     16  C   UNL     1      -0.827  -9.036   5.035  1.00  0.00     0.134 A 
ATOM     17  C   UNL     1       0.893  -7.801   5.695  1.00  0.00     0.128 A 
ATOM     18  C   UNL     1       1.058  -8.075   4.342  1.00  0.00     0.051 A 
ATOM     19  O   UNL     1      -0.258  -8.428   6.115  1.00  0.00    -0.457 OA
ATOM     20  C   UNL     1      -0.037  -8.853   3.923  1.00  0.00     0.051 A 
BRANCH  17  21
ATOM     21  C   UNL     1       1.742  -7.044   6.543  1.00  0.00     0.068 C 
ATOM     22  N   UNL     1       2.069  -3.658   5.213  1.00  0.00    -0.261 N 
ATOM     23  C   UNL     1       1.356  -4.848   5.325  1.00  0.00     0.270 C 
ATOM     24  C   UNL     1       3.122  -3.482   6.098  1.00  0.00     0.152 C 
ATOM     25  O   UNL     1       0.348  -5.155   4.701  1.00  0.00    -0.268 OA
ATOM     26  C   UNL     1       2.002  -5.746   6.327  1.00  0.00     0.084 C 
ATOM     27  S   UNL     1       3.243  -4.890   7.160  1.00  0.00    -0.054 SA
ATOM     28  S   UNL     1       4.134  -2.169   6.315  1.00  0.00    -0.051 S 
BRANCH  22  29
ATOM     29  C   UNL     1       1.664  -2.704   4.233  1.00  0.00     0.051 A 
ATOM     30  C   UNL     1       0.804  -0.930   2.220  1.00  0.00     0.119 A 
ATOM     31  C   UNL     1      -0.099  -1.419   3.162  1.00  0.00     0.048 A 
ATOM     32  C   UNL     1       2.143  -1.314   2.293  1.00  0.00     0.048 A 
ATOM     33  C   UNL     1       0.321  -2.315   4.147  1.00  0.00     0.030 A 
ATOM     34  C   UNL     1       2.572  -2.191   3.298  1.00  0.00     0.030 A 
BRANCH  30  35
ATOM     35  O   UNL     1       0.274  -0.067   1.303  1.00  0.00    -0.497 OA
ATOM     36  C   UNL     1       0.934  -0.018   0.044  1.00  0.00     0.278 C 
ENDBRANCH  30  35
ENDBRANCH  22  29
ENDBRANCH  17  21
ENDBRANCH  10  16
ENDBRANCH   7   9
ENDBRANCH   6   7
ENDBRANCH   5   6
ENDBRANCH   4   5
ENDBRANCH   3   4
ENDBRANCH   2   3
ENDBRANCH   1   2
BRANCH   1  37
ATOM     37  O   UNL     1      -1.150 -14.414   6.411  1.00  0.00    -0.377 OA
BRANCH  37  38
ATOM     38  C   UNL     1      -0.702 -15.752   6.594  1.00  0.00     0.188 C 
BRANCH  38  39
ATOM     39  C   UNL     1      -1.419 -16.736   7.544  1.00  0.00     0.188 C 
BRANCH  39  40
ATOM     40  O   UNL     1      -2.140 -16.127   8.607  1.00  0.00    -0.376 OA
BRANCH  40  41
ATOM     41  C   UNL     1      -1.594 -16.277   9.910  1.00  0.00     0.202 C 
BRANCH  41  42
ATOM     42  C   UNL     1      -0.415 -15.338  10.181  1.00  0.00     0.261 C 
BRANCH  42  43
ATOM     43  O   UNL     1       0.747 -15.595   9.376  1.00  0.00    -0.460 OA
BRANCH  43  44
ATOM     44  C   UNL     1       1.325 -16.807   9.513  1.00  0.00     0.338 C 
ATOM     45  O   UNL     1       1.010 -17.701  10.276  1.00  0.00    -0.246 OA
BRANCH  44  46
ATOM     46  C   UNL     1       2.327 -16.949   8.443  1.00  0.00     0.060 A 
ATOM     47  C   UNL     1       2.225 -18.032   7.561  1.00  0.00     0.016 A 
ATOM     48  C   UNL     1       3.363 -16.020   8.318  1.00  0.00     0.016 A 
ATOM     49  C   UNL     1       3.189 -18.210   6.569  1.00  0.00     0.010 A 
ATOM     50  C   UNL     1       4.336 -16.209   7.336  1.00  0.00     0.010 A 
ATOM     51  C   UNL     1       4.271 -17.323   6.481  1.00  0.00    -0.014 A 
BRANCH  51  52
ATOM     52  C   UNL     1       5.435 -17.664   5.632  1.00  0.00     0.031 A 
ATOM     53  C   UNL     1       6.597 -18.371   6.271  1.00  0.00     0.074 A 
ATOM     54  C   UNL     1       5.461 -17.353   4.325  1.00  0.00     0.049 A 
ATOM     55  N   UNL     1       7.738 -18.738   5.747  1.00  0.00    -0.248 NA
ATOM     56  C   UNL     1       6.454 -18.706   7.698  1.00  0.00     0.031 C 
ATOM     57  C   UNL     1       4.389 -16.686   3.591  1.00  0.00     0.029 A 
ATOM     58  N   UNL     1       6.443 -17.551   3.386  1.00  0.00    -0.354 N 
ATOM     59  C   UNL     1       8.447 -19.342   6.777  1.00  0.00     0.074 A 
ATOM     60  C   UNL     1       7.622 -19.270   7.963  1.00  0.00     0.031 C 
ATOM     61  C   UNL     1       4.779 -16.512   2.316  1.00  0.00     0.029 A 
ATOM     62  C   UNL     1       6.135 -17.034   2.152  1.00  0.00     0.049 A 
ATOM     63  H   UNL     1       7.287 -18.019   3.579  1.00  0.00     0.167 HD
ATOM     64  C   UNL     1       9.673 -19.913   6.734  1.00  0.00     0.037 A 
ATOM     65  C   UNL     1       6.877 -16.973   1.029  1.00  0.00     0.037 A 
ATOM     66  C   UNL     1      10.492 -19.985   5.555  1.00  0.00     0.049 A 
ATOM     67  C   UNL     1       8.262 -17.573   1.023  1.00  0.00     0.074 A 
ATOM     68  C   UNL     1      11.735 -20.573   5.404  1.00  0.00     0.029 A 
ATOM     69  N   UNL     1      10.150 -19.443   4.326  1.00  0.00    -0.354 N 
ATOM     70  N   UNL     1       8.905 -18.186   1.987  1.00  0.00    -0.248 NA
ATOM     71  C   UNL     1       9.022 -17.476  -0.232  1.00  0.00     0.031 C 
ATOM     72  C   UNL     1      12.169 -20.343   4.094  1.00  0.00     0.029 A 
ATOM     73  C   UNL     1      11.173 -19.658   3.416  1.00  0.00     0.049 A 
ATOM     74  H   UNL     1       9.307 -18.975   4.128  1.00  0.00     0.167 HD
ATOM     75  C   UNL     1      10.127 -18.572   1.449  1.00  0.00     0.074 A 
ATOM     76  C   UNL     1      10.131 -18.136   0.069  1.00  0.00     0.031 C 
ATOM     77  C   UNL     1      11.154 -19.227   2.043  1.00  0.00     0.037 A 
BRANCH  64  78
ATOM     78  C   UNL     1      10.214 -20.488   8.008  1.00  0.00     0.064 A 
ATOM     79  C   UNL     1       9.716 -21.684   8.545  1.00  0.00     0.173 A 
ATOM     80  C   UNL     1      11.277 -19.859   8.673  1.00  0.00     0.173 A 
ATOM     81  F   UNL     1       8.689 -22.313   7.955  1.00  0.00    -0.203 F 
ATOM     82  C   UNL     1      10.254 -22.222   9.711  1.00  0.00     0.198 A 
ATOM     83  C   UNL     1      11.829 -20.413   9.824  1.00  0.00     0.198 A 
ATOM     84  F   UNL     1      11.788 -18.713   8.198  1.00  0.00    -0.203 F 
ATOM     85  F   UNL     1       9.740 -23.347  10.227  1.00  0.00    -0.200 F 
ATOM     86  C   UNL     1      11.314 -21.591  10.345  1.00  0.00     0.200 A 
ATOM     87  F   UNL     1      12.860 -19.807  10.430  1.00  0.00    -0.200 F 
ATOM     88  F   UNL     1      11.839 -22.116  11.460  1.00  0.00    -0.200 F 
ENDBRANCH  64  78
BRANCH  65  89
ATOM     89  C   UNL     1       6.342 -16.305  -0.186  1.00  0.00     0.064 A 
ATOM     90  C   UNL     1       6.045 -17.036  -1.345  1.00  0.00     0.173 A 
ATOM     91  C   UNL     1       6.160 -14.915  -0.227  1.00  0.00     0.173 A 
ATOM     92  F   UNL     1       6.230 -18.364  -1.365  1.00  0.00    -0.203 F 
ATOM     93  C   UNL     1       5.612 -16.398  -2.507  1.00  0.00     0.198 A 
ATOM     94  C   UNL     1       5.699 -14.282  -1.380  1.00  0.00     0.198 A 
ATOM     95  F   UNL     1       6.433 -14.169   0.853  1.00  0.00    -0.203 F 
ATOM     96  F   UNL     1       5.392 -17.114  -3.618  1.00  0.00    -0.200 F 
ATOM     97  C   UNL     1       5.436 -15.023  -2.522  1.00  0.00     0.200 A 
ATOM     98  F   UNL     1       5.522 -12.954  -1.388  1.00  0.00    -0.200 F 
ATOM     99  F   UNL     1       5.025 -14.410  -3.641  1.00  0.00    -0.200 F 
ENDBRANCH  65  89
BRANCH  77 100
ATOM    100  C   UNL     1      12.353 -19.545   1.198  1.00  0.00     0.064 A 
ATOM    101  C   UNL     1      13.252 -18.549   0.789  1.00  0.00     0.173 A 
ATOM    102  C   UNL     1      12.631 -20.872   0.831  1.00  0.00     0.173 A 
ATOM    103  F   UNL     1      13.024 -17.265   1.103  1.00  0.00    -0.203 F 
ATOM    104  C   UNL     1      14.370 -18.866   0.023  1.00  0.00     0.198 A 
ATOM    105  C   UNL     1      13.766 -21.188   0.090  1.00  0.00     0.198 A 
ATOM    106  F   UNL     1      11.807 -21.863   1.205  1.00  0.00    -0.203 F 
ATOM    107  F   UNL     1      15.191 -17.892  -0.396  1.00  0.00    -0.200 F 
ATOM    108  C   UNL     1      14.630 -20.185  -0.319  1.00  0.00     0.200 A 
ATOM    109  F   UNL     1      14.023 -22.465  -0.226  1.00  0.00    -0.200 F 
ATOM    110  F   UNL     1      15.712 -20.488  -1.050  1.00  0.00    -0.200 F 
ENDBRANCH  77 100
ENDBRANCH  51  52
ENDBRANCH  44  46
ENDBRANCH  43  44
ENDBRANCH  42  43
ENDBRANCH  41  42
ENDBRANCH  40  41
ENDBRANCH  39  40
ENDBRANCH  38  39
ENDBRANCH  37  38
ENDBRANCH   1  37
TORSDOF 24
