REMARK SMILES CC(C)[C@H](NS(=O)(=O)c1cccc(F)c1)C(=O)OCCOCCOCCOCCOC(=O)c1ccc(-c2c3nc(c(-c4c(F)c(F)c(F)c(F)c4F)c4ccc([nH]4)c(-c4c(F)c(F)c(F)c(F)c4F)c4nc(c(-c5c(F)c(F)c(F)c(F)c5F)c5ccc2[nH]5)C=C4)C=C3)cc1
REMARK SMILES IDX 23 1 22 2 21 3 20 4 19 5 18 6 16 7 17 8 4 9 2 10 1 11 3 12
REMARK SMILES IDX 5 13 6 15 7 16 8 17 9 18 10 19 15 20 11 21 13 22 12 23 14 24
REMARK SMILES IDX 24 25 25 26 26 27 27 28 28 29 29 30 30 31 31 32 32 33 33 34
REMARK SMILES IDX 34 35 95 36 35 37 94 38 36 39 37 40 38 41 88 42 39 43 93 44
REMARK SMILES IDX 87 45 89 46 40 47 92 48 86 49 85 50 41 52 73 53 53 54 72 55
REMARK SMILES IDX 54 56 57 57 71 58 90 59 55 60 56 61 70 63 91 64 58 65 42 66
REMARK SMILES IDX 43 67 51 68 44 69 45 70 49 71 52 72 46 73 47 74 50 75 48 76
REMARK SMILES IDX 74 77 75 78 83 79 76 80 77 81 81 82 84 83 78 84 79 85 82 86
REMARK SMILES IDX 80 87 59 88 60 89 68 90 61 91 62 92 66 93 69 94 63 95 64 96
REMARK SMILES IDX 67 97 65 98
REMARK H PARENT 5 14 89 51 57 62
REMARK Flexibility Score: inf
ROOT
ATOM      1  C   UNL     1       0.010   3.360  -2.232  1.00  0.00     0.188 C 
ENDROOT
BRANCH   1   2
ATOM      2  C   UNL     1      -1.433   3.330  -2.763  1.00  0.00     0.188 C 
BRANCH   2   3
ATOM      3  O   UNL     1      -2.307   4.445  -2.628  1.00  0.00    -0.376 OA
BRANCH   3   4
ATOM      4  C   UNL     1      -2.306   5.252  -1.462  1.00  0.00     0.202 C 
BRANCH   4   5
ATOM      5  C   UNL     1      -2.513   4.631  -0.075  1.00  0.00     0.261 C 
BRANCH   5   6
ATOM      6  O   UNL     1      -1.789   3.421   0.197  1.00  0.00    -0.462 OA
BRANCH   6   7
ATOM      7  C   UNL     1      -2.530   2.279   0.138  1.00  0.00     0.324 C 
ATOM      8  O   UNL     1      -3.708   2.232  -0.199  1.00  0.00    -0.250 OA
BRANCH   7   9
ATOM      9  C   UNL     1      -1.750   1.045   0.598  1.00  0.00     0.182 C 
BRANCH   9  10
ATOM     10  C   UNL     1      -2.008   0.748   2.084  1.00  0.00     0.012 C 
ATOM     11  C   UNL     1      -1.909   1.968   2.999  1.00  0.00     0.009 C 
ATOM     12  C   UNL     1      -3.380   0.075   2.222  1.00  0.00     0.009 C 
ENDBRANCH   9  10
BRANCH   9  13
ATOM     13  N   UNL     1      -0.322   1.095   0.238  1.00  0.00    -0.197 NA
ATOM     14  H   UNL     1       0.106   1.734   0.909  1.00  0.00     0.142 HD
BRANCH  13  15
ATOM     15  S   UNL     1       0.693  -0.230   0.174  1.00  0.00     0.241 S 
ATOM     16  O   UNL     1       2.007   0.337  -0.016  1.00  0.00    -0.207 OA
ATOM     17  O   UNL     1       0.407  -1.099   1.296  1.00  0.00    -0.207 OA
BRANCH  15  18
ATOM     18  C   UNL     1       0.352  -1.183  -1.293  1.00  0.00     0.085 A 
ATOM     19  C   UNL     1       1.384  -2.010  -1.770  1.00  0.00     0.022 A 
ATOM     20  C   UNL     1      -0.897  -1.226  -1.906  1.00  0.00     0.061 A 
ATOM     21  C   UNL     1       1.149  -2.901  -2.823  1.00  0.00     0.004 A 
ATOM     22  C   UNL     1      -1.121  -2.130  -2.940  1.00  0.00     0.124 A 
ATOM     23  C   UNL     1      -0.117  -2.971  -3.400  1.00  0.00     0.039 A 
ATOM     24  F   UNL     1      -2.342  -2.204  -3.486  1.00  0.00    -0.207 F 
ENDBRANCH  15  18
ENDBRANCH  13  15
ENDBRANCH   9  13
ENDBRANCH   7   9
ENDBRANCH   6   7
ENDBRANCH   5   6
ENDBRANCH   4   5
ENDBRANCH   3   4
ENDBRANCH   2   3
ENDBRANCH   1   2
BRANCH   1  25
ATOM     25  O   UNL     1       0.305   4.451  -1.381  1.00  0.00    -0.377 OA
BRANCH  25  26
ATOM     26  C   UNL     1       1.109   5.476  -1.962  1.00  0.00     0.188 C 
BRANCH  26  27
ATOM     27  C   UNL     1       0.728   5.943  -3.382  1.00  0.00     0.188 C 
BRANCH  27  28
ATOM     28  O   UNL     1       0.851   4.919  -4.368  1.00  0.00    -0.376 OA
BRANCH  28  29
ATOM     29  C   UNL     1       2.046   4.912  -5.146  1.00  0.00     0.202 C 
BRANCH  29  30
ATOM     30  C   UNL     1       3.303   4.420  -4.408  1.00  0.00     0.261 C 
BRANCH  30  31
ATOM     31  O   UNL     1       3.771   5.282  -3.356  1.00  0.00    -0.460 OA
BRANCH  31  32
ATOM     32  C   UNL     1       4.039   6.562  -3.680  1.00  0.00     0.338 C 
ATOM     33  O   UNL     1       4.058   7.053  -4.795  1.00  0.00    -0.246 OA
BRANCH  32  34
ATOM     34  C   UNL     1       4.124   7.356  -2.439  1.00  0.00     0.060 A 
ATOM     35  C   UNL     1       3.362   8.528  -2.357  1.00  0.00     0.016 A 
ATOM     36  C   UNL     1       4.990   6.997  -1.403  1.00  0.00     0.016 A 
ATOM     37  C   UNL     1       3.539   9.397  -1.284  1.00  0.00     0.010 A 
ATOM     38  C   UNL     1       5.181   7.877  -0.334  1.00  0.00     0.010 A 
ATOM     39  C   UNL     1       4.504   9.110  -0.310  1.00  0.00    -0.014 A 
BRANCH  39  40
ATOM     40  C   UNL     1       5.004  10.222   0.533  1.00  0.00     0.031 A 
ATOM     41  C   UNL     1       6.198  10.994   0.034  1.00  0.00     0.074 A 
ATOM     42  C   UNL     1       4.377  10.596   1.660  1.00  0.00     0.049 A 
ATOM     43  N   UNL     1       6.794  12.037   0.553  1.00  0.00    -0.248 NA
ATOM     44  C   UNL     1       6.798  10.529  -1.230  1.00  0.00     0.031 C 
ATOM     45  C   UNL     1       3.188   9.959   2.217  1.00  0.00     0.029 A 
ATOM     46  N   UNL     1       4.656  11.618   2.533  1.00  0.00    -0.354 N 
ATOM     47  C   UNL     1       7.825  12.353  -0.321  1.00  0.00     0.074 A 
ATOM     48  C   UNL     1       7.804  11.374  -1.384  1.00  0.00     0.031 C 
ATOM     49  C   UNL     1       2.833  10.609   3.340  1.00  0.00     0.029 A 
ATOM     50  C   UNL     1       3.782  11.695   3.588  1.00  0.00     0.049 A 
ATOM     51  H   UNL     1       5.412  12.238   2.413  1.00  0.00     0.167 HD
ATOM     52  C   UNL     1       8.704  13.379  -0.255  1.00  0.00     0.037 A 
ATOM     53  C   UNL     1       3.756  12.548   4.631  1.00  0.00     0.037 A 
ATOM     54  C   UNL     1       8.730  14.351   0.802  1.00  0.00     0.049 A 
ATOM     55  C   UNL     1       4.784  13.648   4.716  1.00  0.00     0.074 A 
ATOM     56  C   UNL     1       9.595  15.417   0.973  1.00  0.00     0.029 A 
ATOM     57  N   UNL     1       7.847  14.373   1.871  1.00  0.00    -0.354 N 
ATOM     58  N   UNL     1       5.752  13.944   3.883  1.00  0.00    -0.248 NA
ATOM     59  C   UNL     1       4.707  14.542   5.882  1.00  0.00     0.031 C 
ATOM     60  C   UNL     1       9.260  16.062   2.166  1.00  0.00     0.029 A 
ATOM     61  C   UNL     1       8.153  15.431   2.710  1.00  0.00     0.049 A 
ATOM     62  H   UNL     1       7.113  13.733   2.012  1.00  0.00     0.167 HD
ATOM     63  C   UNL     1       6.373  15.074   4.401  1.00  0.00     0.074 A 
ATOM     64  C   UNL     1       5.672  15.414   5.621  1.00  0.00     0.031 C 
ATOM     65  C   UNL     1       7.426  15.770   3.907  1.00  0.00     0.037 A 
BRANCH  52  66
ATOM     66  C   UNL     1       9.719  13.495  -1.351  1.00  0.00     0.064 A 
ATOM     67  C   UNL     1      11.070  13.216  -1.103  1.00  0.00     0.173 A 
ATOM     68  C   UNL     1       9.361  13.926  -2.638  1.00  0.00     0.173 A 
ATOM     69  F   UNL     1      11.462  12.798   0.111  1.00  0.00    -0.203 F 
ATOM     70  C   UNL     1      12.029  13.376  -2.099  1.00  0.00     0.198 A 
ATOM     71  C   UNL     1      10.319  14.060  -3.639  1.00  0.00     0.198 A 
ATOM     72  F   UNL     1       8.077  14.186  -2.930  1.00  0.00    -0.203 F 
ATOM     73  F   UNL     1      13.318  13.128  -1.831  1.00  0.00    -0.200 F 
ATOM     74  C   UNL     1      11.652  13.795  -3.366  1.00  0.00     0.200 A 
ATOM     75  F   UNL     1       9.950  14.439  -4.870  1.00  0.00    -0.200 F 
ATOM     76  F   UNL     1      12.575  13.938  -4.327  1.00  0.00    -0.200 F 
ENDBRANCH  52  66
BRANCH  53  77
ATOM     77  C   UNL     1       2.703  12.409   5.670  1.00  0.00     0.064 A 
ATOM     78  C   UNL     1       2.698  11.324   6.559  1.00  0.00     0.173 A 
ATOM     79  C   UNL     1       1.679  13.358   5.794  1.00  0.00     0.173 A 
ATOM     80  F   UNL     1       3.657  10.390   6.484  1.00  0.00    -0.203 F 
ATOM     81  C   UNL     1       1.700  11.187   7.522  1.00  0.00     0.198 A 
ATOM     82  C   UNL     1       0.696  13.233   6.773  1.00  0.00     0.198 A 
ATOM     83  F   UNL     1       1.655  14.426   4.983  1.00  0.00    -0.203 F 
ATOM     84  F   UNL     1       1.705  10.127   8.342  1.00  0.00    -0.200 F 
ATOM     85  C   UNL     1       0.703  12.144   7.632  1.00  0.00     0.200 A 
ATOM     86  F   UNL     1      -0.251  14.174   6.893  1.00  0.00    -0.200 F 
ATOM     87  F   UNL     1      -0.248  12.020   8.568  1.00  0.00    -0.200 F 
ENDBRANCH  53  77
BRANCH  65  88
ATOM     88  C   UNL     1       7.864  17.001   4.644  1.00  0.00     0.064 A 
ATOM     89  C   UNL     1       7.666  18.270   4.076  1.00  0.00     0.173 A 
ATOM     90  C   UNL     1       8.556  16.926   5.861  1.00  0.00     0.173 A 
ATOM     91  F   UNL     1       7.021  18.393   2.906  1.00  0.00    -0.203 F 
ATOM     92  C   UNL     1       8.157  19.416   4.694  1.00  0.00     0.198 A 
ATOM     93  C   UNL     1       9.021  18.078   6.490  1.00  0.00     0.198 A 
ATOM     94  F   UNL     1       8.764  15.737   6.447  1.00  0.00    -0.203 F 
ATOM     95  F   UNL     1       7.987  20.613   4.114  1.00  0.00    -0.200 F 
ATOM     96  C   UNL     1       8.830  19.320   5.901  1.00  0.00     0.200 A 
ATOM     97  F   UNL     1       9.654  17.986   7.667  1.00  0.00    -0.200 F 
ATOM     98  F   UNL     1       9.296  20.425   6.500  1.00  0.00    -0.200 F 
ENDBRANCH  65  88
ENDBRANCH  39  40
ENDBRANCH  32  34
ENDBRANCH  31  32
ENDBRANCH  30  31
ENDBRANCH  29  30
ENDBRANCH  28  29
ENDBRANCH  27  28
ENDBRANCH  26  27
ENDBRANCH  25  26
ENDBRANCH   1  25
TORSDOF 24
