REMARK SMILES [H]/N=C1\C=CC2=NC(C(=O)OCCOCCOCCOCCOC(=O)c3ccc(-c4c5nc(c(-c6c(F)c(F)c(F)c(F)c6F)c6ccc([nH]6)c(-c6c(F)c(F)c(F)c(F)c6F)c6nc(c(-c7c(F)c(F)c(F)c(F)c7F)c7ccc4[nH]7)C=C6)C=C5)cc3)=C[C@@H]2C1
REMARK SMILES IDX 18 1 17 2 16 3 15 4 14 5 13 6 12 7 11 8 9 9 10 10 8 11 2 12
REMARK SMILES IDX 3 13 1 14 4 15 91 16 5 17 90 18 6 19 89 20 7 21 19 22 20 23
REMARK SMILES IDX 21 24 22 25 23 26 24 27 25 28 26 29 27 30 88 31 28 32 87 33
REMARK SMILES IDX 29 34 30 35 31 36 81 37 32 38 86 39 80 40 82 41 33 42 85 43
REMARK SMILES IDX 79 44 78 45 34 47 66 48 46 49 65 50 47 51 50 52 64 53 83 54
REMARK SMILES IDX 48 55 49 56 63 58 84 59 51 60 35 61 36 62 44 63 37 64 38 65
REMARK SMILES IDX 42 66 45 67 39 68 40 69 43 70 41 71 67 72 68 73 76 74 69 75
REMARK SMILES IDX 70 76 74 77 77 78 71 79 72 80 75 81 73 82 52 83 53 84 61 85
REMARK SMILES IDX 54 86 55 87 59 88 62 89 56 90 57 91 60 92 58 93
REMARK H PARENT 82 46 50 57
REMARK Flexibility Score: inf
ROOT
ATOM      1  C   UNL     1      -5.752   1.827  -7.567  1.00  0.00     0.188 C 
ENDROOT
BRANCH   1   2
ATOM      2  O   UNL     1      -5.020   1.846  -6.351  1.00  0.00    -0.377 OA
BRANCH   2   3
ATOM      3  C   UNL     1      -3.784   1.141  -6.262  1.00  0.00     0.188 C 
BRANCH   3   4
ATOM      4  C   UNL     1      -3.435  -0.020  -7.222  1.00  0.00     0.188 C 
BRANCH   4   5
ATOM      5  O   UNL     1      -4.535  -0.556  -7.946  1.00  0.00    -0.376 OA
BRANCH   5   6
ATOM      6  C   UNL     1      -5.023  -1.816  -7.508  1.00  0.00     0.202 C 
BRANCH   6   7
ATOM      7  C   UNL     1      -5.724  -1.776  -6.143  1.00  0.00     0.261 C 
BRANCH   7   8
ATOM      8  O   UNL     1      -4.834  -1.474  -5.054  1.00  0.00    -0.459 OA
BRANCH   8   9
ATOM      9  C   UNL     1      -3.868  -2.399  -4.833  1.00  0.00     0.356 C 
ATOM     10  O   UNL     1      -3.804  -3.506  -5.346  1.00  0.00    -0.244 OA
BRANCH   9  11
ATOM     11  C   UNL     1      -2.796  -1.811  -3.988  1.00  0.00     0.145 C 
ATOM     12  N   UNL     1       0.721   0.391  -0.048  1.00  0.00    -0.305 NA
ATOM     13  C   UNL     1       0.237   0.085  -1.204  1.00  0.00     0.032 C 
ATOM     14  H   UNL     1       1.696   0.393   0.093  1.00  0.00     0.187 HD
ATOM     15  C   UNL     1       1.101  -0.265  -2.365  1.00  0.00     0.025 C 
ATOM     16  C   UNL     1      -1.271   0.087  -1.406  1.00  0.00     0.069 C 
ATOM     17  C   UNL     1       0.583  -0.875  -3.438  1.00  0.00     0.026 C 
ATOM     18  C   UNL     1      -1.609  -1.202  -2.118  1.00  0.00     0.069 C 
ATOM     19  C   UNL     1      -0.837  -1.267  -3.419  1.00  0.00     0.049 C 
ATOM     20  C   UNL     1      -2.959  -1.436  -2.712  1.00  0.00     0.019 C 
ATOM     21  N   UNL     1      -1.502  -1.683  -4.449  1.00  0.00    -0.245 NA
ENDBRANCH   9  11
ENDBRANCH   8   9
ENDBRANCH   7   8
ENDBRANCH   6   7
ENDBRANCH   5   6
ENDBRANCH   4   5
ENDBRANCH   3   4
ENDBRANCH   2   3
ENDBRANCH   1   2
BRANCH   1  22
ATOM     22  C   UNL     1      -5.028   2.183  -8.885  1.00  0.00     0.188 C 
BRANCH  22  23
ATOM     23  O   UNL     1      -3.610   2.296  -8.784  1.00  0.00    -0.376 OA
BRANCH  23  24
ATOM     24  C   UNL     1      -3.034   3.561  -9.083  1.00  0.00     0.202 C 
BRANCH  24  25
ATOM     25  C   UNL     1      -3.044   4.507  -7.883  1.00  0.00     0.261 C 
BRANCH  25  26
ATOM     26  O   UNL     1      -4.352   4.689  -7.357  1.00  0.00    -0.460 OA
BRANCH  26  27
ATOM     27  C   UNL     1      -5.244   5.209  -8.222  1.00  0.00     0.338 C 
ATOM     28  O   UNL     1      -5.026   5.631  -9.343  1.00  0.00    -0.246 OA
BRANCH  27  29
ATOM     29  C   UNL     1      -6.563   5.253  -7.576  1.00  0.00     0.060 A 
ATOM     30  C   UNL     1      -7.601   5.746  -8.369  1.00  0.00     0.016 A 
ATOM     31  C   UNL     1      -6.619   5.237  -6.178  1.00  0.00     0.016 A 
ATOM     32  C   UNL     1      -8.508   6.582  -7.767  1.00  0.00     0.010 A 
ATOM     33  C   UNL     1      -7.495   6.102  -5.581  1.00  0.00     0.010 A 
ATOM     34  C   UNL     1      -8.316   6.865  -6.414  1.00  0.00    -0.014 A 
BRANCH  34  35
ATOM     35  C   UNL     1      -8.712   8.186  -5.968  1.00  0.00     0.031 A 
ATOM     36  C   UNL     1     -10.003   8.287  -5.272  1.00  0.00     0.074 A 
ATOM     37  C   UNL     1      -7.833   9.205  -6.077  1.00  0.00     0.049 A 
ATOM     38  N   UNL     1     -11.006   9.050  -5.556  1.00  0.00    -0.248 NA
ATOM     39  C   UNL     1     -10.230   7.371  -4.146  1.00  0.00     0.031 C 
ATOM     40  C   UNL     1      -6.407   9.130  -6.432  1.00  0.00     0.029 A 
ATOM     41  N   UNL     1      -8.003  10.518  -5.769  1.00  0.00    -0.354 N 
ATOM     42  C   UNL     1     -11.939   8.817  -4.554  1.00  0.00     0.074 A 
ATOM     43  C   UNL     1     -11.475   7.684  -3.799  1.00  0.00     0.031 C 
ATOM     44  C   UNL     1      -5.808  10.298  -6.113  1.00  0.00     0.029 A 
ATOM     45  C   UNL     1      -6.819  11.225  -5.636  1.00  0.00     0.049 A 
ATOM     46  H   UNL     1      -8.889  10.930  -5.651  1.00  0.00     0.167 HD
ATOM     47  C   UNL     1     -12.929   9.701  -4.271  1.00  0.00     0.037 A 
ATOM     48  C   UNL     1      -6.677  12.448  -5.073  1.00  0.00     0.037 A 
ATOM     49  C   UNL     1     -13.180  10.604  -5.358  1.00  0.00     0.049 A 
ATOM     50  C   UNL     1      -8.023  13.072  -5.000  1.00  0.00     0.074 A 
ATOM     51  C   UNL     1     -13.600  10.445  -6.665  1.00  0.00     0.029 A 
ATOM     52  N   UNL     1     -12.685  11.881  -5.279  1.00  0.00    -0.354 N 
ATOM     53  N   UNL     1      -8.705  13.488  -6.030  1.00  0.00    -0.248 NA
ATOM     54  C   UNL     1      -8.798  12.866  -3.784  1.00  0.00     0.031 C 
ATOM     55  C   UNL     1     -12.935  11.465  -7.404  1.00  0.00     0.029 A 
ATOM     56  C   UNL     1     -12.150  12.188  -6.505  1.00  0.00     0.049 A 
ATOM     57  H   UNL     1     -12.710  12.469  -4.490  1.00  0.00     0.167 HD
ATOM     58  C   UNL     1     -10.030  13.219  -5.714  1.00  0.00     0.074 A 
ATOM     59  C   UNL     1     -10.033  12.941  -4.284  1.00  0.00     0.031 C 
ATOM     60  C   UNL     1     -10.951  12.971  -6.690  1.00  0.00     0.037 A 
BRANCH  47  61
ATOM     61  C   UNL     1     -13.466   9.900  -2.885  1.00  0.00     0.064 A 
ATOM     62  C   UNL     1     -14.684  10.573  -2.696  1.00  0.00     0.173 A 
ATOM     63  C   UNL     1     -12.706   9.661  -1.717  1.00  0.00     0.173 A 
ATOM     64  F   UNL     1     -15.454  10.897  -3.745  1.00  0.00    -0.203 F 
ATOM     65  C   UNL     1     -15.100  10.991  -1.429  1.00  0.00     0.198 A 
ATOM     66  C   UNL     1     -13.154  10.019  -0.450  1.00  0.00     0.198 A 
ATOM     67  F   UNL     1     -11.462   9.165  -1.772  1.00  0.00    -0.203 F 
ATOM     68  F   UNL     1     -16.218  11.718  -1.305  1.00  0.00    -0.200 F 
ATOM     69  C   UNL     1     -14.341  10.705  -0.308  1.00  0.00     0.200 A 
ATOM     70  F   UNL     1     -12.392   9.753   0.620  1.00  0.00    -0.200 F 
ATOM     71  F   UNL     1     -14.724  11.135   0.901  1.00  0.00    -0.200 F 
ENDBRANCH  47  61
BRANCH  48  72
ATOM     72  C   UNL     1      -5.510  12.963  -4.321  1.00  0.00     0.064 A 
ATOM     73  C   UNL     1      -5.324  14.338  -4.120  1.00  0.00     0.173 A 
ATOM     74  C   UNL     1      -4.674  12.103  -3.580  1.00  0.00     0.173 A 
ATOM     75  F   UNL     1      -6.115  15.223  -4.744  1.00  0.00    -0.203 F 
ATOM     76  C   UNL     1      -4.361  14.824  -3.230  1.00  0.00     0.198 A 
ATOM     77  C   UNL     1      -3.702  12.588  -2.705  1.00  0.00     0.198 A 
ATOM     78  F   UNL     1      -4.840  10.773  -3.621  1.00  0.00    -0.203 F 
ATOM     79  F   UNL     1      -4.247  16.144  -3.022  1.00  0.00    -0.200 F 
ATOM     80  C   UNL     1      -3.552  13.949  -2.522  1.00  0.00     0.200 A 
ATOM     81  F   UNL     1      -2.952  11.728  -2.002  1.00  0.00    -0.200 F 
ATOM     82  F   UNL     1      -2.660  14.413  -1.636  1.00  0.00    -0.200 F 
ENDBRANCH  48  72
BRANCH  60  83
ATOM     83  C   UNL     1     -10.555  13.278  -8.105  1.00  0.00     0.064 A 
ATOM     84  C   UNL     1      -9.537  12.587  -8.786  1.00  0.00     0.173 A 
ATOM     85  C   UNL     1     -11.315  14.198  -8.839  1.00  0.00     0.173 A 
ATOM     86  F   UNL     1      -8.844  11.615  -8.178  1.00  0.00    -0.203 F 
ATOM     87  C   UNL     1      -9.261  12.845 -10.126  1.00  0.00     0.198 A 
ATOM     88  C   UNL     1     -11.059  14.428 -10.189  1.00  0.00     0.198 A 
ATOM     89  F   UNL     1     -12.341  14.838  -8.258  1.00  0.00    -0.203 F 
ATOM     90  F   UNL     1      -8.276  12.181 -10.750  1.00  0.00    -0.200 F 
ATOM     91  C   UNL     1     -10.025  13.762 -10.828  1.00  0.00     0.200 A 
ATOM     92  F   UNL     1     -11.834  15.277 -10.879  1.00  0.00    -0.200 F 
ATOM     93  F   UNL     1      -9.786  13.982 -12.129  1.00  0.00    -0.200 F 
ENDBRANCH  60  83
ENDBRANCH  34  35
ENDBRANCH  27  29
ENDBRANCH  26  27
ENDBRANCH  25  26
ENDBRANCH  24  25
ENDBRANCH  23  24
ENDBRANCH  22  23
ENDBRANCH   1  22
TORSDOF 20
