REMARK SMILES COc1cccc([C@@H]2[NH2+][C@@](C)(C(=O)OCCOCCOCCOCCOC(=O)c3ccc(-c4c5nc(c(-c6c(F)c(F)c(F)c(F)c6F)c6ccc([nH]6)c(-c6c(F)c(F)c(F)c(F)c6F)c6nc(c(-c7c(F)c(F)c(F)c(F)c7F)c7ccc4[nH]7)C=C6)C=C5)cc3)[C@@H]3C(=O)N(C)C(=O)[C@@H]32)c1O
REMARK SMILES IDX 20 1 19 2 18 3 17 4 16 5 15 6 14 7 12 8 13 9 10 10 8 11 9 12
REMARK SMILES IDX 99 13 92 16 97 17 11 18 93 19 95 20 98 21 94 22 96 23 7 24
REMARK SMILES IDX 3 25 4 26 100 27 5 28 6 29 2 30 1 31 101 32 21 34 22 35
REMARK SMILES IDX 23 36 24 37 25 38 26 39 27 40 28 41 29 42 30 43 91 44 31 45
REMARK SMILES IDX 90 46 32 47 33 48 34 49 84 50 35 51 89 52 83 53 85 54 36 55
REMARK SMILES IDX 88 56 82 57 81 58 37 60 69 61 49 62 68 63 50 64 53 65 67 66
REMARK SMILES IDX 86 67 51 68 52 69 66 71 87 72 54 73 38 74 39 75 47 76 40 77
REMARK SMILES IDX 41 78 45 79 48 80 42 81 43 82 46 83 44 84 70 85 71 86 79 87
REMARK SMILES IDX 72 88 73 89 77 90 80 91 74 92 75 93 78 94 76 95 55 96 56 97
REMARK SMILES IDX 64 98 57 99 58 100 62 101 65 102 59 103 60 104 63 105 61 106
REMARK H PARENT 9 14 9 15 101 33 85 59 53 70
REMARK Flexibility Score: inf
ROOT
ATOM      1  O   UNL     1       5.864  -4.089   6.535  1.00  0.00    -0.377 OA
ENDROOT
BRANCH   1   2
ATOM      2  C   UNL     1       5.838  -3.750   5.164  1.00  0.00     0.188 C 
BRANCH   2   3
ATOM      3  C   UNL     1       7.043  -2.907   4.702  1.00  0.00     0.188 C 
BRANCH   3   4
ATOM      4  O   UNL     1       7.883  -2.241   5.636  1.00  0.00    -0.376 OA
BRANCH   4   5
ATOM      5  C   UNL     1       7.389  -1.922   6.924  1.00  0.00     0.202 C 
BRANCH   5   6
ATOM      6  C   UNL     1       6.120  -1.056   7.067  1.00  0.00     0.261 C 
BRANCH   6   7
ATOM      7  O   UNL     1       5.082  -1.216   6.079  1.00  0.00    -0.459 OA
BRANCH   7   8
ATOM      8  C   UNL     1       5.144  -0.371   5.020  1.00  0.00     0.368 C 
ATOM      9  O   UNL     1       5.999   0.509   4.919  1.00  0.00    -0.245 OA
BRANCH   8  10
ATOM     10  C   UNL     1       4.015  -0.536   3.947  1.00  0.00     0.204 C 
ATOM     11  C   UNL     1       3.616  -2.581   2.647  1.00  0.00     0.232 C 
ATOM     12  N   UNL     1       3.316  -1.866   3.917  1.00  0.00    -0.325 N 
ATOM     13  C   UNL     1       4.786  -1.835   2.018  1.00  0.00     0.161 C 
ATOM     14  H   UNL     1       3.634  -2.431   4.705  1.00  0.00     0.347 HD
ATOM     15  H   UNL     1       2.309  -1.712   3.981  1.00  0.00     0.347 HD
ATOM     16  C   UNL     1       4.719  -0.425   2.594  1.00  0.00     0.170 C 
ATOM     17  C   UNL     1       4.750  -1.602   0.536  1.00  0.00     0.239 C 
ATOM     18  C   UNL     1       3.028   0.559   4.371  1.00  0.00     0.093 C 
ATOM     19  C   UNL     1       4.075   0.353   1.483  1.00  0.00     0.240 C 
ATOM     20  N   UNL     1       4.317  -0.325   0.318  1.00  0.00    -0.285 N 
ATOM     21  O   UNL     1       5.040  -2.436  -0.308  1.00  0.00    -0.274 OA
ATOM     22  O   UNL     1       3.459   1.400   1.589  1.00  0.00    -0.274 OA
ATOM     23  C   UNL     1       4.061   0.199  -0.999  1.00  0.00     0.156 C 
BRANCH  11  24
ATOM     24  C   UNL     1       2.444  -2.866   1.706  1.00  0.00     0.056 A 
ATOM     25  C   UNL     1       0.615  -2.128   0.250  1.00  0.00     0.161 A 
ATOM     26  C   UNL     1       0.599  -3.385  -0.359  1.00  0.00     0.050 A 
ATOM     27  C   UNL     1       1.499  -1.902   1.316  1.00  0.00     0.166 A 
ATOM     28  C   UNL     1       1.473  -4.386   0.056  1.00  0.00     0.005 A 
ATOM     29  C   UNL     1       2.399  -4.122   1.067  1.00  0.00     0.014 A 
BRANCH  25  30
ATOM     30  O   UNL     1      -0.321  -1.262  -0.247  1.00  0.00    -0.493 OA
ATOM     31  C   UNL     1       0.048   0.106  -0.344  1.00  0.00     0.278 C 
ENDBRANCH  25  30
BRANCH  27  32
ATOM     32  O   UNL     1       1.443  -0.773   2.072  1.00  0.00    -0.504 OA
ATOM     33  H   UNL     1       0.832  -0.096   1.859  1.00  0.00     0.293 HD
ENDBRANCH  27  32
ENDBRANCH  11  24
ENDBRANCH   8  10
ENDBRANCH   7   8
ENDBRANCH   6   7
ENDBRANCH   5   6
ENDBRANCH   4   5
ENDBRANCH   3   4
ENDBRANCH   2   3
ENDBRANCH   1   2
BRANCH   1  34
ATOM     34  C   UNL     1       6.294  -5.400   6.829  1.00  0.00     0.188 C 
BRANCH  34  35
ATOM     35  C   UNL     1       7.581  -5.869   6.132  1.00  0.00     0.188 C 
BRANCH  35  36
ATOM     36  O   UNL     1       7.515  -5.786   4.710  1.00  0.00    -0.376 OA
BRANCH  36  37
ATOM     37  C   UNL     1       7.267  -6.971   3.969  1.00  0.00     0.202 C 
BRANCH  37  38
ATOM     38  C   UNL     1       5.815  -7.479   3.948  1.00  0.00     0.261 C 
BRANCH  38  39
ATOM     39  O   UNL     1       5.220  -7.763   5.223  1.00  0.00    -0.460 OA
BRANCH  39  40
ATOM     40  C   UNL     1       5.823  -8.681   6.006  1.00  0.00     0.338 C 
ATOM     41  O   UNL     1       6.798  -9.359   5.728  1.00  0.00    -0.246 OA
BRANCH  40  42
ATOM     42  C   UNL     1       5.236  -8.583   7.359  1.00  0.00     0.060 A 
ATOM     43  C   UNL     1       6.089  -8.320   8.439  1.00  0.00     0.016 A 
ATOM     44  C   UNL     1       3.859  -8.714   7.562  1.00  0.00     0.016 A 
ATOM     45  C   UNL     1       5.574  -8.225   9.730  1.00  0.00     0.010 A 
ATOM     46  C   UNL     1       3.347  -8.653   8.862  1.00  0.00     0.010 A 
ATOM     47  C   UNL     1       4.210  -8.449   9.954  1.00  0.00    -0.014 A 
BRANCH  47  48
ATOM     48  C   UNL     1       3.752  -8.728  11.336  1.00  0.00     0.031 A 
ATOM     49  C   UNL     1       3.684 -10.167  11.771  1.00  0.00     0.074 A 
ATOM     50  C   UNL     1       3.464  -7.742  12.203  1.00  0.00     0.049 A 
ATOM     51  N   UNL     1       3.327 -10.678  12.921  1.00  0.00    -0.248 NA
ATOM     52  C   UNL     1       4.079 -11.168  10.765  1.00  0.00     0.031 C 
ATOM     53  C   UNL     1       3.537  -6.312  11.914  1.00  0.00     0.029 A 
ATOM     54  N   UNL     1       3.051  -7.803  13.511  1.00  0.00    -0.354 N 
ATOM     55  C   UNL     1       3.463 -12.053  12.778  1.00  0.00     0.074 A 
ATOM     56  C   UNL     1       3.889 -12.303  11.419  1.00  0.00     0.031 C 
ATOM     57  C   UNL     1       3.167  -5.628  13.012  1.00  0.00     0.029 A 
ATOM     58  C   UNL     1       2.809  -6.573  14.070  1.00  0.00     0.049 A 
ATOM     59  H   UNL     1       2.940  -8.649  14.001  1.00  0.00     0.167 HD
ATOM     60  C   UNL     1       3.266 -13.023  13.701  1.00  0.00     0.037 A 
ATOM     61  C   UNL     1       2.333  -6.256  15.290  1.00  0.00     0.037 A 
ATOM     62  C   UNL     1       2.824 -12.775  15.047  1.00  0.00     0.049 A 
ATOM     63  C   UNL     1       2.036  -7.361  16.275  1.00  0.00     0.074 A 
ATOM     64  C   UNL     1       2.576 -13.686  16.057  1.00  0.00     0.029 A 
ATOM     65  N   UNL     1       2.554 -11.517  15.566  1.00  0.00    -0.354 N 
ATOM     66  N   UNL     1       2.185  -8.658  16.141  1.00  0.00    -0.248 NA
ATOM     67  C   UNL     1       1.515  -6.955  17.588  1.00  0.00     0.031 C 
ATOM     68  C   UNL     1       2.105 -12.984  17.172  1.00  0.00     0.029 A 
ATOM     69  C   UNL     1       2.124 -11.630  16.878  1.00  0.00     0.049 A 
ATOM     70  H   UNL     1       2.653 -10.669  15.075  1.00  0.00     0.167 HD
ATOM     71  C   UNL     1       1.814  -9.216  17.359  1.00  0.00     0.074 A 
ATOM     72  C   UNL     1       1.448  -8.115  18.225  1.00  0.00     0.031 C 
ATOM     73  C   UNL     1       1.778 -10.520  17.730  1.00  0.00     0.037 A 
BRANCH  60  74
ATOM     74  C   UNL     1       3.505 -14.441  13.272  1.00  0.00     0.064 A 
ATOM     75  C   UNL     1       4.796 -14.921  12.999  1.00  0.00     0.173 A 
ATOM     76  C   UNL     1       2.433 -15.337  13.146  1.00  0.00     0.173 A 
ATOM     77  F   UNL     1       5.854 -14.101  13.084  1.00  0.00    -0.203 F 
ATOM     78  C   UNL     1       4.999 -16.236  12.588  1.00  0.00     0.198 A 
ATOM     79  C   UNL     1       2.644 -16.660  12.767  1.00  0.00     0.198 A 
ATOM     80  F   UNL     1       1.179 -14.930  13.393  1.00  0.00    -0.203 F 
ATOM     81  F   UNL     1       6.234 -16.657  12.279  1.00  0.00    -0.200 F 
ATOM     82  C   UNL     1       3.925 -17.106  12.481  1.00  0.00     0.200 A 
ATOM     83  F   UNL     1       1.606 -17.502  12.675  1.00  0.00    -0.200 F 
ATOM     84  F   UNL     1       4.123 -18.373  12.092  1.00  0.00    -0.200 F 
ENDBRANCH  60  74
BRANCH  61  85
ATOM     85  C   UNL     1       2.091  -4.833  15.656  1.00  0.00     0.064 A 
ATOM     86  C   UNL     1       2.827  -4.205  16.671  1.00  0.00     0.173 A 
ATOM     87  C   UNL     1       1.079  -4.088  15.032  1.00  0.00     0.173 A 
ATOM     88  F   UNL     1       3.787  -4.882  17.319  1.00  0.00    -0.203 F 
ATOM     89  C   UNL     1       2.541  -2.900  17.068  1.00  0.00     0.198 A 
ATOM     90  C   UNL     1       0.817  -2.771  15.406  1.00  0.00     0.198 A 
ATOM     91  F   UNL     1       0.340  -4.640  14.059  1.00  0.00    -0.203 F 
ATOM     92  F   UNL     1       3.218  -2.348  18.084  1.00  0.00    -0.200 F 
ATOM     93  C   UNL     1       1.539  -2.182  16.432  1.00  0.00     0.200 A 
ATOM     94  F   UNL     1      -0.146  -2.079  14.782  1.00  0.00    -0.200 F 
ATOM     95  F   UNL     1       1.261  -0.929  16.817  1.00  0.00    -0.200 F 
ENDBRANCH  61  85
BRANCH  73  96
ATOM     96  C   UNL     1       1.386 -10.825  19.150  1.00  0.00     0.064 A 
ATOM     97  C   UNL     1       0.079 -10.628  19.619  1.00  0.00     0.173 A 
ATOM     98  C   UNL     1       2.332 -11.347  20.047  1.00  0.00     0.173 A 
ATOM     99  F   UNL     1      -0.862 -10.123  18.806  1.00  0.00    -0.203 F 
ATOM    100  C   UNL     1      -0.256 -10.903  20.943  1.00  0.00     0.198 A 
ATOM    101  C   UNL     1       1.984 -11.656  21.359  1.00  0.00     0.198 A 
ATOM    102  F   UNL     1       3.594 -11.567  19.649  1.00  0.00    -0.203 F 
ATOM    103  F   UNL     1      -1.495 -10.646  21.385  1.00  0.00    -0.200 F 
ATOM    104  C   UNL     1       0.694 -11.422  21.809  1.00  0.00     0.200 A 
ATOM    105  F   UNL     1       2.899 -12.176  22.189  1.00  0.00    -0.200 F 
ATOM    106  F   UNL     1       0.368 -11.689  23.081  1.00  0.00    -0.200 F 
ENDBRANCH  73  96
ENDBRANCH  47  48
ENDBRANCH  40  42
ENDBRANCH  39  40
ENDBRANCH  38  39
ENDBRANCH  37  38
ENDBRANCH  36  37
ENDBRANCH  35  36
ENDBRANCH  34  35
ENDBRANCH   1  34
TORSDOF 23
