REMARK SMILES CO[C@H]1C[C@@H](C(=O)OCCOCCOCCOCCOC(=O)c2ccc(-c3c4nc(c(-c5c(F)c(F)c(F)c(F)c5F)c5ccc([nH]5)c(-c5c(F)c(F)c(F)c(F)c5F)c5nc(c(-c6c(F)c(F)c(F)c(F)c6F)c6ccc3[nH]6)C=C5)C=C4)cc2)N(C(=O)CSc2cccs2)C1
REMARK SMILES IDX 13 1 12 2 11 3 10 4 9 5 8 6 6 7 7 8 5 9 3 10 4 11 96 12
REMARK SMILES IDX 86 13 2 14 1 15 87 16 88 17 89 18 90 19 91 20 92 21 95 22
REMARK SMILES IDX 93 23 94 24 14 25 15 26 16 27 17 28 18 29 19 30 20 31 21 32
REMARK SMILES IDX 22 33 23 34 24 35 85 36 25 37 84 38 26 39 27 40 28 41 78 42
REMARK SMILES IDX 29 43 83 44 77 45 79 46 30 47 82 48 76 49 75 50 31 52 63 53
REMARK SMILES IDX 43 54 62 55 44 56 47 57 61 58 80 59 45 60 46 61 60 63 81 64
REMARK SMILES IDX 48 65 32 66 33 67 41 68 34 69 35 70 39 71 42 72 36 73 37 74
REMARK SMILES IDX 40 75 38 76 64 77 65 78 73 79 66 80 67 81 71 82 74 83 68 84
REMARK SMILES IDX 69 85 72 86 70 87 49 88 50 89 58 90 51 91 52 92 56 93 59 94
REMARK SMILES IDX 53 95 54 96 57 97 55 98
REMARK H PARENT 79 51 47 62
REMARK Flexibility Score: inf
ROOT
ATOM      1  C   UNL     1       1.269   7.246  -0.800  1.00  0.00     0.188 C 
ENDROOT
BRANCH   1   2
ATOM      2  C   UNL     1       0.335   7.631  -1.980  1.00  0.00     0.188 C 
BRANCH   2   3
ATOM      3  O   UNL     1      -0.849   8.321  -1.620  1.00  0.00    -0.376 OA
BRANCH   3   4
ATOM      4  C   UNL     1      -2.066   7.611  -1.735  1.00  0.00     0.202 C 
BRANCH   4   5
ATOM      5  C   UNL     1      -2.199   6.409  -0.799  1.00  0.00     0.261 C 
BRANCH   5   6
ATOM      6  O   UNL     1      -1.104   5.474  -0.838  1.00  0.00    -0.462 OA
BRANCH   6   7
ATOM      7  C   UNL     1      -0.962   4.704  -1.950  1.00  0.00     0.329 C 
ATOM      8  O   UNL     1      -1.673   4.814  -2.941  1.00  0.00    -0.250 OA
BRANCH   7   9
ATOM      9  C   UNL     1       0.126   3.614  -1.783  1.00  0.00     0.197 C 
ATOM     10  C   UNL     1       0.936   1.953  -0.251  1.00  0.00     0.140 C 
ATOM     11  C   UNL     1      -0.115   3.034  -0.370  1.00  0.00     0.071 C 
ATOM     12  C   UNL     1       2.137   2.619  -0.913  1.00  0.00     0.152 C 
ATOM     13  N   UNL     1       1.620   3.658  -1.820  1.00  0.00    -0.325 N 
BRANCH  10  14
ATOM     14  O   UNL     1       1.212   1.636   1.105  1.00  0.00    -0.380 OA
ATOM     15  C   UNL     1       0.286   0.705   1.648  1.00  0.00     0.195 C 
ENDBRANCH  10  14
BRANCH  13  16
ATOM     16  C   UNL     1       2.528   4.054  -2.795  1.00  0.00     0.233 C 
ATOM     17  O   UNL     1       3.635   3.498  -2.866  1.00  0.00    -0.274 OA
BRANCH  16  18
ATOM     18  C   UNL     1       2.351   5.301  -3.630  1.00  0.00     0.175 C 
BRANCH  18  19
ATOM     19  S   UNL     1       0.960   5.308  -4.754  1.00  0.00    -0.105 SA
BRANCH  19  20
ATOM     20  C   UNL     1       1.522   4.206  -5.976  1.00  0.00     0.060 A 
ATOM     21  C   UNL     1       2.218   4.550  -7.112  1.00  0.00     0.027 A 
ATOM     22  S   UNL     1       1.204   2.535  -5.885  1.00  0.00    -0.137 S 
ATOM     23  C   UNL     1       2.488   3.414  -7.928  1.00  0.00     0.013 A 
ATOM     24  C   UNL     1       1.992   2.254  -7.374  1.00  0.00     0.066 A 
ENDBRANCH  19  20
ENDBRANCH  18  19
ENDBRANCH  16  18
ENDBRANCH  13  16
ENDBRANCH   7   9
ENDBRANCH   6   7
ENDBRANCH   5   6
ENDBRANCH   4   5
ENDBRANCH   3   4
ENDBRANCH   2   3
ENDBRANCH   1   2
BRANCH   1  25
ATOM     25  O   UNL     1       1.234   7.919   0.452  1.00  0.00    -0.377 OA
BRANCH  25  26
ATOM     26  C   UNL     1       0.447   9.091   0.569  1.00  0.00     0.188 C 
BRANCH  26  27
ATOM     27  C   UNL     1       0.784  10.252  -0.393  1.00  0.00     0.188 C 
BRANCH  27  28
ATOM     28  O   UNL     1       1.690   9.893  -1.418  1.00  0.00    -0.376 OA
BRANCH  28  29
ATOM     29  C   UNL     1       3.060  10.223  -1.332  1.00  0.00     0.202 C 
BRANCH  29  30
ATOM     30  C   UNL     1       3.880   9.993  -0.054  1.00  0.00     0.261 C 
BRANCH  30  31
ATOM     31  O   UNL     1       3.207  10.123   1.198  1.00  0.00    -0.460 OA
BRANCH  31  32
ATOM     32  C   UNL     1       2.942  11.375   1.638  1.00  0.00     0.338 C 
ATOM     33  O   UNL     1       3.181  12.421   1.084  1.00  0.00    -0.246 OA
BRANCH  32  34
ATOM     34  C   UNL     1       2.105  11.217   2.849  1.00  0.00     0.060 A 
ATOM     35  C   UNL     1       0.795  11.717   2.848  1.00  0.00     0.016 A 
ATOM     36  C   UNL     1       2.597  10.511   3.949  1.00  0.00     0.016 A 
ATOM     37  C   UNL     1      -0.029  11.513   3.954  1.00  0.00     0.010 A 
ATOM     38  C   UNL     1       1.788  10.346   5.072  1.00  0.00     0.010 A 
ATOM     39  C   UNL     1       0.483  10.869   5.087  1.00  0.00    -0.014 A 
BRANCH  39  40
ATOM     40  C   UNL     1      -0.249  10.957   6.369  1.00  0.00     0.031 A 
ATOM     41  C   UNL     1       0.129  12.068   7.306  1.00  0.00     0.074 A 
ATOM     42  C   UNL     1      -1.216  10.084   6.692  1.00  0.00     0.049 A 
ATOM     43  N   UNL     1      -0.300  12.322   8.514  1.00  0.00    -0.248 NA
ATOM     44  C   UNL     1       1.137  13.021   6.810  1.00  0.00     0.031 C 
ATOM     45  C   UNL     1      -1.693   8.996   5.843  1.00  0.00     0.029 A 
ATOM     46  N   UNL     1      -1.960   9.971   7.839  1.00  0.00    -0.354 N 
ATOM     47  C   UNL     1       0.391  13.454   8.924  1.00  0.00     0.074 A 
ATOM     48  C   UNL     1       1.290  13.821   7.853  1.00  0.00     0.031 C 
ATOM     49  C   UNL     1      -2.641   8.311   6.508  1.00  0.00     0.029 A 
ATOM     50  C   UNL     1      -2.808   8.892   7.840  1.00  0.00     0.049 A 
ATOM     51  H   UNL     1      -1.892  10.604   8.590  1.00  0.00     0.167 HD
ATOM     52  C   UNL     1       0.279  14.130  10.090  1.00  0.00     0.037 A 
ATOM     53  C   UNL     1      -3.602   8.418   8.820  1.00  0.00     0.037 A 
ATOM     54  C   UNL     1      -0.610  13.751  11.154  1.00  0.00     0.049 A 
ATOM     55  C   UNL     1      -3.647   9.141  10.144  1.00  0.00     0.074 A 
ATOM     56  C   UNL     1      -0.811  14.373  12.372  1.00  0.00     0.029 A 
ATOM     57  N   UNL     1      -1.436  12.636  11.130  1.00  0.00    -0.354 N 
ATOM     58  N   UNL     1      -3.016  10.228  10.519  1.00  0.00    -0.248 NA
ATOM     59  C   UNL     1      -4.519   8.572  11.182  1.00  0.00     0.031 C 
ATOM     60  C   UNL     1      -1.710  13.600  13.111  1.00  0.00     0.029 A 
ATOM     61  C   UNL     1      -2.127  12.537  12.325  1.00  0.00     0.049 A 
ATOM     62  H   UNL     1      -1.518  12.009  10.375  1.00  0.00     0.167 HD
ATOM     63  C   UNL     1      -3.442  10.494  11.815  1.00  0.00     0.074 A 
ATOM     64  C   UNL     1      -4.392   9.457  12.160  1.00  0.00     0.031 C 
ATOM     65  C   UNL     1      -3.083  11.506  12.644  1.00  0.00     0.037 A 
BRANCH  52  66
ATOM     66  C   UNL     1       1.167  15.324  10.284  1.00  0.00     0.064 A 
ATOM     67  C   UNL     1       0.994  16.505   9.546  1.00  0.00     0.173 A 
ATOM     68  C   UNL     1       2.194  15.293  11.239  1.00  0.00     0.173 A 
ATOM     69  F   UNL     1       0.039  16.581   8.606  1.00  0.00    -0.203 F 
ATOM     70  C   UNL     1       1.835  17.599   9.736  1.00  0.00     0.198 A 
ATOM     71  C   UNL     1       3.010  16.400  11.452  1.00  0.00     0.198 A 
ATOM     72  F   UNL     1       2.404  14.189  11.972  1.00  0.00    -0.203 F 
ATOM     73  F   UNL     1       1.686  18.696   8.981  1.00  0.00    -0.200 F 
ATOM     74  C   UNL     1       2.836  17.549  10.695  1.00  0.00     0.200 A 
ATOM     75  F   UNL     1       3.968  16.354  12.388  1.00  0.00    -0.200 F 
ATOM     76  F   UNL     1       3.638  18.605  10.884  1.00  0.00    -0.200 F 
ENDBRANCH  52  66
BRANCH  53  77
ATOM     77  C   UNL     1      -4.411   7.190   8.597  1.00  0.00     0.064 A 
ATOM     78  C   UNL     1      -5.811   7.242   8.564  1.00  0.00     0.173 A 
ATOM     79  C   UNL     1      -3.803   5.935   8.439  1.00  0.00     0.173 A 
ATOM     80  F   UNL     1      -6.442   8.413   8.736  1.00  0.00    -0.203 F 
ATOM     81  C   UNL     1      -6.572   6.085   8.404  1.00  0.00     0.198 A 
ATOM     82  C   UNL     1      -4.564   4.784   8.246  1.00  0.00     0.198 A 
ATOM     83  F   UNL     1      -2.466   5.828   8.466  1.00  0.00    -0.203 F 
ATOM     84  F   UNL     1      -7.910   6.157   8.429  1.00  0.00    -0.200 F 
ATOM     85  C   UNL     1      -5.948   4.858   8.238  1.00  0.00     0.200 A 
ATOM     86  F   UNL     1      -3.955   3.603   8.073  1.00  0.00    -0.200 F 
ATOM     87  F   UNL     1      -6.680   3.747   8.081  1.00  0.00    -0.200 F 
ENDBRANCH  53  77
BRANCH  65  88
ATOM     88  C   UNL     1      -3.760  11.584  13.984  1.00  0.00     0.064 A 
ATOM     89  C   UNL     1      -3.495  10.662  15.006  1.00  0.00     0.173 A 
ATOM     90  C   UNL     1      -4.642  12.640  14.266  1.00  0.00     0.173 A 
ATOM     91  F   UNL     1      -2.669   9.628  14.785  1.00  0.00    -0.203 F 
ATOM     92  C   UNL     1      -4.106  10.779  16.252  1.00  0.00     0.198 A 
ATOM     93  C   UNL     1      -5.223  12.775  15.523  1.00  0.00     0.198 A 
ATOM     94  F   UNL     1      -4.923  13.556  13.327  1.00  0.00    -0.203 F 
ATOM     95  F   UNL     1      -3.875   9.859  17.198  1.00  0.00    -0.200 F 
ATOM     96  C   UNL     1      -4.961  11.840  16.513  1.00  0.00     0.200 A 
ATOM     97  F   UNL     1      -6.032  13.812  15.778  1.00  0.00    -0.200 F 
ATOM     98  F   UNL     1      -5.536  11.959  17.717  1.00  0.00    -0.200 F 
ENDBRANCH  65  88
ENDBRANCH  39  40
ENDBRANCH  32  34
ENDBRANCH  31  32
ENDBRANCH  30  31
ENDBRANCH  29  30
ENDBRANCH  28  29
ENDBRANCH  27  28
ENDBRANCH  26  27
ENDBRANCH  25  26
ENDBRANCH   1  25
TORSDOF 25
