REMARK SMILES C[C@H]([NH3+])C(=O)N1CCC[C@H]1C(=O)OCCOCCOCCOCCOC(=O)c1ccc(-c2c3nc(c(-c4c(F)c(F)c(F)c(F)c4F)c4ccc([nH]4)c(-c4c(F)c(F)c(F)c(F)c4F)c4nc(c(-c5c(F)c(F)c(F)c(F)c5F)c5ccc2[nH]5)C=C4)C=C3)cc1
REMARK SMILES IDX 18 1 17 2 16 3 15 4 14 5 13 6 11 7 12 8 10 9 6 10 7 11 8 12
REMARK SMILES IDX 9 13 4 14 5 15 2 16 1 17 3 18 19 22 20 23 21 24 22 25 23 26
REMARK SMILES IDX 24 27 25 28 26 29 27 30 28 31 29 32 90 33 30 34 89 35 31 36
REMARK SMILES IDX 32 37 33 38 83 39 34 40 88 41 82 42 84 43 35 44 87 45 81 46
REMARK SMILES IDX 80 47 36 49 68 50 48 51 67 52 49 53 52 54 66 55 85 56 50 57
REMARK SMILES IDX 51 58 65 60 86 61 53 62 37 63 38 64 46 65 39 66 40 67 44 68
REMARK SMILES IDX 47 69 41 70 42 71 45 72 43 73 69 74 70 75 78 76 71 77 72 78
REMARK SMILES IDX 76 79 79 80 73 81 74 82 77 83 75 84 54 85 55 86 63 87 56 88
REMARK SMILES IDX 57 89 61 90 64 91 58 92 59 93 62 94 60 95
REMARK H PARENT 3 19 3 20 3 21 84 48 52 59
REMARK Flexibility Score: inf
ROOT
ATOM      1  C   UNL     1      -3.897  -0.871   0.364  1.00  0.00     0.188 C 
ENDROOT
BRANCH   1   2
ATOM      2  C   UNL     1      -4.758  -0.583   1.619  1.00  0.00     0.188 C 
BRANCH   2   3
ATOM      3  O   UNL     1      -6.155  -0.578   1.381  1.00  0.00    -0.376 OA
BRANCH   3   4
ATOM      4  C   UNL     1      -6.824   0.664   1.304  1.00  0.00     0.202 C 
BRANCH   4   5
ATOM      5  C   UNL     1      -6.263   1.752   0.383  1.00  0.00     0.261 C 
BRANCH   5   6
ATOM      6  O   UNL     1      -4.832   1.868   0.349  1.00  0.00    -0.462 OA
BRANCH   6   7
ATOM      7  C   UNL     1      -4.258   2.674   1.282  1.00  0.00     0.328 C 
ATOM      8  O   UNL     1      -4.892   3.257   2.156  1.00  0.00    -0.250 OA
BRANCH   7   9
ATOM      9  C   UNL     1      -2.793   3.001   0.933  1.00  0.00     0.195 C 
ATOM     10  N   UNL     1      -1.808   1.968   0.549  1.00  0.00    -0.324 N 
ATOM     11  C   UNL     1      -1.391   2.132  -0.830  1.00  0.00     0.121 C 
ATOM     12  C   UNL     1      -1.583   3.613  -1.079  1.00  0.00     0.024 C 
ATOM     13  C   UNL     1      -2.845   3.930  -0.295  1.00  0.00     0.039 C 
BRANCH  10  14
ATOM     14  C   UNL     1      -1.277   1.144   1.520  1.00  0.00     0.281 C 
ATOM     15  O   UNL     1      -1.918   0.958   2.564  1.00  0.00    -0.268 OA
BRANCH  14  16
ATOM     16  C   UNL     1       0.180   0.616   1.452  1.00  0.00     0.268 C 
ATOM     17  C   UNL     1       1.123   1.749   1.847  1.00  0.00     0.086 C 
BRANCH  16  18
ATOM     18  N   UNL     1       0.588  -0.006   0.179  1.00  0.00    -0.348 N 
ATOM     19  H   UNL     1       0.572   0.694  -0.563  1.00  0.00     0.345 HD
ATOM     20  H   UNL     1      -0.056  -0.762  -0.052  1.00  0.00     0.345 HD
ATOM     21  H   UNL     1       1.533  -0.381   0.271  1.00  0.00     0.345 HD
ENDBRANCH  16  18
ENDBRANCH  14  16
ENDBRANCH  10  14
ENDBRANCH   7   9
ENDBRANCH   6   7
ENDBRANCH   5   6
ENDBRANCH   4   5
ENDBRANCH   3   4
ENDBRANCH   2   3
ENDBRANCH   1   2
BRANCH   1  22
ATOM     22  O   UNL     1      -4.466  -1.019  -0.933  1.00  0.00    -0.377 OA
BRANCH  22  23
ATOM     23  C   UNL     1      -5.748  -1.604  -1.089  1.00  0.00     0.188 C 
BRANCH  23  24
ATOM     24  C   UNL     1      -6.153  -2.822  -0.233  1.00  0.00     0.188 C 
BRANCH  24  25
ATOM     25  O   UNL     1      -5.205  -3.182   0.753  1.00  0.00    -0.376 OA
BRANCH  25  26
ATOM     26  C   UNL     1      -4.415  -4.335   0.543  1.00  0.00     0.202 C 
BRANCH  26  27
ATOM     27  C   UNL     1      -3.521  -4.400  -0.705  1.00  0.00     0.261 C 
BRANCH  27  28
ATOM     28  O   UNL     1      -4.130  -4.043  -1.954  1.00  0.00    -0.460 OA
BRANCH  28  29
ATOM     29  C   UNL     1      -5.054  -4.883  -2.458  1.00  0.00     0.338 C 
ATOM     30  O   UNL     1      -5.454  -5.929  -1.970  1.00  0.00    -0.246 OA
BRANCH  29  31
ATOM     31  C   UNL     1      -5.646  -4.228  -3.641  1.00  0.00     0.060 A 
ATOM     32  C   UNL     1      -7.006  -3.888  -3.628  1.00  0.00     0.016 A 
ATOM     33  C   UNL     1      -4.851  -3.931  -4.750  1.00  0.00     0.016 A 
ATOM     34  C   UNL     1      -7.580  -3.269  -4.738  1.00  0.00     0.010 A 
ATOM     35  C   UNL     1      -5.434  -3.339  -5.872  1.00  0.00     0.010 A 
ATOM     36  C   UNL     1      -6.807  -3.034  -5.881  1.00  0.00    -0.014 A 
BRANCH  36  37
ATOM     37  C   UNL     1      -7.473  -2.672  -7.154  1.00  0.00     0.031 A 
ATOM     38  C   UNL     1      -7.770  -3.773  -8.133  1.00  0.00     0.074 A 
ATOM     39  C   UNL     1      -7.825  -1.405  -7.429  1.00  0.00     0.049 A 
ATOM     40  N   UNL     1      -8.288  -3.707  -9.332  1.00  0.00    -0.248 NA
ATOM     41  C   UNL     1      -7.431  -5.138  -7.698  1.00  0.00     0.031 C 
ATOM     42  C   UNL     1      -7.634  -0.262  -6.540  1.00  0.00     0.029 A 
ATOM     43  N   UNL     1      -8.411  -0.869  -8.550  1.00  0.00    -0.354 N 
ATOM     44  C   UNL     1      -8.329  -5.016  -9.795  1.00  0.00     0.074 A 
ATOM     45  C   UNL     1      -7.754  -5.851  -8.765  1.00  0.00     0.031 C 
ATOM     46  C   UNL     1      -8.082   0.847  -7.156  1.00  0.00     0.029 A 
ATOM     47  C   UNL     1      -8.555   0.495  -8.495  1.00  0.00     0.049 A 
ATOM     48  H   UNL     1      -8.700  -1.411  -9.319  1.00  0.00     0.167 HD
ATOM     49  C   UNL     1      -8.810  -5.479 -10.973  1.00  0.00     0.037 A 
ATOM     50  C   UNL     1      -8.994   1.359  -9.432  1.00  0.00     0.037 A 
ATOM     51  C   UNL     1      -9.375  -4.641 -11.997  1.00  0.00     0.049 A 
ATOM     52  C   UNL     1      -9.445   0.827 -10.771  1.00  0.00     0.074 A 
ATOM     53  C   UNL     1      -9.905  -5.012 -13.219  1.00  0.00     0.029 A 
ATOM     54  N   UNL     1      -9.473  -3.259 -11.920  1.00  0.00    -0.354 N 
ATOM     55  N   UNL     1      -9.505  -0.413 -11.196  1.00  0.00    -0.248 NA
ATOM     56  C   UNL     1      -9.892   1.817 -11.761  1.00  0.00     0.031 C 
ATOM     57  C   UNL     1     -10.262  -3.850 -13.910  1.00  0.00     0.029 A 
ATOM     58  C   UNL     1     -10.024  -2.759 -13.089  1.00  0.00     0.049 A 
ATOM     59  H   UNL     1      -9.192  -2.714 -11.150  1.00  0.00     0.167 HD
ATOM     60  C   UNL     1     -10.028  -0.354 -12.482  1.00  0.00     0.074 A 
ATOM     61  C   UNL     1     -10.280   1.043 -12.764  1.00  0.00     0.031 C 
ATOM     62  C   UNL     1     -10.278  -1.365 -13.352  1.00  0.00     0.037 A 
BRANCH  49  63
ATOM     63  C   UNL     1      -8.709  -6.954 -11.230  1.00  0.00     0.064 A 
ATOM     64  C   UNL     1      -9.480  -7.886 -10.518  1.00  0.00     0.173 A 
ATOM     65  C   UNL     1      -7.847  -7.441 -12.224  1.00  0.00     0.173 A 
ATOM     66  F   UNL     1     -10.308  -7.476  -9.546  1.00  0.00    -0.203 F 
ATOM     67  C   UNL     1      -9.369  -9.251 -10.772  1.00  0.00     0.198 A 
ATOM     68  C   UNL     1      -7.764  -8.803 -12.499  1.00  0.00     0.198 A 
ATOM     69  F   UNL     1      -7.088  -6.594 -12.936  1.00  0.00    -0.203 F 
ATOM     70  F   UNL     1     -10.075 -10.126 -10.043  1.00  0.00    -0.200 F 
ATOM     71  C   UNL     1      -8.518  -9.708 -11.768  1.00  0.00     0.200 A 
ATOM     72  F   UNL     1      -6.952  -9.240 -13.472  1.00  0.00    -0.200 F 
ATOM     73  F   UNL     1      -8.419 -11.021 -12.017  1.00  0.00    -0.200 F 
ENDBRANCH  49  63
BRANCH  50  74
ATOM     74  C   UNL     1      -9.013   2.820  -9.152  1.00  0.00     0.064 A 
ATOM     75  C   UNL     1     -10.221   3.528  -9.076  1.00  0.00     0.173 A 
ATOM     76  C   UNL     1      -7.823   3.545  -8.986  1.00  0.00     0.173 A 
ATOM     77  F   UNL     1     -11.385   2.887  -9.255  1.00  0.00    -0.203 F 
ATOM     78  C   UNL     1     -10.237   4.906  -8.867  1.00  0.00     0.198 A 
ATOM     79  C   UNL     1      -7.842   4.917  -8.745  1.00  0.00     0.198 A 
ATOM     80  F   UNL     1      -6.639   2.918  -9.055  1.00  0.00    -0.203 F 
ATOM     81  F   UNL     1     -11.403   5.566  -8.855  1.00  0.00    -0.200 F 
ATOM     82  C   UNL     1      -9.048   5.598  -8.696  1.00  0.00     0.200 A 
ATOM     83  F   UNL     1      -6.690   5.579  -8.566  1.00  0.00    -0.200 F 
ATOM     84  F   UNL     1      -9.064   6.923  -8.494  1.00  0.00    -0.200 F 
ENDBRANCH  50  74
BRANCH  62  85
ATOM     85  C   UNL     1     -10.900  -1.008 -14.673  1.00  0.00     0.064 A 
ATOM     86  C   UNL     1     -10.191  -0.313 -15.664  1.00  0.00     0.173 A 
ATOM     87  C   UNL     1     -12.213  -1.409 -14.969  1.00  0.00     0.173 A 
ATOM     88  F   UNL     1      -8.937   0.104 -15.430  1.00  0.00    -0.203 F 
ATOM     89  C   UNL     1     -10.782  -0.006 -16.887  1.00  0.00     0.198 A 
ATOM     90  C   UNL     1     -12.788  -1.134 -16.206  1.00  0.00     0.198 A 
ATOM     91  F   UNL     1     -12.934  -2.086 -14.062  1.00  0.00    -0.203 F 
ATOM     92  F   UNL     1     -10.104   0.706 -17.797  1.00  0.00    -0.200 F 
ATOM     93  C   UNL     1     -12.076  -0.425 -17.161  1.00  0.00     0.200 A 
ATOM     94  F   UNL     1     -14.031  -1.556 -16.474  1.00  0.00    -0.200 F 
ATOM     95  F   UNL     1     -12.639  -0.138 -18.342  1.00  0.00    -0.200 F 
ENDBRANCH  62  85
ENDBRANCH  36  37
ENDBRANCH  29  31
ENDBRANCH  28  29
ENDBRANCH  27  28
ENDBRANCH  26  27
ENDBRANCH  25  26
ENDBRANCH  24  25
ENDBRANCH  23  24
ENDBRANCH  22  23
ENDBRANCH   1  22
TORSDOF 23
