REMARK SMILES O=C(COc1ccccc1Br)Nc1cccc(C(=O)Nc2ccc(C(=O)OCCOCCOCCOCCOC(=O)c3ccc(-c4c5nc(c(-c6c(F)c(F)c(F)c(F)c6F)c6ccc([nH]6)c(-c6c(F)c(F)c(F)c(F)c6F)c6nc(c(-c7c(F)c(F)c(F)c(F)c7F)c7ccc4[nH]7)C=C6)C=C5)cc3)cc2)c1
REMARK SMILES IDX 31 1 30 2 29 3 28 4 27 5 25 6 26 7 24 8 21 9 22 10 106 11
REMARK SMILES IDX 23 12 105 13 20 14 18 15 19 16 17 18 13 19 14 20 107 21
REMARK SMILES IDX 15 22 16 23 12 24 1 25 2 26 3 28 4 29 5 30 6 31 10 32 7 33
REMARK SMILES IDX 9 34 11 35 8 36 32 37 33 38 34 39 35 40 36 41 37 42 38 43
REMARK SMILES IDX 39 44 40 45 41 46 42 47 43 48 104 49 44 50 103 51 45 52
REMARK SMILES IDX 46 53 47 54 97 55 48 56 102 57 96 58 98 59 49 60 101 61
REMARK SMILES IDX 95 62 94 63 50 65 82 66 62 67 81 68 63 69 66 70 80 71 99 72
REMARK SMILES IDX 64 73 65 74 79 76 100 77 67 78 51 79 52 80 60 81 53 82 54 83
REMARK SMILES IDX 58 84 61 85 55 86 56 87 59 88 57 89 83 90 84 91 92 92 85 93
REMARK SMILES IDX 86 94 90 95 93 96 87 97 88 98 91 99 89 100 68 101 69 102
REMARK SMILES IDX 77 103 70 104 71 105 75 106 78 107 72 108 73 109 76 110
REMARK SMILES IDX 74 111
REMARK H PARENT 20 17 12 27 98 64 66 75
REMARK Flexibility Score: inf
ROOT
ATOM      1  C   UNL     1       2.034   5.413  -1.826  1.00  0.00     0.188 C 
ENDROOT
BRANCH   1   2
ATOM      2  O   UNL     1       2.962   5.974  -0.920  1.00  0.00    -0.376 OA
BRANCH   2   3
ATOM      3  C   UNL     1       3.697   5.221   0.028  1.00  0.00     0.202 C 
BRANCH   3   4
ATOM      4  C   UNL     1       3.882   3.691   0.091  1.00  0.00     0.261 C 
BRANCH   4   5
ATOM      5  O   UNL     1       3.174   2.868  -0.827  1.00  0.00    -0.460 OA
BRANCH   5   6
ATOM      6  C   UNL     1       1.875   2.651  -0.536  1.00  0.00     0.338 C 
ATOM      7  O   UNL     1       1.303   3.031   0.472  1.00  0.00    -0.246 OA
BRANCH   6   8
ATOM      8  C   UNL     1       1.215   1.986  -1.693  1.00  0.00     0.060 A 
ATOM      9  C   UNL     1      -0.176   0.420  -3.509  1.00  0.00     0.041 A 
ATOM     10  C   UNL     1      -0.870   1.359  -2.743  1.00  0.00     0.027 A 
ATOM     11  C   UNL     1       1.221   0.443  -3.555  1.00  0.00     0.027 A 
ATOM     12  C   UNL     1      -0.172   2.119  -1.808  1.00  0.00     0.018 A 
ATOM     13  C   UNL     1       1.924   1.221  -2.633  1.00  0.00     0.018 A 
BRANCH   9  14
ATOM     14  N   UNL     1      -0.929  -0.641  -4.033  1.00  0.00    -0.322 N 
ATOM     15  C   UNL     1      -0.719  -2.008  -3.901  1.00  0.00     0.255 C 
ATOM     16  O   UNL     1      -1.485  -2.780  -4.479  1.00  0.00    -0.269 OA
ATOM     17  H   UNL     1      -1.715  -0.381  -4.567  1.00  0.00     0.170 HD
BRANCH  15  18
ATOM     18  C   UNL     1       0.370  -2.585  -3.051  1.00  0.00     0.042 A 
ATOM     19  C   UNL     1       2.069  -2.347  -1.334  1.00  0.00     0.042 A 
ATOM     20  C   UNL     1       2.662  -3.533  -1.766  1.00  0.00     0.026 A 
ATOM     21  C   UNL     1       0.863  -1.946  -1.908  1.00  0.00     0.040 A 
ATOM     22  C   UNL     1       2.055  -4.298  -2.762  1.00  0.00     0.003 A 
ATOM     23  C   UNL     1       0.927  -3.811  -3.424  1.00  0.00     0.014 A 
BRANCH  19  24
ATOM     24  N   UNL     1       2.756  -1.586  -0.371  1.00  0.00    -0.323 N 
ATOM     25  O   UNL     1       1.093  -0.138   0.386  1.00  0.00    -0.271 OA
ATOM     26  C   UNL     1       2.251  -0.540   0.384  1.00  0.00     0.262 C 
ATOM     27  H   UNL     1       3.699  -1.822  -0.217  1.00  0.00     0.170 HD
BRANCH  26  28
ATOM     28  C   UNL     1       3.314   0.086   1.280  1.00  0.00     0.329 C 
BRANCH  28  29
ATOM     29  O   UNL     1       3.910  -0.916   2.114  1.00  0.00    -0.483 OA
BRANCH  29  30
ATOM     30  C   UNL     1       3.188  -1.036   3.275  1.00  0.00     0.134 A 
ATOM     31  C   UNL     1       3.473  -0.144   4.313  1.00  0.00     0.047 A 
ATOM     32  C   UNL     1       2.223  -2.034   3.457  1.00  0.00     0.060 A 
ATOM     33  C   UNL     1       2.752  -0.210   5.504  1.00  0.00     0.004 A 
ATOM     34  C   UNL     1       1.471  -2.063   4.631  1.00  0.00     0.019 A 
ATOM     35  Br  UNL     1       1.917  -3.428   2.212  1.00  0.00    -0.047 Br
ATOM     36  C   UNL     1       1.736  -1.153   5.653  1.00  0.00     0.001 A 
ENDBRANCH  29  30
ENDBRANCH  28  29
ENDBRANCH  26  28
ENDBRANCH  19  24
ENDBRANCH  15  18
ENDBRANCH   9  14
ENDBRANCH   6   8
ENDBRANCH   5   6
ENDBRANCH   4   5
ENDBRANCH   3   4
ENDBRANCH   2   3
ENDBRANCH   1   2
BRANCH   1  37
ATOM     37  C   UNL     1       2.640   4.705  -3.051  1.00  0.00     0.188 C 
BRANCH  37  38
ATOM     38  O   UNL     1       4.001   4.346  -2.888  1.00  0.00    -0.377 OA
BRANCH  38  39
ATOM     39  C   UNL     1       4.984   5.341  -3.157  1.00  0.00     0.188 C 
BRANCH  39  40
ATOM     40  C   UNL     1       4.639   6.848  -3.110  1.00  0.00     0.188 C 
BRANCH  40  41
ATOM     41  O   UNL     1       3.362   7.191  -3.625  1.00  0.00    -0.376 OA
BRANCH  41  42
ATOM     42  C   UNL     1       3.256   7.712  -4.939  1.00  0.00     0.202 C 
BRANCH  42  43
ATOM     43  C   UNL     1       3.638   6.779  -6.098  1.00  0.00     0.261 C 
BRANCH  43  44
ATOM     44  O   UNL     1       4.968   6.245  -6.061  1.00  0.00    -0.460 OA
BRANCH  44  45
ATOM     45  C   UNL     1       5.990   7.124  -6.083  1.00  0.00     0.338 C 
ATOM     46  O   UNL     1       5.921   8.338  -6.179  1.00  0.00    -0.246 OA
BRANCH  45  47
ATOM     47  C   UNL     1       7.228   6.382  -5.777  1.00  0.00     0.060 A 
ATOM     48  C   UNL     1       7.984   6.753  -4.657  1.00  0.00     0.016 A 
ATOM     49  C   UNL     1       7.638   5.324  -6.591  1.00  0.00     0.016 A 
ATOM     50  C   UNL     1       9.178   6.092  -4.372  1.00  0.00     0.010 A 
ATOM     51  C   UNL     1       8.847   4.679  -6.319  1.00  0.00     0.010 A 
ATOM     52  C   UNL     1       9.640   5.086  -5.230  1.00  0.00    -0.014 A 
BRANCH  52  53
ATOM     53  C   UNL     1      11.040   4.612  -5.120  1.00  0.00     0.031 A 
ATOM     54  C   UNL     1      12.066   5.221  -6.037  1.00  0.00     0.074 A 
ATOM     55  C   UNL     1      11.399   3.677  -4.223  1.00  0.00     0.049 A 
ATOM     56  N   UNL     1      13.333   4.929  -6.182  1.00  0.00    -0.248 NA
ATOM     57  C   UNL     1      11.597   6.308  -6.915  1.00  0.00     0.031 C 
ATOM     58  C   UNL     1      10.506   3.047  -3.253  1.00  0.00     0.029 A 
ATOM     59  N   UNL     1      12.616   3.084  -3.996  1.00  0.00    -0.354 N 
ATOM     60  C   UNL     1      13.804   5.778  -7.175  1.00  0.00     0.074 A 
ATOM     61  C   UNL     1      12.689   6.587  -7.612  1.00  0.00     0.031 C 
ATOM     62  C   UNL     1      11.204   2.140  -2.545  1.00  0.00     0.029 A 
ATOM     63  C   UNL     1      12.579   2.099  -3.038  1.00  0.00     0.049 A 
ATOM     64  H   UNL     1      13.438   3.340  -4.474  1.00  0.00     0.167 HD
ATOM     65  C   UNL     1      15.057   5.874  -7.674  1.00  0.00     0.037 A 
ATOM     66  C   UNL     1      13.542   1.246  -2.634  1.00  0.00     0.037 A 
ATOM     67  C   UNL     1      16.169   5.080  -7.224  1.00  0.00     0.049 A 
ATOM     68  C   UNL     1      14.915   1.334  -3.261  1.00  0.00     0.074 A 
ATOM     69  C   UNL     1      17.488   5.135  -7.637  1.00  0.00     0.029 A 
ATOM     70  N   UNL     1      16.088   4.081  -6.267  1.00  0.00    -0.354 N 
ATOM     71  N   UNL     1      15.365   2.171  -4.165  1.00  0.00    -0.248 NA
ATOM     72  C   UNL     1      15.915   0.357  -2.806  1.00  0.00     0.031 C 
ATOM     73  C   UNL     1      18.192   4.122  -6.981  1.00  0.00     0.029 A 
ATOM     74  C   UNL     1      17.328   3.486  -6.104  1.00  0.00     0.049 A 
ATOM     75  H   UNL     1      15.272   3.831  -5.777  1.00  0.00     0.167 HD
ATOM     76  C   UNL     1      16.704   1.849  -4.353  1.00  0.00     0.074 A 
ATOM     77  C   UNL     1      16.998   0.750  -3.460  1.00  0.00     0.031 C 
ATOM     78  C   UNL     1      17.611   2.410  -5.190  1.00  0.00     0.037 A 
BRANCH  65  79
ATOM     79  C   UNL     1      15.301   6.847  -8.789  1.00  0.00     0.064 A 
ATOM     80  C   UNL     1      15.325   8.232  -8.574  1.00  0.00     0.173 A 
ATOM     81  C   UNL     1      15.598   6.376 -10.078  1.00  0.00     0.173 A 
ATOM     82  F   UNL     1      15.033   8.733  -7.364  1.00  0.00    -0.203 F 
ATOM     83  C   UNL     1      15.631   9.111  -9.610  1.00  0.00     0.198 A 
ATOM     84  C   UNL     1      15.932   7.255 -11.103  1.00  0.00     0.198 A 
ATOM     85  F   UNL     1      15.588   5.059 -10.335  1.00  0.00    -0.203 F 
ATOM     86  F   UNL     1      15.621  10.433  -9.390  1.00  0.00    -0.200 F 
ATOM     87  C   UNL     1      15.947   8.621 -10.870  1.00  0.00     0.200 A 
ATOM     88  F   UNL     1      16.251   6.778 -12.315  1.00  0.00    -0.200 F 
ATOM     89  F   UNL     1      16.265   9.467 -11.859  1.00  0.00    -0.200 F 
ENDBRANCH  65  79
BRANCH  66  90
ATOM     90  C   UNL     1      13.254   0.204  -1.610  1.00  0.00     0.064 A 
ATOM     91  C   UNL     1      13.915   0.199  -0.373  1.00  0.00     0.173 A 
ATOM     92  C   UNL     1      12.372  -0.854  -1.878  1.00  0.00     0.173 A 
ATOM     93  F   UNL     1      14.788   1.173  -0.076  1.00  0.00    -0.203 F 
ATOM     94  C   UNL     1      13.739  -0.843   0.536  1.00  0.00     0.198 A 
ATOM     95  C   UNL     1      12.168  -1.876  -0.952  1.00  0.00     0.198 A 
ATOM     96  F   UNL     1      11.713  -0.903  -3.045  1.00  0.00    -0.203 F 
ATOM     97  F   UNL     1      14.443  -0.861   1.676  1.00  0.00    -0.200 F 
ATOM     98  C   UNL     1      12.864  -1.879   0.246  1.00  0.00     0.200 A 
ATOM     99  F   UNL     1      11.309  -2.867  -1.231  1.00  0.00    -0.200 F 
ATOM    100  F   UNL     1      12.703  -2.887   1.115  1.00  0.00    -0.200 F 
ENDBRANCH  66  90
BRANCH  78 101
ATOM    101  C   UNL     1      19.021   1.894  -5.139  1.00  0.00     0.064 A 
ATOM    102  C   UNL     1      19.363   0.618  -5.610  1.00  0.00     0.173 A 
ATOM    103  C   UNL     1      20.054   2.711  -4.652  1.00  0.00     0.173 A 
ATOM    104  F   UNL     1      18.413  -0.207  -6.076  1.00  0.00    -0.203 F 
ATOM    105  C   UNL     1      20.680   0.169  -5.567  1.00  0.00     0.198 A 
ATOM    106  C   UNL     1      21.375   2.272  -4.645  1.00  0.00     0.198 A 
ATOM    107  F   UNL     1      19.785   3.945  -4.199  1.00  0.00    -0.203 F 
ATOM    108  F   UNL     1      20.975  -1.075  -5.971  1.00  0.00    -0.200 F 
ATOM    109  C   UNL     1      21.686   0.998  -5.093  1.00  0.00     0.200 A 
ATOM    110  F   UNL     1      22.347   3.084  -4.205  1.00  0.00    -0.200 F 
ATOM    111  F   UNL     1      22.954   0.567  -5.062  1.00  0.00    -0.200 F 
ENDBRANCH  78 101
ENDBRANCH  52  53
ENDBRANCH  45  47
ENDBRANCH  44  45
ENDBRANCH  43  44
ENDBRANCH  42  43
ENDBRANCH  41  42
ENDBRANCH  40  41
ENDBRANCH  39  40
ENDBRANCH  38  39
ENDBRANCH  37  38
ENDBRANCH   1  37
TORSDOF 26
