REMARK SMILES CC1(C)C(n2c(SCC(=O)OCCOCCOCCOCCOC(=O)c3ccc(-c4c5nc(c(-c6c(F)c(F)c(F)c(F)c6F)c6ccc([nH]6)c(-c6c(F)c(F)c(F)c(F)c6F)c6nc(c(-c7c(F)c(F)c(F)c(F)c7F)c7ccc4[nH]7)C=C6)C=C5)cc3)nc3cnccc32)C1(C)C
REMARK SMILES IDX 16 1 15 2 14 3 13 4 12 5 11 6 9 7 10 8 8 9 7 10 6 11 5 12
REMARK SMILES IDX 95 13 89 14 90 15 94 16 91 17 93 18 92 19 4 20 1 21 2 22
REMARK SMILES IDX 3 23 96 24 97 25 98 26 17 27 18 28 19 29 20 30 21 31 22 32
REMARK SMILES IDX 23 33 24 34 25 35 26 36 27 37 88 38 28 39 87 40 29 41 30 42
REMARK SMILES IDX 31 43 81 44 32 45 86 46 80 47 82 48 33 49 85 50 79 51 78 52
REMARK SMILES IDX 34 54 66 55 46 56 65 57 47 58 50 59 64 60 83 61 48 62 49 63
REMARK SMILES IDX 63 65 84 66 51 67 35 68 36 69 44 70 37 71 38 72 42 73 45 74
REMARK SMILES IDX 39 75 40 76 43 77 41 78 67 79 68 80 76 81 69 82 70 83 74 84
REMARK SMILES IDX 77 85 71 86 72 87 75 88 73 89 52 90 53 91 61 92 54 93 55 94
REMARK SMILES IDX 59 95 62 96 56 97 57 98 60 99 58 100
REMARK H PARENT 82 53 50 64
REMARK Flexibility Score: inf
ROOT
ATOM      1  C   UNL     1       2.848  -3.404  -0.841  1.00  0.00     0.188 C 
ENDROOT
BRANCH   1   2
ATOM      2  C   UNL     1       3.353  -2.630   0.371  1.00  0.00     0.188 C 
BRANCH   2   3
ATOM      3  O   UNL     1       4.607  -3.073   0.817  1.00  0.00    -0.376 OA
BRANCH   3   4
ATOM      4  C   UNL     1       4.607  -3.989   1.900  1.00  0.00     0.202 C 
BRANCH   4   5
ATOM      5  C   UNL     1       3.554  -5.109   2.093  1.00  0.00     0.261 C 
BRANCH   5   6
ATOM      6  O   UNL     1       2.446  -5.157   1.178  1.00  0.00    -0.463 OA
BRANCH   6   7
ATOM      7  C   UNL     1       1.224  -5.474   1.673  1.00  0.00     0.316 C 
ATOM      8  O   UNL     1       1.027  -5.710   2.864  1.00  0.00    -0.251 OA
BRANCH   7   9
ATOM      9  C   UNL     1       0.059  -5.341   0.700  1.00  0.00     0.200 C 
BRANCH   9  10
ATOM     10  S   UNL     1       0.307  -5.784  -0.999  1.00  0.00    -0.076 SA
BRANCH  10  11
ATOM     11  C   UNL     1      -0.215  -4.524  -2.116  1.00  0.00     0.169 A 
ATOM     12  N   UNL     1      -0.186  -3.115  -2.080  1.00  0.00    -0.315 N 
ATOM     13  C   UNL     1       0.180  -2.722  -3.369  1.00  0.00     0.072 A 
ATOM     14  N   UNL     1      -0.338  -4.930  -3.369  1.00  0.00    -0.221 NA
ATOM     15  C   UNL     1       0.054  -3.874  -4.139  1.00  0.00     0.108 A 
ATOM     16  C   UNL     1       0.655  -1.532  -3.930  1.00  0.00     0.049 A 
ATOM     17  C   UNL     1       0.402  -3.842  -5.495  1.00  0.00     0.141 A 
ATOM     18  C   UNL     1       0.983  -1.597  -5.280  1.00  0.00     0.113 A 
ATOM     19  N   UNL     1       0.876  -2.699  -6.055  1.00  0.00    -0.262 NA
BRANCH  12  20
ATOM     20  C   UNL     1      -0.010  -2.189  -0.953  1.00  0.00     0.102 C 
ATOM     21  C   UNL     1       0.424   0.270  -0.209  1.00  0.00     0.014 C 
ATOM     22  C   UNL     1      -0.556  -0.788  -0.733  1.00  0.00    -0.007 C 
ATOM     23  C   UNL     1      -1.581  -0.199  -1.661  1.00  0.00     0.014 C 
ATOM     24  C   UNL     1      -0.920  -1.957   0.227  1.00  0.00    -0.007 C 
ATOM     25  C   UNL     1      -0.315  -1.929   1.624  1.00  0.00     0.014 C 
ATOM     26  C   UNL     1      -2.305  -2.559   0.194  1.00  0.00     0.014 C 
ENDBRANCH  12  20
ENDBRANCH  10  11
ENDBRANCH   9  10
ENDBRANCH   7   9
ENDBRANCH   6   7
ENDBRANCH   5   6
ENDBRANCH   4   5
ENDBRANCH   3   4
ENDBRANCH   2   3
ENDBRANCH   1   2
BRANCH   1  27
ATOM     27  O   UNL     1       3.426  -4.620  -1.212  1.00  0.00    -0.377 OA
BRANCH  27  28
ATOM     28  C   UNL     1       4.795  -4.572  -1.508  1.00  0.00     0.188 C 
BRANCH  28  29
ATOM     29  C   UNL     1       5.339  -3.293  -2.158  1.00  0.00     0.188 C 
BRANCH  29  30
ATOM     30  O   UNL     1       4.413  -2.670  -3.029  1.00  0.00    -0.376 OA
BRANCH  30  31
ATOM     31  C   UNL     1       4.445  -3.019  -4.404  1.00  0.00     0.202 C 
BRANCH  31  32
ATOM     32  C   UNL     1       4.394  -4.495  -4.843  1.00  0.00     0.261 C 
BRANCH  32  33
ATOM     33  O   UNL     1       5.365  -5.367  -4.235  1.00  0.00    -0.460 OA
BRANCH  33  34
ATOM     34  C   UNL     1       6.676  -5.328  -4.592  1.00  0.00     0.338 C 
ATOM     35  O   UNL     1       7.146  -4.821  -5.573  1.00  0.00    -0.246 OA
BRANCH  34  36
ATOM     36  C   UNL     1       7.426  -5.676  -3.336  1.00  0.00     0.060 A 
ATOM     37  C   UNL     1       6.963  -6.660  -2.456  1.00  0.00     0.016 A 
ATOM     38  C   UNL     1       8.334  -4.705  -2.881  1.00  0.00     0.016 A 
ATOM     39  C   UNL     1       7.251  -6.535  -1.095  1.00  0.00     0.010 A 
ATOM     40  C   UNL     1       8.606  -4.573  -1.514  1.00  0.00     0.010 A 
ATOM     41  C   UNL     1       8.017  -5.449  -0.604  1.00  0.00    -0.014 A 
BRANCH  41  42
ATOM     42  C   UNL     1       8.420  -5.497   0.817  1.00  0.00     0.031 A 
ATOM     43  C   UNL     1       9.146  -6.769   1.070  1.00  0.00     0.074 A 
ATOM     44  C   UNL     1       8.360  -4.563   1.794  1.00  0.00     0.049 A 
ATOM     45  N   UNL     1       8.819  -7.747   1.847  1.00  0.00    -0.248 NA
ATOM     46  C   UNL     1      10.274  -7.051   0.162  1.00  0.00     0.031 C 
ATOM     47  C   UNL     1       7.961  -3.159   1.685  1.00  0.00     0.029 A 
ATOM     48  N   UNL     1       8.714  -4.672   3.122  1.00  0.00    -0.354 N 
ATOM     49  C   UNL     1       9.798  -8.710   1.632  1.00  0.00     0.074 A 
ATOM     50  C   UNL     1      10.536  -8.319   0.462  1.00  0.00     0.031 C 
ATOM     51  C   UNL     1       8.262  -2.511   2.835  1.00  0.00     0.029 A 
ATOM     52  C   UNL     1       8.812  -3.455   3.796  1.00  0.00     0.049 A 
ATOM     53  H   UNL     1       8.884  -5.537   3.559  1.00  0.00     0.167 HD
ATOM     54  C   UNL     1      10.130  -9.612   2.588  1.00  0.00     0.037 A 
ATOM     55  C   UNL     1       9.365  -3.221   5.018  1.00  0.00     0.037 A 
ATOM     56  C   UNL     1       9.078  -9.791   3.547  1.00  0.00     0.049 A 
ATOM     57  C   UNL     1       9.441  -4.513   5.738  1.00  0.00     0.074 A 
ATOM     58  C   UNL     1       7.785 -10.268   3.509  1.00  0.00     0.029 A 
ATOM     59  N   UNL     1       9.208  -9.124   4.736  1.00  0.00    -0.354 N 
ATOM     60  N   UNL     1       8.415  -5.161   6.211  1.00  0.00    -0.248 NA
ATOM     61  C   UNL     1      10.675  -5.277   5.648  1.00  0.00     0.031 C 
ATOM     62  C   UNL     1       7.077  -9.532   4.503  1.00  0.00     0.029 A 
ATOM     63  C   UNL     1       7.978  -8.661   5.117  1.00  0.00     0.049 A 
ATOM     64  H   UNL     1      10.048  -8.998   5.233  1.00  0.00     0.167 HD
ATOM     65  C   UNL     1       8.752  -6.496   6.065  1.00  0.00     0.074 A 
ATOM     66  C   UNL     1      10.192  -6.505   5.844  1.00  0.00     0.031 C 
ATOM     67  C   UNL     1       7.786  -7.435   5.857  1.00  0.00     0.037 A 
BRANCH  54  68
ATOM     68  C   UNL     1      11.566  -9.974   2.863  1.00  0.00     0.064 A 
ATOM     69  C   UNL     1      11.857 -11.052   3.714  1.00  0.00     0.173 A 
ATOM     70  C   UNL     1      12.658  -9.127   2.552  1.00  0.00     0.173 A 
ATOM     71  F   UNL     1      10.884 -11.880   4.120  1.00  0.00    -0.203 F 
ATOM     72  C   UNL     1      13.138 -11.245   4.240  1.00  0.00     0.198 A 
ATOM     73  C   UNL     1      13.945  -9.361   3.023  1.00  0.00     0.198 A 
ATOM     74  F   UNL     1      12.504  -7.977   1.885  1.00  0.00    -0.203 F 
ATOM     75  F   UNL     1      13.345 -12.213   5.143  1.00  0.00    -0.200 F 
ATOM     76  C   UNL     1      14.180 -10.404   3.890  1.00  0.00     0.200 A 
ATOM     77  F   UNL     1      14.929  -8.512   2.696  1.00  0.00    -0.200 F 
ATOM     78  F   UNL     1      15.395 -10.559   4.432  1.00  0.00    -0.200 F 
ENDBRANCH  54  68
BRANCH  55  79
ATOM     79  C   UNL     1      10.079  -2.013   5.529  1.00  0.00     0.064 A 
ATOM     80  C   UNL     1      10.406  -1.869   6.893  1.00  0.00     0.173 A 
ATOM     81  C   UNL     1      10.708  -1.108   4.653  1.00  0.00     0.173 A 
ATOM     82  F   UNL     1       9.893  -2.708   7.806  1.00  0.00    -0.203 F 
ATOM     83  C   UNL     1      11.325  -0.909   7.339  1.00  0.00     0.198 A 
ATOM     84  C   UNL     1      11.614  -0.143   5.100  1.00  0.00     0.198 A 
ATOM     85  F   UNL     1      10.536  -1.200   3.328  1.00  0.00    -0.203 F 
ATOM     86  F   UNL     1      11.663  -0.854   8.636  1.00  0.00    -0.200 F 
ATOM     87  C   UNL     1      11.937  -0.054   6.439  1.00  0.00     0.200 A 
ATOM     88  F   UNL     1      12.220   0.656   4.211  1.00  0.00    -0.200 F 
ATOM     89  F   UNL     1      12.864   0.822   6.852  1.00  0.00    -0.200 F 
ENDBRANCH  55  79
BRANCH  67  90
ATOM     90  C   UNL     1       6.376  -7.078   6.227  1.00  0.00     0.064 A 
ATOM     91  C   UNL     1       5.627  -6.056   5.623  1.00  0.00     0.173 A 
ATOM     92  C   UNL     1       5.723  -7.897   7.162  1.00  0.00     0.173 A 
ATOM     93  F   UNL     1       6.149  -5.290   4.654  1.00  0.00    -0.203 F 
ATOM     94  C   UNL     1       4.295  -5.842   5.977  1.00  0.00     0.198 A 
ATOM     95  C   UNL     1       4.380  -7.713   7.471  1.00  0.00     0.198 A 
ATOM     96  F   UNL     1       6.383  -8.911   7.743  1.00  0.00    -0.203 F 
ATOM     97  F   UNL     1       3.609  -4.834   5.418  1.00  0.00    -0.200 F 
ATOM     98  C   UNL     1       3.668  -6.680   6.885  1.00  0.00     0.200 A 
ATOM     99  F   UNL     1       3.772  -8.552   8.321  1.00  0.00    -0.200 F 
ATOM    100  F   UNL     1       2.373  -6.505   7.183  1.00  0.00    -0.200 F 
ENDBRANCH  67  90
ENDBRANCH  41  42
ENDBRANCH  34  36
ENDBRANCH  33  34
ENDBRANCH  32  33
ENDBRANCH  31  32
ENDBRANCH  30  31
ENDBRANCH  29  30
ENDBRANCH  28  29
ENDBRANCH  27  28
ENDBRANCH   1  27
TORSDOF 23
