REMARK SMILES CC(C)Cc1ccc(-c2cc(Cl)cc3c2O[C@@H](C(F)(F)F)C(C(=O)OCCOCCOCCOCCOC(=O)c2ccc(-c4c5nc(c(-c6c(F)c(F)c(F)c(F)c6F)c6ccc([nH]6)c(-c6c(F)c(F)c(F)c(F)c6F)c6nc(c(-c7c(F)c(F)c(F)c(F)c7F)c7ccc4[nH]7)C=C6)C=C5)cc2)=C3)cc1
REMARK SMILES IDX 30 1 29 2 28 3 27 4 26 5 25 6 23 7 24 8 22 9 9 10 10 11
REMARK SMILES IDX 15 12 11 13 14 14 16 15 12 16 13 17 103 18 17 19 8 20 5 21
REMARK SMILES IDX 6 22 105 23 7 24 104 25 4 26 2 27 1 28 3 29 18 30 19 31
REMARK SMILES IDX 20 32 21 33 31 34 32 35 33 36 34 37 35 38 36 39 37 40 38 41
REMARK SMILES IDX 39 42 40 43 41 44 102 45 42 46 101 47 43 48 44 49 45 50
REMARK SMILES IDX 95 51 46 52 100 53 94 54 96 55 47 56 99 57 93 58 92 59 48 61
REMARK SMILES IDX 80 62 60 63 79 64 61 65 64 66 78 67 97 68 62 69 63 70 77 72
REMARK SMILES IDX 98 73 65 74 49 75 50 76 58 77 51 78 52 79 56 80 59 81 53 82
REMARK SMILES IDX 54 83 57 84 55 85 81 86 82 87 90 88 83 89 84 90 88 91 91 92
REMARK SMILES IDX 85 93 86 94 89 95 87 96 66 97 67 98 75 99 68 100 69 101
REMARK SMILES IDX 73 102 76 103 70 104 71 105 74 106 72 107
REMARK H PARENT 96 60 64 71
REMARK Flexibility Score: inf
ROOT
ATOM      1  C   UNL     1      -1.821   1.206  10.530  1.00  0.00     0.188 C 
ENDROOT
BRANCH   1   2
ATOM      2  C   UNL     1      -3.051   1.115   9.618  1.00  0.00     0.188 C 
BRANCH   2   3
ATOM      3  O   UNL     1      -4.293   1.188  10.314  1.00  0.00    -0.376 OA
BRANCH   3   4
ATOM      4  C   UNL     1      -4.935  -0.042  10.644  1.00  0.00     0.202 C 
BRANCH   4   5
ATOM      5  C   UNL     1      -4.090  -1.098  11.367  1.00  0.00     0.261 C 
BRANCH   5   6
ATOM      6  O   UNL     1      -3.088  -1.635  10.474  1.00  0.00    -0.460 OA
BRANCH   6   7
ATOM      7  C   UNL     1      -3.467  -2.695   9.740  1.00  0.00     0.338 C 
ATOM      8  O   UNL     1      -4.509  -3.318   9.900  1.00  0.00    -0.246 OA
BRANCH   7   9
ATOM      9  C   UNL     1      -2.577  -2.928   8.576  1.00  0.00     0.087 C 
ATOM     10  C   UNL     1      -2.262   0.231   5.904  1.00  0.00     0.026 A 
ATOM     11  C   UNL     1      -3.478   0.951   5.947  1.00  0.00     0.033 A 
ATOM     12  C   UNL     1      -2.214  -0.946   6.678  1.00  0.00     0.135 A 
ATOM     13  C   UNL     1      -4.643   0.362   6.436  1.00  0.00     0.042 A 
ATOM     14  C   UNL     1      -3.413  -1.623   6.947  1.00  0.00     0.019 A 
ATOM     15  O   UNL     1      -1.058  -1.306   7.363  1.00  0.00    -0.475 OA
ATOM     16  Cl  UNL     1      -6.110   1.254   6.452  1.00  0.00    -0.084 Cl
ATOM     17  C   UNL     1      -4.635  -0.967   6.836  1.00  0.00     0.032 A 
ATOM     18  C   UNL     1      -3.332  -3.004   7.466  1.00  0.00     0.027 C 
ATOM     19  C   UNL     1      -1.162  -2.426   8.346  1.00  0.00     0.316 C 
BRANCH  10  20
ATOM     20  C   UNL     1      -1.492   0.414   4.627  1.00  0.00    -0.015 A 
ATOM     21  C   UNL     1      -0.960   0.790   1.837  1.00  0.00    -0.048 A 
ATOM     22  C   UNL     1      -0.954   1.874   2.723  1.00  0.00     0.004 A 
ATOM     23  C   UNL     1      -1.140  -0.490   2.366  1.00  0.00     0.004 A 
ATOM     24  C   UNL     1      -1.211   1.688   4.096  1.00  0.00     0.009 A 
ATOM     25  C   UNL     1      -1.389  -0.674   3.736  1.00  0.00     0.009 A 
BRANCH  21  26
ATOM     26  C   UNL     1      -0.817   0.995   0.342  1.00  0.00     0.038 C 
BRANCH  26  27
ATOM     27  C   UNL     1       0.638   1.125  -0.143  1.00  0.00    -0.013 C 
ATOM     28  C   UNL     1       1.417  -0.180   0.037  1.00  0.00     0.008 C 
ATOM     29  C   UNL     1       0.677   1.536  -1.619  1.00  0.00     0.008 C 
ENDBRANCH  26  27
ENDBRANCH  21  26
ENDBRANCH  10  20
BRANCH  19  30
ATOM     30  C   UNL     1      -0.221  -2.325   9.574  1.00  0.00     0.430 C 
ATOM     31  F   UNL     1       0.094  -3.577  10.006  1.00  0.00    -0.167 F 
ATOM     32  F   UNL     1       0.951  -1.727   9.251  1.00  0.00    -0.167 F 
ATOM     33  F   UNL     1      -0.710  -1.677  10.640  1.00  0.00    -0.167 F 
ENDBRANCH  19  30
ENDBRANCH   7   9
ENDBRANCH   6   7
ENDBRANCH   5   6
ENDBRANCH   4   5
ENDBRANCH   3   4
ENDBRANCH   2   3
ENDBRANCH   1   2
BRANCH   1  34
ATOM     34  O   UNL     1      -2.147   1.144  11.905  1.00  0.00    -0.377 OA
BRANCH  34  35
ATOM     35  C   UNL     1      -2.597   2.342  12.529  1.00  0.00     0.188 C 
BRANCH  35  36
ATOM     36  C   UNL     1      -3.202   3.508  11.713  1.00  0.00     0.188 C 
BRANCH  36  37
ATOM     37  O   UNL     1      -2.481   3.841  10.529  1.00  0.00    -0.376 OA
BRANCH  37  38
ATOM     38  C   UNL     1      -1.720   5.040  10.549  1.00  0.00     0.202 C 
BRANCH  38  39
ATOM     39  C   UNL     1      -0.362   4.898  11.247  1.00  0.00     0.261 C 
BRANCH  39  40
ATOM     40  O   UNL     1      -0.439   4.585  12.646  1.00  0.00    -0.460 OA
BRANCH  40  41
ATOM     41  C   UNL     1      -1.081   5.472  13.435  1.00  0.00     0.338 C 
ATOM     42  O   UNL     1      -1.535   6.557  13.114  1.00  0.00    -0.246 OA
BRANCH  41  43
ATOM     43  C   UNL     1      -1.323   4.827  14.739  1.00  0.00     0.060 A 
ATOM     44  C   UNL     1      -2.632   4.793  15.236  1.00  0.00     0.016 A 
ATOM     45  C   UNL     1      -0.273   4.248  15.456  1.00  0.00     0.016 A 
ATOM     46  C   UNL     1      -2.886   4.222  16.482  1.00  0.00     0.010 A 
ATOM     47  C   UNL     1      -0.525   3.693  16.712  1.00  0.00     0.010 A 
ATOM     48  C   UNL     1      -1.825   3.716  17.244  1.00  0.00    -0.014 A 
BRANCH  48  49
ATOM     49  C   UNL     1      -2.036   3.428  18.681  1.00  0.00     0.031 A 
ATOM     50  C   UNL     1      -1.740   4.523  19.668  1.00  0.00     0.074 A 
ATOM     51  C   UNL     1      -2.490   2.236  19.102  1.00  0.00     0.049 A 
ATOM     52  N   UNL     1      -1.831   4.517  20.973  1.00  0.00    -0.248 NA
ATOM     53  C   UNL     1      -1.274   5.800  19.102  1.00  0.00     0.031 C 
ATOM     54  C   UNL     1      -2.833   1.108  18.241  1.00  0.00     0.029 A 
ATOM     55  N   UNL     1      -2.732   1.779  20.374  1.00  0.00    -0.354 N 
ATOM     56  C   UNL     1      -1.438   5.785  21.381  1.00  0.00     0.074 A 
ATOM     57  C   UNL     1      -1.073   6.523  20.192  1.00  0.00     0.031 C 
ATOM     58  C   UNL     1      -3.229   0.079  19.012  1.00  0.00     0.029 A 
ATOM     59  C   UNL     1      -3.147   0.472  20.418  1.00  0.00     0.049 A 
ATOM     60  H   UNL     1      -2.619   2.337  21.178  1.00  0.00     0.167 HD
ATOM     61  C   UNL     1      -1.394   6.292  22.635  1.00  0.00     0.037 A 
ATOM     62  C   UNL     1      -3.412  -0.316  21.479  1.00  0.00     0.037 A 
ATOM     63  C   UNL     1      -1.744   5.553  23.817  1.00  0.00     0.049 A 
ATOM     64  C   UNL     1      -3.295   0.253  22.871  1.00  0.00     0.074 A 
ATOM     65  C   UNL     1      -1.750   5.981  25.132  1.00  0.00     0.029 A 
ATOM     66  N   UNL     1      -2.140   4.224  23.825  1.00  0.00    -0.354 N 
ATOM     67  N   UNL     1      -2.966   1.466  23.248  1.00  0.00    -0.248 NA
ATOM     68  C   UNL     1      -3.595  -0.657  23.986  1.00  0.00     0.031 C 
ATOM     69  C   UNL     1      -2.102   4.896  25.942  1.00  0.00     0.029 A 
ATOM     70  C   UNL     1      -2.368   3.807  25.126  1.00  0.00     0.049 A 
ATOM     71  H   UNL     1      -2.244   3.661  23.024  1.00  0.00     0.167 HD
ATOM     72  C   UNL     1      -3.047   1.472  24.635  1.00  0.00     0.074 A 
ATOM     73  C   UNL     1      -3.469   0.145  25.034  1.00  0.00     0.031 C 
ATOM     74  C   UNL     1      -2.796   2.484  25.502  1.00  0.00     0.037 A 
BRANCH  61  75
ATOM     75  C   UNL     1      -0.922   7.707  22.786  1.00  0.00     0.064 A 
ATOM     76  C   UNL     1      -1.708   8.793  22.372  1.00  0.00     0.173 A 
ATOM     77  C   UNL     1       0.326   7.981  23.363  1.00  0.00     0.173 A 
ATOM     78  F   UNL     1      -2.901   8.583  21.796  1.00  0.00    -0.203 F 
ATOM     79  C   UNL     1      -1.249  10.101  22.507  1.00  0.00     0.198 A 
ATOM     80  C   UNL     1       0.770   9.291  23.522  1.00  0.00     0.198 A 
ATOM     81  F   UNL     1       1.117   6.978  23.773  1.00  0.00    -0.203 F 
ATOM     82  F   UNL     1      -1.995  11.121  22.059  1.00  0.00    -0.200 F 
ATOM     83  C   UNL     1      -0.014  10.349  23.087  1.00  0.00     0.200 A 
ATOM     84  F   UNL     1       1.960   9.529  24.090  1.00  0.00    -0.200 F 
ATOM     85  F   UNL     1       0.425  11.608  23.219  1.00  0.00    -0.200 F 
ENDBRANCH  61  75
BRANCH  62  86
ATOM     86  C   UNL     1      -3.809  -1.733  21.272  1.00  0.00     0.064 A 
ATOM     87  C   UNL     1      -5.105  -2.174  21.573  1.00  0.00     0.173 A 
ATOM     88  C   UNL     1      -2.892  -2.681  20.796  1.00  0.00     0.173 A 
ATOM     89  F   UNL     1      -6.010  -1.311  22.059  1.00  0.00    -0.203 F 
ATOM     90  C   UNL     1      -5.462  -3.513  21.425  1.00  0.00     0.198 A 
ATOM     91  C   UNL     1      -3.258  -4.014  20.622  1.00  0.00     0.198 A 
ATOM     92  F   UNL     1      -1.637  -2.312  20.499  1.00  0.00    -0.203 F 
ATOM     93  F   UNL     1      -6.693  -3.918  21.768  1.00  0.00    -0.200 F 
ATOM     94  C   UNL     1      -4.540  -4.431  20.944  1.00  0.00     0.200 A 
ATOM     95  F   UNL     1      -2.366  -4.896  20.150  1.00  0.00    -0.200 F 
ATOM     96  F   UNL     1      -4.884  -5.718  20.803  1.00  0.00    -0.200 F 
ENDBRANCH  62  86
BRANCH  74  97
ATOM     97  C   UNL     1      -3.006   2.211  26.964  1.00  0.00     0.064 A 
ATOM     98  C   UNL     1      -2.135   1.389  27.694  1.00  0.00     0.173 A 
ATOM     99  C   UNL     1      -4.069   2.816  27.652  1.00  0.00     0.173 A 
ATOM    100  F   UNL     1      -1.111   0.778  27.081  1.00  0.00    -0.203 F 
ATOM    101  C   UNL     1      -2.337   1.162  29.053  1.00  0.00     0.198 A 
ATOM    102  C   UNL     1      -4.250   2.612  29.017  1.00  0.00     0.198 A 
ATOM    103  F   UNL     1      -4.926   3.619  27.002  1.00  0.00    -0.203 F 
ATOM    104  F   UNL     1      -1.520   0.336  29.721  1.00  0.00    -0.200 F 
ATOM    105  C   UNL     1      -3.389   1.779  29.715  1.00  0.00     0.200 A 
ATOM    106  F   UNL     1      -5.258   3.221  29.657  1.00  0.00    -0.200 F 
ATOM    107  F   UNL     1      -3.576   1.565  31.024  1.00  0.00    -0.200 F 
ENDBRANCH  74  97
ENDBRANCH  48  49
ENDBRANCH  41  43
ENDBRANCH  40  41
ENDBRANCH  39  40
ENDBRANCH  38  39
ENDBRANCH  37  38
ENDBRANCH  36  37
ENDBRANCH  35  36
ENDBRANCH  34  35
ENDBRANCH   1  34
TORSDOF 24
