REMARK SMILES Cc1c(NCc2ccccn2)cccc1C(=O)N1CCOC[C@@H]1CC(=O)OCCOCCOCCOCCOC(=O)c1ccc(-c2c3nc(c(-c4c(F)c(F)c(F)c(F)c4F)c4ccc([nH]4)c(-c4c(F)c(F)c(F)c(F)c4F)c4nc(c(-c5c(F)c(F)c(F)c(F)c5F)c5ccc2[nH]5)C=C4)C=C3)cc1
REMARK SMILES IDX 31 1 30 2 29 3 28 4 27 5 25 6 26 7 24 8 23 9 18 10 19 11
REMARK SMILES IDX 20 12 22 13 21 14 16 15 17 16 15 17 1 18 2 19 3 20 12 21
REMARK SMILES IDX 14 22 13 23 4 24 5 26 6 27 7 28 11 29 8 30 10 31 9 32 32 33
REMARK SMILES IDX 33 34 34 35 35 36 36 37 37 38 38 39 39 40 40 41 41 42 42 43
REMARK SMILES IDX 43 44 104 45 44 46 103 47 45 48 46 49 47 50 97 51 48 52
REMARK SMILES IDX 102 53 96 54 98 55 49 56 101 57 95 58 94 59 50 61 82 62
REMARK SMILES IDX 62 63 81 64 63 65 66 66 80 67 99 68 64 69 65 70 79 72 100 73
REMARK SMILES IDX 67 74 51 75 52 76 60 77 53 78 54 79 58 80 61 81 55 82 56 83
REMARK SMILES IDX 59 84 57 85 83 86 84 87 92 88 85 89 86 90 90 91 93 92 87 93
REMARK SMILES IDX 88 94 91 95 89 96 68 97 69 98 77 99 70 100 71 101 75 102
REMARK SMILES IDX 78 103 72 104 73 105 76 106 74 107
REMARK H PARENT 4 25 98 60 66 71
REMARK Flexibility Score: inf
ROOT
ATOM      1  C   UNL     1       3.770   1.732   4.683  1.00  0.00     0.188 C 
ENDROOT
BRANCH   1   2
ATOM      2  O   UNL     1       2.421   1.650   4.255  1.00  0.00    -0.376 OA
BRANCH   2   3
ATOM      3  C   UNL     1       2.239   0.748   3.213  1.00  0.00     0.202 C 
BRANCH   3   4
ATOM      4  C   UNL     1       2.068   1.241   1.816  1.00  0.00     0.261 C 
BRANCH   4   5
ATOM      5  O   UNL     1       1.638   2.567   1.715  1.00  0.00    -0.463 OA
BRANCH   5   6
ATOM      6  C   UNL     1       2.511   3.523   2.077  1.00  0.00     0.308 C 
ATOM      7  O   UNL     1       2.693   3.953   3.209  1.00  0.00    -0.252 OA
BRANCH   6   8
ATOM      8  C   UNL     1       2.992   4.268   0.900  1.00  0.00     0.150 C 
BRANCH   8   9
ATOM      9  C   UNL     1       3.580   3.461  -0.252  1.00  0.00     0.122 C 
ATOM     10  N   UNL     1       2.832   2.284  -0.927  1.00  0.00    -0.330 N 
ATOM     11  C   UNL     1       3.656   1.893  -2.095  1.00  0.00     0.148 C 
ATOM     12  C   UNL     1       5.122   1.563  -1.692  1.00  0.00     0.181 C 
ATOM     13  C   UNL     1       5.066   3.114   0.073  1.00  0.00     0.185 C 
ATOM     14  O   UNL     1       5.772   2.692  -1.096  1.00  0.00    -0.377 OA
BRANCH  10  15
ATOM     15  C   UNL     1       1.360   2.273  -0.976  1.00  0.00     0.254 C 
ATOM     16  O   UNL     1       0.890   3.405  -0.823  1.00  0.00    -0.269 OA
BRANCH  15  17
ATOM     17  C   UNL     1       0.263   0.836  -1.065  1.00  0.00     0.045 A 
ATOM     18  C   UNL     1       2.667  -0.845  -1.133  1.00  0.00     0.047 C 
ATOM     19  C   UNL     1       1.218  -0.681  -0.731  1.00  0.00    -0.015 A 
ATOM     20  C   UNL     1       0.464  -2.273  -0.944  1.00  0.00     0.038 A 
ATOM     21  C   UNL     1      -1.165  -2.498  -1.621  1.00  0.00     0.026 A 
ATOM     22  C   UNL     1      -1.617   0.508  -1.810  1.00  0.00     0.014 A 
ATOM     23  C   UNL     1      -2.210  -1.173  -2.062  1.00  0.00     0.003 A 
BRANCH  20  24
ATOM     24  N   UNL     1       1.075  -3.317  -0.232  1.00  0.00    -0.379 N 
ATOM     25  H   UNL     1       1.901  -3.124   0.269  1.00  0.00     0.160 HD
BRANCH  24  26
ATOM     26  C   UNL     1       0.547  -4.671  -0.200  1.00  0.00     0.169 C 
BRANCH  26  27
ATOM     27  C   UNL     1       0.730  -5.394  -1.515  1.00  0.00     0.059 A 
ATOM     28  C   UNL     1       1.192  -4.730  -2.654  1.00  0.00     0.026 A 
ATOM     29  N   UNL     1       0.375  -6.700  -1.547  1.00  0.00    -0.259 NA
ATOM     30  C   UNL     1       1.227  -5.382  -3.871  1.00  0.00     0.004 A 
ATOM     31  C   UNL     1       0.469  -7.330  -2.738  1.00  0.00     0.111 A 
ATOM     32  C   UNL     1       0.864  -6.715  -3.916  1.00  0.00     0.020 A 
ENDBRANCH  26  27
ENDBRANCH  24  26
ENDBRANCH  20  24
ENDBRANCH  15  17
ENDBRANCH  10  15
ENDBRANCH   8   9
ENDBRANCH   6   8
ENDBRANCH   5   6
ENDBRANCH   4   5
ENDBRANCH   3   4
ENDBRANCH   2   3
ENDBRANCH   1   2
BRANCH   1  33
ATOM     33  C   UNL     1       4.909   1.426   3.664  1.00  0.00     0.188 C 
BRANCH  33  34
ATOM     34  O   UNL     1       4.509   1.174   2.331  1.00  0.00    -0.377 OA
BRANCH  34  35
ATOM     35  C   UNL     1       4.719  -0.047   1.638  1.00  0.00     0.188 C 
BRANCH  35  36
ATOM     36  C   UNL     1       4.407  -1.333   2.299  1.00  0.00     0.188 C 
BRANCH  36  37
ATOM     37  O   UNL     1       5.320  -1.462   3.357  1.00  0.00    -0.376 OA
BRANCH  37  38
ATOM     38  C   UNL     1       6.387  -2.262   2.886  1.00  0.00     0.202 C 
BRANCH  38  39
ATOM     39  C   UNL     1       5.801  -3.684   2.717  1.00  0.00     0.261 C 
BRANCH  39  40
ATOM     40  O   UNL     1       4.610  -3.843   3.622  1.00  0.00    -0.460 OA
BRANCH  40  41
ATOM     41  C   UNL     1       3.339  -4.014   3.098  1.00  0.00     0.338 C 
ATOM     42  O   UNL     1       3.147  -4.479   1.980  1.00  0.00    -0.246 OA
BRANCH  41  43
ATOM     43  C   UNL     1       2.184  -3.280   3.854  1.00  0.00     0.060 A 
ATOM     44  C   UNL     1       0.874  -3.169   3.305  1.00  0.00     0.016 A 
ATOM     45  C   UNL     1       2.451  -2.397   4.885  1.00  0.00     0.016 A 
ATOM     46  C   UNL     1      -0.073  -2.103   3.631  1.00  0.00     0.010 A 
ATOM     47  C   UNL     1       1.532  -1.337   5.171  1.00  0.00     0.010 A 
ATOM     48  C   UNL     1       0.258  -1.090   4.532  1.00  0.00    -0.014 A 
BRANCH  48  49
ATOM     49  C   UNL     1      -0.390   0.390   4.704  1.00  0.00     0.031 A 
ATOM     50  C   UNL     1      -0.417   0.893   6.124  1.00  0.00     0.074 A 
ATOM     51  C   UNL     1      -0.603   1.444   3.780  1.00  0.00     0.049 A 
ATOM     52  N   UNL     1      -1.022   1.972   6.503  1.00  0.00    -0.248 NA
ATOM     53  C   UNL     1       0.182   0.212   7.274  1.00  0.00     0.031 C 
ATOM     54  C   UNL     1      -0.277   2.886   4.010  1.00  0.00     0.029 A 
ATOM     55  N   UNL     1      -0.799   1.539   2.398  1.00  0.00    -0.354 N 
ATOM     56  C   UNL     1      -0.426   2.357   7.683  1.00  0.00     0.074 A 
ATOM     57  C   UNL     1       0.062   1.129   8.236  1.00  0.00     0.031 C 
ATOM     58  C   UNL     1      -0.485   3.677   2.932  1.00  0.00     0.029 A 
ATOM     59  C   UNL     1      -0.949   2.850   1.840  1.00  0.00     0.049 A 
ATOM     60  H   UNL     1      -0.832   0.735   1.831  1.00  0.00     0.167 HD
ATOM     61  C   UNL     1      -0.223   3.685   7.936  1.00  0.00     0.037 A 
ATOM     62  C   UNL     1      -1.641   3.264   0.709  1.00  0.00     0.037 A 
ATOM     63  C   UNL     1      -0.749   4.547   6.841  1.00  0.00     0.049 A 
ATOM     64  C   UNL     1      -2.872   3.846   1.411  1.00  0.00     0.074 A 
ATOM     65  C   UNL     1      -0.217   5.565   6.062  1.00  0.00     0.029 A 
ATOM     66  N   UNL     1      -1.970   4.234   6.225  1.00  0.00    -0.354 N 
ATOM     67  N   UNL     1      -2.981   3.694   2.708  1.00  0.00    -0.248 NA
ATOM     68  C   UNL     1      -3.934   4.724   0.915  1.00  0.00     0.031 C 
ATOM     69  C   UNL     1      -1.176   5.920   5.060  1.00  0.00     0.029 A 
ATOM     70  C   UNL     1      -2.270   5.068   5.163  1.00  0.00     0.049 A 
ATOM     71  H   UNL     1      -2.554   3.497   6.518  1.00  0.00     0.167 HD
ATOM     72  C   UNL     1      -3.716   4.687   3.222  1.00  0.00     0.074 A 
ATOM     73  C   UNL     1      -4.461   5.180   2.077  1.00  0.00     0.031 C 
ATOM     74  C   UNL     1      -3.597   5.023   4.535  1.00  0.00     0.037 A 
BRANCH  61  75
ATOM     75  C   UNL     1       0.574   4.253   9.123  1.00  0.00     0.064 A 
ATOM     76  C   UNL     1       0.617   5.651   9.335  1.00  0.00     0.173 A 
ATOM     77  C   UNL     1       1.283   3.521  10.107  1.00  0.00     0.173 A 
ATOM     78  F   UNL     1       0.036   6.510   8.489  1.00  0.00    -0.203 F 
ATOM     79  C   UNL     1       1.245   6.245  10.438  1.00  0.00     0.198 A 
ATOM     80  C   UNL     1       1.859   4.110  11.242  1.00  0.00     0.198 A 
ATOM     81  F   UNL     1       1.506   2.210  10.018  1.00  0.00    -0.203 F 
ATOM     82  F   UNL     1       1.256   7.580  10.554  1.00  0.00    -0.200 F 
ATOM     83  C   UNL     1       1.833   5.472  11.413  1.00  0.00     0.200 A 
ATOM     84  F   UNL     1       2.445   3.333  12.167  1.00  0.00    -0.200 F 
ATOM     85  F   UNL     1       2.377   6.035  12.500  1.00  0.00    -0.200 F 
ENDBRANCH  61  75
BRANCH  62  86
ATOM     86  C   UNL     1      -1.581   2.298  -0.493  1.00  0.00     0.064 A 
ATOM     87  C   UNL     1      -0.883   2.483  -2.164  1.00  0.00     0.173 A 
ATOM     88  C   UNL     1      -1.658   0.761   0.242  1.00  0.00     0.173 A 
ATOM     89  F   UNL     1      -0.830   3.704  -2.726  1.00  0.00    -0.203 F 
ATOM     90  C   UNL     1      -0.178   1.117  -3.127  1.00  0.00     0.198 A 
ATOM     91  C   UNL     1      -0.914  -0.616  -0.469  1.00  0.00     0.198 A 
ATOM     92  F   UNL     1      -2.591   0.529   1.185  1.00  0.00    -0.203 F 
ATOM     93  F   UNL     1       0.413   1.303  -4.314  1.00  0.00    -0.200 F 
ATOM     94  C   UNL     1      -0.157  -0.529  -2.347  1.00  0.00     0.200 A 
ATOM     95  F   UNL     1      -1.082  -1.638   0.424  1.00  0.00    -0.200 F 
ATOM     96  F   UNL     1       0.402  -1.499  -3.111  1.00  0.00    -0.200 F 
ENDBRANCH  62  86
BRANCH  74  97
ATOM     97  C   UNL     1      -4.784   5.387   5.343  1.00  0.00     0.064 A 
ATOM     98  C   UNL     1      -6.090   5.106   4.922  1.00  0.00     0.173 A 
ATOM     99  C   UNL     1      -4.636   5.882   6.656  1.00  0.00     0.173 A 
ATOM    100  F   UNL     1      -6.344   4.434   3.789  1.00  0.00    -0.203 F 
ATOM    101  C   UNL     1      -7.182   5.476   5.689  1.00  0.00     0.198 A 
ATOM    102  C   UNL     1      -5.727   6.154   7.457  1.00  0.00     0.198 A 
ATOM    103  F   UNL     1      -3.439   6.096   7.220  1.00  0.00    -0.203 F 
ATOM    104  F   UNL     1      -8.415   5.309   5.196  1.00  0.00    -0.200 F 
ATOM    105  C   UNL     1      -7.000   6.006   6.952  1.00  0.00     0.200 A 
ATOM    106  F   UNL     1      -5.532   6.562   8.717  1.00  0.00    -0.200 F 
ATOM    107  F   UNL     1      -8.055   6.364   7.690  1.00  0.00    -0.200 F 
ENDBRANCH  74  97
ENDBRANCH  48  49
ENDBRANCH  41  43
ENDBRANCH  40  41
ENDBRANCH  39  40
ENDBRANCH  38  39
ENDBRANCH  37  38
ENDBRANCH  36  37
ENDBRANCH  35  36
ENDBRANCH  34  35
ENDBRANCH  33  34
ENDBRANCH   1  33
TORSDOF 26
