REMARK SMILES O=C(OCCOCCOCCOCCOC(=O)[C@@H]1CCN(c2ncnc3c2CCCCC3)C1)c1ccc(-c2c3nc(c(-c4c(F)c(F)c(F)c(F)c4F)c4ccc([nH]4)c(-c4c(F)c(F)c(F)c(F)c4F)c4nc(c(-c5c(F)c(F)c(F)c(F)c5F)c5ccc2[nH]5)C=C4)C=C3)cc1
REMARK SMILES IDX 10 1 9 2 8 3 7 4 6 5 5 6 4 7 3 8 2 9 1 10 34 11 35 12 96 13
REMARK SMILES IDX 36 14 95 15 37 16 38 17 39 18 89 19 40 20 94 21 88 22 90 23
REMARK SMILES IDX 41 24 93 25 87 26 86 27 42 29 74 30 54 31 73 32 55 33 58 34
REMARK SMILES IDX 72 35 91 36 56 37 57 38 71 40 92 41 59 42 43 43 44 44 52 45
REMARK SMILES IDX 45 46 46 47 50 48 53 49 47 50 48 51 51 52 49 53 75 54 76 55
REMARK SMILES IDX 84 56 77 57 78 58 82 59 85 60 79 61 80 62 83 63 81 64 60 65
REMARK SMILES IDX 61 66 69 67 62 68 63 69 67 70 70 71 64 72 65 73 68 74 66 75
REMARK SMILES IDX 11 76 12 77 13 78 14 79 15 80 16 81 17 82 18 83 19 84 33 85
REMARK SMILES IDX 20 86 21 87 22 88 23 89 27 90 24 91 26 92 25 93 28 94 29 95
REMARK SMILES IDX 30 96 32 98 31 99
REMARK H PARENT 90 28 58 39
REMARK Flexibility Score: 90.00
ROOT
ATOM      1  C   UNL     1       3.643  -0.162  -3.683  1.00  0.00     0.188 C 
ENDROOT
BRANCH   1   2
ATOM      2  O   UNL     1       2.253   0.118  -3.706  1.00  0.00    -0.377 OA
BRANCH   2   3
ATOM      3  C   UNL     1       1.577   0.203  -2.458  1.00  0.00     0.188 C 
BRANCH   3   4
ATOM      4  C   UNL     1       2.123  -0.687  -1.349  1.00  0.00     0.188 C 
BRANCH   4   5
ATOM      5  O   UNL     1       3.402  -0.172  -1.010  1.00  0.00    -0.376 OA
BRANCH   5   6
ATOM      6  C   UNL     1       4.369  -1.073  -0.496  1.00  0.00     0.202 C 
BRANCH   6   7
ATOM      7  C   UNL     1       4.097  -1.544   0.923  1.00  0.00     0.261 C 
BRANCH   7   8
ATOM      8  O   UNL     1       2.807  -1.193   1.458  1.00  0.00    -0.460 OA
BRANCH   8   9
ATOM      9  C   UNL     1       2.264  -0.026   1.863  1.00  0.00     0.338 C 
ATOM     10  O   UNL     1       1.094  -0.044   2.253  1.00  0.00    -0.246 OA
BRANCH   9  11
ATOM     11  C   UNL     1       2.961   1.292   1.918  1.00  0.00     0.060 A 
ATOM     12  C   UNL     1       3.930   1.742   1.027  1.00  0.00     0.016 A 
ATOM     13  C   UNL     1       2.508   2.200   2.892  1.00  0.00     0.016 A 
ATOM     14  C   UNL     1       4.480   3.007   1.113  1.00  0.00     0.010 A 
ATOM     15  C   UNL     1       3.052   3.483   2.996  1.00  0.00     0.010 A 
ATOM     16  C   UNL     1       4.072   3.869   2.120  1.00  0.00    -0.014 A 
BRANCH  16  17
ATOM     17  C   UNL     1       4.944   5.023   2.375  1.00  0.00     0.031 A 
ATOM     18  C   UNL     1       5.918   4.888   3.506  1.00  0.00     0.074 A 
ATOM     19  C   UNL     1       5.020   6.023   1.480  1.00  0.00     0.049 A 
ATOM     20  N   UNL     1       6.763   5.759   3.981  1.00  0.00    -0.248 NA
ATOM     21  C   UNL     1       5.966   3.576   4.184  1.00  0.00     0.031 C 
ATOM     22  C   UNL     1       4.250   6.100   0.235  1.00  0.00     0.029 A 
ATOM     23  N   UNL     1       5.820   7.132   1.446  1.00  0.00    -0.354 N 
ATOM     24  C   UNL     1       7.402   5.118   5.033  1.00  0.00     0.074 A 
ATOM     25  C   UNL     1       6.866   3.784   5.131  1.00  0.00     0.031 C 
ATOM     26  C   UNL     1       4.636   7.187  -0.453  1.00  0.00     0.029 A 
ATOM     27  C   UNL     1       5.609   7.925   0.344  1.00  0.00     0.049 A 
ATOM     28  H   UNL     1       6.482   7.342   2.143  1.00  0.00     0.167 HD
ATOM     29  C   UNL     1       8.353   5.623   5.846  1.00  0.00     0.037 A 
ATOM     30  C   UNL     1       6.120   9.137   0.055  1.00  0.00     0.037 A 
ATOM     31  C   UNL     1       8.883   6.945   5.683  1.00  0.00     0.049 A 
ATOM     32  C   UNL     1       7.080   9.732   1.054  1.00  0.00     0.074 A 
ATOM     33  C   UNL     1       9.785   7.620   6.479  1.00  0.00     0.029 A 
ATOM     34  N   UNL     1       8.558   7.786   4.626  1.00  0.00    -0.354 N 
ATOM     35  N   UNL     1       7.597   9.183   2.129  1.00  0.00    -0.248 NA
ATOM     36  C   UNL     1       7.500  11.119   0.827  1.00  0.00     0.031 C 
ATOM     37  C   UNL     1       9.970   8.890   5.928  1.00  0.00     0.029 A 
ATOM     38  C   UNL     1       9.223   8.988   4.761  1.00  0.00     0.049 A 
ATOM     39  H   UNL     1       7.945   7.558   3.890  1.00  0.00     0.167 HD
ATOM     40  C   UNL     1       8.403  10.152   2.707  1.00  0.00     0.074 A 
ATOM     41  C   UNL     1       8.333  11.314   1.841  1.00  0.00     0.031 C 
ATOM     42  C   UNL     1       9.121  10.104   3.855  1.00  0.00     0.037 A 
BRANCH  29  43
ATOM     43  C   UNL     1       8.807   4.786   7.000  1.00  0.00     0.064 A 
ATOM     44  C   UNL     1       9.659   3.685   6.836  1.00  0.00     0.173 A 
ATOM     45  C   UNL     1       8.390   5.108   8.300  1.00  0.00     0.173 A 
ATOM     46  F   UNL     1      10.053   3.312   5.609  1.00  0.00    -0.203 F 
ATOM     47  C   UNL     1      10.080   2.939   7.935  1.00  0.00     0.198 A 
ATOM     48  C   UNL     1       8.831   4.375   9.398  1.00  0.00     0.198 A 
ATOM     49  F   UNL     1       7.558   6.140   8.506  1.00  0.00    -0.203 F 
ATOM     50  F   UNL     1      10.870   1.871   7.755  1.00  0.00    -0.200 F 
ATOM     51  C   UNL     1       9.675   3.291   9.214  1.00  0.00     0.200 A 
ATOM     52  F   UNL     1       8.437   4.718  10.632  1.00  0.00    -0.200 F 
ATOM     53  F   UNL     1      10.092   2.580  10.271  1.00  0.00    -0.200 F 
ENDBRANCH  29  43
BRANCH  30  54
ATOM     54  C   UNL     1       5.670   9.889  -1.149  1.00  0.00     0.064 A 
ATOM     55  C   UNL     1       6.570  10.282  -2.149  1.00  0.00     0.173 A 
ATOM     56  C   UNL     1       4.324  10.262  -1.312  1.00  0.00     0.173 A 
ATOM     57  F   UNL     1       7.871   9.978  -2.037  1.00  0.00    -0.203 F 
ATOM     58  C   UNL     1       6.148  11.032  -3.249  1.00  0.00     0.198 A 
ATOM     59  C   UNL     1       3.897  10.978  -2.429  1.00  0.00     0.198 A 
ATOM     60  F   UNL     1       3.415   9.928  -0.385  1.00  0.00    -0.203 F 
ATOM     61  F   UNL     1       7.041  11.442  -4.160  1.00  0.00    -0.200 F 
ATOM     62  C   UNL     1       4.811  11.373  -3.391  1.00  0.00     0.200 A 
ATOM     63  F   UNL     1       2.602  11.293  -2.566  1.00  0.00    -0.200 F 
ATOM     64  F   UNL     1       4.407  12.093  -4.447  1.00  0.00    -0.200 F 
ENDBRANCH  30  54
BRANCH  42  65
ATOM     65  C   UNL     1       9.884  11.334   4.233  1.00  0.00     0.064 A 
ATOM     66  C   UNL     1       9.229  12.460   4.747  1.00  0.00     0.173 A 
ATOM     67  C   UNL     1      11.286  11.339   4.189  1.00  0.00     0.173 A 
ATOM     68  F   UNL     1       7.889  12.499   4.796  1.00  0.00    -0.203 F 
ATOM     69  C   UNL     1       9.954  13.557   5.199  1.00  0.00     0.198 A 
ATOM     70  C   UNL     1      12.007  12.423   4.673  1.00  0.00     0.198 A 
ATOM     71  F   UNL     1      11.952  10.273   3.718  1.00  0.00    -0.203 F 
ATOM     72  F   UNL     1       9.310  14.636   5.663  1.00  0.00    -0.200 F 
ATOM     73  C   UNL     1      11.341  13.531   5.175  1.00  0.00     0.200 A 
ATOM     74  F   UNL     1      13.347  12.388   4.671  1.00  0.00    -0.200 F 
ATOM     75  F   UNL     1      12.038  14.577   5.641  1.00  0.00    -0.200 F 
ENDBRANCH  42  65
ENDBRANCH  16  17
ENDBRANCH   9  11
ENDBRANCH   8   9
ENDBRANCH   7   8
ENDBRANCH   6   7
ENDBRANCH   5   6
ENDBRANCH   4   5
ENDBRANCH   3   4
ENDBRANCH   2   3
ENDBRANCH   1   2
BRANCH   1  76
ATOM     76  C   UNL     1       4.686   0.943  -3.426  1.00  0.00     0.188 C 
BRANCH  76  77
ATOM     77  O   UNL     1       4.342   2.315  -3.405  1.00  0.00    -0.376 OA
BRANCH  77  78
ATOM     78  C   UNL     1       3.288   2.781  -4.223  1.00  0.00     0.202 C 
BRANCH  78  79
ATOM     79  C   UNL     1       3.311   2.536  -5.742  1.00  0.00     0.261 C 
BRANCH  79  80
ATOM     80  O   UNL     1       3.537   1.187  -6.196  1.00  0.00    -0.463 OA
BRANCH  80  81
ATOM     81  C   UNL     1       4.775   0.887  -6.676  1.00  0.00     0.310 C 
ATOM     82  O   UNL     1       5.716   1.666  -6.688  1.00  0.00    -0.252 OA
BRANCH  81  83
ATOM     83  C   UNL     1       4.902  -0.541  -7.198  1.00  0.00     0.120 C 
ATOM     84  C   UNL     1       3.605  -1.238  -7.615  1.00  0.00     0.038 C 
ATOM     85  C   UNL     1       5.590  -1.511  -6.223  1.00  0.00     0.133 C 
ATOM     86  C   UNL     1       3.273  -2.225  -6.500  1.00  0.00     0.119 C 
ATOM     87  N   UNL     1       4.551  -2.466  -5.858  1.00  0.00    -0.355 N 
BRANCH  87  88
ATOM     88  C   UNL     1       4.791  -3.659  -5.228  1.00  0.00     0.135 A 
ATOM     89  N   UNL     1       4.655  -3.681  -3.890  1.00  0.00    -0.219 NA
ATOM     90  C   UNL     1       5.095  -4.813  -5.951  1.00  0.00     0.016 A 
ATOM     91  C   UNL     1       4.798  -4.871  -3.289  1.00  0.00     0.224 A 
ATOM     92  C   UNL     1       5.218  -5.993  -5.224  1.00  0.00     0.049 A 
ATOM     93  N   UNL     1       5.070  -6.037  -3.886  1.00  0.00    -0.241 NA
BRANCH  90  94
ATOM     94  C   UNL     1       5.323  -4.797  -7.436  1.00  0.00     0.041 C 
BRANCH  94  95
ATOM     95  C   UNL     1       6.784  -5.086  -7.770  1.00  0.00     0.005 C 
BRANCH  95  96
ATOM     96  C   UNL     1       7.099  -6.579  -7.822  1.00  0.00     0.001 CG0
ATOM     97  G   UNL     1       6.954  -7.324  -6.494  1.00  0.00     0.000 G0
ENDBRANCH  95  96
ENDBRANCH  94  95
ENDBRANCH  90  94
BRANCH  92  98
ATOM     98  C   UNL     1       5.544  -7.301  -5.902  1.00  0.00     0.057 C 
BRANCH  98  99
ATOM     99  C   UNL     1       6.954  -7.324  -6.494  1.00  0.00     0.006 CG0
ATOM    100  G   UNL     1       7.099  -6.579  -7.822  1.00  0.00     0.000 G0
ENDBRANCH  98  99
ENDBRANCH  92  98
ENDBRANCH  87  88
ENDBRANCH  81  83
ENDBRANCH  80  81
ENDBRANCH  79  80
ENDBRANCH  78  79
ENDBRANCH  77  78
ENDBRANCH  76  77
ENDBRANCH   1  76
TORSDOF 21
