REMARK SMILES O=C(COc1ccccc1C[NH+]1CCC2(CC[NH2+]CC2)CC1)OCCOCCOCCOCCOC(=O)c1ccc(-c2c3nc(c(-c4c(F)c(F)c(F)c(F)c4F)c4ccc([nH]4)c(-c4c(F)c(F)c(F)c(F)c4F)c4nc(c(-c5c(F)c(F)c(F)c(F)c5F)c5ccc2[nH]5)C=C4)C=C3)cc1
REMARK SMILES IDX 28 1 27 2 26 3 25 4 24 5 23 6 2 7 1 8 3 9 4 10 5 11 6 12
REMARK SMILES IDX 10 13 7 14 9 15 8 16 11 17 12 18 13 19 22 20 14 22 21 23
REMARK SMILES IDX 15 24 16 25 20 26 17 27 19 28 18 29 29 32 30 33 31 34 32 35
REMARK SMILES IDX 33 36 34 37 35 38 36 39 37 40 38 41 39 42 100 43 40 44 99 45
REMARK SMILES IDX 41 46 42 47 43 48 93 49 44 50 98 51 92 52 94 53 45 54 97 55
REMARK SMILES IDX 91 56 90 57 46 59 78 60 58 61 77 62 59 63 62 64 76 65 95 66
REMARK SMILES IDX 60 67 61 68 75 70 96 71 63 72 47 73 48 74 56 75 49 76 50 77
REMARK SMILES IDX 54 78 57 79 51 80 52 81 55 82 53 83 79 84 80 85 88 86 81 87
REMARK SMILES IDX 82 88 86 89 89 90 83 91 84 92 87 93 85 94 64 95 65 96 73 97
REMARK SMILES IDX 66 98 67 99 71 100 74 101 68 102 69 103 72 104 70 105
REMARK H PARENT 12 21 18 30 18 31 94 58 62 69
REMARK Flexibility Score: inf
ROOT
ATOM      1  C   UNL     1       2.374   2.879  -0.779  1.00  0.00     0.188 C 
ENDROOT
BRANCH   1   2
ATOM      2  C   UNL     1       3.268   2.919   0.490  1.00  0.00     0.188 C 
BRANCH   2   3
ATOM      3  O   UNL     1       4.595   2.429   0.339  1.00  0.00    -0.376 OA
BRANCH   3   4
ATOM      4  C   UNL     1       4.960   1.082   0.556  1.00  0.00     0.202 C 
BRANCH   4   5
ATOM      5  C   UNL     1       4.152  -0.007  -0.134  1.00  0.00     0.261 C 
BRANCH   5   6
ATOM      6  O   UNL     1       2.723   0.132  -0.027  1.00  0.00    -0.461 OA
BRANCH   6   7
ATOM      7  C   UNL     1       2.003   0.264   1.113  1.00  0.00     0.344 C 
ATOM      8  O   UNL     1       0.881   0.766   1.088  1.00  0.00    -0.248 OA
BRANCH   7   9
ATOM      9  C   UNL     1       2.612  -0.244   2.385  1.00  0.00     0.351 C 
BRANCH   9  10
ATOM     10  O   UNL     1       3.341  -1.431   2.099  1.00  0.00    -0.481 OA
BRANCH  10  11
ATOM     11  C   UNL     1       2.674  -2.538   2.531  1.00  0.00     0.129 A 
ATOM     12  C   UNL     1       3.198  -3.070   3.716  1.00  0.00     0.047 A 
ATOM     13  C   UNL     1       1.593  -3.136   1.851  1.00  0.00     0.048 A 
ATOM     14  C   UNL     1       2.605  -4.176   4.301  1.00  0.00     0.004 A 
ATOM     15  C   UNL     1       0.971  -4.206   2.515  1.00  0.00     0.013 A 
ATOM     16  C   UNL     1       1.476  -4.730   3.711  1.00  0.00     0.001 A 
BRANCH  13  17
ATOM     17  C   UNL     1       1.012  -2.706   0.509  1.00  0.00     0.302 C 
BRANCH  17  18
ATOM     18  N   UNL     1       1.368  -3.375  -0.749  1.00  0.00    -0.331 N 
ATOM     19  C   UNL     1       2.664  -3.075  -1.329  1.00  0.00     0.263 C 
ATOM     20  C   UNL     1       1.043  -4.777  -0.888  1.00  0.00     0.263 C 
ATOM     21  H   UNL     1       0.686  -2.881  -1.326  1.00  0.00     0.348 HD
ATOM     22  C   UNL     1       3.795  -3.797  -0.618  1.00  0.00     0.069 C 
ATOM     23  C   UNL     1       2.082  -5.706  -0.271  1.00  0.00     0.069 C 
ATOM     24  C   UNL     1       3.574  -5.330  -0.505  1.00  0.00    -0.008 C 
ATOM     25  C   UNL     1       4.093  -6.031  -1.785  1.00  0.00     0.069 C 
ATOM     26  C   UNL     1       4.375  -5.869   0.708  1.00  0.00     0.069 C 
ATOM     27  C   UNL     1       5.623  -6.025  -1.893  1.00  0.00     0.261 C 
ATOM     28  C   UNL     1       5.883  -5.816   0.497  1.00  0.00     0.261 C 
ATOM     29  N   UNL     1       6.268  -6.568  -0.697  1.00  0.00    -0.346 N 
ATOM     30  H   UNL     1       7.280  -6.516  -0.811  1.00  0.00     0.346 HD
ATOM     31  H   UNL     1       5.969  -7.536  -0.579  1.00  0.00     0.346 HD
ENDBRANCH  17  18
ENDBRANCH  13  17
ENDBRANCH  10  11
ENDBRANCH   9  10
ENDBRANCH   7   9
ENDBRANCH   6   7
ENDBRANCH   5   6
ENDBRANCH   4   5
ENDBRANCH   3   4
ENDBRANCH   2   3
ENDBRANCH   1   2
BRANCH   1  32
ATOM     32  O   UNL     1       2.905   3.365  -2.007  1.00  0.00    -0.377 OA
BRANCH  32  33
ATOM     33  C   UNL     1       4.240   2.996  -2.304  1.00  0.00     0.188 C 
BRANCH  33  34
ATOM     34  C   UNL     1       5.266   4.023  -1.798  1.00  0.00     0.188 C 
BRANCH  34  35
ATOM     35  O   UNL     1       4.816   4.988  -0.871  1.00  0.00    -0.376 OA
BRANCH  35  36
ATOM     36  C   UNL     1       3.849   5.976  -1.190  1.00  0.00     0.202 C 
BRANCH  36  37
ATOM     37  C   UNL     1       3.088   6.149  -2.521  1.00  0.00     0.261 C 
BRANCH  37  38
ATOM     38  O   UNL     1       3.537   5.457  -3.682  1.00  0.00    -0.460 OA
BRANCH  38  39
ATOM     39  C   UNL     1       4.667   5.882  -4.274  1.00  0.00     0.338 C 
ATOM     40  O   UNL     1       5.380   6.812  -3.947  1.00  0.00    -0.246 OA
BRANCH  39  41
ATOM     41  C   UNL     1       4.994   4.857  -5.287  1.00  0.00     0.060 A 
ATOM     42  C   UNL     1       6.204   4.156  -5.186  1.00  0.00     0.016 A 
ATOM     43  C   UNL     1       4.071   4.546  -6.289  1.00  0.00     0.016 A 
ATOM     44  C   UNL     1       6.501   3.145  -6.095  1.00  0.00     0.010 A 
ATOM     45  C   UNL     1       4.392   3.572  -7.231  1.00  0.00     0.010 A 
ATOM     46  C   UNL     1       5.620   2.893  -7.151  1.00  0.00    -0.014 A 
BRANCH  46  47
ATOM     47  C   UNL     1       6.088   2.124  -8.320  1.00  0.00     0.031 A 
ATOM     48  C   UNL     1       6.721   2.899  -9.440  1.00  0.00     0.074 A 
ATOM     49  C   UNL     1       5.927   0.794  -8.397  1.00  0.00     0.049 A 
ATOM     50  N   UNL     1       7.078   2.499 -10.630  1.00  0.00    -0.248 NA
ATOM     51  C   UNL     1       6.976   4.328  -9.181  1.00  0.00     0.031 C 
ATOM     52  C   UNL     1       5.374  -0.055  -7.345  1.00  0.00     0.029 A 
ATOM     53  N   UNL     1       6.190  -0.070  -9.430  1.00  0.00    -0.354 N 
ATOM     54  C   UNL     1       7.575   3.627 -11.267  1.00  0.00     0.074 A 
ATOM     55  C   UNL     1       7.473   4.730 -10.340  1.00  0.00     0.031 C 
ATOM     56  C   UNL     1       5.301  -1.318  -7.802  1.00  0.00     0.029 A 
ATOM     57  C   UNL     1       5.760  -1.351  -9.190  1.00  0.00     0.049 A 
ATOM     58  H   UNL     1       6.644   0.202 -10.260  1.00  0.00     0.167 HD
ATOM     59  C   UNL     1       8.065   3.729 -12.522  1.00  0.00     0.037 A 
ATOM     60  C   UNL     1       5.700  -2.409 -10.023  1.00  0.00     0.037 A 
ATOM     61  C   UNL     1       8.161   2.623 -13.433  1.00  0.00     0.049 A 
ATOM     62  C   UNL     1       6.181  -2.248 -11.446  1.00  0.00     0.074 A 
ATOM     63  C   UNL     1       8.685   2.603 -14.711  1.00  0.00     0.029 A 
ATOM     64  N   UNL     1       7.702   1.342 -13.162  1.00  0.00    -0.354 N 
ATOM     65  N   UNL     1       6.694  -1.193 -12.034  1.00  0.00    -0.248 NA
ATOM     66  C   UNL     1       6.065  -3.421 -12.324  1.00  0.00     0.031 C 
ATOM     67  C   UNL     1       8.482   1.326 -15.241  1.00  0.00     0.029 A 
ATOM     68  C   UNL     1       7.891   0.533 -14.269  1.00  0.00     0.049 A 
ATOM     69  H   UNL     1       7.303   1.052 -12.311  1.00  0.00     0.167 HD
ATOM     70  C   UNL     1       6.985  -1.582 -13.336  1.00  0.00     0.074 A 
ATOM     71  C   UNL     1       6.606  -2.974 -13.448  1.00  0.00     0.031 C 
ATOM     72  C   UNL     1       7.514  -0.854 -14.350  1.00  0.00     0.037 A 
BRANCH  59  73
ATOM     73  C   UNL     1       8.489   5.084 -13.000  1.00  0.00     0.064 A 
ATOM     74  C   UNL     1       9.648   5.712 -12.522  1.00  0.00     0.173 A 
ATOM     75  C   UNL     1       7.744   5.742 -13.990  1.00  0.00     0.173 A 
ATOM     76  F   UNL     1      10.383   5.133 -11.560  1.00  0.00    -0.203 F 
ATOM     77  C   UNL     1      10.039   6.956 -13.010  1.00  0.00     0.198 A 
ATOM     78  C   UNL     1       8.153   6.972 -14.496  1.00  0.00     0.198 A 
ATOM     79  F   UNL     1       6.624   5.185 -14.476  1.00  0.00    -0.203 F 
ATOM     80  F   UNL     1      11.130   7.556 -12.514  1.00  0.00    -0.200 F 
ATOM     81  C   UNL     1       9.298   7.579 -14.004  1.00  0.00     0.200 A 
ATOM     82  F   UNL     1       7.441   7.566 -15.464  1.00  0.00    -0.200 F 
ATOM     83  F   UNL     1       9.685   8.768 -14.485  1.00  0.00    -0.200 F 
ENDBRANCH  59  73
BRANCH  60  84
ATOM     84  C   UNL     1       5.115  -3.697  -9.562  1.00  0.00     0.064 A 
ATOM     85  C   UNL     1       5.897  -4.856  -9.466  1.00  0.00     0.173 A 
ATOM     86  C   UNL     1       3.751  -3.806  -9.251  1.00  0.00     0.173 A 
ATOM     87  F   UNL     1       7.201  -4.811  -9.778  1.00  0.00    -0.203 F 
ATOM     88  C   UNL     1       5.333  -6.078  -9.105  1.00  0.00     0.198 A 
ATOM     89  C   UNL     1       3.195  -5.021  -8.858  1.00  0.00     0.198 A 
ATOM     90  F   UNL     1       2.954  -2.729  -9.330  1.00  0.00    -0.203 F 
ATOM     91  F   UNL     1       6.092  -7.183  -9.081  1.00  0.00    -0.200 F 
ATOM     92  C   UNL     1       3.983  -6.159  -8.796  1.00  0.00     0.200 A 
ATOM     93  F   UNL     1       1.893  -5.091  -8.548  1.00  0.00    -0.200 F 
ATOM     94  F   UNL     1       3.441  -7.335  -8.452  1.00  0.00    -0.200 F 
ENDBRANCH  60  84
BRANCH  72  95
ATOM     95  C   UNL     1       7.746  -1.552 -15.659  1.00  0.00     0.064 A 
ATOM     96  C   UNL     1       6.683  -1.905 -16.502  1.00  0.00     0.173 A 
ATOM     97  C   UNL     1       9.053  -1.798 -16.109  1.00  0.00     0.173 A 
ATOM     98  F   UNL     1       5.415  -1.702 -16.112  1.00  0.00    -0.203 F 
ATOM     99  C   UNL     1       6.919  -2.494 -17.741  1.00  0.00     0.198 A 
ATOM    100  C   UNL     1       9.286  -2.356 -17.362  1.00  0.00     0.198 A 
ATOM    101  F   UNL     1      10.105  -1.469 -15.344  1.00  0.00    -0.203 F 
ATOM    102  F   UNL     1       5.887  -2.859 -18.515  1.00  0.00    -0.200 F 
ATOM    103  C   UNL     1       8.219  -2.708 -18.174  1.00  0.00     0.200 A 
ATOM    104  F   UNL     1      10.543  -2.545 -17.786  1.00  0.00    -0.200 F 
ATOM    105  F   UNL     1       8.444  -3.258 -19.376  1.00  0.00    -0.200 F 
ENDBRANCH  72  95
ENDBRANCH  46  47
ENDBRANCH  39  41
ENDBRANCH  38  39
ENDBRANCH  37  38
ENDBRANCH  36  37
ENDBRANCH  35  36
ENDBRANCH  34  35
ENDBRANCH  33  34
ENDBRANCH  32  33
ENDBRANCH   1  32
TORSDOF 24
