REMARK SMILES CC(=O)NS(=O)(=O)c1cc(-c2ccn(C(F)F)c(=O)c2)ccc1C(=O)OCCOCCOCCOCCOC(=O)c1ccc(-c2c3nc(c(-c4c(F)c(F)c(F)c(F)c4F)c4ccc([nH]4)c(-c4c(F)c(F)c(F)c(F)c4F)c4nc(c(-c5c(F)c(F)c(F)c(F)c5F)c5ccc2[nH]5)C=C4)C=C3)cc1
REMARK SMILES IDX 32 1 31 2 30 3 29 4 28 5 27 6 26 7 24 8 25 9 23 10 8 11 9 12
REMARK SMILES IDX 10 13 22 14 21 15 5 16 6 17 7 18 4 19 1 20 2 21 3 22 11 24
REMARK SMILES IDX 12 25 20 26 13 27 18 28 14 29 19 30 15 31 16 32 17 33 33 34
REMARK SMILES IDX 34 35 35 36 36 37 37 38 38 39 39 40 40 41 41 42 42 43 103 44
REMARK SMILES IDX 43 45 102 46 44 47 45 48 46 49 96 50 47 51 101 52 95 53
REMARK SMILES IDX 97 54 48 55 100 56 94 57 93 58 49 60 81 61 61 62 80 63 62 64
REMARK SMILES IDX 65 65 79 66 98 67 63 68 64 69 78 71 99 72 66 73 50 74 51 75
REMARK SMILES IDX 59 76 52 77 53 78 57 79 60 80 54 81 55 82 58 83 56 84 82 85
REMARK SMILES IDX 83 86 91 87 84 88 85 89 89 90 92 91 86 92 87 93 90 94 88 95
REMARK SMILES IDX 67 96 68 97 76 98 69 99 70 100 74 101 77 102 71 103 72 104
REMARK SMILES IDX 75 105 73 106
REMARK H PARENT 4 23 97 59 65 70
REMARK Flexibility Score: inf
ROOT
ATOM      1  O   UNL     1       4.404   1.981   4.636  1.00  0.00    -0.377 OA
ENDROOT
BRANCH   1   2
ATOM      2  C   UNL     1       5.019   0.739   4.331  1.00  0.00     0.188 C 
BRANCH   2   3
ATOM      3  C   UNL     1       6.251   0.653   3.393  1.00  0.00     0.188 C 
BRANCH   3   4
ATOM      4  O   UNL     1       6.974   1.856   3.233  1.00  0.00    -0.376 OA
BRANCH   4   5
ATOM      5  C   UNL     1       6.923   2.601   2.030  1.00  0.00     0.202 C 
BRANCH   5   6
ATOM      6  C   UNL     1       5.639   2.732   1.202  1.00  0.00     0.261 C 
BRANCH   6   7
ATOM      7  O   UNL     1       4.604   1.840   1.606  1.00  0.00    -0.460 OA
BRANCH   7   8
ATOM      8  C   UNL     1       4.176   0.938   0.719  1.00  0.00     0.339 C 
ATOM      9  O   UNL     1       4.572   0.764  -0.424  1.00  0.00    -0.246 OA
BRANCH   8  10
ATOM     10  C   UNL     1       3.298  -0.024   1.405  1.00  0.00     0.080 A 
ATOM     11  C   UNL     1       2.067   0.271   1.998  1.00  0.00     0.103 A 
ATOM     12  C   UNL     1       1.291  -0.786   2.522  1.00  0.00     0.032 A 
ATOM     13  C   UNL     1       1.709  -2.118   2.411  1.00  0.00    -0.017 A 
ATOM     14  C   UNL     1       3.750  -1.361   1.372  1.00  0.00     0.018 A 
ATOM     15  C   UNL     1       2.966  -2.398   1.876  1.00  0.00     0.010 A 
BRANCH  11  16
ATOM     16  S   UNL     1       1.363   1.890   2.122  1.00  0.00     0.264 S 
ATOM     17  O   UNL     1       2.390   2.884   2.311  1.00  0.00    -0.201 OA
ATOM     18  O   UNL     1       0.281   1.807   3.082  1.00  0.00    -0.201 OA
BRANCH  16  19
ATOM     19  N   UNL     1       0.662   2.279   0.684  1.00  0.00    -0.249 N 
ATOM     20  C   UNL     1       0.591   0.170  -0.694  1.00  0.00     0.115 C 
ATOM     21  C   UNL     1       0.321   1.626  -0.500  1.00  0.00     0.230 C 
ATOM     22  O   UNL     1      -0.169   2.301  -1.398  1.00  0.00    -0.274 OA
ATOM     23  H   UNL     1       0.417   3.232   0.651  1.00  0.00     0.183 HD
ENDBRANCH  16  19
ENDBRANCH  11  16
BRANCH  13  24
ATOM     24  C   UNL     1       0.770  -3.215   2.691  1.00  0.00    -0.011 A 
ATOM     25  C   UNL     1       0.781  -4.024   3.890  1.00  0.00     0.027 A 
ATOM     26  C   UNL     1      -0.116  -3.489   1.718  1.00  0.00     0.080 A 
ATOM     27  C   UNL     1      -0.073  -5.050   4.015  1.00  0.00     0.095 A 
ATOM     28  C   UNL     1      -1.075  -4.616   1.847  1.00  0.00     0.255 A 
ATOM     29  N   UNL     1      -0.982  -5.351   3.015  1.00  0.00    -0.258 N 
ATOM     30  O   UNL     1      -1.855  -4.821   0.923  1.00  0.00    -0.269 OA
BRANCH  29  31
ATOM     31  C   UNL     1      -1.867  -6.481   3.135  1.00  0.00     0.451 C 
ATOM     32  F   UNL     1      -3.164  -6.101   3.031  1.00  0.00    -0.185 F 
ATOM     33  F   UNL     1      -1.617  -7.391   2.162  1.00  0.00    -0.185 F 
ENDBRANCH  29  31
ENDBRANCH  13  24
ENDBRANCH   8  10
ENDBRANCH   7   8
ENDBRANCH   6   7
ENDBRANCH   5   6
ENDBRANCH   4   5
ENDBRANCH   3   4
ENDBRANCH   2   3
ENDBRANCH   1   2
BRANCH   1  34
ATOM     34  C   UNL     1       5.207   3.119   4.927  1.00  0.00     0.188 C 
BRANCH  34  35
ATOM     35  C   UNL     1       6.541   2.959   5.692  1.00  0.00     0.188 C 
BRANCH  35  36
ATOM     36  O   UNL     1       6.848   1.627   6.068  1.00  0.00    -0.376 OA
BRANCH  36  37
ATOM     37  C   UNL     1       6.680   1.273   7.430  1.00  0.00     0.202 C 
BRANCH  37  38
ATOM     38  C   UNL     1       5.275   1.411   8.035  1.00  0.00     0.261 C 
BRANCH  38  39
ATOM     39  O   UNL     1       4.655   2.700   7.916  1.00  0.00    -0.460 OA
BRANCH  39  40
ATOM     40  C   UNL     1       5.238   3.731   8.563  1.00  0.00     0.338 C 
ATOM     41  O   UNL     1       6.237   3.700   9.257  1.00  0.00    -0.246 OA
BRANCH  40  42
ATOM     42  C   UNL     1       4.549   4.965   8.135  1.00  0.00     0.060 A 
ATOM     43  C   UNL     1       5.273   5.953   7.454  1.00  0.00     0.016 A 
ATOM     44  C   UNL     1       3.191   5.138   8.406  1.00  0.00     0.016 A 
ATOM     45  C   UNL     1       4.643   7.136   7.070  1.00  0.00     0.010 A 
ATOM     46  C   UNL     1       2.567   6.333   8.041  1.00  0.00     0.010 A 
ATOM     47  C   UNL     1       3.299   7.350   7.403  1.00  0.00    -0.014 A 
BRANCH  47  48
ATOM     48  C   UNL     1       2.713   8.705   7.272  1.00  0.00     0.031 A 
ATOM     49  C   UNL     1       2.655   9.575   8.496  1.00  0.00     0.074 A 
ATOM     50  C   UNL     1       2.253   9.160   6.094  1.00  0.00     0.049 A 
ATOM     51  N   UNL     1       2.134  10.765   8.652  1.00  0.00    -0.248 NA
ATOM     52  C   UNL     1       3.266   9.020   9.715  1.00  0.00     0.031 C 
ATOM     53  C   UNL     1       2.293   8.428   4.831  1.00  0.00     0.029 A 
ATOM     54  N   UNL     1       1.647  10.351   5.778  1.00  0.00    -0.354 N 
ATOM     55  C   UNL     1       2.345  11.094   9.985  1.00  0.00     0.074 A 
ATOM     56  C   UNL     1       3.010   9.969  10.602  1.00  0.00     0.031 C 
ATOM     57  C   UNL     1       1.722   9.181   3.875  1.00  0.00     0.029 A 
ATOM     58  C   UNL     1       1.242  10.429   4.469  1.00  0.00     0.049 A 
ATOM     59  H   UNL     1       1.515  11.078   6.428  1.00  0.00     0.167 HD
ATOM     60  C   UNL     1       2.018  12.238  10.632  1.00  0.00     0.037 A 
ATOM     61  C   UNL     1       0.540  11.389   3.835  1.00  0.00     0.037 A 
ATOM     62  C   UNL     1       1.350  13.352  10.013  1.00  0.00     0.049 A 
ATOM     63  C   UNL     1       0.115  12.620   4.597  1.00  0.00     0.074 A 
ATOM     64  C   UNL     1       0.989  14.563  10.576  1.00  0.00     0.029 A 
ATOM     65  N   UNL     1       0.928  13.383   8.692  1.00  0.00    -0.354 N 
ATOM     66  N   UNL     1       0.340  12.941   5.849  1.00  0.00    -0.248 NA
ATOM     67  C   UNL     1      -0.659  13.625   3.855  1.00  0.00     0.031 C 
ATOM     68  C   UNL     1       0.292  15.300   9.615  1.00  0.00     0.029 A 
ATOM     69  C   UNL     1       0.282  14.581   8.430  1.00  0.00     0.049 A 
ATOM     70  H   UNL     1       1.067  12.661   8.037  1.00  0.00     0.167 HD
ATOM     71  C   UNL     1      -0.233  14.193   6.034  1.00  0.00     0.074 A 
ATOM     72  C   UNL     1      -0.806  14.580   4.762  1.00  0.00     0.031 C 
ATOM     73  C   UNL     1      -0.276  14.957   7.155  1.00  0.00     0.037 A 
BRANCH  60  74
ATOM     74  C   UNL     1       2.347  12.321  12.096  1.00  0.00     0.064 A 
ATOM     75  C   UNL     1       3.670  12.394  12.557  1.00  0.00     0.173 A 
ATOM     76  C   UNL     1       1.319  12.345  13.051  1.00  0.00     0.173 A 
ATOM     77  F   UNL     1       4.692  12.360  11.688  1.00  0.00    -0.203 F 
ATOM     78  C   UNL     1       3.952  12.453  13.920  1.00  0.00     0.198 A 
ATOM     79  C   UNL     1       1.603  12.440  14.410  1.00  0.00     0.198 A 
ATOM     80  F   UNL     1       0.035  12.280  12.666  1.00  0.00    -0.203 F 
ATOM     81  F   UNL     1       5.225  12.462  14.339  1.00  0.00    -0.200 F 
ATOM     82  C   UNL     1       2.919  12.483  14.844  1.00  0.00     0.200 A 
ATOM     83  F   UNL     1       0.603  12.484  15.301  1.00  0.00    -0.200 F 
ATOM     84  F   UNL     1       3.192  12.546  16.155  1.00  0.00    -0.200 F 
ENDBRANCH  60  74
BRANCH  61  85
ATOM     85  C   UNL     1       0.183  11.222   2.401  1.00  0.00     0.064 A 
ATOM     86  C   UNL     1       0.731  12.055   1.415  1.00  0.00     0.173 A 
ATOM     87  C   UNL     1      -0.728  10.238   1.988  1.00  0.00     0.173 A 
ATOM     88  F   UNL     1       1.585  13.030   1.762  1.00  0.00    -0.203 F 
ATOM     89  C   UNL     1       0.370  11.921   0.076  1.00  0.00     0.198 A 
ATOM     90  C   UNL     1      -1.064  10.084   0.644  1.00  0.00     0.198 A 
ATOM     91  F   UNL     1      -1.286   9.418   2.890  1.00  0.00    -0.203 F 
ATOM     92  F   UNL     1       0.872  12.763  -0.838  1.00  0.00    -0.200 F 
ATOM     93  C   UNL     1      -0.521  10.931  -0.310  1.00  0.00     0.200 A 
ATOM     94  F   UNL     1      -1.916   9.118   0.275  1.00  0.00    -0.200 F 
ATOM     95  F   UNL     1      -0.864  10.800  -1.598  1.00  0.00    -0.200 F 
ENDBRANCH  61  85
BRANCH  73  96
ATOM     96  C   UNL     1      -0.921  16.311   7.050  1.00  0.00     0.064 A 
ATOM     97  C   UNL     1      -2.305  16.465   6.885  1.00  0.00     0.173 A 
ATOM     98  C   UNL     1      -0.142  17.474   7.168  1.00  0.00     0.173 A 
ATOM     99  F   UNL     1      -3.094  15.387   6.755  1.00  0.00    -0.203 F 
ATOM    100  C   UNL     1      -2.882  17.731   6.812  1.00  0.00     0.198 A 
ATOM    101  C   UNL     1      -0.727  18.737   7.131  1.00  0.00     0.198 A 
ATOM    102  F   UNL     1       1.185  17.386   7.338  1.00  0.00    -0.203 F 
ATOM    103  F   UNL     1      -4.200  17.853   6.602  1.00  0.00    -0.200 F 
ATOM    104  C   UNL     1      -2.094  18.865   6.945  1.00  0.00     0.200 A 
ATOM    105  F   UNL     1       0.034  19.831   7.279  1.00  0.00    -0.200 F 
ATOM    106  F   UNL     1      -2.653  20.081   6.886  1.00  0.00    -0.200 F 
ENDBRANCH  73  96
ENDBRANCH  47  48
ENDBRANCH  40  42
ENDBRANCH  39  40
ENDBRANCH  38  39
ENDBRANCH  37  38
ENDBRANCH  36  37
ENDBRANCH  35  36
ENDBRANCH  34  35
ENDBRANCH   1  34
TORSDOF 24
