REMARK SMILES Cc1cc(C(=O)OCCOCCOCCOCCOC(=O)c2ccc(-c3c4nc(c(-c5c(F)c(F)c(F)c(F)c5F)c5ccc([nH]5)c(-c5c(F)c(F)c(F)c(F)c5F)c5nc(c(-c6c(F)c(F)c(F)c(F)c6F)c6ccc3[nH]6)C=C5)C=C4)cc2)c(NC(=O)c2nc(C(C)(C)C)n[nH]2)s1
REMARK SMILES IDX 12 1 11 2 10 3 9 4 8 5 7 6 5 7 6 8 4 9 1 10 2 11 3 12 98 13
REMARK SMILES IDX 85 14 86 15 87 16 88 18 89 19 90 20 97 21 91 22 96 23 92 25
REMARK SMILES IDX 93 26 94 27 95 28 13 29 14 30 15 31 16 32 17 33 18 34 19 35
REMARK SMILES IDX 20 36 21 37 22 38 23 39 84 40 24 41 83 42 25 43 26 44 27 45
REMARK SMILES IDX 77 46 28 47 82 48 76 49 78 50 29 51 81 52 75 53 74 54 30 56
REMARK SMILES IDX 62 57 42 58 61 59 43 60 46 61 60 62 79 63 44 64 45 65 59 67
REMARK SMILES IDX 80 68 47 69 31 70 32 71 40 72 33 73 34 74 38 75 41 76 35 77
REMARK SMILES IDX 36 78 39 79 37 80 63 81 64 82 72 83 65 84 66 85 70 86 73 87
REMARK SMILES IDX 67 88 68 89 71 90 69 91 48 92 49 93 57 94 50 95 51 96 55 97
REMARK SMILES IDX 58 98 52 99 53 100 56 101 54 102
REMARK H PARENT 86 17 97 24 78 55 46 66
REMARK Flexibility Score: inf
ROOT
ATOM      1  C   UNL     1      -2.523  -2.522   1.862  1.00  0.00     0.188 C 
ENDROOT
BRANCH   1   2
ATOM      2  C   UNL     1      -3.865  -2.195   1.188  1.00  0.00     0.188 C 
BRANCH   2   3
ATOM      3  O   UNL     1      -4.533  -3.359   0.699  1.00  0.00    -0.376 OA
BRANCH   3   4
ATOM      4  C   UNL     1      -4.439  -3.609  -0.698  1.00  0.00     0.202 C 
BRANCH   4   5
ATOM      5  C   UNL     1      -3.079  -4.118  -1.207  1.00  0.00     0.261 C 
BRANCH   5   6
ATOM      6  O   UNL     1      -1.966  -3.214  -1.098  1.00  0.00    -0.460 OA
BRANCH   6   7
ATOM      7  C   UNL     1      -2.079  -1.963  -1.609  1.00  0.00     0.341 C 
ATOM      8  O   UNL     1      -3.028  -1.550  -2.265  1.00  0.00    -0.246 OA
BRANCH   7   9
ATOM      9  C   UNL     1      -1.013  -1.098  -1.119  1.00  0.00     0.095 A 
ATOM     10  C   UNL     1       2.540  -0.555   0.101  1.00  0.00     0.056 C 
ATOM     11  C   UNL     1       1.104  -0.521  -0.296  1.00  0.00     0.004 A 
ATOM     12  C   UNL     1       0.346  -1.508  -0.884  1.00  0.00     0.033 A 
ATOM     13  S   UNL     1       0.172   0.869   0.007  1.00  0.00    -0.122 S 
ATOM     14  C   UNL     1      -1.223   0.211  -0.706  1.00  0.00     0.110 A 
BRANCH  14  15
ATOM     15  N   UNL     1      -2.438   0.883  -0.697  1.00  0.00    -0.310 N 
ATOM     16  C   UNL     1      -2.795   2.138  -0.238  1.00  0.00     0.293 C 
ATOM     17  H   UNL     1      -3.182   0.372  -1.089  1.00  0.00     0.171 HD
ATOM     18  O   UNL     1      -3.983   2.296   0.056  1.00  0.00    -0.265 OA
BRANCH  16  19
ATOM     19  C   UNL     1      -1.841   3.219  -0.223  1.00  0.00     0.214 A 
ATOM     20  N   UNL     1      -1.668   4.092   0.751  1.00  0.00    -0.207 NA
ATOM     21  N   UNL     1      -1.017   3.553  -1.256  1.00  0.00    -0.255 N 
ATOM     22  C   UNL     1      -0.660   4.902   0.285  1.00  0.00     0.156 A 
ATOM     23  N   UNL     1      -0.246   4.607  -0.956  1.00  0.00    -0.158 NA
ATOM     24  H   UNL     1      -0.992   3.078  -2.118  1.00  0.00     0.192 HD
BRANCH  22  25
ATOM     25  C   UNL     1      -0.106   6.051   1.091  1.00  0.00     0.024 C 
ATOM     26  C   UNL     1      -1.031   7.272   0.938  1.00  0.00     0.019 C 
ATOM     27  C   UNL     1      -0.020   5.673   2.583  1.00  0.00     0.019 C 
ATOM     28  C   UNL     1       1.312   6.438   0.621  1.00  0.00     0.019 C 
ENDBRANCH  22  25
ENDBRANCH  16  19
ENDBRANCH  14  15
ENDBRANCH   7   9
ENDBRANCH   6   7
ENDBRANCH   5   6
ENDBRANCH   4   5
ENDBRANCH   3   4
ENDBRANCH   2   3
ENDBRANCH   1   2
BRANCH   1  29
ATOM     29  O   UNL     1      -2.260  -3.920   1.861  1.00  0.00    -0.377 OA
BRANCH  29  30
ATOM     30  C   UNL     1      -2.704  -4.629   3.016  1.00  0.00     0.188 C 
BRANCH  30  31
ATOM     31  C   UNL     1      -4.093  -4.300   3.597  1.00  0.00     0.188 C 
BRANCH  31  32
ATOM     32  O   UNL     1      -4.184  -2.958   4.083  1.00  0.00    -0.376 OA
BRANCH  32  33
ATOM     33  C   UNL     1      -4.231  -2.800   5.498  1.00  0.00     0.202 C 
BRANCH  33  34
ATOM     34  C   UNL     1      -2.841  -2.808   6.148  1.00  0.00     0.261 C 
BRANCH  34  35
ATOM     35  O   UNL     1      -2.144  -4.060   6.039  1.00  0.00    -0.460 OA
BRANCH  35  36
ATOM     36  C   UNL     1      -2.735  -5.136   6.600  1.00  0.00     0.338 C 
ATOM     37  O   UNL     1      -3.748  -5.157   7.274  1.00  0.00    -0.246 OA
BRANCH  36  38
ATOM     38  C   UNL     1      -2.050  -6.343   6.101  1.00  0.00     0.060 A 
ATOM     39  C   UNL     1      -2.824  -7.369   5.545  1.00  0.00     0.016 A 
ATOM     40  C   UNL     1      -0.661  -6.467   6.191  1.00  0.00     0.016 A 
ATOM     41  C   UNL     1      -2.213  -8.549   5.123  1.00  0.00     0.010 A 
ATOM     42  C   UNL     1      -0.052  -7.654   5.785  1.00  0.00     0.010 A 
ATOM     43  C   UNL     1      -0.831  -8.712   5.286  1.00  0.00    -0.014 A 
BRANCH  43  44
ATOM     44  C   UNL     1      -0.227 -10.056   5.141  1.00  0.00     0.031 A 
ATOM     45  C   UNL     1      -0.114 -10.917   6.368  1.00  0.00     0.074 A 
ATOM     46  C   UNL     1       0.220 -10.498   3.954  1.00  0.00     0.049 A 
ATOM     47  N   UNL     1       0.411 -12.107   6.505  1.00  0.00    -0.248 NA
ATOM     48  C   UNL     1      -0.666 -10.354   7.611  1.00  0.00     0.031 C 
ATOM     49  C   UNL     1       0.145  -9.764   2.695  1.00  0.00     0.029 A 
ATOM     50  N   UNL     1       0.840 -11.677   3.626  1.00  0.00    -0.354 N 
ATOM     51  C   UNL     1       0.250 -12.434   7.844  1.00  0.00     0.074 A 
ATOM     52  C   UNL     1      -0.393 -11.309   8.486  1.00  0.00     0.031 C 
ATOM     53  C   UNL     1       0.715 -10.505   1.727  1.00  0.00     0.029 A 
ATOM     54  C   UNL     1       1.212 -11.752   2.307  1.00  0.00     0.049 A 
ATOM     55  H   UNL     1       1.003 -12.400   4.274  1.00  0.00     0.167 HD
ATOM     56  C   UNL     1       0.600 -13.576   8.481  1.00  0.00     0.037 A 
ATOM     57  C   UNL     1       1.892 -12.714   1.654  1.00  0.00     0.037 A 
ATOM     58  C   UNL     1       1.252 -14.688   7.847  1.00  0.00     0.049 A 
ATOM     59  C   UNL     1       2.331 -13.948   2.399  1.00  0.00     0.074 A 
ATOM     60  C   UNL     1       1.635 -15.896   8.402  1.00  0.00     0.029 A 
ATOM     61  N   UNL     1       1.629 -14.720   6.513  1.00  0.00    -0.354 N 
ATOM     62  N   UNL     1       2.140 -14.269   3.656  1.00  0.00    -0.248 NA
ATOM     63  C   UNL     1       3.079 -14.955   1.632  1.00  0.00     0.031 C 
ATOM     64  C   UNL     1       2.282 -16.644   7.412  1.00  0.00     0.029 A 
ATOM     65  C   UNL     1       2.263 -15.918   6.231  1.00  0.00     0.049 A 
ATOM     66  H   UNL     1       1.470 -13.998   5.863  1.00  0.00     0.167 HD
ATOM     67  C   UNL     1       2.717 -15.522   3.824  1.00  0.00     0.074 A 
ATOM     68  C   UNL     1       3.260 -15.907   2.538  1.00  0.00     0.031 C 
ATOM     69  C   UNL     1       2.788 -16.286   4.941  1.00  0.00     0.037 A 
BRANCH  56  70
ATOM     70  C   UNL     1       0.300 -13.660   9.946  1.00  0.00     0.064 A 
ATOM     71  C   UNL     1      -1.011 -13.828  10.417  1.00  0.00     0.173 A 
ATOM     72  C   UNL     1       1.334 -13.580  10.889  1.00  0.00     0.173 A 
ATOM     73  F   UNL     1      -2.036 -13.889   9.554  1.00  0.00    -0.203 F 
ATOM     74  C   UNL     1      -1.278 -13.888  11.782  1.00  0.00     0.198 A 
ATOM     75  C   UNL     1       1.067 -13.664  12.253  1.00  0.00     0.198 A 
ATOM     76  F   UNL     1       2.604 -13.417  10.488  1.00  0.00    -0.203 F 
ATOM     77  F   UNL     1      -2.542 -14.002  12.212  1.00  0.00    -0.200 F 
ATOM     78  C   UNL     1      -0.239 -13.811  12.698  1.00  0.00     0.200 A 
ATOM     79  F   UNL     1       2.071 -13.595  13.137  1.00  0.00    -0.200 F 
ATOM     80  F   UNL     1      -0.497 -13.869  14.012  1.00  0.00    -0.200 F 
ENDBRANCH  56  70
BRANCH  57  81
ATOM     81  C   UNL     1       2.206 -12.549   0.212  1.00  0.00     0.064 A 
ATOM     82  C   UNL     1       1.571 -13.336  -0.759  1.00  0.00     0.173 A 
ATOM     83  C   UNL     1       3.156 -11.615  -0.223  1.00  0.00     0.173 A 
ATOM     84  F   UNL     1       0.674 -14.261  -0.388  1.00  0.00    -0.203 F 
ATOM     85  C   UNL     1       1.885 -13.203  -2.110  1.00  0.00     0.198 A 
ATOM     86  C   UNL     1       3.453 -11.467  -1.576  1.00  0.00     0.198 A 
ATOM     87  F   UNL     1       3.795 -10.842   0.668  1.00  0.00    -0.203 F 
ATOM     88  F   UNL     1       1.292 -13.995  -3.014  1.00  0.00    -0.200 F 
ATOM     89  C   UNL     1       2.821 -12.265  -2.518  1.00  0.00     0.200 A 
ATOM     90  F   UNL     1       4.353 -10.554  -1.967  1.00  0.00    -0.200 F 
ATOM     91  F   UNL     1       3.121 -12.136  -3.817  1.00  0.00    -0.200 F 
ENDBRANCH  57  81
BRANCH  69  92
ATOM     92  C   UNL     1       3.446 -17.628   4.819  1.00  0.00     0.064 A 
ATOM     93  C   UNL     1       4.838 -17.757   4.713  1.00  0.00     0.173 A 
ATOM     94  C   UNL     1       2.678 -18.801   4.866  1.00  0.00     0.173 A 
ATOM     95  F   UNL     1       5.614 -16.664   4.651  1.00  0.00    -0.203 F 
ATOM     96  C   UNL     1       5.436 -19.012   4.641  1.00  0.00     0.198 A 
ATOM     97  C   UNL     1       3.280 -20.055   4.818  1.00  0.00     0.198 A 
ATOM     98  F   UNL     1       1.342 -18.730   4.974  1.00  0.00    -0.203 F 
ATOM     99  F   UNL     1       6.766 -19.112   4.503  1.00  0.00    -0.200 F 
ATOM    100  C   UNL     1       4.658 -20.159   4.701  1.00  0.00     0.200 A 
ATOM    101  F   UNL     1       2.528 -21.162   4.888  1.00  0.00    -0.200 F 
ATOM    102  F   UNL     1       5.237 -21.366   4.640  1.00  0.00    -0.200 F 
ENDBRANCH  69  92
ENDBRANCH  43  44
ENDBRANCH  36  38
ENDBRANCH  35  36
ENDBRANCH  34  35
ENDBRANCH  33  34
ENDBRANCH  32  33
ENDBRANCH  31  32
ENDBRANCH  30  31
ENDBRANCH  29  30
ENDBRANCH   1  29
TORSDOF 23
