REMARK SMILES COc1ccc(NC(=O)N2CC[C@@H](C(=O)OCCOCCOCCOCCOC(=O)c3ccc(-c4c5nc(c(-c6c(F)c(F)c(F)c(F)c6F)c6ccc([nH]6)c(-c6c(F)c(F)c(F)c(F)c6F)c6nc(c(-c7c(F)c(F)c(F)c(F)c7F)c7ccc4[nH]7)C=C6)C=C5)cc3)[C@H]2C)cc1F
REMARK SMILES IDX 21 1 20 2 19 3 18 4 17 5 16 6 14 7 15 8 13 9 10 10 11 11
REMARK SMILES IDX 94 12 12 13 95 14 8 15 7 16 9 18 6 19 3 20 4 21 97 22 5 23
REMARK SMILES IDX 96 24 98 25 2 26 1 27 22 28 23 29 24 30 25 31 26 32 27 33
REMARK SMILES IDX 28 34 29 35 30 36 31 37 32 38 93 39 33 40 92 41 34 42 35 43
REMARK SMILES IDX 36 44 86 45 37 46 91 47 85 48 87 49 38 50 90 51 84 52 83 53
REMARK SMILES IDX 39 55 71 56 51 57 70 58 52 59 55 60 69 61 88 62 53 63 54 64
REMARK SMILES IDX 68 66 89 67 56 68 40 69 41 70 49 71 42 72 43 73 47 74 50 75
REMARK SMILES IDX 44 76 45 77 48 78 46 79 72 80 73 81 81 82 74 83 75 84 79 85
REMARK SMILES IDX 82 86 76 87 77 88 80 89 78 90 57 91 58 92 66 93 59 94 60 95
REMARK SMILES IDX 64 96 67 97 61 98 62 99 65 100 63 101
REMARK H PARENT 7 17 87 54 55 65
REMARK Flexibility Score: inf
ROOT
ATOM      1  C   UNL     1      -2.914   0.651  -4.673  1.00  0.00     0.188 C 
ENDROOT
BRANCH   1   2
ATOM      2  C   UNL     1      -4.394   0.218  -4.701  1.00  0.00     0.188 C 
BRANCH   2   3
ATOM      3  O   UNL     1      -4.921   0.026  -3.410  1.00  0.00    -0.376 OA
BRANCH   3   4
ATOM      4  C   UNL     1      -5.554  -1.177  -3.029  1.00  0.00     0.202 C 
BRANCH   4   5
ATOM      5  C   UNL     1      -4.997  -2.561  -3.401  1.00  0.00     0.261 C 
BRANCH   5   6
ATOM      6  O   UNL     1      -3.857  -2.569  -4.261  1.00  0.00    -0.463 OA
BRANCH   6   7
ATOM      7  C   UNL     1      -4.003  -3.021  -5.521  1.00  0.00     0.311 C 
ATOM      8  O   UNL     1      -5.075  -3.390  -5.990  1.00  0.00    -0.252 OA
BRANCH   7   9
ATOM      9  C   UNL     1      -2.725  -3.022  -6.345  1.00  0.00     0.123 C 
ATOM     10  N   UNL     1      -0.351  -3.316  -6.576  1.00  0.00    -0.321 N 
ATOM     11  C   UNL     1      -1.036  -4.314  -7.377  1.00  0.00     0.122 C 
ATOM     12  C   UNL     1      -1.355  -2.465  -5.867  1.00  0.00     0.098 C 
ATOM     13  C   UNL     1      -2.393  -4.462  -6.730  1.00  0.00     0.039 C 
ATOM     14  C   UNL     1      -1.152  -2.418  -4.366  1.00  0.00     0.032 C 
BRANCH  10  15
ATOM     15  C   UNL     1       0.871  -2.881  -7.045  1.00  0.00     0.322 C 
ATOM     16  N   UNL     1       1.773  -2.306  -6.206  1.00  0.00    -0.308 N 
ATOM     17  H   UNL     1       2.355  -1.636  -6.631  1.00  0.00     0.171 HD
ATOM     18  O   UNL     1       1.167  -2.956  -8.240  1.00  0.00    -0.248 OA
BRANCH  16  19
ATOM     19  C   UNL     1       2.017  -2.502  -4.839  1.00  0.00     0.046 A 
ATOM     20  C   UNL     1       2.063  -2.512  -2.052  1.00  0.00     0.154 A 
ATOM     21  C   UNL     1       1.556  -3.612  -2.738  1.00  0.00     0.052 A 
ATOM     22  C   UNL     1       2.708  -1.500  -2.765  1.00  0.00     0.167 A 
ATOM     23  C   UNL     1       1.552  -3.617  -4.136  1.00  0.00     0.030 A 
ATOM     24  C   UNL     1       2.701  -1.496  -4.156  1.00  0.00     0.069 A 
ATOM     25  F   UNL     1       3.289  -0.472  -2.127  1.00  0.00    -0.203 F 
BRANCH  20  26
ATOM     26  O   UNL     1       1.849  -2.509  -0.702  1.00  0.00    -0.494 OA
ATOM     27  C   UNL     1       1.524  -1.219  -0.194  1.00  0.00     0.278 C 
ENDBRANCH  20  26
ENDBRANCH  16  19
ENDBRANCH  10  15
ENDBRANCH   7   9
ENDBRANCH   6   7
ENDBRANCH   5   6
ENDBRANCH   4   5
ENDBRANCH   3   4
ENDBRANCH   2   3
ENDBRANCH   1   2
BRANCH   1  28
ATOM     28  O   UNL     1      -2.098   0.371  -3.537  1.00  0.00    -0.377 OA
BRANCH  28  29
ATOM     29  C   UNL     1      -2.605   0.595  -2.223  1.00  0.00     0.188 C 
BRANCH  29  30
ATOM     30  C   UNL     1      -3.415   1.879  -1.955  1.00  0.00     0.188 C 
BRANCH  30  31
ATOM     31  O   UNL     1      -3.452   2.787  -3.043  1.00  0.00    -0.376 OA
BRANCH  31  32
ATOM     32  C   UNL     1      -2.466   3.813  -3.062  1.00  0.00     0.202 C 
BRANCH  32  33
ATOM     33  C   UNL     1      -0.990   3.387  -2.985  1.00  0.00     0.261 C 
BRANCH  33  34
ATOM     34  O   UNL     1      -0.587   2.741  -1.762  1.00  0.00    -0.460 OA
BRANCH  34  35
ATOM     35  C   UNL     1      -0.779   3.402  -0.606  1.00  0.00     0.338 C 
ATOM     36  O   UNL     1      -1.223   4.530  -0.447  1.00  0.00    -0.246 OA
BRANCH  35  37
ATOM     37  C   UNL     1      -0.488   2.468   0.491  1.00  0.00     0.060 A 
ATOM     38  C   UNL     1      -1.532   1.985   1.291  1.00  0.00     0.016 A 
ATOM     39  C   UNL     1       0.830   2.091   0.739  1.00  0.00     0.016 A 
ATOM     40  C   UNL     1      -1.253   1.140   2.365  1.00  0.00     0.010 A 
ATOM     41  C   UNL     1       1.105   1.250   1.819  1.00  0.00     0.010 A 
ATOM     42  C   UNL     1       0.072   0.792   2.660  1.00  0.00    -0.014 A 
BRANCH  42  43
ATOM     43  C   UNL     1       0.397   0.119   3.947  1.00  0.00     0.031 A 
ATOM     44  C   UNL     1       1.135   0.910   4.996  1.00  0.00     0.074 A 
ATOM     45  C   UNL     1       0.027  -1.150   4.204  1.00  0.00     0.049 A 
ATOM     46  N   UNL     1       1.552   0.540   6.180  1.00  0.00    -0.248 NA
ATOM     47  C   UNL     1       1.471   2.302   4.653  1.00  0.00     0.031 C 
ATOM     48  C   UNL     1      -0.685  -2.032   3.281  1.00  0.00     0.029 A 
ATOM     49  N   UNL     1       0.202  -1.919   5.330  1.00  0.00    -0.354 N 
ATOM     50  C   UNL     1       2.219   1.640   6.701  1.00  0.00     0.074 A 
ATOM     51  C   UNL     1       2.213   2.666   5.685  1.00  0.00     0.031 C 
ATOM     52  C   UNL     1      -0.900  -3.215   3.883  1.00  0.00     0.029 A 
ATOM     53  C   UNL     1      -0.325  -3.184   5.228  1.00  0.00     0.049 A 
ATOM     54  H   UNL     1       0.663  -1.593   6.137  1.00  0.00     0.167 HD
ATOM     55  C   UNL     1       2.755   1.802   7.933  1.00  0.00     0.037 A 
ATOM     56  C   UNL     1      -0.345  -4.198   6.117  1.00  0.00     0.037 A 
ATOM     57  C   UNL     1       2.713   0.807   8.967  1.00  0.00     0.049 A 
ATOM     58  C   UNL     1       0.260  -3.997   7.485  1.00  0.00     0.074 A 
ATOM     59  C   UNL     1       3.179   0.898  10.266  1.00  0.00     0.029 A 
ATOM     60  N   UNL     1       2.167  -0.459   8.822  1.00  0.00    -0.354 N 
ATOM     61  N   UNL     1       0.846  -2.936   7.984  1.00  0.00    -0.248 NA
ATOM     62  C   UNL     1       0.190  -5.133   8.418  1.00  0.00     0.031 C 
ATOM     63  C   UNL     1       2.962  -0.331  10.893  1.00  0.00     0.029 A 
ATOM     64  C   UNL     1       2.303  -1.167  10.005  1.00  0.00     0.049 A 
ATOM     65  H   UNL     1       1.745  -0.803   8.002  1.00  0.00     0.167 HD
ATOM     66  C   UNL     1       1.190  -3.265   9.290  1.00  0.00     0.074 A 
ATOM     67  C   UNL     1       0.731  -4.619   9.514  1.00  0.00     0.031 C 
ATOM     68  C   UNL     1       1.832  -2.512  10.219  1.00  0.00     0.037 A 
BRANCH  55  69
ATOM     69  C   UNL     1       3.428   3.111   8.228  1.00  0.00     0.064 A 
ATOM     70  C   UNL     1       4.815   3.166   8.427  1.00  0.00     0.173 A 
ATOM     71  C   UNL     1       2.701   4.306   8.342  1.00  0.00     0.173 A 
ATOM     72  F   UNL     1       5.557   2.052   8.331  1.00  0.00    -0.203 F 
ATOM     73  C   UNL     1       5.448   4.367   8.733  1.00  0.00     0.198 A 
ATOM     74  C   UNL     1       3.342   5.512   8.611  1.00  0.00     0.198 A 
ATOM     75  F   UNL     1       1.374   4.311   8.143  1.00  0.00    -0.203 F 
ATOM     76  F   UNL     1       6.771   4.390   8.945  1.00  0.00    -0.200 F 
ATOM     77  C   UNL     1       4.713   5.540   8.816  1.00  0.00     0.200 A 
ATOM     78  F   UNL     1       2.634   6.649   8.656  1.00  0.00    -0.200 F 
ATOM     79  F   UNL     1       5.327   6.699   9.087  1.00  0.00    -0.200 F 
ENDBRANCH  55  69
BRANCH  56  80
ATOM     80  C   UNL     1      -0.994  -5.488   5.757  1.00  0.00     0.064 A 
ATOM     81  C   UNL     1      -0.436  -6.343   4.795  1.00  0.00     0.173 A 
ATOM     82  C   UNL     1      -2.191  -5.892   6.367  1.00  0.00     0.173 A 
ATOM     83  F   UNL     1       0.709  -6.008   4.183  1.00  0.00    -0.203 F 
ATOM     84  C   UNL     1      -1.058  -7.541   4.446  1.00  0.00     0.198 A 
ATOM     85  C   UNL     1      -2.797  -7.103   6.038  1.00  0.00     0.198 A 
ATOM     86  F   UNL     1      -2.752  -5.123   7.312  1.00  0.00    -0.203 F 
ATOM     87  F   UNL     1      -0.518  -8.325   3.502  1.00  0.00    -0.200 F 
ATOM     88  C   UNL     1      -2.235  -7.923   5.071  1.00  0.00     0.200 A 
ATOM     89  F   UNL     1      -3.920  -7.480   6.666  1.00  0.00    -0.200 F 
ATOM     90  F   UNL     1      -2.826  -9.081   4.746  1.00  0.00    -0.200 F 
ENDBRANCH  56  80
BRANCH  68  91
ATOM     91  C   UNL     1       2.060  -3.112  11.578  1.00  0.00     0.064 A 
ATOM     92  C   UNL     1       1.408  -2.585  12.704  1.00  0.00     0.173 A 
ATOM     93  C   UNL     1       2.985  -4.146  11.782  1.00  0.00     0.173 A 
ATOM     94  F   UNL     1       0.522  -1.587  12.568  1.00  0.00    -0.203 F 
ATOM     95  C   UNL     1       1.687  -3.058  13.983  1.00  0.00     0.198 A 
ATOM     96  C   UNL     1       3.236  -4.641  13.059  1.00  0.00     0.198 A 
ATOM     97  F   UNL     1       3.630  -4.690  10.739  1.00  0.00    -0.203 F 
ATOM     98  F   UNL     1       1.084  -2.509  15.046  1.00  0.00    -0.200 F 
ATOM     99  C   UNL     1       2.596  -4.090  14.159  1.00  0.00     0.200 A 
ATOM    100  F   UNL     1       4.096  -5.655  13.225  1.00  0.00    -0.200 F 
ATOM    101  F   UNL     1       2.855  -4.554  15.389  1.00  0.00    -0.200 F 
ENDBRANCH  68  91
ENDBRANCH  42  43
ENDBRANCH  35  37
ENDBRANCH  34  35
ENDBRANCH  33  34
ENDBRANCH  32  33
ENDBRANCH  31  32
ENDBRANCH  30  31
ENDBRANCH  29  30
ENDBRANCH  28  29
ENDBRANCH   1  28
TORSDOF 23
