REMARK SMILES NS(=O)(=O)c1ccc(-n2ccnc2-c2ccc(O)c(C(=O)OCCOCCOCCOCCOC(=O)c3ccc(-c4c5nc(c(-c6c(F)c(F)c(F)c(F)c6F)c6ccc([nH]6)c(-c6c(F)c(F)c(F)c(F)c6F)c6nc(c(-c7c(F)c(F)c(F)c(F)c7F)c7ccc4[nH]7)C=C6)C=C5)cc3)c2)cc1
REMARK SMILES IDX 27 1 26 2 25 3 24 4 23 5 22 6 20 7 21 8 19 9 14 10 15 11
REMARK SMILES IDX 100 12 16 13 17 14 13 15 9 16 10 17 11 18 12 19 8 20 5 21
REMARK SMILES IDX 6 22 102 23 7 24 101 25 2 26 3 27 4 28 1 29 18 32 28 34
REMARK SMILES IDX 29 35 30 36 31 37 32 38 33 39 34 40 35 41 36 42 37 43 38 44
REMARK SMILES IDX 99 45 39 46 98 47 40 48 41 49 42 50 92 51 43 52 97 53 91 54
REMARK SMILES IDX 93 55 44 56 96 57 90 58 89 59 45 61 77 62 57 63 76 64 58 65
REMARK SMILES IDX 61 66 75 67 94 68 59 69 60 70 74 72 95 73 62 74 46 75 47 76
REMARK SMILES IDX 55 77 48 78 49 79 53 80 56 81 50 82 51 83 54 84 52 85 78 86
REMARK SMILES IDX 79 87 87 88 80 89 81 90 85 91 88 92 82 93 83 94 86 95 84 96
REMARK SMILES IDX 63 97 64 98 72 99 65 100 66 101 70 102 73 103 67 104 68 105
REMARK SMILES IDX 71 106 69 107
REMARK H PARENT 1 30 1 31 18 33 93 60 61 71
REMARK Flexibility Score: inf
ROOT
ATOM      1  C   UNL     1      -3.532   1.731  -8.242  1.00  0.00     0.188 C 
ENDROOT
BRANCH   1   2
ATOM      2  C   UNL     1      -4.061   0.306  -7.984  1.00  0.00     0.188 C 
BRANCH   2   3
ATOM      3  O   UNL     1      -4.984   0.237  -6.904  1.00  0.00    -0.376 OA
BRANCH   3   4
ATOM      4  C   UNL     1      -4.599  -0.546  -5.788  1.00  0.00     0.202 C 
BRANCH   4   5
ATOM      5  C   UNL     1      -3.532   0.109  -4.904  1.00  0.00     0.261 C 
BRANCH   5   6
ATOM      6  O   UNL     1      -2.303   0.437  -5.574  1.00  0.00    -0.460 OA
BRANCH   6   7
ATOM      7  C   UNL     1      -1.603  -0.562  -6.152  1.00  0.00     0.342 C 
ATOM      8  O   UNL     1      -1.857  -1.756  -6.132  1.00  0.00    -0.246 OA
BRANCH   7   9
ATOM      9  C   UNL     1      -0.574   0.025  -7.039  1.00  0.00     0.102 A 
ATOM     10  C   UNL     1       1.056   1.787  -7.476  1.00  0.00     0.019 A 
ATOM     11  C   UNL     1       1.365   1.175  -8.695  1.00  0.00     0.016 A 
ATOM     12  C   UNL     1       0.022   1.243  -6.701  1.00  0.00     0.031 A 
ATOM     13  C   UNL     1       0.717  -0.005  -9.081  1.00  0.00     0.048 A 
ATOM     14  C   UNL     1      -0.223  -0.597  -8.238  1.00  0.00     0.130 A 
BRANCH  10  15
ATOM     15  C   UNL     1       1.812   2.958  -7.002  1.00  0.00     0.144 A 
ATOM     16  N   UNL     1       2.131   3.218  -5.664  1.00  0.00    -0.300 N 
ATOM     17  C   UNL     1       2.574   4.517  -5.608  1.00  0.00     0.113 A 
ATOM     18  C   UNL     1       2.680   4.923  -6.916  1.00  0.00     0.132 A 
ATOM     19  N   UNL     1       2.224   3.954  -7.768  1.00  0.00    -0.236 NA
BRANCH  16  20
ATOM     20  C   UNL     1       1.962   2.348  -4.556  1.00  0.00     0.047 A 
ATOM     21  C   UNL     1       1.187   0.523  -2.612  1.00  0.00     0.082 A 
ATOM     22  C   UNL     1       1.950   0.084  -3.696  1.00  0.00     0.024 A 
ATOM     23  C   UNL     1       0.856   1.877  -2.465  1.00  0.00     0.024 A 
ATOM     24  C   UNL     1       2.340   1.000  -4.671  1.00  0.00     0.028 A 
ATOM     25  C   UNL     1       1.265   2.802  -3.429  1.00  0.00     0.028 A 
BRANCH  21  26
ATOM     26  S   UNL     1       0.567  -0.654  -1.447  1.00  0.00     0.238 S 
ATOM     27  O   UNL     1       1.175  -1.938  -1.694  1.00  0.00    -0.207 OA
ATOM     28  O   UNL     1      -0.863  -0.472  -1.335  1.00  0.00    -0.207 OA
BRANCH  26  29
ATOM     29  N   UNL     1       1.230  -0.114  -0.003  1.00  0.00    -0.225 NA
ATOM     30  H   UNL     1       0.935  -0.727   0.757  1.00  0.00     0.137 HD
ATOM     31  H   UNL     1       0.909   0.837   0.184  1.00  0.00     0.137 HD
ENDBRANCH  26  29
ENDBRANCH  21  26
ENDBRANCH  16  20
ENDBRANCH  10  15
BRANCH  14  32
ATOM     32  O   UNL     1      -0.791  -1.764  -8.669  1.00  0.00    -0.507 OA
ATOM     33  H   UNL     1      -0.522  -2.144  -9.483  1.00  0.00     0.293 HD
ENDBRANCH  14  32
ENDBRANCH   7   9
ENDBRANCH   6   7
ENDBRANCH   5   6
ENDBRANCH   4   5
ENDBRANCH   3   4
ENDBRANCH   2   3
ENDBRANCH   1   2
BRANCH   1  34
ATOM     34  O   UNL     1      -3.987   2.787  -7.411  1.00  0.00    -0.377 OA
BRANCH  34  35
ATOM     35  C   UNL     1      -5.381   2.949  -7.170  1.00  0.00     0.188 C 
BRANCH  35  36
ATOM     36  C   UNL     1      -6.479   2.332  -8.079  1.00  0.00     0.188 C 
BRANCH  36  37
ATOM     37  O   UNL     1      -6.022   1.651  -9.240  1.00  0.00    -0.376 OA
BRANCH  37  38
ATOM     38  C   UNL     1      -6.417   2.123 -10.514  1.00  0.00     0.202 C 
BRANCH  38  39
ATOM     39  C   UNL     1      -5.546   3.272 -11.009  1.00  0.00     0.261 C 
BRANCH  39  40
ATOM     40  O   UNL     1      -5.440   4.324 -10.062  1.00  0.00    -0.460 OA
BRANCH  40  41
ATOM     41  C   UNL     1      -6.601   4.934  -9.760  1.00  0.00     0.338 C 
ATOM     42  O   UNL     1      -7.718   4.638 -10.146  1.00  0.00    -0.246 OA
BRANCH  41  43
ATOM     43  C   UNL     1      -6.307   6.136  -8.979  1.00  0.00     0.060 A 
ATOM     44  C   UNL     1      -7.417   6.919  -8.665  1.00  0.00     0.016 A 
ATOM     45  C   UNL     1      -4.995   6.632  -8.952  1.00  0.00     0.016 A 
ATOM     46  C   UNL     1      -7.242   8.277  -8.645  1.00  0.00     0.010 A 
ATOM     47  C   UNL     1      -4.823   7.992  -8.946  1.00  0.00     0.010 A 
ATOM     48  C   UNL     1      -5.965   8.785  -8.912  1.00  0.00    -0.014 A 
BRANCH  48  49
ATOM     49  C   UNL     1      -5.890  10.193  -9.212  1.00  0.00     0.031 A 
ATOM     50  C   UNL     1      -6.015  11.070  -8.039  1.00  0.00     0.074 A 
ATOM     51  C   UNL     1      -5.703  10.642 -10.465  1.00  0.00     0.049 A 
ATOM     52  N   UNL     1      -6.920  11.960  -7.806  1.00  0.00    -0.248 NA
ATOM     53  C   UNL     1      -5.067  10.849  -6.939  1.00  0.00     0.031 C 
ATOM     54  C   UNL     1      -5.293   9.887 -11.652  1.00  0.00     0.029 A 
ATOM     55  N   UNL     1      -5.749  11.926 -10.908  1.00  0.00    -0.354 N 
ATOM     56  C   UNL     1      -6.566  12.532  -6.593  1.00  0.00     0.074 A 
ATOM     57  C   UNL     1      -5.501  11.732  -6.043  1.00  0.00     0.031 C 
ATOM     58  C   UNL     1      -4.921  10.759 -12.617  1.00  0.00     0.029 A 
ATOM     59  C   UNL     1      -5.179  12.113 -12.153  1.00  0.00     0.049 A 
ATOM     60  H   UNL     1      -6.153  12.658 -10.387  1.00  0.00     0.167 HD
ATOM     61  C   UNL     1      -7.022  13.758  -6.234  1.00  0.00     0.037 A 
ATOM     62  C   UNL     1      -4.857  13.306 -12.705  1.00  0.00     0.037 A 
ATOM     63  C   UNL     1      -8.233  14.108  -6.926  1.00  0.00     0.049 A 
ATOM     64  C   UNL     1      -5.626  14.361 -11.993  1.00  0.00     0.074 A 
ATOM     65  C   UNL     1      -9.492  13.542  -7.006  1.00  0.00     0.029 A 
ATOM     66  N   UNL     1      -8.172  15.015  -7.953  1.00  0.00    -0.354 N 
ATOM     67  N   UNL     1      -6.914  14.533 -12.097  1.00  0.00    -0.248 NA
ATOM     68  C   UNL     1      -5.007  14.990 -10.833  1.00  0.00     0.031 C 
ATOM     69  C   UNL     1      -9.935  13.794  -8.337  1.00  0.00     0.029 A 
ATOM     70  C   UNL     1      -8.927  14.511  -8.982  1.00  0.00     0.049 A 
ATOM     71  H   UNL     1      -7.679  15.868  -7.953  1.00  0.00     0.167 HD
ATOM     72  C   UNL     1      -7.324  14.926 -10.830  1.00  0.00     0.074 A 
ATOM     73  C   UNL     1      -6.100  15.297 -10.131  1.00  0.00     0.031 C 
ATOM     74  C   UNL     1      -8.580  14.647 -10.376  1.00  0.00     0.037 A 
BRANCH  61  75
ATOM     75  C   UNL     1      -6.165  14.753  -5.505  1.00  0.00     0.064 A 
ATOM     76  C   UNL     1      -6.753  15.911  -4.969  1.00  0.00     0.173 A 
ATOM     77  C   UNL     1      -4.752  14.748  -5.559  1.00  0.00     0.173 A 
ATOM     78  F   UNL     1      -8.087  16.033  -4.908  1.00  0.00    -0.203 F 
ATOM     79  C   UNL     1      -5.983  17.005  -4.567  1.00  0.00     0.198 A 
ATOM     80  C   UNL     1      -3.986  15.815  -5.102  1.00  0.00     0.198 A 
ATOM     81  F   UNL     1      -4.066  13.764  -6.154  1.00  0.00    -0.203 F 
ATOM     82  F   UNL     1      -6.588  18.133  -4.175  1.00  0.00    -0.200 F 
ATOM     83  C   UNL     1      -4.601  16.956  -4.634  1.00  0.00     0.200 A 
ATOM     84  F   UNL     1      -2.650  15.755  -5.195  1.00  0.00    -0.200 F 
ATOM     85  F   UNL     1      -3.865  18.023  -4.300  1.00  0.00    -0.200 F 
ENDBRANCH  61  75
BRANCH  62  86
ATOM     86  C   UNL     1      -3.716  13.613 -13.596  1.00  0.00     0.064 A 
ATOM     87  C   UNL     1      -3.681  14.801 -14.341  1.00  0.00     0.173 A 
ATOM     88  C   UNL     1      -2.520  12.869 -13.546  1.00  0.00     0.173 A 
ATOM     89  F   UNL     1      -4.761  15.594 -14.397  1.00  0.00    -0.203 F 
ATOM     90  C   UNL     1      -2.515  15.227 -14.984  1.00  0.00     0.198 A 
ATOM     91  C   UNL     1      -1.362  13.287 -14.201  1.00  0.00     0.198 A 
ATOM     92  F   UNL     1      -2.419  11.771 -12.784  1.00  0.00    -0.203 F 
ATOM     93  F   UNL     1      -2.502  16.400 -15.633  1.00  0.00    -0.200 F 
ATOM     94  C   UNL     1      -1.356  14.473 -14.909  1.00  0.00     0.200 A 
ATOM     95  F   UNL     1      -0.239  12.564 -14.090  1.00  0.00    -0.200 F 
ATOM     96  F   UNL     1      -0.225  14.907 -15.481  1.00  0.00    -0.200 F 
ENDBRANCH  62  86
BRANCH  74  97
ATOM     97  C   UNL     1      -9.593  14.176 -11.380  1.00  0.00     0.064 A 
ATOM     98  C   UNL     1      -9.472  12.976 -12.102  1.00  0.00     0.173 A 
ATOM     99  C   UNL     1     -10.787  14.896 -11.518  1.00  0.00     0.173 A 
ATOM    100  F   UNL     1      -8.408  12.178 -11.938  1.00  0.00    -0.203 F 
ATOM    101  C   UNL     1     -10.478  12.550 -12.967  1.00  0.00     0.198 A 
ATOM    102  C   UNL     1     -11.807  14.448 -12.354  1.00  0.00     0.198 A 
ATOM    103  F   UNL     1     -10.985  16.016 -10.805  1.00  0.00    -0.203 F 
ATOM    104  F   UNL     1     -10.331  11.411 -13.660  1.00  0.00    -0.200 F 
ATOM    105  C   UNL     1     -11.646  13.284 -13.088  1.00  0.00     0.200 A 
ATOM    106  F   UNL     1     -12.957  15.133 -12.429  1.00  0.00    -0.200 F 
ATOM    107  F   UNL     1     -12.630  12.854 -13.891  1.00  0.00    -0.200 F 
ENDBRANCH  74  97
ENDBRANCH  48  49
ENDBRANCH  41  43
ENDBRANCH  40  41
ENDBRANCH  39  40
ENDBRANCH  38  39
ENDBRANCH  37  38
ENDBRANCH  36  37
ENDBRANCH  35  36
ENDBRANCH  34  35
ENDBRANCH   1  34
TORSDOF 25
