REMARK SMILES CC[C@@](C)(NC(=O)N(C)[C@@H](C)C(C)C)C(=O)OCCOCCOCCOCCOC(=O)c1ccc(-c2c3nc(c(-c4c(F)c(F)c(F)c(F)c4F)c4ccc([nH]4)c(-c4c(F)c(F)c(F)c(F)c4F)c4nc(c(-c5c(F)c(F)c(F)c(F)c5F)c5ccc2[nH]5)C=C4)C=C3)cc1
REMARK SMILES IDX 22 1 21 2 20 3 19 4 18 5 17 6 15 7 16 8 3 9 4 10 2 11 1 12
REMARK SMILES IDX 5 13 6 14 7 16 8 17 9 18 10 19 11 20 12 21 13 22 14 23 23 24
REMARK SMILES IDX 24 25 25 26 26 27 27 28 28 29 29 30 30 31 31 32 32 33 33 34
REMARK SMILES IDX 94 35 34 36 93 37 35 38 36 39 37 40 87 41 38 42 92 43 86 44
REMARK SMILES IDX 88 45 39 46 91 47 85 48 84 49 40 51 72 52 52 53 71 54 53 55
REMARK SMILES IDX 56 56 70 57 89 58 54 59 55 60 69 62 90 63 57 64 41 65 42 66
REMARK SMILES IDX 50 67 43 68 44 69 48 70 51 71 45 72 46 73 49 74 47 75 73 76
REMARK SMILES IDX 74 77 82 78 75 79 76 80 80 81 83 82 77 83 78 84 81 85 79 86
REMARK SMILES IDX 58 87 59 88 67 89 60 90 61 91 65 92 68 93 62 94 63 95 66 96
REMARK SMILES IDX 64 97
REMARK H PARENT 5 15 88 50 56 61
REMARK Flexibility Score: inf
ROOT
ATOM      1  C   UNL     1       3.459  -0.394   2.289  1.00  0.00     0.188 C 
ENDROOT
BRANCH   1   2
ATOM      2  C   UNL     1       4.163  -0.765   0.980  1.00  0.00     0.188 C 
BRANCH   2   3
ATOM      3  O   UNL     1       4.613   0.282   0.123  1.00  0.00    -0.376 OA
BRANCH   3   4
ATOM      4  C   UNL     1       5.258   1.422   0.677  1.00  0.00     0.202 C 
BRANCH   4   5
ATOM      5  C   UNL     1       4.509   2.655   0.169  1.00  0.00     0.261 C 
BRANCH   5   6
ATOM      6  O   UNL     1       3.285   2.771   0.914  1.00  0.00    -0.462 OA
BRANCH   6   7
ATOM      7  C   UNL     1       2.162   2.223   0.410  1.00  0.00     0.331 C 
ATOM      8  O   UNL     1       2.071   1.802  -0.735  1.00  0.00    -0.249 OA
BRANCH   7   9
ATOM      9  C   UNL     1       0.985   2.260   1.440  1.00  0.00     0.136 C 
ATOM     10  C   UNL     1       0.005   3.277   0.790  1.00  0.00     0.047 C 
BRANCH   9  11
ATOM     11  C   UNL     1       0.242   0.883   1.530  1.00  0.00     0.037 C 
ATOM     12  C   UNL     1       0.061   0.101   0.222  1.00  0.00     0.007 C 
ENDBRANCH   9  11
BRANCH   9  13
ATOM     13  N   UNL     1       1.250   2.825   2.841  1.00  0.00    -0.322 N 
ATOM     14  C   UNL     1       1.978   2.385   3.924  1.00  0.00     0.318 C 
ATOM     15  H   UNL     1       0.804   3.688   3.001  1.00  0.00     0.166 HD
ATOM     16  O   UNL     1       1.311   1.867   4.821  1.00  0.00    -0.249 OA
BRANCH  14  17
ATOM     17  N   UNL     1       3.286   2.865   4.110  1.00  0.00    -0.325 N 
ATOM     18  C   UNL     1       3.801   3.911   3.240  1.00  0.00     0.149 C 
BRANCH  17  19
ATOM     19  C   UNL     1       3.975   2.892   5.491  1.00  0.00     0.086 C 
ATOM     20  C   UNL     1       3.112   3.912   6.263  1.00  0.00     0.031 C 
BRANCH  19  21
ATOM     21  C   UNL     1       4.867   1.554   5.978  1.00  0.00     0.005 C 
ATOM     22  C   UNL     1       6.345   1.758   5.552  1.00  0.00     0.009 C 
ATOM     23  C   UNL     1       5.112   0.698   7.311  1.00  0.00     0.009 C 
ENDBRANCH  19  21
ENDBRANCH  17  19
ENDBRANCH  14  17
ENDBRANCH   9  13
ENDBRANCH   7   9
ENDBRANCH   6   7
ENDBRANCH   5   6
ENDBRANCH   4   5
ENDBRANCH   3   4
ENDBRANCH   2   3
ENDBRANCH   1   2
BRANCH   1  24
ATOM     24  O   UNL     1       4.344  -0.084   3.351  1.00  0.00    -0.377 OA
BRANCH  24  25
ATOM     25  C   UNL     1       4.892  -1.189   4.062  1.00  0.00     0.188 C 
BRANCH  25  26
ATOM     26  C   UNL     1       3.945  -1.909   5.070  1.00  0.00     0.188 C 
BRANCH  26  27
ATOM     27  O   UNL     1       3.566  -1.232   6.294  1.00  0.00    -0.376 OA
BRANCH  27  28
ATOM     28  C   UNL     1       2.321  -0.496   6.271  1.00  0.00     0.202 C 
BRANCH  28  29
ATOM     29  C   UNL     1       1.953   0.387   7.578  1.00  0.00     0.261 C 
BRANCH  29  30
ATOM     30  O   UNL     1       2.716   1.652   7.818  1.00  0.00    -0.460 OA
BRANCH  30  31
ATOM     31  C   UNL     1       2.896   2.203   9.073  1.00  0.00     0.338 C 
ATOM     32  O   UNL     1       2.376   1.772  10.089  1.00  0.00    -0.246 OA
BRANCH  31  33
ATOM     33  C   UNL     1       3.778   3.479   9.119  1.00  0.00     0.060 A 
ATOM     34  C   UNL     1       5.066   3.584   8.564  1.00  0.00     0.016 A 
ATOM     35  C   UNL     1       3.316   4.652   9.723  1.00  0.00     0.016 A 
ATOM     36  C   UNL     1       5.842   4.755   8.514  1.00  0.00     0.010 A 
ATOM     37  C   UNL     1       4.098   5.846   9.717  1.00  0.00     0.010 A 
ATOM     38  C   UNL     1       5.368   5.907   9.106  1.00  0.00    -0.014 A 
BRANCH  38  39
ATOM     39  C   UNL     1       6.306   7.044   9.323  1.00  0.00     0.031 A 
ATOM     40  C   UNL     1       6.994   7.093  10.657  1.00  0.00     0.074 A 
ATOM     41  C   UNL     1       6.607   7.967   8.388  1.00  0.00     0.049 A 
ATOM     42  N   UNL     1       7.603   8.081  11.256  1.00  0.00    -0.248 NA
ATOM     43  C   UNL     1       6.972   5.839  11.427  1.00  0.00     0.031 C 
ATOM     44  C   UNL     1       6.186   7.940   6.989  1.00  0.00     0.029 A 
ATOM     45  N   UNL     1       7.334   9.133   8.492  1.00  0.00    -0.354 N 
ATOM     46  C   UNL     1       7.946   7.595  12.511  1.00  0.00     0.074 A 
ATOM     47  C   UNL     1       7.515   6.217  12.571  1.00  0.00     0.031 C 
ATOM     48  C   UNL     1       6.617   9.061   6.379  1.00  0.00     0.029 A 
ATOM     49  C   UNL     1       7.290   9.913   7.358  1.00  0.00     0.049 A 
ATOM     50  H   UNL     1       7.838   9.384   9.299  1.00  0.00     0.167 HD
ATOM     51  C   UNL     1       8.536   8.259  13.533  1.00  0.00     0.037 A 
ATOM     52  C   UNL     1       7.693  11.187   7.163  1.00  0.00     0.037 A 
ATOM     53  C   UNL     1       8.978   9.624  13.433  1.00  0.00     0.049 A 
ATOM     54  C   UNL     1       8.294  11.944   8.327  1.00  0.00     0.074 A 
ATOM     55  C   UNL     1       9.554  10.425  14.400  1.00  0.00     0.029 A 
ATOM     56  N   UNL     1       8.898  10.386  12.273  1.00  0.00    -0.354 N 
ATOM     57  N   UNL     1       8.514  11.535   9.555  1.00  0.00    -0.248 NA
ATOM     58  C   UNL     1       8.688  13.339   8.085  1.00  0.00     0.031 C 
ATOM     59  C   UNL     1       9.786  11.686  13.836  1.00  0.00     0.029 A 
ATOM     60  C   UNL     1       9.410  11.651  12.501  1.00  0.00     0.049 A 
ATOM     61  H   UNL     1       8.530  10.072  11.416  1.00  0.00     0.167 HD
ATOM     62  C   UNL     1       9.101  12.604  10.220  1.00  0.00     0.074 A 
ATOM     63  C   UNL     1       9.206  13.682   9.256  1.00  0.00     0.031 C 
ATOM     64  C   UNL     1       9.519  12.692  11.509  1.00  0.00     0.037 A 
BRANCH  51  65
ATOM     65  C   UNL     1       8.626   7.542  14.850  1.00  0.00     0.064 A 
ATOM     66  C   UNL     1       9.452   6.423  15.044  1.00  0.00     0.173 A 
ATOM     67  C   UNL     1       7.817   7.948  15.923  1.00  0.00     0.173 A 
ATOM     68  F   UNL     1      10.226   5.974  14.045  1.00  0.00    -0.203 F 
ATOM     69  C   UNL     1       9.424   5.710  16.242  1.00  0.00     0.198 A 
ATOM     70  C   UNL     1       7.820   7.256  17.131  1.00  0.00     0.198 A 
ATOM     71  F   UNL     1       7.005   9.008  15.795  1.00  0.00    -0.203 F 
ATOM     72  F   UNL     1      10.158   4.596  16.372  1.00  0.00    -0.200 F 
ATOM     73  C   UNL     1       8.611   6.128  17.284  1.00  0.00     0.200 A 
ATOM     74  F   UNL     1       7.041   7.669  18.140  1.00  0.00    -0.200 F 
ATOM     75  F   UNL     1       8.578   5.435  18.431  1.00  0.00    -0.200 F 
ENDBRANCH  51  65
BRANCH  52  76
ATOM     76  C   UNL     1       7.511  11.848   5.837  1.00  0.00     0.064 A 
ATOM     77  C   UNL     1       8.616  12.207   5.049  1.00  0.00     0.173 A 
ATOM     78  C   UNL     1       6.237  12.140   5.327  1.00  0.00     0.173 A 
ATOM     79  F   UNL     1       9.859  11.990   5.502  1.00  0.00    -0.203 F 
ATOM     80  C   UNL     1       8.453  12.823   3.807  1.00  0.00     0.198 A 
ATOM     81  C   UNL     1       6.074  12.732   4.073  1.00  0.00     0.198 A 
ATOM     82  F   UNL     1       5.142  11.841   6.041  1.00  0.00    -0.203 F 
ATOM     83  F   UNL     1       9.529  13.181   3.092  1.00  0.00    -0.200 F 
ATOM     84  C   UNL     1       7.182  13.074   3.314  1.00  0.00     0.200 A 
ATOM     85  F   UNL     1       4.842  12.966   3.598  1.00  0.00    -0.200 F 
ATOM     86  F   UNL     1       7.026  13.649   2.114  1.00  0.00    -0.200 F 
ENDBRANCH  52  76
BRANCH  64  87
ATOM     87  C   UNL     1      10.195  13.965  11.927  1.00  0.00     0.064 A 
ATOM     88  C   UNL     1       9.483  15.158  12.118  1.00  0.00     0.173 A 
ATOM     89  C   UNL     1      11.575  13.974  12.181  1.00  0.00     0.173 A 
ATOM     90  F   UNL     1       8.164  15.203  11.878  1.00  0.00    -0.203 F 
ATOM     91  C   UNL     1      10.134  16.321  12.520  1.00  0.00     0.198 A 
ATOM     92  C   UNL     1      12.218  15.130  12.611  1.00  0.00     0.198 A 
ATOM     93  F   UNL     1      12.299  12.855  12.023  1.00  0.00    -0.203 F 
ATOM     94  F   UNL     1       9.444  17.463  12.649  1.00  0.00    -0.200 F 
ATOM     95  C   UNL     1      11.499  16.305  12.772  1.00  0.00     0.200 A 
ATOM     96  F   UNL     1      13.533  15.108  12.869  1.00  0.00    -0.200 F 
ATOM     97  F   UNL     1      12.123  17.424  13.163  1.00  0.00    -0.200 F 
ENDBRANCH  64  87
ENDBRANCH  38  39
ENDBRANCH  31  33
ENDBRANCH  30  31
ENDBRANCH  29  30
ENDBRANCH  28  29
ENDBRANCH  27  28
ENDBRANCH  26  27
ENDBRANCH  25  26
ENDBRANCH  24  25
ENDBRANCH   1  24
TORSDOF 25
