REMARK SMILES COc1cccc(NC(=O)/C(C#N)=C\c2ccc(O[C@@H](C)C(=O)OCCOCCOCCOCCOC(=O)c3ccc(-c4c5nc(c(-c6c(F)c(F)c(F)c(F)c6F)c6ccc([nH]6)c(-c6c(F)c(F)c(F)c(F)c6F)c6nc(c(-c7c(F)c(F)c(F)c(F)c7F)c7ccc4[nH]7)C=C6)C=C5)cc3)cc2)c1
REMARK SMILES IDX 28 1 27 2 26 3 25 4 24 5 22 6 23 7 20 8 21 9 19 10 18 11
REMARK SMILES IDX 15 12 16 13 103 14 17 15 102 16 14 17 11 18 9 19 8 20 10 22
REMARK SMILES IDX 7 23 3 24 4 25 104 26 5 27 6 28 2 29 1 30 12 31 13 32 29 33
REMARK SMILES IDX 30 34 31 35 32 36 33 37 34 38 35 39 36 40 37 41 38 42 39 43
REMARK SMILES IDX 40 44 101 45 41 46 100 47 42 48 43 49 44 50 94 51 45 52
REMARK SMILES IDX 99 53 93 54 95 55 46 56 98 57 92 58 91 59 47 61 79 62 59 63
REMARK SMILES IDX 78 64 60 65 63 66 77 67 96 68 61 69 62 70 76 72 97 73 64 74
REMARK SMILES IDX 48 75 49 76 57 77 50 78 51 79 55 80 58 81 52 82 53 83 56 84
REMARK SMILES IDX 54 85 80 86 81 87 89 88 82 89 83 90 87 91 90 92 84 93 85 94
REMARK SMILES IDX 88 95 86 96 65 97 66 98 74 99 67 100 68 101 72 102 75 103
REMARK SMILES IDX 69 104 70 105 73 106 71 107
REMARK H PARENT 8 21 95 60 63 71
REMARK Flexibility Score: inf
ROOT
ATOM      1  C   UNL     1      11.076   7.114   7.918  1.00  0.00     0.188 C 
ENDROOT
BRANCH   1   2
ATOM      2  O   UNL     1      11.018   8.206   7.011  1.00  0.00    -0.376 OA
BRANCH   2   3
ATOM      3  C   UNL     1      10.278   8.134   5.799  1.00  0.00     0.202 C 
BRANCH   3   4
ATOM      4  C   UNL     1       9.989   6.824   5.055  1.00  0.00     0.261 C 
BRANCH   4   5
ATOM      5  O   UNL     1       9.836   5.686   5.899  1.00  0.00    -0.461 OA
BRANCH   5   6
ATOM      6  C   UNL     1      10.657   4.629   5.710  1.00  0.00     0.347 C 
ATOM      7  O   UNL     1      11.541   4.593   4.861  1.00  0.00    -0.248 OA
BRANCH   6   8
ATOM      8  C   UNL     1      10.394   3.477   6.724  1.00  0.00     0.279 C 
ATOM      9  C   UNL     1      10.421   2.146   5.976  1.00  0.00     0.066 C 
BRANCH   8  10
ATOM     10  O   UNL     1       9.395   3.413   7.735  1.00  0.00    -0.479 OA
BRANCH  10  11
ATOM     11  C   UNL     1       8.083   3.672   7.479  1.00  0.00     0.120 A 
ATOM     12  C   UNL     1       5.346   4.169   7.170  1.00  0.00    -0.024 A 
ATOM     13  C   UNL     1       5.831   3.751   8.408  1.00  0.00     0.012 A 
ATOM     14  C   UNL     1       6.241   4.433   6.132  1.00  0.00     0.012 A 
ATOM     15  C   UNL     1       7.206   3.531   8.564  1.00  0.00     0.047 A 
ATOM     16  C   UNL     1       7.575   4.086   6.258  1.00  0.00     0.047 A 
BRANCH  12  17
ATOM     17  C   UNL     1       3.922   4.195   6.847  1.00  0.00     0.033 C 
ATOM     18  C   UNL     1       3.423   3.458   5.839  1.00  0.00     0.118 C 
BRANCH  18  19
ATOM     19  C   UNL     1       4.154   2.368   5.002  1.00  0.00     0.266 C 
ATOM     20  N   UNL     1       3.696   1.815   3.822  1.00  0.00    -0.321 N 
ATOM     21  H   UNL     1       4.446   1.563   3.236  1.00  0.00     0.170 HD
ATOM     22  O   UNL     1       5.293   1.998   5.303  1.00  0.00    -0.268 OA
BRANCH  20  23
ATOM     23  C   UNL     1       2.455   1.508   3.217  1.00  0.00     0.045 A 
ATOM     24  C   UNL     1       1.185   1.235   1.165  1.00  0.00     0.120 A 
ATOM     25  C   UNL     1      -0.009   1.207   1.872  1.00  0.00     0.046 A 
ATOM     26  C   UNL     1       2.411   1.408   1.820  1.00  0.00     0.072 A 
ATOM     27  C   UNL     1       0.048   1.153   3.256  1.00  0.00     0.006 A 
ATOM     28  C   UNL     1       1.286   1.219   3.916  1.00  0.00     0.026 A 
BRANCH  24  29
ATOM     29  O   UNL     1       1.144   1.151  -0.201  1.00  0.00    -0.497 OA
ATOM     30  C   UNL     1       1.164  -0.228  -0.583  1.00  0.00     0.278 C 
ENDBRANCH  24  29
ENDBRANCH  20  23
ENDBRANCH  18  19
BRANCH  18  31
ATOM     31  C   UNL     1       1.956   3.544   5.452  1.00  0.00     0.105 C 
ATOM     32  N   UNL     1       0.738   3.616   5.132  1.00  0.00    -0.192 NA
ENDBRANCH  18  31
ENDBRANCH  12  17
ENDBRANCH  10  11
ENDBRANCH   8  10
ENDBRANCH   6   8
ENDBRANCH   5   6
ENDBRANCH   4   5
ENDBRANCH   3   4
ENDBRANCH   2   3
ENDBRANCH   1   2
BRANCH   1  33
ATOM     33  C   UNL     1       9.794   6.610   8.605  1.00  0.00     0.188 C 
BRANCH  33  34
ATOM     34  O   UNL     1       8.603   6.861   7.888  1.00  0.00    -0.377 OA
BRANCH  34  35
ATOM     35  C   UNL     1       7.899   8.070   8.121  1.00  0.00     0.188 C 
BRANCH  35  36
ATOM     36  C   UNL     1       8.626   9.303   8.694  1.00  0.00     0.188 C 
BRANCH  36  37
ATOM     37  O   UNL     1       9.568   9.022   9.717  1.00  0.00    -0.376 OA
BRANCH  37  38
ATOM     38  C   UNL     1       9.179   9.215  11.068  1.00  0.00     0.202 C 
BRANCH  38  39
ATOM     39  C   UNL     1       8.079   8.295  11.620  1.00  0.00     0.261 C 
BRANCH  39  40
ATOM     40  O   UNL     1       6.818   8.339  10.937  1.00  0.00    -0.460 OA
BRANCH  40  41
ATOM     41  C   UNL     1       6.169   9.524  10.907  1.00  0.00     0.338 C 
ATOM     42  O   UNL     1       6.504  10.565  11.428  1.00  0.00    -0.246 OA
BRANCH  41  43
ATOM     43  C   UNL     1       5.038   9.385   9.965  1.00  0.00     0.060 A 
ATOM     44  C   UNL     1       4.999  10.202   8.829  1.00  0.00     0.016 A 
ATOM     45  C   UNL     1       4.018   8.464  10.213  1.00  0.00     0.016 A 
ATOM     46  C   UNL     1       3.913  10.130   7.956  1.00  0.00     0.010 A 
ATOM     47  C   UNL     1       2.922   8.405   9.348  1.00  0.00     0.010 A 
ATOM     48  C   UNL     1       2.848   9.263   8.236  1.00  0.00    -0.014 A 
BRANCH  48  49
ATOM     49  C   UNL     1       1.570   9.403   7.495  1.00  0.00     0.031 A 
ATOM     50  C   UNL     1       0.463  10.196   8.130  1.00  0.00     0.074 A 
ATOM     51  C   UNL     1       1.408   8.884   6.267  1.00  0.00     0.049 A 
ATOM     52  N   UNL     1      -0.752  10.427   7.703  1.00  0.00    -0.248 NA
ATOM     53  C   UNL     1       0.774  10.817   9.427  1.00  0.00     0.031 C 
ATOM     54  C   UNL     1       2.438   8.181   5.510  1.00  0.00     0.029 A 
ATOM     55  N   UNL     1       0.315   8.884   5.436  1.00  0.00    -0.354 N 
ATOM     56  C   UNL     1      -1.351  11.212   8.680  1.00  0.00     0.074 A 
ATOM     57  C   UNL     1      -0.380  11.383   9.739  1.00  0.00     0.031 C 
ATOM     58  C   UNL     1       1.937   7.843   4.310  1.00  0.00     0.029 A 
ATOM     59  C   UNL     1       0.531   8.246   4.238  1.00  0.00     0.049 A 
ATOM     60  H   UNL     1      -0.543   9.302   5.676  1.00  0.00     0.167 HD
ATOM     61  C   UNL     1      -2.593  11.752   8.688  1.00  0.00     0.037 A 
ATOM     62  C   UNL     1      -0.318   8.002   3.218  1.00  0.00     0.037 A 
ATOM     63  C   UNL     1      -3.558  11.568   7.636  1.00  0.00     0.049 A 
ATOM     64  C   UNL     1      -1.755   8.450   3.343  1.00  0.00     0.074 A 
ATOM     65  C   UNL     1      -4.840  12.077   7.540  1.00  0.00     0.029 A 
ATOM     66  N   UNL     1      -3.349  10.796   6.501  1.00  0.00    -0.354 N 
ATOM     67  N   UNL     1      -2.317   9.201   4.261  1.00  0.00    -0.248 NA
ATOM     68  C   UNL     1      -2.681   8.001   2.294  1.00  0.00     0.031 C 
ATOM     69  C   UNL     1      -5.431  11.556   6.383  1.00  0.00     0.029 A 
ATOM     70  C   UNL     1      -4.493  10.782   5.719  1.00  0.00     0.049 A 
ATOM     71  H   UNL     1      -2.511  10.327   6.284  1.00  0.00     0.167 HD
ATOM     72  C   UNL     1      -3.642   9.363   3.869  1.00  0.00     0.074 A 
ATOM     73  C   UNL     1      -3.800   8.627   2.632  1.00  0.00     0.031 C 
ATOM     74  C   UNL     1      -4.632  10.069   4.472  1.00  0.00     0.037 A 
BRANCH  61  75
ATOM     75  C   UNL     1      -2.986  12.546   9.903  1.00  0.00     0.064 A 
ATOM     76  C   UNL     1      -2.377  13.771  10.219  1.00  0.00     0.173 A 
ATOM     77  C   UNL     1      -3.969  12.060  10.778  1.00  0.00     0.173 A 
ATOM     78  F   UNL     1      -1.420  14.275   9.426  1.00  0.00    -0.203 F 
ATOM     79  C   UNL     1      -2.701  14.452  11.391  1.00  0.00     0.198 A 
ATOM     80  C   UNL     1      -4.318  12.763  11.928  1.00  0.00     0.198 A 
ATOM     81  F   UNL     1      -4.588  10.897  10.524  1.00  0.00    -0.203 F 
ATOM     82  F   UNL     1      -2.049  15.578  11.711  1.00  0.00    -0.200 F 
ATOM     83  C   UNL     1      -3.673  13.949  12.242  1.00  0.00     0.200 A 
ATOM     84  F   UNL     1      -5.269  12.283  12.742  1.00  0.00    -0.200 F 
ATOM     85  F   UNL     1      -3.978  14.600  13.373  1.00  0.00    -0.200 F 
ENDBRANCH  61  75
BRANCH  62  86
ATOM     86  C   UNL     1       0.152   7.292   1.992  1.00  0.00     0.064 A 
ATOM     87  C   UNL     1       0.100   7.891   0.727  1.00  0.00     0.173 A 
ATOM     88  C   UNL     1       0.675   5.995   2.056  1.00  0.00     0.173 A 
ATOM     89  F   UNL     1      -0.398   9.129   0.593  1.00  0.00    -0.203 F 
ATOM     90  C   UNL     1       0.539   7.217  -0.414  1.00  0.00     0.198 A 
ATOM     91  C   UNL     1       1.162   5.343   0.929  1.00  0.00     0.198 A 
ATOM     92  F   UNL     1       0.765   5.379   3.236  1.00  0.00    -0.203 F 
ATOM     93  F   UNL     1       0.445   7.805  -1.615  1.00  0.00    -0.200 F 
ATOM     94  C   UNL     1       1.079   5.946  -0.311  1.00  0.00     0.200 A 
ATOM     95  F   UNL     1       1.755   4.152   1.054  1.00  0.00    -0.200 F 
ATOM     96  F   UNL     1       1.534   5.311  -1.399  1.00  0.00    -0.200 F 
ENDBRANCH  62  86
BRANCH  74  97
ATOM     97  C   UNL     1      -5.954  10.159   3.760  1.00  0.00     0.064 A 
ATOM     98  C   UNL     1      -6.816   9.059   3.636  1.00  0.00     0.173 A 
ATOM     99  C   UNL     1      -6.380  11.386   3.223  1.00  0.00     0.173 A 
ATOM    100  F   UNL     1      -6.455   7.861   4.118  1.00  0.00    -0.203 F 
ATOM    101  C   UNL     1      -8.037   9.176   2.975  1.00  0.00     0.198 A 
ATOM    102  C   UNL     1      -7.618  11.508   2.596  1.00  0.00     0.198 A 
ATOM    103  F   UNL     1      -5.601  12.474   3.320  1.00  0.00    -0.203 F 
ATOM    104  F   UNL     1      -8.819   8.098   2.821  1.00  0.00    -0.200 F 
ATOM    105  C   UNL     1      -8.441  10.401   2.464  1.00  0.00     0.200 A 
ATOM    106  F   UNL     1      -8.012  12.697   2.121  1.00  0.00    -0.200 F 
ATOM    107  F   UNL     1      -9.620  10.513   1.838  1.00  0.00    -0.200 F 
ENDBRANCH  74  97
ENDBRANCH  48  49
ENDBRANCH  41  43
ENDBRANCH  40  41
ENDBRANCH  39  40
ENDBRANCH  38  39
ENDBRANCH  37  38
ENDBRANCH  36  37
ENDBRANCH  35  36
ENDBRANCH  34  35
ENDBRANCH  33  34
ENDBRANCH   1  33
TORSDOF 27
