REMARK SMILES C[C@@H](C(=O)OCCOCCOCCOCCOC(=O)c1ccc(-c2c3nc(c(-c4c(F)c(F)c(F)c(F)c4F)c4ccc([nH]4)c(-c4c(F)c(F)c(F)c(F)c4F)c4nc(c(-c5c(F)c(F)c(F)c(F)c5F)c5ccc2[nH]5)C=C4)C=C3)cc1)c1cc(/C=C/S(C)(=O)=O)cc(C(=O)c2ccccc2)c1
REMARK SMILES IDX 10 1 9 2 8 3 7 4 6 5 5 6 3 7 4 8 2 9 1 10 83 11 84 12 102 13
REMARK SMILES IDX 85 14 93 15 92 16 86 17 87 18 88 19 89 20 90 21 91 22 94 23
REMARK SMILES IDX 95 24 96 25 97 26 101 27 98 28 100 29 99 30 11 31 12 32
REMARK SMILES IDX 13 33 14 34 15 35 16 36 17 37 18 38 19 39 20 40 21 41 82 42
REMARK SMILES IDX 22 43 81 44 23 45 24 46 25 47 75 48 26 49 80 50 74 51 76 52
REMARK SMILES IDX 27 53 79 54 73 55 72 56 28 58 60 59 40 60 59 61 41 62 44 63
REMARK SMILES IDX 58 64 77 65 42 66 43 67 57 69 78 70 45 71 29 72 30 73 38 74
REMARK SMILES IDX 31 75 32 76 36 77 39 78 33 79 34 80 37 81 35 82 61 83 62 84
REMARK SMILES IDX 70 85 63 86 64 87 68 88 71 89 65 90 66 91 69 92 67 93 46 94
REMARK SMILES IDX 47 95 55 96 48 97 49 98 53 99 56 100 50 101 51 102 54 103
REMARK SMILES IDX 52 104
REMARK H PARENT 76 57 44 68
REMARK Flexibility Score: inf
ROOT
ATOM      1  C   UNL     1       0.934  -1.549   2.176  1.00  0.00     0.188 C 
ENDROOT
BRANCH   1   2
ATOM      2  C   UNL     1       0.212  -2.887   1.984  1.00  0.00     0.188 C 
BRANCH   2   3
ATOM      3  O   UNL     1       0.883  -4.085   2.323  1.00  0.00    -0.376 OA
BRANCH   3   4
ATOM      4  C   UNL     1       2.006  -4.537   1.579  1.00  0.00     0.202 C 
BRANCH   4   5
ATOM      5  C   UNL     1       2.462  -3.982   0.211  1.00  0.00     0.261 C 
BRANCH   5   6
ATOM      6  O   UNL     1       1.908  -2.724  -0.189  1.00  0.00    -0.463 OA
BRANCH   6   7
ATOM      7  C   UNL     1       1.270  -2.658  -1.383  1.00  0.00     0.313 C 
ATOM      8  O   UNL     1       1.171  -3.598  -2.164  1.00  0.00    -0.252 OA
BRANCH   7   9
ATOM      9  C   UNL     1       0.573  -1.305  -1.603  1.00  0.00     0.126 C 
ATOM     10  C   UNL     1       1.459  -0.129  -1.142  1.00  0.00     0.025 C 
BRANCH   9  11
ATOM     11  C   UNL     1      -0.886  -1.276  -1.112  1.00  0.00    -0.033 A 
ATOM     12  C   UNL     1      -1.540  -0.071  -0.778  1.00  0.00     0.012 A 
ATOM     13  C   UNL     1      -1.643  -2.462  -1.039  1.00  0.00     0.016 A 
ATOM     14  C   UNL     1      -2.877  -0.045  -0.330  1.00  0.00    -0.024 A 
ATOM     15  C   UNL     1      -2.960  -2.468  -0.561  1.00  0.00     0.023 A 
ATOM     16  C   UNL     1      -3.574  -1.258  -0.225  1.00  0.00     0.020 A 
BRANCH  14  17
ATOM     17  C   UNL     1      -3.605   1.197   0.000  1.00  0.00     0.020 C 
ATOM     18  C   UNL     1      -3.055   2.408   0.181  1.00  0.00     0.106 C 
BRANCH  18  19
ATOM     19  S   UNL     1      -4.069   3.776   0.546  1.00  0.00     0.168 S 
ATOM     20  C   UNL     1      -3.290   4.416   2.008  1.00  0.00     0.163 C 
ATOM     21  O   UNL     1      -3.886   4.763  -0.500  1.00  0.00    -0.225 OA
ATOM     22  O   UNL     1      -5.397   3.338   0.930  1.00  0.00    -0.225 OA
ENDBRANCH  18  19
ENDBRANCH  14  17
BRANCH  15  23
ATOM     23  C   UNL     1      -3.742  -3.733  -0.433  1.00  0.00     0.193 C 
ATOM     24  O   UNL     1      -4.968  -3.708  -0.438  1.00  0.00    -0.289 OA
BRANCH  23  25
ATOM     25  C   UNL     1      -3.052  -5.037  -0.313  1.00  0.00     0.022 A 
ATOM     26  C   UNL     1      -3.325  -6.038  -1.247  1.00  0.00     0.012 A 
ATOM     27  C   UNL     1      -2.134  -5.266   0.716  1.00  0.00     0.012 A 
ATOM     28  C   UNL     1      -2.629  -7.247  -1.184  1.00  0.00     0.001 A 
ATOM     29  C   UNL     1      -1.435  -6.472   0.771  1.00  0.00     0.001 A 
ATOM     30  C   UNL     1      -1.676  -7.458  -0.185  1.00  0.00     0.000 A 
ENDBRANCH  23  25
ENDBRANCH  15  23
ENDBRANCH   9  11
ENDBRANCH   7   9
ENDBRANCH   6   7
ENDBRANCH   5   6
ENDBRANCH   4   5
ENDBRANCH   3   4
ENDBRANCH   2   3
ENDBRANCH   1   2
BRANCH   1  31
ATOM     31  O   UNL     1       2.343  -1.644   2.208  1.00  0.00    -0.377 OA
BRANCH  31  32
ATOM     32  C   UNL     1       2.958  -1.935   3.457  1.00  0.00     0.188 C 
BRANCH  32  33
ATOM     33  C   UNL     1       2.157  -2.585   4.608  1.00  0.00     0.188 C 
BRANCH  33  34
ATOM     34  O   UNL     1       0.838  -2.087   4.778  1.00  0.00    -0.376 OA
BRANCH  34  35
ATOM     35  C   UNL     1       0.603  -1.111   5.782  1.00  0.00     0.202 C 
BRANCH  35  36
ATOM     36  C   UNL     1       1.254   0.267   5.582  1.00  0.00     0.261 C 
BRANCH  36  37
ATOM     37  O   UNL     1       2.687   0.283   5.490  1.00  0.00    -0.460 OA
BRANCH  37  38
ATOM     38  C   UNL     1       3.388  -0.207   6.533  1.00  0.00     0.338 C 
ATOM     39  O   UNL     1       2.945  -0.611   7.595  1.00  0.00    -0.246 OA
BRANCH  38  40
ATOM     40  C   UNL     1       4.792  -0.364   6.103  1.00  0.00     0.060 A 
ATOM     41  C   UNL     1       5.373  -1.639   6.138  1.00  0.00     0.016 A 
ATOM     42  C   UNL     1       5.531   0.737   5.665  1.00  0.00     0.016 A 
ATOM     43  C   UNL     1       6.708  -1.810   5.774  1.00  0.00     0.010 A 
ATOM     44  C   UNL     1       6.876   0.569   5.323  1.00  0.00     0.010 A 
ATOM     45  C   UNL     1       7.480  -0.698   5.412  1.00  0.00    -0.014 A 
BRANCH  45  46
ATOM     46  C   UNL     1       8.956  -0.823   5.337  1.00  0.00     0.031 A 
ATOM     47  C   UNL     1       9.768  -0.392   6.528  1.00  0.00     0.074 A 
ATOM     48  C   UNL     1       9.567  -1.327   4.251  1.00  0.00     0.049 A 
ATOM     49  N   UNL     1      11.066  -0.346   6.683  1.00  0.00    -0.248 NA
ATOM     50  C   UNL     1       9.005   0.053   7.706  1.00  0.00     0.031 C 
ATOM     51  C   UNL     1       8.892  -1.822   3.054  1.00  0.00     0.029 A 
ATOM     52  N   UNL     1      10.903  -1.493   3.980  1.00  0.00    -0.354 N 
ATOM     53  C   UNL     1      11.274   0.136   7.969  1.00  0.00     0.074 A 
ATOM     54  C   UNL     1       9.972   0.404   8.539  1.00  0.00     0.031 C 
ATOM     55  C   UNL     1       9.820  -2.222   2.167  1.00  0.00     0.029 A 
ATOM     56  C   UNL     1      11.152  -1.977   2.720  1.00  0.00     0.049 A 
ATOM     57  H   UNL     1      11.615  -1.285   4.628  1.00  0.00     0.167 HD
ATOM     58  C   UNL     1      12.446   0.328   8.620  1.00  0.00     0.037 A 
ATOM     59  C   UNL     1      12.322  -2.171   2.079  1.00  0.00     0.037 A 
ATOM     60  C   UNL     1      13.740   0.068   8.047  1.00  0.00     0.049 A 
ATOM     61  C   UNL     1      13.617  -1.867   2.793  1.00  0.00     0.074 A 
ATOM     62  C   UNL     1      14.987   0.222   8.626  1.00  0.00     0.029 A 
ATOM     63  N   UNL     1      13.953  -0.392   6.755  1.00  0.00    -0.354 N 
ATOM     64  N   UNL     1      13.808  -1.431   4.015  1.00  0.00    -0.248 NA
ATOM     65  C   UNL     1      14.859  -2.088   2.038  1.00  0.00     0.031 C 
ATOM     66  C   UNL     1      15.955  -0.083   7.664  1.00  0.00     0.029 A 
ATOM     67  C   UNL     1      15.312  -0.497   6.509  1.00  0.00     0.049 A 
ATOM     68  H   UNL     1      13.243  -0.610   6.109  1.00  0.00     0.167 HD
ATOM     69  C   UNL     1      15.186  -1.357   4.186  1.00  0.00     0.074 A 
ATOM     70  C   UNL     1      15.783  -1.807   2.946  1.00  0.00     0.031 C 
ATOM     71  C   UNL     1      15.893  -0.955   5.271  1.00  0.00     0.037 A 
BRANCH  58  72
ATOM     72  C   UNL     1      12.379   0.879  10.016  1.00  0.00     0.064 A 
ATOM     73  C   UNL     1      11.867   0.127  11.085  1.00  0.00     0.173 A 
ATOM     74  C   UNL     1      12.853   2.170  10.292  1.00  0.00     0.173 A 
ATOM     75  F   UNL     1      11.386  -1.107  10.874  1.00  0.00    -0.203 F 
ATOM     76  C   UNL     1      11.803   0.660  12.370  1.00  0.00     0.198 A 
ATOM     77  C   UNL     1      12.820   2.687  11.584  1.00  0.00     0.198 A 
ATOM     78  F   UNL     1      13.354   2.932   9.308  1.00  0.00    -0.203 F 
ATOM     79  F   UNL     1      11.257  -0.054  13.364  1.00  0.00    -0.200 F 
ATOM     80  C   UNL     1      12.287   1.936  12.620  1.00  0.00     0.200 A 
ATOM     81  F   UNL     1      13.301   3.914  11.826  1.00  0.00    -0.200 F 
ATOM     82  F   UNL     1      12.230   2.445  13.858  1.00  0.00    -0.200 F 
ENDBRANCH  58  72
BRANCH  59  83
ATOM     83  C   UNL     1      12.329  -2.660   0.673  1.00  0.00     0.064 A 
ATOM     84  C   UNL     1      12.846  -3.921   0.344  1.00  0.00     0.173 A 
ATOM     85  C   UNL     1      11.841  -1.864  -0.374  1.00  0.00     0.173 A 
ATOM     86  F   UNL     1      13.349  -4.709   1.305  1.00  0.00    -0.203 F 
ATOM     87  C   UNL     1      12.893  -4.358  -0.979  1.00  0.00     0.198 A 
ATOM     88  C   UNL     1      11.858  -2.315  -1.692  1.00  0.00     0.198 A 
ATOM     89  F   UNL     1      11.339  -0.647  -0.116  1.00  0.00    -0.203 F 
ATOM     90  F   UNL     1      13.440  -5.545  -1.270  1.00  0.00    -0.200 F 
ATOM     91  C   UNL     1      12.392  -3.558  -1.995  1.00  0.00     0.200 A 
ATOM     92  F   UNL     1      11.360  -1.544  -2.669  1.00  0.00    -0.200 F 
ATOM     93  F   UNL     1      12.433  -3.980  -3.266  1.00  0.00    -0.200 F 
ENDBRANCH  59  83
BRANCH  71  94
ATOM     94  C   UNL     1      17.393  -1.026   5.190  1.00  0.00     0.064 A 
ATOM     95  C   UNL     1      18.134  -0.160   4.372  1.00  0.00     0.173 A 
ATOM     96  C   UNL     1      18.102  -1.945   5.980  1.00  0.00     0.173 A 
ATOM     97  F   UNL     1      17.507   0.730   3.587  1.00  0.00    -0.203 F 
ATOM     98  C   UNL     1      19.525  -0.233   4.325  1.00  0.00     0.198 A 
ATOM     99  C   UNL     1      19.493  -1.990   5.959  1.00  0.00     0.198 A 
ATOM    100  F   UNL     1      17.445  -2.790   6.789  1.00  0.00    -0.203 F 
ATOM    101  F   UNL     1      20.208   0.568   3.495  1.00  0.00    -0.200 F 
ATOM    102  C   UNL     1      20.203  -1.141   5.124  1.00  0.00     0.200 A 
ATOM    103  F   UNL     1      20.146  -2.855   6.747  1.00  0.00    -0.200 F 
ATOM    104  F   UNL     1      21.541  -1.202   5.085  1.00  0.00    -0.200 F 
ENDBRANCH  71  94
ENDBRANCH  45  46
ENDBRANCH  38  40
ENDBRANCH  37  38
ENDBRANCH  36  37
ENDBRANCH  35  36
ENDBRANCH  34  35
ENDBRANCH  33  34
ENDBRANCH  32  33
ENDBRANCH  31  32
ENDBRANCH   1  31
TORSDOF 25
