REMARK SMILES Cc1ccc(OCC(=O)NNC(=O)[C@H]2CCCC[C@@H]2C(=O)OCCOCCOCCOCCOC(=O)c2ccc(-c3c4nc(c(-c5c(F)c(F)c(F)c(F)c5F)c5ccc([nH]5)c(-c5c(F)c(F)c(F)c(F)c5F)c5nc(c(-c6c(F)c(F)c(F)c(F)c6F)c6ccc3[nH]6)C=C5)C=C4)cc2)cc1
REMARK SMILES IDX 26 1 25 2 24 3 23 4 22 5 20 6 21 7 19 8 14 9 15 10 16 11
REMARK SMILES IDX 18 12 17 13 12 14 11 15 13 17 10 18 8 19 9 20 7 22 6 23 5 24
REMARK SMILES IDX 1 25 2 26 3 27 101 28 4 29 100 30 27 31 28 32 29 33 30 34
REMARK SMILES IDX 31 35 32 36 33 37 34 38 35 39 36 40 37 41 38 42 99 43 39 44
REMARK SMILES IDX 98 45 40 46 41 47 42 48 92 49 43 50 97 51 91 52 93 53 44 54
REMARK SMILES IDX 96 55 90 56 89 57 45 59 77 60 57 61 76 62 58 63 61 64 75 65
REMARK SMILES IDX 94 66 59 67 60 68 74 70 95 71 62 72 46 73 47 74 55 75 48 76
REMARK SMILES IDX 49 77 53 78 56 79 50 80 51 81 54 82 52 83 78 84 79 85 87 86
REMARK SMILES IDX 80 87 81 88 85 89 88 90 82 91 83 92 86 93 84 94 63 95 64 96
REMARK SMILES IDX 72 97 65 98 66 99 70 100 73 101 67 102 68 103 71 104 69 105
REMARK H PARENT 11 16 10 21 93 58 61 69
REMARK Flexibility Score: inf
ROOT
ATOM      1  C   UNL     1      -3.199   2.901   2.477  1.00  0.00     0.188 C 
ENDROOT
BRANCH   1   2
ATOM      2  O   UNL     1      -4.180   2.932   1.459  1.00  0.00    -0.376 OA
BRANCH   2   3
ATOM      3  C   UNL     1      -5.489   2.497   1.794  1.00  0.00     0.202 C 
BRANCH   3   4
ATOM      4  C   UNL     1      -5.679   1.132   2.440  1.00  0.00     0.261 C 
BRANCH   4   5
ATOM      5  O   UNL     1      -5.276   1.148   3.813  1.00  0.00    -0.463 OA
BRANCH   5   6
ATOM      6  C   UNL     1      -4.289   0.289   4.083  1.00  0.00     0.309 C 
ATOM      7  O   UNL     1      -3.883  -0.576   3.305  1.00  0.00    -0.252 OA
BRANCH   6   8
ATOM      8  C   UNL     1      -3.518   0.618   5.341  1.00  0.00     0.111 C 
ATOM      9  C   UNL     1      -3.231  -0.740   5.964  1.00  0.00     0.094 C 
ATOM     10  C   UNL     1      -4.265  -1.021   7.056  1.00  0.00     0.014 C 
ATOM     11  C   UNL     1      -4.277   0.010   8.165  1.00  0.00     0.001 C 
ATOM     12  C   UNL     1      -3.867   1.756   6.304  1.00  0.00     0.016 C 
ATOM     13  C   UNL     1      -4.483   1.426   7.659  1.00  0.00     0.001 C 
BRANCH   9  14
ATOM     14  C   UNL     1      -1.748  -0.844   6.291  1.00  0.00     0.242 C 
ATOM     15  N   UNL     1      -0.818  -0.659   5.278  1.00  0.00    -0.267 N 
ATOM     16  H   UNL     1       0.130  -0.756   5.526  1.00  0.00     0.191 HD
ATOM     17  O   UNL     1      -1.351  -1.127   7.421  1.00  0.00    -0.273 OA
BRANCH  15  18
ATOM     18  N   UNL     1      -1.090  -0.347   3.931  1.00  0.00    -0.265 N 
ATOM     19  C   UNL     1      -0.345   0.546   3.183  1.00  0.00     0.276 C 
ATOM     20  O   UNL     1      -0.711   0.872   2.053  1.00  0.00    -0.269 OA
ATOM     21  H   UNL     1      -1.855  -0.790   3.497  1.00  0.00     0.191 HD
BRANCH  19  22
ATOM     22  C   UNL     1       0.972   1.063   3.753  1.00  0.00     0.331 C 
BRANCH  22  23
ATOM     23  O   UNL     1       0.848   1.768   4.975  1.00  0.00    -0.484 OA
BRANCH  23  24
ATOM     24  C   UNL     1       0.792   3.132   4.952  1.00  0.00     0.120 A 
ATOM     25  C   UNL     1       0.625   7.427   5.415  1.00  0.00     0.044 C 
ATOM     26  C   UNL     1       0.675   5.937   5.242  1.00  0.00    -0.051 A 
ATOM     27  C   UNL     1       0.844   5.115   6.359  1.00  0.00     0.007 A 
ATOM     28  C   UNL     1       0.567   5.343   3.980  1.00  0.00     0.007 A 
ATOM     29  C   UNL     1       0.896   3.726   6.212  1.00  0.00     0.047 A 
ATOM     30  C   UNL     1       0.626   3.948   3.834  1.00  0.00     0.047 A 
ENDBRANCH  23  24
ENDBRANCH  22  23
ENDBRANCH  19  22
ENDBRANCH  15  18
ENDBRANCH   9  14
ENDBRANCH   6   8
ENDBRANCH   5   6
ENDBRANCH   4   5
ENDBRANCH   3   4
ENDBRANCH   2   3
ENDBRANCH   1   2
BRANCH   1  31
ATOM     31  C   UNL     1      -2.854   4.128   3.323  1.00  0.00     0.188 C 
BRANCH  31  32
ATOM     32  O   UNL     1      -3.786   4.601   4.280  1.00  0.00    -0.377 OA
BRANCH  32  33
ATOM     33  C   UNL     1      -4.811   5.471   3.830  1.00  0.00     0.188 C 
BRANCH  33  34
ATOM     34  C   UNL     1      -4.465   6.482   2.745  1.00  0.00     0.188 C 
BRANCH  34  35
ATOM     35  O   UNL     1      -4.332   5.819   1.492  1.00  0.00    -0.376 OA
BRANCH  35  36
ATOM     36  C   UNL     1      -3.350   6.350   0.602  1.00  0.00     0.202 C 
BRANCH  36  37
ATOM     37  C   UNL     1      -3.567   7.824   0.243  1.00  0.00     0.261 C 
BRANCH  37  38
ATOM     38  O   UNL     1      -4.838   7.970  -0.419  1.00  0.00    -0.460 OA
BRANCH  38  39
ATOM     39  C   UNL     1      -5.827   8.508   0.335  1.00  0.00     0.338 C 
ATOM     40  O   UNL     1      -5.714   9.515   1.039  1.00  0.00    -0.246 OA
BRANCH  39  41
ATOM     41  C   UNL     1      -6.959   7.548   0.462  1.00  0.00     0.060 A 
ATOM     42  C   UNL     1      -7.971   7.780   1.411  1.00  0.00     0.016 A 
ATOM     43  C   UNL     1      -6.801   6.273  -0.067  1.00  0.00     0.016 A 
ATOM     44  C   UNL     1      -8.685   6.704   1.967  1.00  0.00     0.010 A 
ATOM     45  C   UNL     1      -7.437   5.216   0.555  1.00  0.00     0.010 A 
ATOM     46  C   UNL     1      -8.348   5.398   1.610  1.00  0.00    -0.014 A 
BRANCH  46  47
ATOM     47  C   UNL     1      -8.676   4.177   2.387  1.00  0.00     0.031 A 
ATOM     48  C   UNL     1      -8.991   2.887   1.667  1.00  0.00     0.074 A 
ATOM     49  C   UNL     1      -8.246   4.130   3.675  1.00  0.00     0.049 A 
ATOM     50  N   UNL     1      -9.043   1.713   2.208  1.00  0.00    -0.248 NA
ATOM     51  C   UNL     1      -9.280   2.819   0.234  1.00  0.00     0.031 C 
ATOM     52  C   UNL     1      -7.654   2.964   4.318  1.00  0.00     0.029 A 
ATOM     53  N   UNL     1      -8.073   5.125   4.643  1.00  0.00    -0.354 N 
ATOM     54  C   UNL     1      -9.025   0.753   1.209  1.00  0.00     0.074 A 
ATOM     55  C   UNL     1      -9.291   1.499   0.006  1.00  0.00     0.031 C 
ATOM     56  C   UNL     1      -7.215   3.261   5.542  1.00  0.00     0.029 A 
ATOM     57  C   UNL     1      -7.823   4.502   5.889  1.00  0.00     0.049 A 
ATOM     58  H   UNL     1      -8.118   6.095   4.484  1.00  0.00     0.167 HD
ATOM     59  C   UNL     1      -8.655  -0.537   1.505  1.00  0.00     0.037 A 
ATOM     60  C   UNL     1      -8.741   4.564   6.900  1.00  0.00     0.037 A 
ATOM     61  C   UNL     1      -8.511  -0.765   2.968  1.00  0.00     0.049 A 
ATOM     62  C   UNL     1      -9.515   3.251   7.123  1.00  0.00     0.074 A 
ATOM     63  C   UNL     1      -7.604  -1.419   3.789  1.00  0.00     0.029 A 
ATOM     64  N   UNL     1      -9.395  -0.136   3.849  1.00  0.00    -0.354 N 
ATOM     65  N   UNL     1      -9.301   2.158   6.418  1.00  0.00    -0.248 NA
ATOM     66  C   UNL     1     -10.582   3.028   8.094  1.00  0.00     0.031 C 
ATOM     67  C   UNL     1      -7.977  -1.192   5.151  1.00  0.00     0.029 A 
ATOM     68  C   UNL     1      -9.119  -0.411   5.170  1.00  0.00     0.049 A 
ATOM     69  H   UNL     1     -10.136   0.443   3.556  1.00  0.00     0.167 HD
ATOM     70  C   UNL     1     -10.147   1.145   6.770  1.00  0.00     0.074 A 
ATOM     71  C   UNL     1     -10.960   1.763   7.810  1.00  0.00     0.031 C 
ATOM     72  C   UNL     1     -10.126  -0.099   6.181  1.00  0.00     0.037 A 
BRANCH  59  73
ATOM     73  C   UNL     1      -8.254  -1.616   0.474  1.00  0.00     0.064 A 
ATOM     74  C   UNL     1      -8.114  -2.973   0.861  1.00  0.00     0.173 A 
ATOM     75  C   UNL     1      -7.888  -1.375  -0.871  1.00  0.00     0.173 A 
ATOM     76  F   UNL     1      -8.447  -3.380   2.094  1.00  0.00    -0.203 F 
ATOM     77  C   UNL     1      -7.627  -3.974   0.003  1.00  0.00     0.198 A 
ATOM     78  C   UNL     1      -7.470  -2.391  -1.750  1.00  0.00     0.198 A 
ATOM     79  F   UNL     1      -7.861  -0.141  -1.386  1.00  0.00    -0.203 F 
ATOM     80  F   UNL     1      -7.452  -5.222   0.463  1.00  0.00    -0.200 F 
ATOM     81  C   UNL     1      -7.319  -3.687  -1.309  1.00  0.00     0.200 A 
ATOM     82  F   UNL     1      -7.190  -2.092  -3.029  1.00  0.00    -0.200 F 
ATOM     83  F   UNL     1      -6.873  -4.644  -2.135  1.00  0.00    -0.200 F 
ENDBRANCH  59  73
BRANCH  60  84
ATOM     84  C   UNL     1      -8.959   6.016   7.242  1.00  0.00     0.064 A 
ATOM     85  C   UNL     1      -7.763   6.619   7.724  1.00  0.00     0.173 A 
ATOM     86  C   UNL     1      -9.722   6.786   6.345  1.00  0.00     0.173 A 
ATOM     87  F   UNL     1      -7.011   5.965   8.624  1.00  0.00    -0.203 F 
ATOM     88  C   UNL     1      -7.185   7.704   7.055  1.00  0.00     0.198 A 
ATOM     89  C   UNL     1      -9.151   7.897   5.701  1.00  0.00     0.198 A 
ATOM     90  F   UNL     1     -10.887   6.310   5.883  1.00  0.00    -0.203 F 
ATOM     91  F   UNL     1      -5.916   8.053   7.318  1.00  0.00    -0.200 F 
ATOM     92  C   UNL     1      -7.856   8.299   6.002  1.00  0.00     0.200 A 
ATOM     93  F   UNL     1      -9.782   8.462   4.661  1.00  0.00    -0.200 F 
ATOM     94  F   UNL     1      -7.221   9.181   5.214  1.00  0.00    -0.200 F 
ENDBRANCH  60  84
BRANCH  72  95
ATOM     95  C   UNL     1     -11.154  -1.183   6.428  1.00  0.00     0.064 A 
ATOM     96  C   UNL     1     -11.771  -1.397   7.661  1.00  0.00     0.173 A 
ATOM     97  C   UNL     1     -11.553  -2.068   5.388  1.00  0.00     0.173 A 
ATOM     98  F   UNL     1     -11.308  -0.811   8.772  1.00  0.00    -0.203 F 
ATOM     99  C   UNL     1     -12.867  -2.254   7.787  1.00  0.00     0.198 A 
ATOM    100  C   UNL     1     -12.602  -2.967   5.533  1.00  0.00     0.198 A 
ATOM    101  F   UNL     1     -10.957  -2.087   4.189  1.00  0.00    -0.203 F 
ATOM    102  F   UNL     1     -13.516  -2.325   8.957  1.00  0.00    -0.200 F 
ATOM    103  C   UNL     1     -13.301  -3.015   6.716  1.00  0.00     0.200 A 
ATOM    104  F   UNL     1     -12.947  -3.759   4.506  1.00  0.00    -0.200 F 
ATOM    105  F   UNL     1     -14.378  -3.802   6.829  1.00  0.00    -0.200 F 
ENDBRANCH  72  95
ENDBRANCH  46  47
ENDBRANCH  39  41
ENDBRANCH  38  39
ENDBRANCH  37  38
ENDBRANCH  36  37
ENDBRANCH  35  36
ENDBRANCH  34  35
ENDBRANCH  33  34
ENDBRANCH  32  33
ENDBRANCH  31  32
ENDBRANCH   1  31
TORSDOF 25
