REMARK SMILES CCc1c(C)nc(Nc2ccc(Cl)cc2Cl)nc1OCC(=O)OCCOCCOCCOCCOC(=O)c1ccc(-c2c3nc(c(-c4c(F)c(F)c(F)c(F)c4F)c4ccc([nH]4)c(-c4c(F)c(F)c(F)c(F)c4F)c4nc(c(-c5c(F)c(F)c(F)c(F)c5F)c5ccc2[nH]5)C=C4)C=C3)cc1
REMARK SMILES IDX 28 1 27 2 26 3 25 4 24 5 23 6 21 7 22 8 20 9 19 10 18 11
REMARK SMILES IDX 3 12 4 13 5 14 6 15 17 16 7 17 2 18 1 19 8 20 9 22 10 23
REMARK SMILES IDX 15 24 11 25 14 26 16 27 12 28 13 29 29 30 30 31 31 32 32 33
REMARK SMILES IDX 33 34 34 35 35 36 36 37 37 38 38 39 39 40 100 41 40 42 99 43
REMARK SMILES IDX 41 44 42 45 43 46 93 47 44 48 98 49 92 50 94 51 45 52 97 53
REMARK SMILES IDX 91 54 90 55 46 57 78 58 58 59 77 60 59 61 62 62 76 63 95 64
REMARK SMILES IDX 60 65 61 66 75 68 96 69 63 70 47 71 48 72 56 73 49 74 50 75
REMARK SMILES IDX 54 76 57 77 51 78 52 79 55 80 53 81 79 82 80 83 88 84 81 85
REMARK SMILES IDX 82 86 86 87 89 88 83 89 84 90 87 91 85 92 64 93 65 94 73 95
REMARK SMILES IDX 66 96 67 97 71 98 74 99 68 100 69 101 72 102 70 103
REMARK H PARENT 8 21 94 56 62 67
REMARK Flexibility Score: inf
ROOT
ATOM      1  C   UNL     1      -1.332  -2.087   1.889  1.00  0.00     0.188 C 
ENDROOT
BRANCH   1   2
ATOM      2  C   UNL     1      -1.429  -0.984   0.807  1.00  0.00     0.188 C 
BRANCH   2   3
ATOM      3  O   UNL     1      -2.720  -0.490   0.559  1.00  0.00    -0.376 OA
BRANCH   3   4
ATOM      4  C   UNL     1      -3.546  -1.090  -0.413  1.00  0.00     0.202 C 
BRANCH   4   5
ATOM      5  C   UNL     1      -3.367  -2.524  -0.956  1.00  0.00     0.261 C 
BRANCH   5   6
ATOM      6  O   UNL     1      -2.181  -3.268  -0.617  1.00  0.00    -0.461 OA
BRANCH   6   7
ATOM      7  C   UNL     1      -1.127  -3.234  -1.478  1.00  0.00     0.344 C 
ATOM      8  O   UNL     1      -1.127  -2.600  -2.527  1.00  0.00    -0.248 OA
BRANCH   7   9
ATOM      9  C   UNL     1       0.080  -4.095  -1.006  1.00  0.00     0.353 C 
BRANCH   9  10
ATOM     10  O   UNL     1       0.476  -4.218   0.343  1.00  0.00    -0.465 OA
BRANCH  10  11
ATOM     11  C   UNL     1       1.399  -3.525   1.069  1.00  0.00     0.222 A 
ATOM     12  C   UNL     1       1.966  -2.265   0.817  1.00  0.00     0.035 A 
ATOM     13  C   UNL     1       2.636  -1.720   1.924  1.00  0.00     0.050 A 
ATOM     14  C   UNL     1       3.280  -0.368   2.019  1.00  0.00     0.067 C 
ATOM     15  N   UNL     1       2.773  -2.377   3.097  1.00  0.00    -0.218 NA
ATOM     16  N   UNL     1       1.569  -4.178   2.254  1.00  0.00    -0.177 NA
ATOM     17  C   UNL     1       2.254  -3.592   3.236  1.00  0.00     0.230 A 
BRANCH  12  18
ATOM     18  C   UNL     1       1.897  -1.601  -0.537  1.00  0.00     0.040 C 
ATOM     19  C   UNL     1       1.912  -0.086  -0.695  1.00  0.00     0.009 C 
ENDBRANCH  12  18
BRANCH  17  20
ATOM     20  N   UNL     1       2.382  -4.242   4.467  1.00  0.00    -0.323 N 
ATOM     21  H   UNL     1       2.143  -5.197   4.490  1.00  0.00     0.170 HD
BRANCH  20  22
ATOM     22  C   UNL     1       2.819  -3.671   5.675  1.00  0.00     0.060 A 
ATOM     23  C   UNL     1       1.921  -2.911   6.439  1.00  0.00     0.029 A 
ATOM     24  C   UNL     1       4.102  -3.881   6.208  1.00  0.00     0.066 A 
ATOM     25  C   UNL     1       2.324  -2.247   7.603  1.00  0.00     0.023 A 
ATOM     26  C   UNL     1       4.509  -3.241   7.388  1.00  0.00     0.043 A 
ATOM     27  Cl  UNL     1       5.230  -4.929   5.426  1.00  0.00    -0.082 Cl
ATOM     28  C   UNL     1       3.627  -2.402   8.062  1.00  0.00     0.042 A 
ATOM     29  Cl  UNL     1       4.140  -1.566   9.475  1.00  0.00    -0.084 Cl
ENDBRANCH  20  22
ENDBRANCH  17  20
ENDBRANCH  10  11
ENDBRANCH   9  10
ENDBRANCH   7   9
ENDBRANCH   6   7
ENDBRANCH   5   6
ENDBRANCH   4   5
ENDBRANCH   3   4
ENDBRANCH   2   3
ENDBRANCH   1   2
BRANCH   1  30
ATOM     30  O   UNL     1      -2.183  -2.192   3.019  1.00  0.00    -0.377 OA
BRANCH  30  31
ATOM     31  C   UNL     1      -3.203  -1.237   3.187  1.00  0.00     0.188 C 
BRANCH  31  32
ATOM     32  C   UNL     1      -2.725   0.169   3.586  1.00  0.00     0.188 C 
BRANCH  32  33
ATOM     33  O   UNL     1      -1.459   0.514   3.058  1.00  0.00    -0.376 OA
BRANCH  33  34
ATOM     34  C   UNL     1      -0.321   0.547   3.903  1.00  0.00     0.202 C 
BRANCH  34  35
ATOM     35  C   UNL     1       0.046  -0.631   4.813  1.00  0.00     0.261 C 
BRANCH  35  36
ATOM     36  O   UNL     1      -1.031  -1.376   5.378  1.00  0.00    -0.460 OA
BRANCH  36  37
ATOM     37  C   UNL     1      -1.590  -0.919   6.509  1.00  0.00     0.338 C 
ATOM     38  O   UNL     1      -1.282   0.071   7.151  1.00  0.00    -0.246 OA
BRANCH  37  39
ATOM     39  C   UNL     1      -2.798  -1.733   6.719  1.00  0.00     0.060 A 
ATOM     40  C   UNL     1      -4.041  -1.107   6.573  1.00  0.00     0.016 A 
ATOM     41  C   UNL     1      -2.707  -3.104   6.982  1.00  0.00     0.016 A 
ATOM     42  C   UNL     1      -5.205  -1.853   6.681  1.00  0.00     0.010 A 
ATOM     43  C   UNL     1      -3.879  -3.843   7.148  1.00  0.00     0.010 A 
ATOM     44  C   UNL     1      -5.126  -3.208   7.024  1.00  0.00    -0.014 A 
BRANCH  44  45
ATOM     45  C   UNL     1      -6.353  -3.847   7.535  1.00  0.00     0.031 A 
ATOM     46  C   UNL     1      -6.612  -3.742   9.009  1.00  0.00     0.074 A 
ATOM     47  C   UNL     1      -7.245  -4.410   6.706  1.00  0.00     0.049 A 
ATOM     48  N   UNL     1      -7.635  -4.155   9.709  1.00  0.00    -0.248 NA
ATOM     49  C   UNL     1      -5.571  -3.065   9.802  1.00  0.00     0.031 C 
ATOM     50  C   UNL     1      -7.106  -4.507   5.255  1.00  0.00     0.029 A 
ATOM     51  N   UNL     1      -8.451  -5.001   6.974  1.00  0.00    -0.354 N 
ATOM     52  C   UNL     1      -7.359  -3.786  11.019  1.00  0.00     0.074 A 
ATOM     53  C   UNL     1      -6.062  -3.151  11.026  1.00  0.00     0.031 C 
ATOM     54  C   UNL     1      -8.187  -5.133   4.758  1.00  0.00     0.029 A 
ATOM     55  C   UNL     1      -9.075  -5.501   5.861  1.00  0.00     0.049 A 
ATOM     56  H   UNL     1      -8.834  -5.060   7.880  1.00  0.00     0.167 HD
ATOM     57  C   UNL     1      -8.129  -3.959  12.117  1.00  0.00     0.037 A 
ATOM     58  C   UNL     1     -10.225  -6.194   5.759  1.00  0.00     0.037 A 
ATOM     59  C   UNL     1      -9.407  -4.617  12.092  1.00  0.00     0.049 A 
ATOM     60  C   UNL     1     -11.028  -6.453   7.009  1.00  0.00     0.074 A 
ATOM     61  C   UNL     1     -10.277  -4.854  13.138  1.00  0.00     0.029 A 
ATOM     62  N   UNL     1      -9.986  -5.162  10.953  1.00  0.00    -0.354 N 
ATOM     63  N   UNL     1     -10.780  -6.085   8.245  1.00  0.00    -0.248 NA
ATOM     64  C   UNL     1     -12.273  -7.214   6.850  1.00  0.00     0.031 C 
ATOM     65  C   UNL     1     -11.349  -5.606  12.646  1.00  0.00     0.029 A 
ATOM     66  C   UNL     1     -11.188  -5.768  11.277  1.00  0.00     0.049 A 
ATOM     67  H   UNL     1      -9.599  -5.124  10.049  1.00  0.00     0.167 HD
ATOM     68  C   UNL     1     -11.849  -6.542   9.005  1.00  0.00     0.074 A 
ATOM     69  C   UNL     1     -12.753  -7.205   8.086  1.00  0.00     0.031 C 
ATOM     70  C   UNL     1     -12.068  -6.423  10.339  1.00  0.00     0.037 A 
BRANCH  57  71
ATOM     71  C   UNL     1      -7.568  -3.485  13.427  1.00  0.00     0.064 A 
ATOM     72  C   UNL     1      -7.368  -2.123  13.704  1.00  0.00     0.173 A 
ATOM     73  C   UNL     1      -7.194  -4.413  14.410  1.00  0.00     0.173 A 
ATOM     74  F   UNL     1      -7.686  -1.193  12.790  1.00  0.00    -0.203 F 
ATOM     75  C   UNL     1      -6.776  -1.713  14.897  1.00  0.00     0.198 A 
ATOM     76  C   UNL     1      -6.638  -3.997  15.616  1.00  0.00     0.198 A 
ATOM     77  F   UNL     1      -7.358  -5.727  14.197  1.00  0.00    -0.203 F 
ATOM     78  F   UNL     1      -6.527  -0.412  15.107  1.00  0.00    -0.200 F 
ATOM     79  C   UNL     1      -6.417  -2.650  15.853  1.00  0.00     0.200 A 
ATOM     80  F   UNL     1      -6.301  -4.904  16.544  1.00  0.00    -0.200 F 
ATOM     81  F   UNL     1      -5.844  -2.255  16.999  1.00  0.00    -0.200 F 
ENDBRANCH  57  71
BRANCH  58  82
ATOM     82  C   UNL     1     -10.670  -6.694   4.432  1.00  0.00     0.064 A 
ATOM     83  C   UNL     1     -11.812  -6.181   3.804  1.00  0.00     0.173 A 
ATOM     84  C   UNL     1      -9.947  -7.691   3.757  1.00  0.00     0.173 A 
ATOM     85  F   UNL     1     -12.550  -5.243   4.416  1.00  0.00    -0.203 F 
ATOM     86  C   UNL     1     -12.220  -6.652   2.556  1.00  0.00     0.198 A 
ATOM     87  C   UNL     1     -10.339  -8.139   2.498  1.00  0.00     0.198 A 
ATOM     88  F   UNL     1      -8.847  -8.217   4.315  1.00  0.00    -0.203 F 
ATOM     89  F   UNL     1     -13.336  -6.170   1.993  1.00  0.00    -0.200 F 
ATOM     90  C   UNL     1     -11.478  -7.624   1.901  1.00  0.00     0.200 A 
ATOM     91  F   UNL     1      -9.610  -9.067   1.863  1.00  0.00    -0.200 F 
ATOM     92  F   UNL     1     -11.864  -8.065   0.696  1.00  0.00    -0.200 F 
ENDBRANCH  58  82
BRANCH  70  93
ATOM     93  C   UNL     1     -13.352  -6.985  10.880  1.00  0.00     0.064 A 
ATOM     94  C   UNL     1     -13.589  -8.366  10.946  1.00  0.00     0.173 A 
ATOM     95  C   UNL     1     -14.342  -6.125  11.383  1.00  0.00     0.173 A 
ATOM     96  F   UNL     1     -12.681  -9.231  10.469  1.00  0.00    -0.203 F 
ATOM     97  C   UNL     1     -14.781  -8.863  11.465  1.00  0.00     0.198 A 
ATOM     98  C   UNL     1     -15.515  -6.627  11.937  1.00  0.00     0.198 A 
ATOM     99  F   UNL     1     -14.162  -4.796  11.355  1.00  0.00    -0.203 F 
ATOM    100  F   UNL     1     -15.010 -10.184  11.465  1.00  0.00    -0.200 F 
ATOM    101  C   UNL     1     -15.739  -7.995  11.968  1.00  0.00     0.200 A 
ATOM    102  F   UNL     1     -16.429  -5.787  12.441  1.00  0.00    -0.200 F 
ATOM    103  F   UNL     1     -16.881  -8.476  12.476  1.00  0.00    -0.200 F 
ENDBRANCH  70  93
ENDBRANCH  44  45
ENDBRANCH  37  39
ENDBRANCH  36  37
ENDBRANCH  35  36
ENDBRANCH  34  35
ENDBRANCH  33  34
ENDBRANCH  32  33
ENDBRANCH  31  32
ENDBRANCH  30  31
ENDBRANCH   1  30
TORSDOF 25
