REMARK SMILES CCc1ccc(-c2cc(Cl)cc3c2O[C@@H](C(F)(F)F)C(C(=O)OCCOCCOCCOCCOC(=O)c2ccc(-c4c5nc(c(-c6c(F)c(F)c(F)c(F)c6F)c6ccc([nH]6)c(-c6c(F)c(F)c(F)c(F)c6F)c6nc(c(-c7c(F)c(F)c(F)c(F)c7F)c7ccc4[nH]7)C=C6)C=C5)cc2)=C3)cc1
REMARK SMILES IDX 29 1 28 2 27 3 26 4 25 5 24 6 23 7 21 8 22 9 20 10 7 11 8 12
REMARK SMILES IDX 13 13 9 14 12 15 14 16 10 17 11 18 101 19 15 20 6 21 3 22
REMARK SMILES IDX 4 23 103 24 5 25 102 26 2 27 1 28 16 29 17 30 18 31 19 32
REMARK SMILES IDX 30 33 31 34 32 35 33 36 34 37 35 38 36 39 37 40 38 41 39 42
REMARK SMILES IDX 100 43 40 44 99 45 41 46 42 47 43 48 93 49 44 50 98 51 92 52
REMARK SMILES IDX 94 53 45 54 97 55 91 56 90 57 46 59 78 60 58 61 77 62 59 63
REMARK SMILES IDX 62 64 76 65 95 66 60 67 61 68 75 70 96 71 63 72 47 73 48 74
REMARK SMILES IDX 56 75 49 76 50 77 54 78 57 79 51 80 52 81 55 82 53 83 79 84
REMARK SMILES IDX 80 85 88 86 81 87 82 88 86 89 89 90 83 91 84 92 87 93 85 94
REMARK SMILES IDX 64 95 65 96 73 97 66 98 67 99 71 100 74 101 68 102 69 103
REMARK SMILES IDX 72 104 70 105
REMARK H PARENT 94 58 62 69
REMARK Flexibility Score: inf
ROOT
ATOM      1  O   UNL     1       0.042  -8.532  10.009  1.00  0.00    -0.377 OA
ENDROOT
BRANCH   1   2
ATOM      2  C   UNL     1      -0.049  -7.680   8.883  1.00  0.00     0.188 C 
BRANCH   2   3
ATOM      3  C   UNL     1       1.291  -7.493   8.160  1.00  0.00     0.188 C 
BRANCH   3   4
ATOM      4  O   UNL     1       2.325  -8.353   8.629  1.00  0.00    -0.376 OA
BRANCH   4   5
ATOM      5  C   UNL     1       3.222  -7.829   9.606  1.00  0.00     0.202 C 
BRANCH   5   6
ATOM      6  C   UNL     1       2.600  -7.172  10.845  1.00  0.00     0.261 C 
BRANCH   6   7
ATOM      7  O   UNL     1       1.951  -5.932  10.484  1.00  0.00    -0.460 OA
BRANCH   7   8
ATOM      8  C   UNL     1       2.726  -4.835  10.509  1.00  0.00     0.338 C 
ATOM      9  O   UNL     1       3.863  -4.796  10.963  1.00  0.00    -0.246 OA
BRANCH   8  10
ATOM     10  C   UNL     1       2.136  -3.700   9.757  1.00  0.00     0.087 C 
ATOM     11  C   UNL     1       1.408  -4.432   5.738  1.00  0.00     0.026 A 
ATOM     12  C   UNL     1       2.375  -5.369   5.299  1.00  0.00     0.033 A 
ATOM     13  C   UNL     1       1.556  -3.967   7.061  1.00  0.00     0.135 A 
ATOM     14  C   UNL     1       3.556  -5.577   6.008  1.00  0.00     0.042 A 
ATOM     15  C   UNL     1       2.835  -3.994   7.643  1.00  0.00     0.019 A 
ATOM     16  O   UNL     1       0.448  -3.721   7.867  1.00  0.00    -0.475 OA
ATOM     17  Cl  UNL     1       4.705  -6.720   5.439  1.00  0.00    -0.084 Cl
ATOM     18  C   UNL     1       3.837  -4.809   7.127  1.00  0.00     0.032 A 
ATOM     19  C   UNL     1       3.051  -3.231   8.891  1.00  0.00     0.027 C 
ATOM     20  C   UNL     1       0.696  -3.487   9.324  1.00  0.00     0.316 C 
BRANCH  11  21
ATOM     21  C   UNL     1       0.748  -3.664   4.629  1.00  0.00    -0.015 A 
ATOM     22  C   UNL     1       0.492  -2.283   2.119  1.00  0.00    -0.048 A 
ATOM     23  C   UNL     1       0.135  -3.633   2.250  1.00  0.00     0.004 A 
ATOM     24  C   UNL     1       0.864  -1.601   3.280  1.00  0.00     0.004 A 
ATOM     25  C   UNL     1       0.248  -4.307   3.481  1.00  0.00     0.009 A 
ATOM     26  C   UNL     1       0.984  -2.279   4.511  1.00  0.00     0.009 A 
BRANCH  22  27
ATOM     27  C   UNL     1       0.474  -1.662   0.735  1.00  0.00     0.032 C 
ATOM     28  C   UNL     1       1.099  -0.280   0.564  1.00  0.00     0.009 C 
ENDBRANCH  22  27
ENDBRANCH  11  21
BRANCH  20  29
ATOM     29  C   UNL     1      -0.423  -3.967  10.284  1.00  0.00     0.430 C 
ATOM     30  F   UNL     1      -0.443  -3.170  11.388  1.00  0.00    -0.167 F 
ATOM     31  F   UNL     1      -1.646  -3.857   9.712  1.00  0.00    -0.167 F 
ATOM     32  F   UNL     1      -0.313  -5.224  10.736  1.00  0.00    -0.167 F 
ENDBRANCH  20  29
ENDBRANCH   8  10
ENDBRANCH   7   8
ENDBRANCH   6   7
ENDBRANCH   5   6
ENDBRANCH   4   5
ENDBRANCH   3   4
ENDBRANCH   2   3
ENDBRANCH   1   2
BRANCH   1  33
ATOM     33  C   UNL     1       0.031  -9.937   9.777  1.00  0.00     0.188 C 
BRANCH  33  34
ATOM     34  C   UNL     1       0.397 -10.538   8.401  1.00  0.00     0.188 C 
BRANCH  34  35
ATOM     35  O   UNL     1      -0.184  -9.869   7.284  1.00  0.00    -0.376 OA
BRANCH  35  36
ATOM     36  C   UNL     1      -1.261 -10.520   6.625  1.00  0.00     0.202 C 
BRANCH  36  37
ATOM     37  C   UNL     1      -2.610 -10.366   7.339  1.00  0.00     0.261 C 
BRANCH  37  38
ATOM     38  O   UNL     1      -2.668 -10.972   8.639  1.00  0.00    -0.460 OA
BRANCH  38  39
ATOM     39  C   UNL     1      -2.459 -12.304   8.698  1.00  0.00     0.338 C 
ATOM     40  O   UNL     1      -2.311 -13.072   7.762  1.00  0.00    -0.246 OA
BRANCH  39  41
ATOM     41  C   UNL     1      -2.238 -12.671  10.109  1.00  0.00     0.060 A 
ATOM     42  C   UNL     1      -1.074 -13.375  10.440  1.00  0.00     0.016 A 
ATOM     43  C   UNL     1      -3.162 -12.318  11.096  1.00  0.00     0.016 A 
ATOM     44  C   UNL     1      -0.857 -13.778  11.756  1.00  0.00     0.010 A 
ATOM     45  C   UNL     1      -2.954 -12.738  12.411  1.00  0.00     0.010 A 
ATOM     46  C   UNL     1      -1.821 -13.505  12.736  1.00  0.00    -0.014 A 
BRANCH  46  47
ATOM     47  C   UNL     1      -1.757 -14.222  14.030  1.00  0.00     0.031 A 
ATOM     48  C   UNL     1      -2.520 -15.512  14.159  1.00  0.00     0.074 A 
ATOM     49  C   UNL     1      -1.023 -13.760  15.057  1.00  0.00     0.049 A 
ATOM     50  N   UNL     1      -2.615 -16.326  15.178  1.00  0.00    -0.248 NA
ATOM     51  C   UNL     1      -3.282 -15.941  12.973  1.00  0.00     0.031 C 
ATOM     52  C   UNL     1      -0.230 -12.534  15.046  1.00  0.00     0.029 A 
ATOM     53  N   UNL     1      -0.837 -14.274  16.316  1.00  0.00    -0.354 N 
ATOM     54  C   UNL     1      -3.445 -17.357  14.758  1.00  0.00     0.074 A 
ATOM     55  C   UNL     1      -3.852 -17.056  13.404  1.00  0.00     0.031 C 
ATOM     56  C   UNL     1       0.348 -12.381  16.252  1.00  0.00     0.029 A 
ATOM     57  C   UNL     1      -0.051 -13.488  17.121  1.00  0.00     0.049 A 
ATOM     58  H   UNL     1      -1.230 -15.127  16.613  1.00  0.00     0.167 HD
ATOM     59  C   UNL     1      -3.825 -18.463  15.438  1.00  0.00     0.037 A 
ATOM     60  C   UNL     1       0.289 -13.642  18.415  1.00  0.00     0.037 A 
ATOM     61  C   UNL     1      -3.418 -18.764  16.782  1.00  0.00     0.049 A 
ATOM     62  C   UNL     1      -0.188 -14.861  19.166  1.00  0.00     0.074 A 
ATOM     63  C   UNL     1      -3.717 -19.880  17.544  1.00  0.00     0.029 A 
ATOM     64  N   UNL     1      -2.634 -17.937  17.571  1.00  0.00    -0.354 N 
ATOM     65  N   UNL     1      -0.920 -15.864  18.742  1.00  0.00    -0.248 NA
ATOM     66  C   UNL     1       0.217 -14.974  20.575  1.00  0.00     0.031 C 
ATOM     67  C   UNL     1      -3.157 -19.703  18.812  1.00  0.00     0.029 A 
ATOM     68  C   UNL     1      -2.464 -18.503  18.823  1.00  0.00     0.049 A 
ATOM     69  H   UNL     1      -2.254 -17.075  17.283  1.00  0.00     0.167 HD
ATOM     70  C   UNL     1      -1.039 -16.734  19.819  1.00  0.00     0.074 A 
ATOM     71  C   UNL     1      -0.292 -16.151  20.912  1.00  0.00     0.031 C 
ATOM     72  C   UNL     1      -1.708 -17.911  19.896  1.00  0.00     0.037 A 
BRANCH  59  73
ATOM     73  C   UNL     1      -4.749 -19.419  14.745  1.00  0.00     0.064 A 
ATOM     74  C   UNL     1      -4.307 -20.246  13.702  1.00  0.00     0.173 A 
ATOM     75  C   UNL     1      -6.084 -19.536  15.159  1.00  0.00     0.173 A 
ATOM     76  F   UNL     1      -3.044 -20.158  13.259  1.00  0.00    -0.203 F 
ATOM     77  C   UNL     1      -5.175 -21.144  13.086  1.00  0.00     0.198 A 
ATOM     78  C   UNL     1      -6.941 -20.453  14.559  1.00  0.00     0.198 A 
ATOM     79  F   UNL     1      -6.555 -18.766  16.151  1.00  0.00    -0.203 F 
ATOM     80  F   UNL     1      -4.743 -21.898  12.066  1.00  0.00    -0.200 F 
ATOM     81  C   UNL     1      -6.487 -21.253  13.521  1.00  0.00     0.200 A 
ATOM     82  F   UNL     1      -8.207 -20.564  14.985  1.00  0.00    -0.200 F 
ATOM     83  F   UNL     1      -7.318 -22.126  12.934  1.00  0.00    -0.200 F 
ENDBRANCH  59  73
BRANCH  60  84
ATOM     84  C   UNL     1       1.114 -12.611  19.099  1.00  0.00     0.064 A 
ATOM     85  C   UNL     1       2.420 -12.887  19.525  1.00  0.00     0.173 A 
ATOM     86  C   UNL     1       0.593 -11.338  19.379  1.00  0.00     0.173 A 
ATOM     87  F   UNL     1       2.953 -14.099  19.307  1.00  0.00    -0.203 F 
ATOM     88  C   UNL     1       3.165 -11.941  20.226  1.00  0.00     0.198 A 
ATOM     89  C   UNL     1       1.349 -10.383  20.054  1.00  0.00     0.198 A 
ATOM     90  F   UNL     1      -0.654 -11.024  18.998  1.00  0.00    -0.203 F 
ATOM     91  F   UNL     1       4.390 -12.251  20.671  1.00  0.00    -0.200 F 
ATOM     92  C   UNL     1       2.631 -10.688  20.486  1.00  0.00     0.200 A 
ATOM     93  F   UNL     1       0.831  -9.171  20.297  1.00  0.00    -0.200 F 
ATOM     94  F   UNL     1       3.345  -9.780  21.165  1.00  0.00    -0.200 F 
ENDBRANCH  60  84
BRANCH  72  95
ATOM     95  C   UNL     1      -1.638 -18.665  21.193  1.00  0.00     0.064 A 
ATOM     96  C   UNL     1      -2.319 -18.226  22.337  1.00  0.00     0.173 A 
ATOM     97  C   UNL     1      -0.925 -19.871  21.275  1.00  0.00     0.173 A 
ATOM     98  F   UNL     1      -3.005 -17.073  22.314  1.00  0.00    -0.203 F 
ATOM     99  C   UNL     1      -2.270 -18.955  23.523  1.00  0.00     0.198 A 
ATOM    100  C   UNL     1      -0.903 -20.613  22.453  1.00  0.00     0.198 A 
ATOM    101  F   UNL     1      -0.265 -20.341  20.206  1.00  0.00    -0.203 F 
ATOM    102  F   UNL     1      -2.892 -18.494  24.617  1.00  0.00    -0.200 F 
ATOM    103  C   UNL     1      -1.569 -20.150  23.577  1.00  0.00     0.200 A 
ATOM    104  F   UNL     1      -0.239 -21.776  22.499  1.00  0.00    -0.200 F 
ATOM    105  F   UNL     1      -1.532 -20.855  24.716  1.00  0.00    -0.200 F 
ENDBRANCH  72  95
ENDBRANCH  46  47
ENDBRANCH  39  41
ENDBRANCH  38  39
ENDBRANCH  37  38
ENDBRANCH  36  37
ENDBRANCH  35  36
ENDBRANCH  34  35
ENDBRANCH  33  34
ENDBRANCH   1  33
TORSDOF 23
