REMARK SMILES CCC[NH+]1CCC([NH2+]CC(C)(C)C(=O)OCCOCCOCCOCCOC(=O)c2ccc(-c3c4nc(c(-c5c(F)c(F)c(F)c(F)c5F)c5ccc([nH]5)c(-c5c(F)c(F)c(F)c(F)c5F)c5nc(c(-c6c(F)c(F)c(F)c(F)c6F)c6ccc3[nH]6)C=C5)C=C4)cc2)CC1
REMARK SMILES IDX 19 1 18 2 17 3 16 4 15 5 13 6 14 7 10 8 11 9 12 10 9 11 8 12
REMARK SMILES IDX 7 15 4 16 5 17 94 18 6 20 93 21 3 22 2 23 1 24 20 25 21 26
REMARK SMILES IDX 22 27 23 28 24 29 25 30 26 31 27 32 28 33 29 34 30 35 31 36
REMARK SMILES IDX 92 37 32 38 91 39 33 40 34 41 35 42 85 43 36 44 90 45 84 46
REMARK SMILES IDX 86 47 37 48 89 49 83 50 82 51 38 53 70 54 50 55 69 56 51 57
REMARK SMILES IDX 54 58 68 59 87 60 52 61 53 62 67 64 88 65 55 66 39 67 40 68
REMARK SMILES IDX 48 69 41 70 42 71 46 72 49 73 43 74 44 75 47 76 45 77 71 78
REMARK SMILES IDX 72 79 80 80 73 81 74 82 78 83 81 84 75 85 76 86 79 87 77 88
REMARK SMILES IDX 56 89 57 90 65 91 58 92 59 93 63 94 66 95 60 96 61 97 64 98
REMARK SMILES IDX 62 99
REMARK H PARENT 8 13 8 14 4 19 86 52 54 63
REMARK Flexibility Score: inf
ROOT
ATOM      1  C   UNL     1      -2.611  -5.864   0.821  1.00  0.00     0.188 C 
ENDROOT
BRANCH   1   2
ATOM      2  O   UNL     1      -1.538  -6.269  -0.023  1.00  0.00    -0.376 OA
BRANCH   2   3
ATOM      3  C   UNL     1      -0.189  -6.062   0.347  1.00  0.00     0.202 C 
BRANCH   3   4
ATOM      4  C   UNL     1       0.562  -6.880   1.458  1.00  0.00     0.261 C 
BRANCH   4   5
ATOM      5  O   UNL     1       0.261  -6.902   2.886  1.00  0.00    -0.463 OA
BRANCH   5   6
ATOM      6  C   UNL     1      -0.451  -5.888   3.391  1.00  0.00     0.317 C 
ATOM      7  O   UNL     1      -0.939  -5.067   2.635  1.00  0.00    -0.251 OA
BRANCH   6   8
ATOM      8  C   UNL     1      -0.646  -5.788   4.898  1.00  0.00     0.111 C 
ATOM      9  C   UNL     1       0.685  -5.752   5.654  1.00  0.00     0.029 C 
ATOM     10  C   UNL     1      -1.405  -7.061   5.349  1.00  0.00     0.029 C 
BRANCH   8  11
ATOM     11  C   UNL     1      -1.541  -4.512   5.239  1.00  0.00     0.279 C 
BRANCH  11  12
ATOM     12  N   UNL     1      -1.089  -3.087   5.093  1.00  0.00    -0.343 N 
ATOM     13  H   UNL     1      -1.817  -2.481   5.473  1.00  0.00     0.346 HD
ATOM     14  H   UNL     1      -0.204  -3.011   5.595  1.00  0.00     0.346 HD
BRANCH  12  15
ATOM     15  C   UNL     1      -0.820  -2.667   3.703  1.00  0.00     0.193 C 
ATOM     16  N   UNL     1       0.494  -1.527   1.286  1.00  0.00    -0.335 N 
ATOM     17  C   UNL     1      -0.870  -1.128   1.707  1.00  0.00     0.268 C 
ATOM     18  C   UNL     1       0.851  -2.816   1.869  1.00  0.00     0.268 C 
ATOM     19  H   UNL     1       1.106  -0.777   1.608  1.00  0.00     0.348 HD
ATOM     20  C   UNL     1      -1.115  -1.226   3.249  1.00  0.00     0.126 C 
ATOM     21  C   UNL     1       0.660  -2.890   3.365  1.00  0.00     0.126 C 
BRANCH  16  22
ATOM     22  C   UNL     1       0.625  -1.681  -0.183  1.00  0.00     0.261 C 
BRANCH  22  23
ATOM     23  C   UNL     1       0.476  -0.398  -0.992  1.00  0.00     0.058 C 
ATOM     24  C   UNL     1       1.387   0.710  -0.492  1.00  0.00     0.010 C 
ENDBRANCH  22  23
ENDBRANCH  16  22
ENDBRANCH  12  15
ENDBRANCH  11  12
ENDBRANCH   8  11
ENDBRANCH   6   8
ENDBRANCH   5   6
ENDBRANCH   4   5
ENDBRANCH   3   4
ENDBRANCH   2   3
ENDBRANCH   1   2
BRANCH   1  25
ATOM     25  C   UNL     1      -3.004  -6.933   1.854  1.00  0.00     0.188 C 
BRANCH  25  26
ATOM     26  O   UNL     1      -2.403  -8.217   1.702  1.00  0.00    -0.377 OA
BRANCH  26  27
ATOM     27  C   UNL     1      -2.308  -8.765   0.385  1.00  0.00     0.188 C 
BRANCH  27  28
ATOM     28  C   UNL     1      -3.356  -8.367  -0.682  1.00  0.00     0.188 C 
BRANCH  28  29
ATOM     29  O   UNL     1      -4.548  -7.815  -0.154  1.00  0.00    -0.376 OA
BRANCH  29  30
ATOM     30  C   UNL     1      -5.643  -8.677   0.086  1.00  0.00     0.202 C 
BRANCH  30  31
ATOM     31  C   UNL     1      -5.426  -9.892   1.001  1.00  0.00     0.261 C 
BRANCH  31  32
ATOM     32  O   UNL     1      -4.382 -10.814   0.636  1.00  0.00    -0.460 OA
BRANCH  32  33
ATOM     33  C   UNL     1      -4.389 -11.367  -0.597  1.00  0.00     0.338 C 
ATOM     34  O   UNL     1      -5.248 -11.253  -1.450  1.00  0.00    -0.246 OA
BRANCH  33  35
ATOM     35  C   UNL     1      -3.043 -11.950  -0.824  1.00  0.00     0.060 A 
ATOM     36  C   UNL     1      -2.265 -11.485  -1.897  1.00  0.00     0.016 A 
ATOM     37  C   UNL     1      -2.523 -12.904   0.054  1.00  0.00     0.016 A 
ATOM     38  C   UNL     1      -0.982 -11.991  -2.109  1.00  0.00     0.010 A 
ATOM     39  C   UNL     1      -1.255 -13.442  -0.184  1.00  0.00     0.010 A 
ATOM     40  C   UNL     1      -0.494 -13.012  -1.286  1.00  0.00    -0.014 A 
BRANCH  40  41
ATOM     41  C   UNL     1       0.676 -13.807  -1.730  1.00  0.00     0.031 A 
ATOM     42  C   UNL     1       0.405 -15.067  -2.507  1.00  0.00     0.074 A 
ATOM     43  C   UNL     1       1.940 -13.428  -1.474  1.00  0.00     0.049 A 
ATOM     44  N   UNL     1       1.237 -15.977  -2.942  1.00  0.00    -0.248 NA
ATOM     45  C   UNL     1      -1.006 -15.336  -2.836  1.00  0.00     0.031 C 
ATOM     46  C   UNL     1       2.334 -12.205  -0.780  1.00  0.00     0.029 A 
ATOM     47  N   UNL     1       3.130 -14.052  -1.761  1.00  0.00    -0.354 N 
ATOM     48  C   UNL     1       0.451 -16.930  -3.577  1.00  0.00     0.074 A 
ATOM     49  C   UNL     1      -0.924 -16.501  -3.458  1.00  0.00     0.031 C 
ATOM     50  C   UNL     1       3.675 -12.181  -0.671  1.00  0.00     0.029 A 
ATOM     51  C   UNL     1       4.228 -13.403  -1.254  1.00  0.00     0.049 A 
ATOM     52  H   UNL     1       3.189 -14.886  -2.281  1.00  0.00     0.167 HD
ATOM     53  C   UNL     1       0.843 -18.062  -4.206  1.00  0.00     0.037 A 
ATOM     54  C   UNL     1       5.524 -13.776  -1.234  1.00  0.00     0.037 A 
ATOM     55  C   UNL     1       2.212 -18.484  -4.325  1.00  0.00     0.049 A 
ATOM     56  C   UNL     1       5.928 -15.082  -1.877  1.00  0.00     0.074 A 
ATOM     57  C   UNL     1       2.716 -19.599  -4.970  1.00  0.00     0.029 A 
ATOM     58  N   UNL     1       3.294 -17.813  -3.775  1.00  0.00    -0.354 N 
ATOM     59  N   UNL     1       5.186 -15.963  -2.504  1.00  0.00    -0.248 NA
ATOM     60  C   UNL     1       7.351 -15.444  -1.811  1.00  0.00     0.031 C 
ATOM     61  C   UNL     1       4.096 -19.640  -4.751  1.00  0.00     0.029 A 
ATOM     62  C   UNL     1       4.462 -18.512  -4.034  1.00  0.00     0.049 A 
ATOM     63  H   UNL     1       3.241 -16.966  -3.276  1.00  0.00     0.167 HD
ATOM     64  C   UNL     1       6.053 -16.963  -2.930  1.00  0.00     0.074 A 
ATOM     65  C   UNL     1       7.380 -16.572  -2.506  1.00  0.00     0.031 C 
ATOM     66  C   UNL     1       5.777 -18.104  -3.610  1.00  0.00     0.037 A 
BRANCH  53  67
ATOM     67  C   UNL     1      -0.225 -18.948  -4.777  1.00  0.00     0.064 A 
ATOM     68  C   UNL     1      -0.968 -18.582  -5.909  1.00  0.00     0.173 A 
ATOM     69  C   UNL     1      -0.476 -20.204  -4.204  1.00  0.00     0.173 A 
ATOM     70  F   UNL     1      -0.781 -17.384  -6.482  1.00  0.00    -0.203 F 
ATOM     71  C   UNL     1      -1.936 -19.435  -6.435  1.00  0.00     0.198 A 
ATOM     72  C   UNL     1      -1.421 -21.066  -4.751  1.00  0.00     0.198 A 
ATOM     73  F   UNL     1       0.207 -20.601  -3.119  1.00  0.00    -0.203 F 
ATOM     74  F   UNL     1      -2.665 -19.047  -7.490  1.00  0.00    -0.200 F 
ATOM     75  C   UNL     1      -2.154 -20.679  -5.862  1.00  0.00     0.200 A 
ATOM     76  F   UNL     1      -1.620 -22.273  -4.204  1.00  0.00    -0.200 F 
ATOM     77  F   UNL     1      -3.075 -21.504  -6.379  1.00  0.00    -0.200 F 
ENDBRANCH  53  67
BRANCH  54  78
ATOM     78  C   UNL     1       6.539 -12.928  -0.549  1.00  0.00     0.064 A 
ATOM     79  C   UNL     1       7.574 -12.308  -1.263  1.00  0.00     0.173 A 
ATOM     80  C   UNL     1       6.519 -12.758   0.844  1.00  0.00     0.173 A 
ATOM     81  F   UNL     1       7.657 -12.463  -2.592  1.00  0.00    -0.203 F 
ATOM     82  C   UNL     1       8.563 -11.574  -0.609  1.00  0.00     0.198 A 
ATOM     83  C   UNL     1       7.488 -11.995   1.493  1.00  0.00     0.198 A 
ATOM     84  F   UNL     1       5.555 -13.333   1.579  1.00  0.00    -0.203 F 
ATOM     85  F   UNL     1       9.574 -11.044  -1.310  1.00  0.00    -0.200 F 
ATOM     86  C   UNL     1       8.516 -11.413   0.767  1.00  0.00     0.200 A 
ATOM     87  F   UNL     1       7.431 -11.832   2.822  1.00  0.00    -0.200 F 
ATOM     88  F   UNL     1       9.466 -10.708   1.395  1.00  0.00    -0.200 F 
ENDBRANCH  54  78
BRANCH  66  89
ATOM     89  C   UNL     1       6.932 -18.994  -3.975  1.00  0.00     0.064 A 
ATOM     90  C   UNL     1       7.635 -19.729  -3.009  1.00  0.00     0.173 A 
ATOM     91  C   UNL     1       7.308 -19.151  -5.319  1.00  0.00     0.173 A 
ATOM     92  F   UNL     1       7.323 -19.608  -1.710  1.00  0.00    -0.203 F 
ATOM     93  C   UNL     1       8.689 -20.564  -3.371  1.00  0.00     0.198 A 
ATOM     94  C   UNL     1       8.338 -20.014  -5.681  1.00  0.00     0.198 A 
ATOM     95  F   UNL     1       6.662 -18.480  -6.285  1.00  0.00    -0.203 F 
ATOM     96  F   UNL     1       9.380 -21.216  -2.426  1.00  0.00    -0.200 F 
ATOM     97  C   UNL     1       9.034 -20.713  -4.707  1.00  0.00     0.200 A 
ATOM     98  F   UNL     1       8.656 -20.171  -6.973  1.00  0.00    -0.200 F 
ATOM     99  F   UNL     1      10.041 -21.525  -5.054  1.00  0.00    -0.200 F 
ENDBRANCH  66  89
ENDBRANCH  40  41
ENDBRANCH  33  35
ENDBRANCH  32  33
ENDBRANCH  31  32
ENDBRANCH  30  31
ENDBRANCH  29  30
ENDBRANCH  28  29
ENDBRANCH  27  28
ENDBRANCH  26  27
ENDBRANCH  25  26
ENDBRANCH   1  25
TORSDOF 25
