REMARK SMILES CC1(C)CC[C@@]2(C(=O)OCCOCCOCCOCCOC(=O)c3ccc(-c4c5nc(c(-c6c(F)c(F)c(F)c(F)c6F)c6ccc([nH]6)c(-c6c(F)c(F)c(F)c(F)c6F)c6nc(c(-c7c(F)c(F)c(F)c(F)c7F)c7ccc4[nH]7)C=C6)C=C5)cc3)CC[C@@]3(C)C(=CC[C@H]4[C@@]5(C)CC[C@H](O)C(C)(C)[C@@H]5CC[C@]43C)[C@@H]2C1
REMARK SMILES IDX 16 1 15 2 14 3 13 4 12 5 11 6 10 7 9 8 7 9 8 10 6 11 1 12
REMARK SMILES IDX 2 13 3 14 4 15 110 16 5 17 109 18 91 19 87 20 89 21 92 22
REMARK SMILES IDX 88 23 90 24 107 25 93 26 94 27 106 28 108 29 95 30 105 31
REMARK SMILES IDX 96 32 97 33 104 34 98 35 101 36 99 37 102 38 103 39 100 40
REMARK SMILES IDX 17 42 18 43 19 44 20 45 21 46 22 47 23 48 24 49 25 50 86 51
REMARK SMILES IDX 26 52 85 53 27 54 28 55 29 56 79 57 30 58 84 59 78 60 80 61
REMARK SMILES IDX 31 62 83 63 77 64 76 65 32 67 64 68 44 69 63 70 45 71 48 72
REMARK SMILES IDX 62 73 81 74 46 75 47 76 61 78 82 79 49 80 33 81 34 82 42 83
REMARK SMILES IDX 35 84 36 85 40 86 43 87 37 88 38 89 41 90 39 91 65 92 66 93
REMARK SMILES IDX 74 94 67 95 68 96 72 97 75 98 69 99 70 100 73 101 71 102
REMARK SMILES IDX 50 103 51 104 59 105 52 106 53 107 57 108 60 109 54 110
REMARK SMILES IDX 55 111 58 112 56 113
REMARK H PARENT 100 41 80 66 48 77
REMARK Flexibility Score: inf
ROOT
ATOM      1  C   UNL     1      -0.598  -1.129   7.607  1.00  0.00     0.188 C 
ENDROOT
BRANCH   1   2
ATOM      2  O   UNL     1       0.952  -1.515   7.331  1.00  0.00    -0.377 OA
BRANCH   2   3
ATOM      3  C   UNL     1       2.125  -1.986   5.915  1.00  0.00     0.188 C 
BRANCH   3   4
ATOM      4  C   UNL     1       2.846  -1.080   4.890  1.00  0.00     0.188 C 
BRANCH   4   5
ATOM      5  O   UNL     1       2.356  -0.147   3.949  1.00  0.00    -0.376 OA
BRANCH   5   6
ATOM      6  C   UNL     1       1.106   0.398   3.575  1.00  0.00     0.202 C 
BRANCH   6   7
ATOM      7  C   UNL     1       0.338  -0.404   2.600  1.00  0.00     0.261 C 
BRANCH   7   8
ATOM      8  O   UNL     1       1.015  -1.570   2.152  1.00  0.00    -0.463 OA
BRANCH   8   9
ATOM      9  C   UNL     1       2.356  -1.768   2.192  1.00  0.00     0.312 C 
ATOM     10  O   UNL     1       2.733  -2.901   2.518  1.00  0.00    -0.252 OA
BRANCH   9  11
ATOM     11  C   UNL     1       3.367  -0.733   1.565  1.00  0.00     0.075 C 
ATOM     12  C   UNL     1       1.325   0.460  -2.079  1.00  0.00     0.011 C 
ATOM     13  C   UNL     1       1.283   0.066  -0.578  1.00  0.00    -0.035 C 
ATOM     14  C   UNL     1      -0.278  -0.014  -0.363  1.00  0.00     0.011 C 
ATOM     15  C   UNL     1       1.929  -1.337  -0.514  1.00  0.00     0.007 C 
ATOM     16  C   UNL     1       2.044   1.196   0.346  1.00  0.00     0.015 C 
ATOM     17  C   UNL     1       3.337  -1.340   0.113  1.00  0.00     0.020 C 
ATOM     18  C   UNL     1       3.226   0.831   1.425  1.00  0.00     0.033 C 
ATOM     19  C   UNL     1       3.586   1.747   2.822  1.00  0.00    -0.063 C 
ATOM     20  C   UNL     1       4.799  -0.923   2.205  1.00  0.00     0.020 C 
ATOM     21  C   UNL     1       4.680   1.264   3.898  1.00  0.00    -0.006 C 
ATOM     22  C   UNL     1       2.778   2.737   3.279  1.00  0.00    -0.027 C 
ATOM     23  C   UNL     1       5.248  -0.165   3.519  1.00  0.00     0.013 C 
ATOM     24  C   UNL     1       5.925   2.185   3.584  1.00  0.00     0.017 C 
ATOM     25  C   UNL     1       4.191   1.621   5.622  1.00  0.00    -0.020 C 
ATOM     26  C   UNL     1       2.115   2.753   4.684  1.00  0.00     0.032 C 
ATOM     27  C   UNL     1       2.600   1.663   5.746  1.00  0.00     0.006 C 
ATOM     28  C   UNL     1       4.794   0.893   6.957  1.00  0.00     0.008 C 
ATOM     29  C   UNL     1       4.676   3.135   5.894  1.00  0.00     0.012 C 
ATOM     30  C   UNL     1       1.622   0.281   6.510  1.00  0.00    -0.025 C 
ATOM     31  C   UNL     1       3.842   0.378   8.191  1.00  0.00     0.005 C 
ATOM     32  C   UNL     1       0.838   1.243   7.534  1.00  0.00     0.012 C 
ATOM     33  C   UNL     1       0.321  -0.944   5.553  1.00  0.00     0.010 C 
ATOM     34  C   UNL     1       2.819  -0.655   7.702  1.00  0.00     0.003 C 
ATOM     35  C   UNL     1       0.090  -2.850   6.050  1.00  0.00     0.033 C 
ATOM     36  C   UNL     1       2.381  -2.384   8.450  1.00  0.00    -0.006 C 
ATOM     37  C   UNL     1       1.272  -3.544   7.385  1.00  0.00     0.120 C 
ATOM     38  C   UNL     1       1.735  -2.295   9.847  1.00  0.00     0.014 C 
ATOM     39  C   UNL     1       3.671  -3.189   8.743  1.00  0.00     0.014 C 
BRANCH  37  40
ATOM     40  O   UNL     1       0.655  -4.598   8.107  1.00  0.00    -0.393 OA
ATOM     41  H   UNL     1      -0.063  -4.240   8.651  1.00  0.00     0.210 HD
ENDBRANCH  37  40
ENDBRANCH   9  11
ENDBRANCH   8   9
ENDBRANCH   7   8
ENDBRANCH   6   7
ENDBRANCH   5   6
ENDBRANCH   4   5
ENDBRANCH   3   4
ENDBRANCH   2   3
ENDBRANCH   1   2
BRANCH   1  42
ATOM     42  C   UNL     1      -1.190  -1.115   9.019  1.00  0.00     0.188 C 
BRANCH  42  43
ATOM     43  O   UNL     1      -1.785  -2.285   9.571  1.00  0.00    -0.376 OA
BRANCH  43  44
ATOM     44  C   UNL     1      -2.031  -3.397   8.725  1.00  0.00     0.202 C 
BRANCH  44  45
ATOM     45  C   UNL     1      -3.365  -4.091   8.972  1.00  0.00     0.261 C 
BRANCH  45  46
ATOM     46  O   UNL     1      -4.374  -3.381   8.242  1.00  0.00    -0.460 OA
BRANCH  46  47
ATOM     47  C   UNL     1      -4.561  -2.128   8.713  1.00  0.00     0.338 C 
ATOM     48  O   UNL     1      -4.579  -1.764   9.867  1.00  0.00    -0.246 OA
BRANCH  47  49
ATOM     49  C   UNL     1      -4.616  -1.205   7.563  1.00  0.00     0.060 A 
ATOM     50  C   UNL     1      -4.201   0.117   7.787  1.00  0.00     0.016 A 
ATOM     51  C   UNL     1      -5.286  -1.573   6.393  1.00  0.00     0.016 A 
ATOM     52  C   UNL     1      -4.598   1.116   6.930  1.00  0.00     0.010 A 
ATOM     53  C   UNL     1      -5.795  -0.562   5.598  1.00  0.00     0.010 A 
ATOM     54  C   UNL     1      -5.559   0.765   5.986  1.00  0.00    -0.014 A 
BRANCH  54  55
ATOM     55  C   UNL     1      -6.657   1.727   5.846  1.00  0.00     0.031 A 
ATOM     56  C   UNL     1      -7.771   1.655   6.861  1.00  0.00     0.074 A 
ATOM     57  C   UNL     1      -6.559   2.651   4.889  1.00  0.00     0.049 A 
ATOM     58  N   UNL     1      -8.928   2.255   6.874  1.00  0.00    -0.248 NA
ATOM     59  C   UNL     1      -7.555   0.791   8.037  1.00  0.00     0.031 C 
ATOM     60  C   UNL     1      -5.408   2.813   4.001  1.00  0.00     0.029 A 
ATOM     61  N   UNL     1      -7.443   3.604   4.495  1.00  0.00    -0.354 N 
ATOM     62  C   UNL     1      -9.572   1.810   8.029  1.00  0.00     0.074 A 
ATOM     63  C   UNL     1      -8.685   0.910   8.709  1.00  0.00     0.031 C 
ATOM     64  C   UNL     1      -5.683   3.784   3.119  1.00  0.00     0.029 A 
ATOM     65  C   UNL     1      -7.050   4.235   3.346  1.00  0.00     0.049 A 
ATOM     66  H   UNL     1      -8.272   3.818   4.981  1.00  0.00     0.167 HD
ATOM     67  C   UNL     1     -10.819   2.119   8.450  1.00  0.00     0.037 A 
ATOM     68  C   UNL     1      -7.780   5.015   2.534  1.00  0.00     0.037 A 
ATOM     69  C   UNL     1     -11.654   3.004   7.686  1.00  0.00     0.049 A 
ATOM     70  C   UNL     1      -9.197   5.279   2.955  1.00  0.00     0.074 A 
ATOM     71  C   UNL     1     -12.955   3.397   7.910  1.00  0.00     0.029 A 
ATOM     72  N   UNL     1     -11.233   3.627   6.512  1.00  0.00    -0.354 N 
ATOM     73  N   UNL     1      -9.844   4.811   4.002  1.00  0.00    -0.248 NA
ATOM     74  C   UNL     1      -9.984   6.164   2.101  1.00  0.00     0.031 C 
ATOM     75  C   UNL     1     -13.338   4.213   6.837  1.00  0.00     0.029 A 
ATOM     76  C   UNL     1     -12.255   4.383   5.980  1.00  0.00     0.049 A 
ATOM     77  H   UNL     1     -10.334   3.540   6.120  1.00  0.00     0.167 HD
ATOM     78  C   UNL     1     -11.117   5.354   3.946  1.00  0.00     0.074 A 
ATOM     79  C   UNL     1     -11.134   6.200   2.761  1.00  0.00     0.031 C 
ATOM     80  C   UNL     1     -12.178   5.184   4.779  1.00  0.00     0.037 A 
BRANCH  67  81
ATOM     81  C   UNL     1     -11.342   1.419   9.679  1.00  0.00     0.064 A 
ATOM     82  C   UNL     1     -10.811   1.639  10.962  1.00  0.00     0.173 A 
ATOM     83  C   UNL     1     -12.355   0.454   9.561  1.00  0.00     0.173 A 
ATOM     84  F   UNL     1      -9.819   2.525  11.139  1.00  0.00    -0.203 F 
ATOM     85  C   UNL     1     -11.247   0.899  12.064  1.00  0.00     0.198 A 
ATOM     86  C   UNL     1     -12.809  -0.263  10.669  1.00  0.00     0.198 A 
ATOM     87  F   UNL     1     -12.895   0.184   8.363  1.00  0.00    -0.203 F 
ATOM     88  F   UNL     1     -10.677   1.084  13.264  1.00  0.00    -0.200 F 
ATOM     89  C   UNL     1     -12.248  -0.048  11.917  1.00  0.00     0.200 A 
ATOM     90  F   UNL     1     -13.780  -1.176  10.522  1.00  0.00    -0.200 F 
ATOM     91  F   UNL     1     -12.660  -0.765  12.973  1.00  0.00    -0.200 F 
ENDBRANCH  67  81
BRANCH  68  92
ATOM     92  C   UNL     1      -7.170   5.503   1.273  1.00  0.00     0.064 A 
ATOM     93  C   UNL     1      -6.815   6.847   1.113  1.00  0.00     0.173 A 
ATOM     94  C   UNL     1      -6.795   4.604   0.259  1.00  0.00     0.173 A 
ATOM     95  F   UNL     1      -7.148   7.743   2.052  1.00  0.00    -0.203 F 
ATOM     96  C   UNL     1      -6.097   7.271  -0.005  1.00  0.00     0.198 A 
ATOM     97  C   UNL     1      -6.053   5.024  -0.843  1.00  0.00     0.198 A 
ATOM     98  F   UNL     1      -7.089   3.300   0.374  1.00  0.00    -0.203 F 
ATOM     99  F   UNL     1      -5.764   8.563  -0.133  1.00  0.00    -0.200 F 
ATOM    100  C   UNL     1      -5.704   6.359  -0.974  1.00  0.00     0.200 A 
ATOM    101  F   UNL     1      -5.645   4.131  -1.755  1.00  0.00    -0.200 F 
ATOM    102  F   UNL     1      -4.976   6.762  -2.024  1.00  0.00    -0.200 F 
ENDBRANCH  68  92
BRANCH  80 103
ATOM    103  C   UNL     1     -13.408   5.954   4.425  1.00  0.00     0.064 A 
ATOM    104  C   UNL     1     -14.216   5.581   3.344  1.00  0.00     0.173 A 
ATOM    105  C   UNL     1     -13.792   7.054   5.204  1.00  0.00     0.173 A 
ATOM    106  F   UNL     1     -13.871   4.542   2.568  1.00  0.00    -0.203 F 
ATOM    107  C   UNL     1     -15.355   6.311   3.031  1.00  0.00     0.198 A 
ATOM    108  C   UNL     1     -14.951   7.758   4.909  1.00  0.00     0.198 A 
ATOM    109  F   UNL     1     -13.049   7.434   6.254  1.00  0.00    -0.203 F 
ATOM    110  F   UNL     1     -16.085   5.980   1.957  1.00  0.00    -0.200 F 
ATOM    111  C   UNL     1     -15.725   7.394   3.817  1.00  0.00     0.200 A 
ATOM    112  F   UNL     1     -15.317   8.792   5.679  1.00  0.00    -0.200 F 
ATOM    113  F   UNL     1     -16.827   8.094   3.515  1.00  0.00    -0.200 F 
ENDBRANCH  80 103
ENDBRANCH  54  55
ENDBRANCH  47  49
ENDBRANCH  46  47
ENDBRANCH  45  46
ENDBRANCH  44  45
ENDBRANCH  43  44
ENDBRANCH  42  43
ENDBRANCH   1  42
TORSDOF 21
