REMARK SMILES O=C(OCCOCCOCCOCCOC(=O)[C@H]1C[C@H]2CCCC[C@@H]2[N@@H+]1Cc1ccno1)c1ccc(-c2c3nc(c(-c4c(F)c(F)c(F)c(F)c4F)c4ccc([nH]4)c(-c4c(F)c(F)c(F)c(F)c4F)c4nc(c(-c5c(F)c(F)c(F)c(F)c5F)c5ccc2[nH]5)C=C4)C=C3)cc1
REMARK SMILES IDX 9 1 8 2 7 3 6 4 5 5 4 6 3 7 2 8 1 9 33 10 34 11 95 12 35 13
REMARK SMILES IDX 94 14 36 15 37 16 38 17 88 18 39 19 93 20 87 21 89 22 40 23
REMARK SMILES IDX 92 24 86 25 85 26 41 28 73 29 53 30 72 31 54 32 57 33 71 34
REMARK SMILES IDX 90 35 55 36 56 37 70 39 91 40 58 41 42 42 43 43 51 44 44 45
REMARK SMILES IDX 45 46 49 47 52 48 46 49 47 50 50 51 48 52 74 53 75 54 83 55
REMARK SMILES IDX 76 56 77 57 81 58 84 59 78 60 79 61 82 62 80 63 59 64 60 65
REMARK SMILES IDX 68 66 61 67 62 68 66 69 69 70 63 71 64 72 67 73 65 74 10 75
REMARK SMILES IDX 11 76 12 77 13 78 14 79 15 80 16 81 17 82 18 83 19 84 26 85
REMARK SMILES IDX 20 86 25 87 21 89 24 90 22 91 23 92 27 93 28 94 29 95 32 96
REMARK SMILES IDX 30 97 31 98
REMARK H PARENT 89 27 57 38 26 88
REMARK Flexibility Score: inf
ROOT
ATOM      1  O   UNL     1       4.906  -2.232  -0.337  1.00  0.00    -0.377 OA
ENDROOT
BRANCH   1   2
ATOM      2  C   UNL     1       4.636  -1.623   0.909  1.00  0.00     0.188 C 
BRANCH   2   3
ATOM      3  C   UNL     1       3.493  -2.202   1.730  1.00  0.00     0.188 C 
BRANCH   3   4
ATOM      4  O   UNL     1       3.793  -3.524   2.181  1.00  0.00    -0.376 OA
BRANCH   4   5
ATOM      5  C   UNL     1       2.712  -4.457   2.122  1.00  0.00     0.202 C 
BRANCH   5   6
ATOM      6  C   UNL     1       1.654  -4.310   3.216  1.00  0.00     0.261 C 
BRANCH   6   7
ATOM      7  O   UNL     1       1.462  -2.962   3.659  1.00  0.00    -0.460 OA
BRANCH   7   8
ATOM      8  C   UNL     1       2.174  -2.256   4.570  1.00  0.00     0.338 C 
ATOM      9  O   UNL     1       1.781  -1.120   4.840  1.00  0.00    -0.246 OA
BRANCH   8  10
ATOM     10  C   UNL     1       3.453  -2.715   5.215  1.00  0.00     0.060 A 
ATOM     11  C   UNL     1       4.147  -3.896   4.934  1.00  0.00     0.016 A 
ATOM     12  C   UNL     1       4.021  -1.844   6.164  1.00  0.00     0.016 A 
ATOM     13  C   UNL     1       5.351  -4.211   5.541  1.00  0.00     0.010 A 
ATOM     14  C   UNL     1       5.197  -2.178   6.839  1.00  0.00     0.010 A 
ATOM     15  C   UNL     1       5.835  -3.385   6.543  1.00  0.00    -0.014 A 
BRANCH  15  16
ATOM     16  C   UNL     1       6.778  -3.993   7.487  1.00  0.00     0.031 A 
ATOM     17  C   UNL     1       6.176  -4.652   8.689  1.00  0.00     0.074 A 
ATOM     18  C   UNL     1       8.081  -4.082   7.191  1.00  0.00     0.049 A 
ATOM     19  N   UNL     1       6.752  -5.153   9.744  1.00  0.00    -0.248 NA
ATOM     20  C   UNL     1       4.705  -4.775   8.691  1.00  0.00     0.031 C 
ATOM     21  C   UNL     1       8.694  -3.642   5.939  1.00  0.00     0.029 A 
ATOM     22  N   UNL     1       9.119  -4.585   7.922  1.00  0.00    -0.354 N 
ATOM     23  C   UNL     1       5.715  -5.603  10.551  1.00  0.00     0.074 A 
ATOM     24  C   UNL     1       4.476  -5.338   9.863  1.00  0.00     0.031 C 
ATOM     25  C   UNL     1      10.017  -3.869   6.002  1.00  0.00     0.029 A 
ATOM     26  C   UNL     1      10.339  -4.399   7.323  1.00  0.00     0.049 A 
ATOM     27  H   UNL     1       9.004  -5.035   8.790  1.00  0.00     0.167 HD
ATOM     28  C   UNL     1       5.808  -6.162  11.778  1.00  0.00     0.037 A 
ATOM     29  C   UNL     1      11.569  -4.580   7.836  1.00  0.00     0.037 A 
ATOM     30  C   UNL     1       7.072  -6.381  12.420  1.00  0.00     0.049 A 
ATOM     31  C   UNL     1      11.660  -5.088   9.252  1.00  0.00     0.074 A 
ATOM     32  C   UNL     1       7.337  -6.852  13.688  1.00  0.00     0.029 A 
ATOM     33  N   UNL     1       8.300  -6.122  11.815  1.00  0.00    -0.354 N 
ATOM     34  N   UNL     1      10.688  -5.417  10.075  1.00  0.00    -0.248 NA
ATOM     35  C   UNL     1      13.003  -5.235   9.821  1.00  0.00     0.031 C 
ATOM     36  C   UNL     1       8.724  -6.824  13.871  1.00  0.00     0.029 A 
ATOM     37  C   UNL     1       9.328  -6.405  12.691  1.00  0.00     0.049 A 
ATOM     38  H   UNL     1       8.417  -5.786  10.897  1.00  0.00     0.167 HD
ATOM     39  C   UNL     1      11.298  -5.837  11.247  1.00  0.00     0.074 A 
ATOM     40  C   UNL     1      12.728  -5.719  11.026  1.00  0.00     0.031 C 
ATOM     41  C   UNL     1      10.738  -6.285  12.399  1.00  0.00     0.037 A 
BRANCH  28  42
ATOM     42  C   UNL     1       4.520  -6.428  12.501  1.00  0.00     0.064 A 
ATOM     43  C   UNL     1       3.604  -7.404  12.075  1.00  0.00     0.173 A 
ATOM     44  C   UNL     1       4.148  -5.615  13.583  1.00  0.00     0.173 A 
ATOM     45  F   UNL     1       3.889  -8.183  11.020  1.00  0.00    -0.203 F 
ATOM     46  C   UNL     1       2.349  -7.520  12.671  1.00  0.00     0.198 A 
ATOM     47  C   UNL     1       2.907  -5.757  14.198  1.00  0.00     0.198 A 
ATOM     48  F   UNL     1       4.976  -4.656  14.025  1.00  0.00    -0.203 F 
ATOM     49  F   UNL     1       1.457  -8.396  12.186  1.00  0.00    -0.200 F 
ATOM     50  C   UNL     1       2.002  -6.697  13.732  1.00  0.00     0.200 A 
ATOM     51  F   UNL     1       2.575  -4.961  15.224  1.00  0.00    -0.200 F 
ATOM     52  F   UNL     1       0.787  -6.795  14.288  1.00  0.00    -0.200 F 
ENDBRANCH  28  42
BRANCH  29  53
ATOM     53  C   UNL     1      12.766  -4.214   7.036  1.00  0.00     0.064 A 
ATOM     54  C   UNL     1      13.673  -5.183   6.589  1.00  0.00     0.173 A 
ATOM     55  C   UNL     1      13.010  -2.880   6.666  1.00  0.00     0.173 A 
ATOM     56  F   UNL     1      13.500  -6.469   6.928  1.00  0.00    -0.203 F 
ATOM     57  C   UNL     1      14.774  -4.835   5.806  1.00  0.00     0.198 A 
ATOM     58  C   UNL     1      14.094  -2.536   5.861  1.00  0.00     0.198 A 
ATOM     59  F   UNL     1      12.176  -1.909   7.068  1.00  0.00    -0.203 F 
ATOM     60  F   UNL     1      15.642  -5.778   5.416  1.00  0.00    -0.200 F 
ATOM     61  C   UNL     1      14.978  -3.514   5.435  1.00  0.00     0.200 A 
ATOM     62  F   UNL     1      14.275  -1.260   5.494  1.00  0.00    -0.200 F 
ATOM     63  F   UNL     1      16.029  -3.182   4.672  1.00  0.00    -0.200 F 
ENDBRANCH  29  53
BRANCH  41  64
ATOM     64  C   UNL     1      11.671  -6.740  13.478  1.00  0.00     0.064 A 
ATOM     65  C   UNL     1      12.391  -5.831  14.263  1.00  0.00     0.173 A 
ATOM     66  C   UNL     1      11.756  -8.105  13.790  1.00  0.00     0.173 A 
ATOM     67  F   UNL     1      12.347  -4.519  13.991  1.00  0.00    -0.203 F 
ATOM     68  C   UNL     1      13.174  -6.277  15.323  1.00  0.00     0.198 A 
ATOM     69  C   UNL     1      12.512  -8.543  14.870  1.00  0.00     0.198 A 
ATOM     70  F   UNL     1      11.073  -9.008  13.070  1.00  0.00    -0.203 F 
ATOM     71  F   UNL     1      13.880  -5.397  16.047  1.00  0.00    -0.200 F 
ATOM     72  C   UNL     1      13.223  -7.629  15.634  1.00  0.00     0.200 A 
ATOM     73  F   UNL     1      12.541  -9.845  15.181  1.00  0.00    -0.200 F 
ATOM     74  F   UNL     1      13.956  -8.052  16.672  1.00  0.00    -0.200 F 
ENDBRANCH  41  64
ENDBRANCH  15  16
ENDBRANCH   8  10
ENDBRANCH   7   8
ENDBRANCH   6   7
ENDBRANCH   5   6
ENDBRANCH   4   5
ENDBRANCH   3   4
ENDBRANCH   2   3
ENDBRANCH   1   2
BRANCH   1  75
ATOM     75  C   UNL     1       4.657  -3.616  -0.472  1.00  0.00     0.188 C 
BRANCH  75  76
ATOM     76  C   UNL     1       5.591  -4.666   0.178  1.00  0.00     0.188 C 
BRANCH  76  77
ATOM     77  O   UNL     1       6.905  -4.351   0.599  1.00  0.00    -0.376 OA
BRANCH  77  78
ATOM     78  C   UNL     1       7.603  -3.305  -0.040  1.00  0.00     0.202 C 
BRANCH  78  79
ATOM     79  C   UNL     1       7.807  -3.322  -1.566  1.00  0.00     0.261 C 
BRANCH  79  80
ATOM     80  O   UNL     1       6.712  -3.777  -2.382  1.00  0.00    -0.459 OA
BRANCH  80  81
ATOM     81  C   UNL     1       6.703  -5.093  -2.736  1.00  0.00     0.365 C 
ATOM     82  O   UNL     1       7.602  -5.884  -2.430  1.00  0.00    -0.245 OA
BRANCH  81  83
ATOM     83  C   UNL     1       5.409  -5.484  -3.520  1.00  0.00     0.296 C 
ATOM     84  C   UNL     1       5.721  -6.717  -4.396  1.00  0.00     0.087 C 
ATOM     85  N   UNL     1       4.311  -5.925  -2.590  1.00  0.00    -0.314 N 
ATOM     86  C   UNL     1       4.772  -7.799  -3.900  1.00  0.00     0.054 C 
ATOM     87  C   UNL     1       4.441  -7.376  -2.479  1.00  0.00     0.188 C 
ATOM     88  H   UNL     1       4.430  -5.508  -1.666  1.00  0.00     0.349 HD
ATOM     89  C   UNL     1       5.260  -9.236  -3.908  1.00  0.00     0.010 C 
ATOM     90  C   UNL     1       3.317  -8.221  -1.875  1.00  0.00     0.065 C 
ATOM     91  C   UNL     1       4.128 -10.131  -3.387  1.00  0.00     0.001 C 
ATOM     92  C   UNL     1       3.640  -9.717  -1.992  1.00  0.00     0.006 C 
BRANCH  85  93
ATOM     93  C   UNL     1       2.971  -5.368  -2.844  1.00  0.00     0.342 C 
BRANCH  93  94
ATOM     94  C   UNL     1       2.328  -5.605  -4.161  1.00  0.00     0.190 A 
ATOM     95  C   UNL     1       1.569  -6.612  -4.712  1.00  0.00     0.075 A 
ATOM     96  O   UNL     1       2.405  -4.575  -5.051  1.00  0.00    -0.355 OA
ATOM     97  C   UNL     1       1.247  -6.139  -5.994  1.00  0.00     0.158 A 
ATOM     98  N   UNL     1       1.728  -4.914  -6.210  1.00  0.00    -0.088 NA
ENDBRANCH  93  94
ENDBRANCH  85  93
ENDBRANCH  81  83
ENDBRANCH  80  81
ENDBRANCH  79  80
ENDBRANCH  78  79
ENDBRANCH  77  78
ENDBRANCH  76  77
ENDBRANCH  75  76
ENDBRANCH   1  75
TORSDOF 22
