REMARK SMILES Cc1ccc(/C=C/C(=O)N[C@](C)(C(=O)OCCOCCOCCOCCOC(=O)c2ccc(-c3c4nc(c(-c5c(F)c(F)c(F)c(F)c5F)c5ccc([nH]5)c(-c5c(F)c(F)c(F)c(F)c5F)c5nc(c(-c6c(F)c(F)c(F)c(F)c6F)c6ccc3[nH]6)C=C5)C=C4)cc2)C(F)(F)F)o1
REMARK SMILES IDX 20 1 19 2 18 3 17 4 16 5 15 6 13 7 14 8 11 9 12 10 10 11
REMARK SMILES IDX 8 12 9 13 7 15 6 16 5 17 1 18 2 19 3 20 97 21 4 22 93 23
REMARK SMILES IDX 94 24 95 25 96 26 21 27 22 28 23 29 24 30 25 31 26 32 27 33
REMARK SMILES IDX 28 34 29 35 30 36 31 37 92 38 32 39 91 40 33 41 34 42 35 43
REMARK SMILES IDX 85 44 36 45 90 46 84 47 86 48 37 49 89 50 83 51 82 52 38 54
REMARK SMILES IDX 70 55 50 56 69 57 51 58 54 59 68 60 87 61 52 62 53 63 67 65
REMARK SMILES IDX 88 66 55 67 39 68 40 69 48 70 41 71 42 72 46 73 49 74 43 75
REMARK SMILES IDX 44 76 47 77 45 78 71 79 72 80 80 81 73 82 74 83 78 84 81 85
REMARK SMILES IDX 75 86 76 87 79 88 77 89 56 90 57 91 65 92 58 93 59 94 63 95
REMARK SMILES IDX 66 96 60 97 61 98 64 99 62 100
REMARK H PARENT 10 14 86 53 54 64
REMARK Flexibility Score: inf
ROOT
ATOM      1  C   UNL     1      -4.721   2.939  -2.882  1.00  0.00     0.188 C 
ENDROOT
BRANCH   1   2
ATOM      2  C   UNL     1      -4.822   1.468  -3.301  1.00  0.00     0.188 C 
BRANCH   2   3
ATOM      3  O   UNL     1      -5.986   1.006  -3.957  1.00  0.00    -0.376 OA
BRANCH   3   4
ATOM      4  C   UNL     1      -7.274   1.205  -3.399  1.00  0.00     0.202 C 
BRANCH   4   5
ATOM      5  C   UNL     1      -7.555   1.304  -1.886  1.00  0.00     0.261 C 
BRANCH   5   6
ATOM      6  O   UNL     1      -6.540   1.907  -1.056  1.00  0.00    -0.461 OA
BRANCH   6   7
ATOM      7  C   UNL     1      -5.961   1.099  -0.137  1.00  0.00     0.341 C 
ATOM      8  O   UNL     1      -6.294  -0.076  -0.007  1.00  0.00    -0.249 OA
BRANCH   7   9
ATOM      9  C   UNL     1      -5.024   1.812   0.858  1.00  0.00     0.231 C 
ATOM     10  C   UNL     1      -4.233   3.075   0.505  1.00  0.00     0.058 C 
BRANCH   9  11
ATOM     11  N   UNL     1      -5.920   2.023   2.038  1.00  0.00    -0.329 N 
ATOM     12  C   UNL     1      -6.763   3.038   2.388  1.00  0.00     0.245 C 
ATOM     13  O   UNL     1      -7.613   2.824   3.248  1.00  0.00    -0.270 OA
ATOM     14  H   UNL     1      -5.897   1.285   2.689  1.00  0.00     0.165 HD
BRANCH  12  15
ATOM     15  C   UNL     1      -6.573   4.425   1.896  1.00  0.00     0.075 C 
ATOM     16  C   UNL     1      -6.788   4.841   0.639  1.00  0.00     0.053 C 
BRANCH  16  17
ATOM     17  C   UNL     1      -6.398   6.155   0.241  1.00  0.00     0.127 A 
ATOM     18  C   UNL     1      -6.533   9.719   0.728  1.00  0.00     0.087 C 
ATOM     19  C   UNL     1      -6.211   8.370   0.222  1.00  0.00     0.101 A 
ATOM     20  C   UNL     1      -5.443   7.923  -0.825  1.00  0.00     0.046 A 
ATOM     21  O   UNL     1      -6.761   7.316   0.887  1.00  0.00    -0.462 OA
ATOM     22  C   UNL     1      -5.579   6.518  -0.826  1.00  0.00     0.050 A 
ENDBRANCH  16  17
ENDBRANCH  12  15
ENDBRANCH   9  11
BRANCH   9  23
ATOM     23  C   UNL     1      -3.921   0.735   1.044  1.00  0.00     0.422 C 
ATOM     24  F   UNL     1      -3.294   0.491  -0.140  1.00  0.00    -0.168 F 
ATOM     25  F   UNL     1      -2.960   1.171   1.899  1.00  0.00    -0.168 F 
ATOM     26  F   UNL     1      -4.360  -0.441   1.531  1.00  0.00    -0.168 F 
ENDBRANCH   9  23
ENDBRANCH   7   9
ENDBRANCH   6   7
ENDBRANCH   5   6
ENDBRANCH   4   5
ENDBRANCH   3   4
ENDBRANCH   2   3
ENDBRANCH   1   2
BRANCH   1  27
ATOM     27  O   UNL     1      -5.936   3.660  -2.830  1.00  0.00    -0.377 OA
BRANCH  27  28
ATOM     28  C   UNL     1      -6.372   4.332  -4.004  1.00  0.00     0.188 C 
BRANCH  28  29
ATOM     29  C   UNL     1      -5.800   3.916  -5.370  1.00  0.00     0.188 C 
BRANCH  29  30
ATOM     30  O   UNL     1      -4.397   3.701  -5.381  1.00  0.00    -0.376 OA
BRANCH  30  31
ATOM     31  C   UNL     1      -3.531   4.771  -5.726  1.00  0.00     0.202 C 
BRANCH  31  32
ATOM     32  C   UNL     1      -3.519   6.024  -4.832  1.00  0.00     0.261 C 
BRANCH  32  33
ATOM     33  O   UNL     1      -4.755   6.747  -4.707  1.00  0.00    -0.460 OA
BRANCH  33  34
ATOM     34  C   UNL     1      -5.365   7.159  -5.840  1.00  0.00     0.338 C 
ATOM     35  O   UNL     1      -4.953   7.060  -6.975  1.00  0.00    -0.246 OA
BRANCH  34  36
ATOM     36  C   UNL     1      -6.737   7.589  -5.486  1.00  0.00     0.060 A 
ATOM     37  C   UNL     1      -7.823   6.928  -6.075  1.00  0.00     0.016 A 
ATOM     38  C   UNL     1      -6.950   8.646  -4.600  1.00  0.00     0.016 A 
ATOM     39  C   UNL     1      -9.126   7.353  -5.814  1.00  0.00     0.010 A 
ATOM     40  C   UNL     1      -8.255   9.086  -4.358  1.00  0.00     0.010 A 
ATOM     41  C   UNL     1      -9.347   8.467  -4.995  1.00  0.00    -0.014 A 
BRANCH  41  42
ATOM     42  C   UNL     1     -10.686   9.106  -4.972  1.00  0.00     0.031 A 
ATOM     43  C   UNL     1     -10.914  10.315  -5.841  1.00  0.00     0.074 A 
ATOM     44  C   UNL     1     -11.687   8.618  -4.217  1.00  0.00     0.049 A 
ATOM     45  N   UNL     1     -11.969  11.082  -5.942  1.00  0.00    -0.248 NA
ATOM     46  C   UNL     1      -9.797  10.714  -6.715  1.00  0.00     0.031 C 
ATOM     47  C   UNL     1     -11.605   7.433  -3.368  1.00  0.00     0.029 A 
ATOM     48  N   UNL     1     -12.969   9.076  -4.034  1.00  0.00    -0.354 N 
ATOM     49  C   UNL     1     -11.636  12.061  -6.869  1.00  0.00     0.074 A 
ATOM     50  C   UNL     1     -10.278  11.805  -7.293  1.00  0.00     0.031 C 
ATOM     51  C   UNL     1     -12.781   7.269  -2.735  1.00  0.00     0.029 A 
ATOM     52  C   UNL     1     -13.683   8.359  -3.105  1.00  0.00     0.049 A 
ATOM     53  H   UNL     1     -13.342   9.845  -4.523  1.00  0.00     0.167 HD
ATOM     54  C   UNL     1     -12.398  13.082  -7.326  1.00  0.00     0.037 A 
ATOM     55  C   UNL     1     -14.909   8.582  -2.588  1.00  0.00     0.037 A 
ATOM     56  C   UNL     1     -13.757  13.323  -6.919  1.00  0.00     0.049 A 
ATOM     57  C   UNL     1     -15.712   9.765  -3.076  1.00  0.00     0.074 A 
ATOM     58  C   UNL     1     -14.626  14.304  -7.363  1.00  0.00     0.029 A 
ATOM     59  N   UNL     1     -14.440  12.583  -5.967  1.00  0.00    -0.354 N 
ATOM     60  N   UNL     1     -15.407  10.660  -3.985  1.00  0.00    -0.248 NA
ATOM     61  C   UNL     1     -17.035   9.967  -2.466  1.00  0.00     0.031 C 
ATOM     62  C   UNL     1     -15.809  14.204  -6.628  1.00  0.00     0.029 A 
ATOM     63  C   UNL     1     -15.707  13.111  -5.783  1.00  0.00     0.049 A 
ATOM     64  H   UNL     1     -14.079  11.799  -5.494  1.00  0.00     0.167 HD
ATOM     65  C   UNL     1     -16.510  11.501  -4.082  1.00  0.00     0.074 A 
ATOM     66  C   UNL     1     -17.498  11.002  -3.152  1.00  0.00     0.031 C 
ATOM     67  C   UNL     1     -16.690  12.590  -4.869  1.00  0.00     0.037 A 
BRANCH  54  68
ATOM     68  C   UNL     1     -11.783  14.047  -8.296  1.00  0.00     0.064 A 
ATOM     69  C   UNL     1     -11.526  13.700  -9.629  1.00  0.00     0.173 A 
ATOM     70  C   UNL     1     -11.531  15.371  -7.900  1.00  0.00     0.173 A 
ATOM     71  F   UNL     1     -11.736  12.445 -10.053  1.00  0.00    -0.203 F 
ATOM     72  C   UNL     1     -11.035  14.641 -10.531  1.00  0.00     0.198 A 
ATOM     73  C   UNL     1     -11.068  16.316  -8.811  1.00  0.00     0.198 A 
ATOM     74  F   UNL     1     -11.760  15.754  -6.635  1.00  0.00    -0.203 F 
ATOM     75  F   UNL     1     -10.771  14.282 -11.795  1.00  0.00    -0.200 F 
ATOM     76  C   UNL     1     -10.819  15.950 -10.125  1.00  0.00     0.200 A 
ATOM     77  F   UNL     1     -10.876  17.583  -8.419  1.00  0.00    -0.200 F 
ATOM     78  F   UNL     1     -10.371  16.860 -11.000  1.00  0.00    -0.200 F 
ENDBRANCH  54  68
BRANCH  55  79
ATOM     79  C   UNL     1     -15.450   7.702  -1.515  1.00  0.00     0.064 A 
ATOM     80  C   UNL     1     -16.607   6.934  -1.715  1.00  0.00     0.173 A 
ATOM     81  C   UNL     1     -14.865   7.672  -0.240  1.00  0.00     0.173 A 
ATOM     82  F   UNL     1     -17.221   6.947  -2.907  1.00  0.00    -0.203 F 
ATOM     83  C   UNL     1     -17.180   6.207  -0.672  1.00  0.00     0.198 A 
ATOM     84  C   UNL     1     -15.418   6.915   0.791  1.00  0.00     0.198 A 
ATOM     85  F   UNL     1     -13.761   8.390   0.010  1.00  0.00    -0.203 F 
ATOM     86  F   UNL     1     -18.331   5.550  -0.871  1.00  0.00    -0.200 F 
ATOM     87  C   UNL     1     -16.584   6.196   0.579  1.00  0.00     0.200 A 
ATOM     88  F   UNL     1     -14.831   6.899   1.996  1.00  0.00    -0.200 F 
ATOM     89  F   UNL     1     -17.143   5.509   1.584  1.00  0.00    -0.200 F 
ENDBRANCH  55  79
BRANCH  67  90
ATOM     90  C   UNL     1     -18.022  13.284  -4.808  1.00  0.00     0.064 A 
ATOM     91  C   UNL     1     -18.428  14.016  -3.683  1.00  0.00     0.173 A 
ATOM     92  C   UNL     1     -18.884  13.255  -5.916  1.00  0.00     0.173 A 
ATOM     93  F   UNL     1     -17.647  14.069  -2.593  1.00  0.00    -0.203 F 
ATOM     94  C   UNL     1     -19.660  14.665  -3.657  1.00  0.00     0.198 A 
ATOM     95  C   UNL     1     -20.098  13.936  -5.901  1.00  0.00     0.198 A 
ATOM     96  F   UNL     1     -18.541  12.580  -7.024  1.00  0.00    -0.203 F 
ATOM     97  F   UNL     1     -20.051  15.312  -2.550  1.00  0.00    -0.200 F 
ATOM     98  C   UNL     1     -20.490  14.632  -4.768  1.00  0.00     0.200 A 
ATOM     99  F   UNL     1     -20.887  13.920  -6.984  1.00  0.00    -0.200 F 
ATOM    100  F   UNL     1     -21.670  15.267  -4.745  1.00  0.00    -0.200 F 
ENDBRANCH  67  90
ENDBRANCH  41  42
ENDBRANCH  34  36
ENDBRANCH  33  34
ENDBRANCH  32  33
ENDBRANCH  31  32
ENDBRANCH  30  31
ENDBRANCH  29  30
ENDBRANCH  28  29
ENDBRANCH  27  28
ENDBRANCH   1  27
TORSDOF 24
