REMARK SMILES Cc1nc(=O)[nH]c(C)c1CC(=O)Nc1sccc1C(=O)OCCOCCOCCOCCOC(=O)c1ccc(-c2c3nc(c(-c4c(F)c(F)c(F)c(F)c4F)c4ccc([nH]4)c(-c4c(F)c(F)c(F)c(F)c4F)c4nc(c(-c5c(F)c(F)c(F)c(F)c5F)c5ccc2[nH]5)C=C4)C=C3)cc1
REMARK SMILES IDX 26 1 25 2 24 3 23 4 22 5 21 6 19 7 20 8 18 9 14 10 15 11
REMARK SMILES IDX 16 12 17 13 13 14 11 15 12 16 10 18 9 19 1 20 2 21 3 22 4 23
REMARK SMILES IDX 7 24 5 25 6 26 8 27 27 29 28 30 29 31 30 32 31 33 32 34
REMARK SMILES IDX 33 35 34 36 35 37 36 38 37 39 98 40 38 41 97 42 39 43 40 44
REMARK SMILES IDX 41 45 91 46 42 47 96 48 90 49 92 50 43 51 95 52 89 53 88 54
REMARK SMILES IDX 44 56 76 57 56 58 75 59 57 60 60 61 74 62 93 63 58 64 59 65
REMARK SMILES IDX 73 67 94 68 61 69 45 70 46 71 54 72 47 73 48 74 52 75 55 76
REMARK SMILES IDX 49 77 50 78 53 79 51 80 77 81 78 82 86 83 79 84 80 85 84 86
REMARK SMILES IDX 87 87 81 88 82 89 85 90 83 91 62 92 63 93 71 94 64 95 65 96
REMARK SMILES IDX 69 97 72 98 66 99 67 100 70 101 68 102
REMARK H PARENT 13 17 6 28 92 55 60 66
REMARK Flexibility Score: inf
ROOT
ATOM      1  C   UNL     1       0.217   1.769   2.788  1.00  0.00     0.188 C 
ENDROOT
BRANCH   1   2
ATOM      2  C   UNL     1       0.869   2.404   1.555  1.00  0.00     0.188 C 
BRANCH   2   3
ATOM      3  O   UNL     1      -0.072   2.790   0.558  1.00  0.00    -0.376 OA
BRANCH   3   4
ATOM      4  C   UNL     1      -0.356   1.876  -0.487  1.00  0.00     0.202 C 
BRANCH   4   5
ATOM      5  C   UNL     1      -1.453   0.863  -0.146  1.00  0.00     0.261 C 
BRANCH   5   6
ATOM      6  O   UNL     1      -1.174  -0.258   0.723  1.00  0.00    -0.460 OA
BRANCH   6   7
ATOM      7  C   UNL     1       0.065  -0.806   0.816  1.00  0.00     0.341 C 
ATOM      8  O   UNL     1       1.041  -0.446   0.176  1.00  0.00    -0.246 OA
BRANCH   7   9
ATOM      9  C   UNL     1       0.184  -1.789   1.889  1.00  0.00     0.094 A 
ATOM     10  C   UNL     1      -0.821  -2.549   2.449  1.00  0.00     0.110 A 
ATOM     11  S   UNL     1      -0.363  -3.278   3.918  1.00  0.00    -0.126 S 
ATOM     12  C   UNL     1       1.269  -2.823   3.699  1.00  0.00     0.068 A 
ATOM     13  C   UNL     1       1.422  -2.018   2.593  1.00  0.00     0.029 A 
BRANCH  10  14
ATOM     14  N   UNL     1      -2.127  -2.792   2.110  1.00  0.00    -0.317 N 
ATOM     15  C   UNL     1      -2.605  -3.112   0.867  1.00  0.00     0.229 C 
ATOM     16  O   UNL     1      -3.817  -3.024   0.654  1.00  0.00    -0.274 OA
ATOM     17  H   UNL     1      -2.790  -2.731   2.835  1.00  0.00     0.170 HD
BRANCH  15  18
ATOM     18  C   UNL     1      -1.670  -3.777  -0.158  1.00  0.00     0.139 C 
BRANCH  18  19
ATOM     19  C   UNL     1      -1.003  -2.917  -1.191  1.00  0.00     0.002 A 
ATOM     20  C   UNL     1       1.286  -4.125  -0.767  1.00  0.00     0.067 C 
ATOM     21  C   UNL     1       0.479  -3.038  -1.450  1.00  0.00     0.049 A 
ATOM     22  N   UNL     1       1.163  -2.255  -2.220  1.00  0.00    -0.198 NA
ATOM     23  C   UNL     1       0.526  -1.241  -2.869  1.00  0.00     0.345 A 
ATOM     24  C   UNL     1      -1.606  -2.006  -1.980  1.00  0.00     0.022 A 
ATOM     25  O   UNL     1       1.105  -0.380  -3.523  1.00  0.00    -0.246 OA
ATOM     26  N   UNL     1      -0.840  -1.201  -2.786  1.00  0.00    -0.310 N 
ATOM     27  C   UNL     1      -3.084  -1.726  -2.005  1.00  0.00     0.065 C 
ATOM     28  H   UNL     1      -1.310  -0.544  -3.348  1.00  0.00     0.171 HD
ENDBRANCH  18  19
ENDBRANCH  15  18
ENDBRANCH  10  14
ENDBRANCH   7   9
ENDBRANCH   6   7
ENDBRANCH   5   6
ENDBRANCH   4   5
ENDBRANCH   3   4
ENDBRANCH   2   3
ENDBRANCH   1   2
BRANCH   1  29
ATOM     29  O   UNL     1      -0.685   2.577   3.528  1.00  0.00    -0.377 OA
BRANCH  29  30
ATOM     30  C   UNL     1      -1.690   3.246   2.786  1.00  0.00     0.188 C 
BRANCH  30  31
ATOM     31  C   UNL     1      -1.336   4.684   2.349  1.00  0.00     0.188 C 
BRANCH  31  32
ATOM     32  O   UNL     1      -0.421   5.502   3.072  1.00  0.00    -0.376 OA
BRANCH  32  33
ATOM     33  C   UNL     1       0.064   5.095   4.337  1.00  0.00     0.202 C 
BRANCH  33  34
ATOM     34  C   UNL     1      -0.920   5.160   5.514  1.00  0.00     0.261 C 
BRANCH  34  35
ATOM     35  O   UNL     1      -2.255   4.708   5.237  1.00  0.00    -0.460 OA
BRANCH  35  36
ATOM     36  C   UNL     1      -3.118   5.662   4.811  1.00  0.00     0.338 C 
ATOM     37  O   UNL     1      -2.909   6.858   4.709  1.00  0.00    -0.246 OA
BRANCH  36  38
ATOM     38  C   UNL     1      -4.368   5.026   4.331  1.00  0.00     0.060 A 
ATOM     39  C   UNL     1      -4.844   5.378   3.058  1.00  0.00     0.016 A 
ATOM     40  C   UNL     1      -5.095   4.145   5.134  1.00  0.00     0.016 A 
ATOM     41  C   UNL     1      -6.068   4.893   2.604  1.00  0.00     0.010 A 
ATOM     42  C   UNL     1      -6.348   3.695   4.699  1.00  0.00     0.010 A 
ATOM     43  C   UNL     1      -6.858   4.112   3.455  1.00  0.00    -0.014 A 
BRANCH  43  44
ATOM     44  C   UNL     1      -8.315   4.031   3.192  1.00  0.00     0.031 A 
ATOM     45  C   UNL     1      -9.180   5.120   3.772  1.00  0.00     0.074 A 
ATOM     46  C   UNL     1      -8.859   3.058   2.443  1.00  0.00     0.049 A 
ATOM     47  N   UNL     1     -10.480   5.262   3.743  1.00  0.00    -0.248 NA
ATOM     48  C   UNL     1      -8.474   6.201   4.483  1.00  0.00     0.031 C 
ATOM     49  C   UNL     1      -8.123   1.993   1.769  1.00  0.00     0.029 A 
ATOM     50  N   UNL     1     -10.174   2.812   2.131  1.00  0.00    -0.354 N 
ATOM     51  C   UNL     1     -10.743   6.435   4.440  1.00  0.00     0.074 A 
ATOM     52  C   UNL     1      -9.476   6.960   4.892  1.00  0.00     0.031 C 
ATOM     53  C   UNL     1      -9.000   1.196   1.131  1.00  0.00     0.029 A 
ATOM     54  C   UNL     1     -10.359   1.676   1.383  1.00  0.00     0.049 A 
ATOM     55  H   UNL     1     -10.913   3.396   2.416  1.00  0.00     0.167 HD
ATOM     56  C   UNL     1     -11.937   7.023   4.684  1.00  0.00     0.037 A 
ATOM     57  C   UNL     1     -11.500   1.087   0.976  1.00  0.00     0.037 A 
ATOM     58  C   UNL     1     -13.197   6.498   4.238  1.00  0.00     0.049 A 
ATOM     59  C   UNL     1     -12.826   1.712   1.340  1.00  0.00     0.074 A 
ATOM     60  C   UNL     1     -14.463   7.021   4.420  1.00  0.00     0.029 A 
ATOM     61  N   UNL     1     -13.346   5.317   3.526  1.00  0.00    -0.354 N 
ATOM     62  N   UNL     1     -13.069   2.826   1.987  1.00  0.00    -0.248 NA
ATOM     63  C   UNL     1     -14.036   0.990   0.919  1.00  0.00     0.031 C 
ATOM     64  C   UNL     1     -15.385   6.128   3.865  1.00  0.00     0.029 A 
ATOM     65  C   UNL     1     -14.688   5.077   3.289  1.00  0.00     0.049 A 
ATOM     66  H   UNL     1     -12.607   4.735   3.234  1.00  0.00     0.167 HD
ATOM     67  C   UNL     1     -14.453   2.956   2.022  1.00  0.00     0.074 A 
ATOM     68  C   UNL     1     -14.996   1.810   1.324  1.00  0.00     0.031 C 
ATOM     69  C   UNL     1     -15.207   3.936   2.579  1.00  0.00     0.037 A 
BRANCH  56  70
ATOM     70  C   UNL     1     -11.931   8.272   5.513  1.00  0.00     0.064 A 
ATOM     71  C   UNL     1     -11.444   9.491   5.017  1.00  0.00     0.173 A 
ATOM     72  C   UNL     1     -12.422   8.247   6.827  1.00  0.00     0.173 A 
ATOM     73  F   UNL     1     -10.942   9.561   3.775  1.00  0.00    -0.203 F 
ATOM     74  C   UNL     1     -11.427  10.632   5.814  1.00  0.00     0.198 A 
ATOM     75  C   UNL     1     -12.430   9.396   7.612  1.00  0.00     0.198 A 
ATOM     76  F   UNL     1     -12.895   7.106   7.351  1.00  0.00    -0.203 F 
ATOM     77  F   UNL     1     -10.910  11.773   5.338  1.00  0.00    -0.200 F 
ATOM     78  C   UNL     1     -11.925  10.586   7.108  1.00  0.00     0.200 A 
ATOM     79  F   UNL     1     -12.920   9.351   8.858  1.00  0.00    -0.200 F 
ATOM     80  F   UNL     1     -11.911  11.685   7.873  1.00  0.00    -0.200 F 
ENDBRANCH  56  70
BRANCH  57  81
ATOM     81  C   UNL     1     -11.453  -0.177   0.193  1.00  0.00     0.064 A 
ATOM     82  C   UNL     1     -11.867  -0.213  -1.147  1.00  0.00     0.173 A 
ATOM     83  C   UNL     1     -11.027  -1.380   0.775  1.00  0.00     0.173 A 
ATOM     84  F   UNL     1     -12.313   0.904  -1.739  1.00  0.00    -0.203 F 
ATOM     85  C   UNL     1     -11.870  -1.405  -1.868  1.00  0.00     0.198 A 
ATOM     86  C   UNL     1     -11.006  -2.567   0.045  1.00  0.00     0.198 A 
ATOM     87  F   UNL     1     -10.632  -1.403   2.056  1.00  0.00    -0.203 F 
ATOM     88  F   UNL     1     -12.316  -1.420  -3.132  1.00  0.00    -0.200 F 
ATOM     89  C   UNL     1     -11.434  -2.580  -1.274  1.00  0.00     0.200 A 
ATOM     90  F   UNL     1     -10.579  -3.699   0.621  1.00  0.00    -0.200 F 
ATOM     91  F   UNL     1     -11.438  -3.726  -1.968  1.00  0.00    -0.200 F 
ENDBRANCH  57  81
BRANCH  69  92
ATOM     92  C   UNL     1     -16.697   3.841   2.420  1.00  0.00     0.064 A 
ATOM     93  C   UNL     1     -17.455   2.897   3.127  1.00  0.00     0.173 A 
ATOM     94  C   UNL     1     -17.378   4.745   1.591  1.00  0.00     0.173 A 
ATOM     95  F   UNL     1     -16.850   2.002   3.922  1.00  0.00    -0.203 F 
ATOM     96  C   UNL     1     -18.840   2.847   2.991  1.00  0.00     0.198 A 
ATOM     97  C   UNL     1     -18.765   4.712   1.482  1.00  0.00     0.198 A 
ATOM     98  F   UNL     1     -16.700   5.674   0.901  1.00  0.00    -0.203 F 
ATOM     99  F   UNL     1     -19.542   1.908   3.641  1.00  0.00    -0.200 F 
ATOM    100  C   UNL     1     -19.494   3.759   2.176  1.00  0.00     0.200 A 
ATOM    101  F   UNL     1     -19.396   5.605   0.706  1.00  0.00    -0.200 F 
ATOM    102  F   UNL     1     -20.828   3.716   2.055  1.00  0.00    -0.200 F 
ENDBRANCH  69  92
ENDBRANCH  43  44
ENDBRANCH  36  38
ENDBRANCH  35  36
ENDBRANCH  34  35
ENDBRANCH  33  34
ENDBRANCH  32  33
ENDBRANCH  31  32
ENDBRANCH  30  31
ENDBRANCH  29  30
ENDBRANCH   1  29
TORSDOF 23
