REMARK SMILES CC[C@](C)(C(=O)OCCOCCOCCOCCOC(=O)c1ccc(-c2c3nc(c(-c4c(F)c(F)c(F)c(F)c4F)c4ccc([nH]4)c(-c4c(F)c(F)c(F)c(F)c4F)c4nc(c(-c5c(F)c(F)c(F)c(F)c5F)c5ccc2[nH]5)C=C4)C=C3)cc1)[C@@H]1CCC[C@@H]1O
REMARK SMILES IDX 13 1 12 2 11 3 10 4 9 5 8 6 7 7 5 8 6 9 3 10 4 11 2 12 1 13
REMARK SMILES IDX 85 14 86 15 89 16 87 17 88 18 90 19 14 21 15 22 16 23 17 24
REMARK SMILES IDX 18 25 19 26 20 27 21 28 22 29 23 30 84 31 24 32 83 33 25 34
REMARK SMILES IDX 26 35 27 36 77 37 28 38 82 39 76 40 78 41 29 42 81 43 75 44
REMARK SMILES IDX 74 45 30 47 62 48 42 49 61 50 43 51 46 52 60 53 79 54 44 55
REMARK SMILES IDX 45 56 59 58 80 59 47 60 31 61 32 62 40 63 33 64 34 65 38 66
REMARK SMILES IDX 41 67 35 68 36 69 39 70 37 71 63 72 64 73 72 74 65 75 66 76
REMARK SMILES IDX 70 77 73 78 67 79 68 80 71 81 69 82 48 83 49 84 57 85 50 86
REMARK SMILES IDX 51 87 55 88 58 89 52 90 53 91 56 92 54 93
REMARK H PARENT 90 20 78 46 46 57
REMARK Flexibility Score: inf
ROOT
ATOM      1  O   UNL     1       6.140   2.809  -3.504  1.00  0.00    -0.377 OA
ENDROOT
BRANCH   1   2
ATOM      2  C   UNL     1       5.734   1.855  -2.536  1.00  0.00     0.188 C 
BRANCH   2   3
ATOM      3  C   UNL     1       5.464   0.434  -3.036  1.00  0.00     0.188 C 
BRANCH   3   4
ATOM      4  O   UNL     1       5.783   0.280  -4.403  1.00  0.00    -0.376 OA
BRANCH   4   5
ATOM      5  C   UNL     1       4.755   0.425  -5.362  1.00  0.00     0.202 C 
BRANCH   5   6
ATOM      6  C   UNL     1       3.532   1.361  -5.230  1.00  0.00     0.261 C 
BRANCH   6   7
ATOM      7  O   UNL     1       3.370   2.160  -4.052  1.00  0.00    -0.463 OA
BRANCH   7   8
ATOM      8  C   UNL     1       2.336   1.853  -3.223  1.00  0.00     0.312 C 
ATOM      9  O   UNL     1       1.647   0.845  -3.356  1.00  0.00    -0.252 OA
BRANCH   8  10
ATOM     10  C   UNL     1       2.059   2.924  -2.133  1.00  0.00     0.070 C 
ATOM     11  C   UNL     1       2.947   4.187  -2.350  1.00  0.00     0.024 C 
BRANCH  10  12
ATOM     12  C   UNL     1       0.616   3.472  -2.480  1.00  0.00     0.015 C 
ATOM     13  C   UNL     1      -0.585   2.560  -2.234  1.00  0.00     0.005 C 
ENDBRANCH  10  12
BRANCH  10  14
ATOM     14  C   UNL     1       2.098   2.371  -0.637  1.00  0.00     0.035 C 
ATOM     15  C   UNL     1       2.727   3.276   0.453  1.00  0.00     0.007 C 
ATOM     16  C   UNL     1       2.609   0.964  -0.233  1.00  0.00     0.118 C 
ATOM     17  C   UNL     1       3.888   2.523   1.101  1.00  0.00     0.003 C 
ATOM     18  C   UNL     1       3.950   1.159   0.453  1.00  0.00     0.032 C 
BRANCH  16  19
ATOM     19  O   UNL     1       2.744  -0.010  -1.233  1.00  0.00    -0.393 OA
ATOM     20  H   UNL     1       3.431   0.263  -1.860  1.00  0.00     0.210 HD
ENDBRANCH  16  19
ENDBRANCH  10  14
ENDBRANCH   8  10
ENDBRANCH   7   8
ENDBRANCH   6   7
ENDBRANCH   5   6
ENDBRANCH   4   5
ENDBRANCH   3   4
ENDBRANCH   2   3
ENDBRANCH   1   2
BRANCH   1  21
ATOM     21  C   UNL     1       7.379   2.594  -4.174  1.00  0.00     0.188 C 
BRANCH  21  22
ATOM     22  C   UNL     1       8.396   1.566  -3.633  1.00  0.00     0.188 C 
BRANCH  22  23
ATOM     23  O   UNL     1       8.432   1.448  -2.217  1.00  0.00    -0.376 OA
BRANCH  23  24
ATOM     24  C   UNL     1       9.457   2.145  -1.524  1.00  0.00     0.202 C 
BRANCH  24  25
ATOM     25  C   UNL     1       9.290   3.668  -1.476  1.00  0.00     0.261 C 
BRANCH  25  26
ATOM     26  O   UNL     1       9.426   4.351  -2.734  1.00  0.00    -0.460 OA
BRANCH  26  27
ATOM     27  C   UNL     1      10.539   4.134  -3.465  1.00  0.00     0.338 C 
ATOM     28  O   UNL     1      11.523   3.487  -3.157  1.00  0.00    -0.246 OA
BRANCH  27  29
ATOM     29  C   UNL     1      10.288   4.669  -4.816  1.00  0.00     0.060 A 
ATOM     30  C   UNL     1      10.365   3.802  -5.913  1.00  0.00     0.016 A 
ATOM     31  C   UNL     1       9.967   6.016  -4.992  1.00  0.00     0.016 A 
ATOM     32  C   UNL     1      10.157   4.292  -7.202  1.00  0.00     0.010 A 
ATOM     33  C   UNL     1       9.783   6.512  -6.284  1.00  0.00     0.010 A 
ATOM     34  C   UNL     1       9.914   5.659  -7.393  1.00  0.00    -0.014 A 
BRANCH  34  35
ATOM     35  C   UNL     1      10.035   6.240  -8.749  1.00  0.00     0.031 A 
ATOM     36  C   UNL     1      11.372   6.795  -9.156  1.00  0.00     0.074 A 
ATOM     37  C   UNL     1       8.995   6.274  -9.599  1.00  0.00     0.049 A 
ATOM     38  N   UNL     1      11.722   7.402 -10.260  1.00  0.00    -0.248 NA
ATOM     39  C   UNL     1      12.462   6.645  -8.178  1.00  0.00     0.031 C 
ATOM     40  C   UNL     1       7.665   5.736  -9.333  1.00  0.00     0.029 A 
ATOM     41  N   UNL     1       8.902   6.801 -10.863  1.00  0.00    -0.354 N 
ATOM     42  C   UNL     1      13.068   7.707 -10.107  1.00  0.00     0.074 A 
ATOM     43  C   UNL     1      13.466   7.247  -8.795  1.00  0.00     0.031 C 
ATOM     44  C   UNL     1       6.879   5.974 -10.398  1.00  0.00     0.029 A 
ATOM     45  C   UNL     1       7.645   6.707 -11.406  1.00  0.00     0.049 A 
ATOM     46  H   UNL     1       9.664   7.208 -11.335  1.00  0.00     0.167 HD
ATOM     47  C   UNL     1      13.901   8.309 -10.987  1.00  0.00     0.037 A 
ATOM     48  C   UNL     1       7.170   7.181 -12.575  1.00  0.00     0.037 A 
ATOM     49  C   UNL     1      13.502   8.775 -12.287  1.00  0.00     0.049 A 
ATOM     50  C   UNL     1       8.100   7.919 -13.506  1.00  0.00     0.074 A 
ATOM     51  C   UNL     1      14.272   9.388 -13.258  1.00  0.00     0.029 A 
ATOM     52  N   UNL     1      12.213   8.687 -12.791  1.00  0.00    -0.354 N 
ATOM     53  N   UNL     1       9.378   8.178 -13.371  1.00  0.00    -0.248 NA
ATOM     54  C   UNL     1       7.517   8.431 -14.756  1.00  0.00     0.031 C 
ATOM     55  C   UNL     1      13.438   9.717 -14.332  1.00  0.00     0.029 A 
ATOM     56  C   UNL     1      12.160   9.258 -14.051  1.00  0.00     0.049 A 
ATOM     57  H   UNL     1      11.449   8.278 -12.323  1.00  0.00     0.167 HD
ATOM     58  C   UNL     1       9.759   8.851 -14.525  1.00  0.00     0.074 A 
ATOM     59  C   UNL     1       8.578   8.953 -15.356  1.00  0.00     0.031 C 
ATOM     60  C   UNL     1      10.976   9.340 -14.868  1.00  0.00     0.037 A 
BRANCH  47  61
ATOM     61  C   UNL     1      15.320   8.523 -10.553  1.00  0.00     0.064 A 
ATOM     62  C   UNL     1      16.223   7.456 -10.431  1.00  0.00     0.173 A 
ATOM     63  C   UNL     1      15.787   9.815 -10.269  1.00  0.00     0.173 A 
ATOM     64  F   UNL     1      15.818   6.199 -10.672  1.00  0.00    -0.203 F 
ATOM     65  C   UNL     1      17.534   7.671 -10.017  1.00  0.00     0.198 A 
ATOM     66  C   UNL     1      17.107  10.030  -9.882  1.00  0.00     0.198 A 
ATOM     67  F   UNL     1      14.964  10.869 -10.368  1.00  0.00    -0.203 F 
ATOM     68  F   UNL     1      18.365   6.632  -9.860  1.00  0.00    -0.200 F 
ATOM     69  C   UNL     1      17.977   8.958  -9.749  1.00  0.00     0.200 A 
ATOM     70  F   UNL     1      17.536  11.275  -9.632  1.00  0.00    -0.200 F 
ATOM     71  F   UNL     1      19.241   9.165  -9.355  1.00  0.00    -0.200 F 
ENDBRANCH  47  61
BRANCH  48  72
ATOM     72  C   UNL     1       5.740   6.987 -12.932  1.00  0.00     0.064 A 
ATOM     73  C   UNL     1       5.367   6.151 -13.994  1.00  0.00     0.173 A 
ATOM     74  C   UNL     1       4.721   7.656 -12.240  1.00  0.00     0.173 A 
ATOM     75  F   UNL     1       6.307   5.512 -14.705  1.00  0.00    -0.203 F 
ATOM     76  C   UNL     1       4.030   6.007 -14.361  1.00  0.00     0.198 A 
ATOM     77  C   UNL     1       3.382   7.490 -12.590  1.00  0.00     0.198 A 
ATOM     78  F   UNL     1       5.024   8.472 -11.220  1.00  0.00    -0.203 F 
ATOM     79  F   UNL     1       3.705   5.241 -15.411  1.00  0.00    -0.200 F 
ATOM     80  C   UNL     1       3.039   6.672 -13.655  1.00  0.00     0.200 A 
ATOM     81  F   UNL     1       2.427   8.127 -11.900  1.00  0.00    -0.200 F 
ATOM     82  F   UNL     1       1.754   6.533 -14.009  1.00  0.00    -0.200 F 
ENDBRANCH  48  72
BRANCH  60  83
ATOM     83  C   UNL     1      11.107   9.992 -16.215  1.00  0.00     0.064 A 
ATOM     84  C   UNL     1      10.554  11.253 -16.480  1.00  0.00     0.173 A 
ATOM     85  C   UNL     1      11.843   9.369 -17.235  1.00  0.00     0.173 A 
ATOM     86  F   UNL     1       9.832  11.885 -15.543  1.00  0.00    -0.203 F 
ATOM     87  C   UNL     1      10.713  11.855 -17.726  1.00  0.00     0.198 A 
ATOM     88  C   UNL     1      12.024   9.987 -18.468  1.00  0.00     0.198 A 
ATOM     89  F   UNL     1      12.400   8.166 -17.028  1.00  0.00    -0.203 F 
ATOM     90  F   UNL     1      10.138  13.041 -17.973  1.00  0.00    -0.200 F 
ATOM     91  C   UNL     1      11.454  11.226 -18.715  1.00  0.00     0.200 A 
ATOM     92  F   UNL     1      12.754   9.385 -19.418  1.00  0.00    -0.200 F 
ATOM     93  F   UNL     1      11.613  11.812 -19.910  1.00  0.00    -0.200 F 
ENDBRANCH  60  83
ENDBRANCH  34  35
ENDBRANCH  27  29
ENDBRANCH  26  27
ENDBRANCH  25  26
ENDBRANCH  24  25
ENDBRANCH  23  24
ENDBRANCH  22  23
ENDBRANCH  21  22
ENDBRANCH   1  21
TORSDOF 23
