REMARK SMILES CCn1ncc(NC(=O)[C@@H]2CCCC[C@@H]2C(=O)OCCOCCOCCOCCOC(=O)c2ccc(-c3c4nc(c(-c5c(F)c(F)c(F)c(F)c5F)c5ccc([nH]5)c(-c5c(F)c(F)c(F)c(F)c5F)c5nc(c(-c6c(F)c(F)c(F)c(F)c6F)c6ccc3[nH]6)C=C5)C=C4)cc2)c1C(=O)Nc1cnn(C)c1C
REMARK SMILES IDX 23 1 22 2 21 3 20 4 19 5 18 6 16 7 17 8 15 9 10 10 11 11
REMARK SMILES IDX 12 12 14 13 13 14 8 15 7 16 9 18 6 19 3 20 4 21 96 22 5 23
REMARK SMILES IDX 2 24 1 25 97 26 98 27 99 28 100 30 101 31 105 32 102 33
REMARK SMILES IDX 103 34 106 35 104 36 24 37 25 38 26 39 27 40 28 41 29 42
REMARK SMILES IDX 30 43 31 44 32 45 33 46 34 47 95 48 35 49 94 50 36 51 37 52
REMARK SMILES IDX 38 53 88 54 39 55 93 56 87 57 89 58 40 59 92 60 86 61 85 62
REMARK SMILES IDX 41 64 73 65 53 66 72 67 54 68 57 69 71 70 90 71 55 72 56 73
REMARK SMILES IDX 70 75 91 76 58 77 42 78 43 79 51 80 44 81 45 82 49 83 52 84
REMARK SMILES IDX 46 85 47 86 50 87 48 88 74 89 75 90 83 91 76 92 77 93 81 94
REMARK SMILES IDX 84 95 78 96 79 97 82 98 80 99 59 100 60 101 68 102 61 103
REMARK SMILES IDX 62 104 66 105 69 106 63 107 64 108 67 109 65 110
REMARK H PARENT 7 17 99 29 89 63 57 74
REMARK Flexibility Score: inf
ROOT
ATOM      1  C   UNL     1       4.191  -6.197   8.432  1.00  0.00     0.188 C 
ENDROOT
BRANCH   1   2
ATOM      2  C   UNL     1       5.204  -5.149   8.872  1.00  0.00     0.188 C 
BRANCH   2   3
ATOM      3  O   UNL     1       4.967  -4.622  10.178  1.00  0.00    -0.376 OA
BRANCH   3   4
ATOM      4  C   UNL     1       3.713  -3.976  10.403  1.00  0.00     0.202 C 
BRANCH   4   5
ATOM      5  C   UNL     1       3.474  -2.686   9.610  1.00  0.00     0.261 C 
BRANCH   5   6
ATOM      6  O   UNL     1       3.127  -2.910   8.227  1.00  0.00    -0.463 OA
BRANCH   6   7
ATOM      7  C   UNL     1       3.994  -2.438   7.297  1.00  0.00     0.309 C 
ATOM      8  O   UNL     1       5.112  -1.996   7.540  1.00  0.00    -0.252 OA
BRANCH   7   9
ATOM      9  C   UNL     1       3.453  -2.507   5.871  1.00  0.00     0.111 C 
ATOM     10  C   UNL     1       2.130  -1.785   5.650  1.00  0.00     0.093 C 
ATOM     11  C   UNL     1       0.924  -2.585   6.121  1.00  0.00     0.014 C 
ATOM     12  C   UNL     1       0.818  -3.868   5.306  1.00  0.00     0.001 C 
ATOM     13  C   UNL     1       3.453  -3.898   5.232  1.00  0.00     0.016 C 
ATOM     14  C   UNL     1       2.121  -4.654   5.163  1.00  0.00     0.001 C 
BRANCH  10  15
ATOM     15  C   UNL     1       2.179  -0.378   6.183  1.00  0.00     0.228 C 
ATOM     16  N   UNL     1       1.923   0.704   5.405  1.00  0.00    -0.322 N 
ATOM     17  H   UNL     1       2.146   1.549   5.858  1.00  0.00     0.170 HD
ATOM     18  O   UNL     1       2.398  -0.162   7.379  1.00  0.00    -0.274 OA
BRANCH  16  19
ATOM     19  C   UNL     1       1.423   0.910   4.127  1.00  0.00     0.092 A 
ATOM     20  N   UNL     1       0.464   0.928   2.157  1.00  0.00    -0.258 N 
ATOM     21  N   UNL     1       0.193   2.148   2.655  1.00  0.00    -0.178 NA
ATOM     22  C   UNL     1       1.359   0.195   2.924  1.00  0.00     0.150 A 
ATOM     23  C   UNL     1       0.783   2.139   3.838  1.00  0.00     0.162 A 
BRANCH  20  24
ATOM     24  C   UNL     1      -0.218   0.602   0.921  1.00  0.00     0.142 C 
ATOM     25  C   UNL     1       0.509   1.119  -0.304  1.00  0.00     0.029 C 
ENDBRANCH  20  24
BRANCH  22  26
ATOM     26  C   UNL     1       2.125  -0.960   2.462  1.00  0.00     0.276 C 
ATOM     27  O   UNL     1       3.342  -1.056   2.606  1.00  0.00    -0.267 OA
ATOM     28  N   UNL     1       1.385  -2.067   2.102  1.00  0.00    -0.318 N 
ATOM     29  H   UNL     1       1.034  -2.643   2.819  1.00  0.00     0.170 HD
BRANCH  28  30
ATOM     30  C   UNL     1       1.108  -2.413   0.795  1.00  0.00     0.082 A 
ATOM     31  C   UNL     1       1.659  -1.951  -0.412  1.00  0.00     0.161 A 
ATOM     32  C   UNL     1       0.087  -3.268   0.428  1.00  0.00     0.059 A 
ATOM     33  N   UNL     1       0.927  -2.324  -1.463  1.00  0.00    -0.179 NA
ATOM     34  N   UNL     1      -0.080  -3.034  -0.919  1.00  0.00    -0.271 N 
ATOM     35  C   UNL     1      -0.835  -4.113   1.227  1.00  0.00     0.068 C 
ATOM     36  C   UNL     1      -1.290  -3.216  -1.691  1.00  0.00     0.174 C 
ENDBRANCH  28  30
ENDBRANCH  22  26
ENDBRANCH  16  19
ENDBRANCH  10  15
ENDBRANCH   7   9
ENDBRANCH   6   7
ENDBRANCH   5   6
ENDBRANCH   4   5
ENDBRANCH   3   4
ENDBRANCH   2   3
ENDBRANCH   1   2
BRANCH   1  37
ATOM     37  O   UNL     1       2.916  -5.610   8.184  1.00  0.00    -0.377 OA
BRANCH  37  38
ATOM     38  C   UNL     1       1.741  -6.370   8.456  1.00  0.00     0.188 C 
BRANCH  38  39
ATOM     39  C   UNL     1       1.914  -7.721   9.139  1.00  0.00     0.188 C 
BRANCH  39  40
ATOM     40  O   UNL     1       2.756  -8.678   8.481  1.00  0.00    -0.376 OA
BRANCH  40  41
ATOM     41  C   UNL     1       2.818  -8.709   7.055  1.00  0.00     0.202 C 
BRANCH  41  42
ATOM     42  C   UNL     1       1.819  -9.648   6.418  1.00  0.00     0.261 C 
BRANCH  42  43
ATOM     43  O   UNL     1       0.518  -9.110   6.597  1.00  0.00    -0.460 OA
BRANCH  43  44
ATOM     44  C   UNL     1      -0.123  -9.555   7.690  1.00  0.00     0.338 C 
ATOM     45  O   UNL     1       0.306 -10.317   8.557  1.00  0.00    -0.246 OA
BRANCH  44  46
ATOM     46  C   UNL     1      -1.516  -9.127   7.615  1.00  0.00     0.060 A 
ATOM     47  C   UNL     1      -2.368  -9.734   8.536  1.00  0.00     0.016 A 
ATOM     48  C   UNL     1      -1.982  -8.530   6.432  1.00  0.00     0.016 A 
ATOM     49  C   UNL     1      -3.637 -10.032   8.117  1.00  0.00     0.010 A 
ATOM     50  C   UNL     1      -3.244  -8.853   6.004  1.00  0.00     0.010 A 
ATOM     51  C   UNL     1      -4.009  -9.685   6.814  1.00  0.00    -0.014 A 
BRANCH  51  52
ATOM     52  C   UNL     1      -5.268 -10.204   6.345  1.00  0.00     0.031 A 
ATOM     53  C   UNL     1      -6.431  -9.473   6.865  1.00  0.00     0.074 A 
ATOM     54  C   UNL     1      -5.363 -11.236   5.491  1.00  0.00     0.049 A 
ATOM     55  N   UNL     1      -7.357  -9.921   7.643  1.00  0.00    -0.248 NA
ATOM     56  C   UNL     1      -6.499  -8.033   6.585  1.00  0.00     0.031 C 
ATOM     57  C   UNL     1      -4.301 -11.845   4.689  1.00  0.00     0.029 A 
ATOM     58  N   UNL     1      -6.485 -11.893   5.092  1.00  0.00    -0.354 N 
ATOM     59  C   UNL     1      -8.229  -8.857   7.817  1.00  0.00     0.074 A 
ATOM     60  C   UNL     1      -7.582  -7.689   7.278  1.00  0.00     0.031 C 
ATOM     61  C   UNL     1      -4.867 -12.640   3.752  1.00  0.00     0.029 A 
ATOM     62  C   UNL     1      -6.306 -12.680   3.969  1.00  0.00     0.049 A 
ATOM     63  H   UNL     1      -7.348 -11.816   5.561  1.00  0.00     0.167 HD
ATOM     64  C   UNL     1      -9.522  -9.071   8.162  1.00  0.00     0.037 A 
ATOM     65  C   UNL     1      -7.288 -13.246   3.230  1.00  0.00     0.037 A 
ATOM     66  C   UNL     1      -9.703 -10.358   8.780  1.00  0.00     0.049 A 
ATOM     67  C   UNL     1      -8.518 -13.294   4.062  1.00  0.00     0.074 A 
ATOM     68  C   UNL     1      -9.201 -10.971   9.911  1.00  0.00     0.029 A 
ATOM     69  N   UNL     1     -10.272 -11.357   8.031  1.00  0.00    -0.354 N 
ATOM     70  N   UNL     1      -8.697 -14.092   5.077  1.00  0.00    -0.248 NA
ATOM     71  C   UNL     1      -9.461 -12.186   3.972  1.00  0.00     0.031 C 
ATOM     72  C   UNL     1      -9.132 -12.360   9.598  1.00  0.00     0.029 A 
ATOM     73  C   UNL     1      -9.602 -12.523   8.295  1.00  0.00     0.049 A 
ATOM     74  H   UNL     1     -11.030 -11.254   7.411  1.00  0.00     0.167 HD
ATOM     75  C   UNL     1      -9.481 -13.367   5.962  1.00  0.00     0.074 A 
ATOM     76  C   UNL     1     -10.038 -12.279   5.172  1.00  0.00     0.031 C 
ATOM     77  C   UNL     1      -9.368 -13.553   7.309  1.00  0.00     0.037 A 
BRANCH  64  78
ATOM     78  C   UNL     1     -10.659  -8.272   7.582  1.00  0.00     0.064 A 
ATOM     79  C   UNL     1     -11.951  -8.447   8.108  1.00  0.00     0.173 A 
ATOM     80  C   UNL     1     -10.586  -7.579   6.351  1.00  0.00     0.173 A 
ATOM     81  F   UNL     1     -12.135  -9.115   9.256  1.00  0.00    -0.203 F 
ATOM     82  C   UNL     1     -13.088  -8.028   7.414  1.00  0.00     0.198 A 
ATOM     83  C   UNL     1     -11.718  -7.109   5.694  1.00  0.00     0.198 A 
ATOM     84  F   UNL     1      -9.438  -7.430   5.678  1.00  0.00    -0.203 F 
ATOM     85  F   UNL     1     -14.303  -8.335   7.887  1.00  0.00    -0.200 F 
ATOM     86  C   UNL     1     -12.971  -7.364   6.207  1.00  0.00     0.200 A 
ATOM     87  F   UNL     1     -11.583  -6.484   4.515  1.00  0.00    -0.200 F 
ATOM     88  F   UNL     1     -14.061  -7.017   5.511  1.00  0.00    -0.200 F 
ENDBRANCH  64  78
BRANCH  65  89
ATOM     89  C   UNL     1      -7.302 -13.539   1.780  1.00  0.00     0.064 A 
ATOM     90  C   UNL     1      -8.262 -14.404   1.231  1.00  0.00     0.173 A 
ATOM     91  C   UNL     1      -6.542 -12.785   0.865  1.00  0.00     0.173 A 
ATOM     92  F   UNL     1      -9.062 -15.122   2.032  1.00  0.00    -0.203 F 
ATOM     93  C   UNL     1      -8.465 -14.492  -0.149  1.00  0.00     0.198 A 
ATOM     94  C   UNL     1      -6.732 -12.887  -0.513  1.00  0.00     0.198 A 
ATOM     95  F   UNL     1      -5.665 -11.863   1.287  1.00  0.00    -0.203 F 
ATOM     96  F   UNL     1      -9.438 -15.277  -0.631  1.00  0.00    -0.200 F 
ATOM     97  C   UNL     1      -7.704 -13.729  -1.019  1.00  0.00     0.200 A 
ATOM     98  F   UNL     1      -6.012 -12.117  -1.341  1.00  0.00    -0.200 F 
ATOM     99  F   UNL     1      -7.934 -13.773  -2.338  1.00  0.00    -0.200 F 
ENDBRANCH  65  89
BRANCH  77 100
ATOM    100  C   UNL     1      -8.715 -14.820   7.779  1.00  0.00     0.064 A 
ATOM    101  C   UNL     1      -7.381 -15.168   7.506  1.00  0.00     0.173 A 
ATOM    102  C   UNL     1      -9.447 -15.668   8.622  1.00  0.00     0.173 A 
ATOM    103  F   UNL     1      -6.586 -14.354   6.798  1.00  0.00    -0.203 F 
ATOM    104  C   UNL     1      -6.832 -16.349   8.003  1.00  0.00     0.198 A 
ATOM    105  C   UNL     1      -8.882 -16.825   9.150  1.00  0.00     0.198 A 
ATOM    106  F   UNL     1     -10.707 -15.354   8.963  1.00  0.00    -0.203 F 
ATOM    107  F   UNL     1      -5.566 -16.678   7.704  1.00  0.00    -0.200 F 
ATOM    108  C   UNL     1      -7.581 -17.173   8.827  1.00  0.00     0.200 A 
ATOM    109  F   UNL     1      -9.594 -17.593   9.987  1.00  0.00    -0.200 F 
ATOM    110  F   UNL     1      -7.042 -18.293   9.330  1.00  0.00    -0.200 F 
ENDBRANCH  77 100
ENDBRANCH  51  52
ENDBRANCH  44  46
ENDBRANCH  43  44
ENDBRANCH  42  43
ENDBRANCH  41  42
ENDBRANCH  40  41
ENDBRANCH  39  40
ENDBRANCH  38  39
ENDBRANCH  37  38
ENDBRANCH   1  37
TORSDOF 25
