REMARK SMILES Cc1ccc(-c2cnnc(-n3nc(C)c4c3NC(=O)C[C@@H]4c3ccc(C(=O)OCCOCCOCCOCCOC(=O)c4ccc(-c5c6nc(c(-c7c(F)c(F)c(F)c(F)c7F)c7ccc([nH]7)c(-c7c(F)c(F)c(F)c(F)c7F)c7nc(c(-c8c(F)c(F)c(F)c(F)c8F)c8ccc5[nH]8)C=C7)C=C6)cc4)cc3)n2)cc1
REMARK SMILES IDX 33 1 32 2 31 3 30 4 29 5 28 6 26 7 27 8 25 9 22 10 23 11
REMARK SMILES IDX 107 12 24 13 106 14 21 15 11 16 12 17 16 18 13 19 15 20
REMARK SMILES IDX 17 21 14 22 18 23 20 25 19 26 10 27 6 28 7 29 108 30 8 31
REMARK SMILES IDX 9 32 5 33 1 34 2 35 3 36 110 37 4 38 109 39 34 40 35 41
REMARK SMILES IDX 36 42 37 43 38 44 39 45 40 46 41 47 42 48 43 49 44 50 105 51
REMARK SMILES IDX 45 52 104 53 46 54 47 55 48 56 98 57 49 58 103 59 97 60
REMARK SMILES IDX 99 61 50 62 102 63 96 64 95 65 51 67 83 68 63 69 82 70 64 71
REMARK SMILES IDX 67 72 81 73 100 74 65 75 66 76 80 78 101 79 68 80 52 81
REMARK SMILES IDX 53 82 61 83 54 84 55 85 59 86 62 87 56 88 57 89 60 90 58 91
REMARK SMILES IDX 84 92 85 93 93 94 86 95 87 96 91 97 94 98 88 99 89 100
REMARK SMILES IDX 92 101 90 102 69 103 70 104 78 105 71 106 72 107 76 108
REMARK SMILES IDX 79 109 73 110 74 111 77 112 75 113
REMARK H PARENT 17 24 99 66 67 77
REMARK Flexibility Score: inf
ROOT
ATOM      1  C   UNL     1      -8.287   7.486  -7.257  1.00  0.00     0.188 C 
ENDROOT
BRANCH   1   2
ATOM      2  C   UNL     1      -9.564   7.730  -8.165  1.00  0.00     0.188 C 
BRANCH   2   3
ATOM      3  O   UNL     1     -11.021   7.921  -7.639  1.00  0.00    -0.376 OA
BRANCH   3   4
ATOM      4  C   UNL     1     -12.445   7.196  -8.025  1.00  0.00     0.202 C 
BRANCH   4   5
ATOM      5  C   UNL     1     -13.095   5.628  -8.741  1.00  0.00     0.261 C 
BRANCH   5   6
ATOM      6  O   UNL     1     -12.305   4.090  -9.364  1.00  0.00    -0.460 OA
BRANCH   6   7
ATOM      7  C   UNL     1     -10.991   3.392  -9.939  1.00  0.00     0.338 C 
ATOM      8  O   UNL     1     -10.989   2.982 -11.108  1.00  0.00    -0.246 OA
BRANCH   7   9
ATOM      9  C   UNL     1      -9.628   2.880  -9.132  1.00  0.00     0.060 A 
ATOM     10  C   UNL     1      -7.742   1.718  -7.202  1.00  0.00    -0.040 A 
ATOM     11  C   UNL     1      -8.388   0.959  -8.214  1.00  0.00     0.005 A 
ATOM     12  C   UNL     1      -7.895   3.086  -7.314  1.00  0.00     0.005 A 
ATOM     13  C   UNL     1      -9.331   1.517  -9.134  1.00  0.00     0.016 A 
ATOM     14  C   UNL     1      -8.725   3.638  -8.330  1.00  0.00     0.016 A 
BRANCH  10  15
ATOM     15  C   UNL     1      -6.850   1.028  -6.174  1.00  0.00     0.064 C 
ATOM     16  N   UNL     1      -5.875   1.988  -2.804  1.00  0.00    -0.180 N 
ATOM     17  N   UNL     1      -7.172   2.366  -2.656  1.00  0.00    -0.168 NA
ATOM     18  C   UNL     1      -5.588   1.962  -4.160  1.00  0.00     0.143 A 
ATOM     19  C   UNL     1      -7.743   2.098  -3.837  1.00  0.00     0.066 A 
ATOM     20  C   UNL     1      -6.789   1.670  -4.801  1.00  0.00     0.026 A 
ATOM     21  N   UNL     1      -4.434   2.167  -4.888  1.00  0.00    -0.310 N 
ATOM     22  C   UNL     1      -9.195   2.348  -3.942  1.00  0.00     0.069 C 
ATOM     23  C   UNL     1      -4.487   1.889  -6.291  1.00  0.00     0.226 C 
ATOM     24  H   UNL     1      -3.609   2.492  -4.461  1.00  0.00     0.171 HD
ATOM     25  C   UNL     1      -5.429   0.784  -6.702  1.00  0.00     0.113 C 
ATOM     26  O   UNL     1      -3.694   2.465  -7.014  1.00  0.00    -0.275 OA
BRANCH  16  27
ATOM     27  C   UNL     1      -5.159   1.386  -1.712  1.00  0.00     0.272 A 
ATOM     28  C   UNL     1      -3.329   0.394  -0.739  1.00  0.00     0.095 A 
ATOM     29  C   UNL     1      -4.149  -0.143   0.240  1.00  0.00     0.164 A 
ATOM     30  N   UNL     1      -3.826   1.137  -1.779  1.00  0.00    -0.208 NA
ATOM     31  N   UNL     1      -5.460   0.120   0.257  1.00  0.00    -0.153 NA
ATOM     32  N   UNL     1      -5.957   0.929  -0.708  1.00  0.00    -0.109 NA
BRANCH  28  33
ATOM     33  C   UNL     1      -1.868   0.266  -0.605  1.00  0.00     0.002 A 
ATOM     34  C   UNL     1       2.409  -0.035   0.080  1.00  0.00     0.044 C 
ATOM     35  C   UNL     1       0.927   0.075  -0.132  1.00  0.00    -0.051 A 
ATOM     36  C   UNL     1       0.141  -1.078  -0.222  1.00  0.00     0.004 A 
ATOM     37  C   UNL     1       0.309   1.322  -0.259  1.00  0.00     0.004 A 
ATOM     38  C   UNL     1      -1.238  -0.984  -0.452  1.00  0.00     0.011 A 
ATOM     39  C   UNL     1      -1.068   1.414  -0.496  1.00  0.00     0.011 A 
ENDBRANCH  28  33
ENDBRANCH  16  27
ENDBRANCH  10  15
ENDBRANCH   7   9
ENDBRANCH   6   7
ENDBRANCH   5   6
ENDBRANCH   4   5
ENDBRANCH   3   4
ENDBRANCH   2   3
ENDBRANCH   1   2
BRANCH   1  40
ATOM     40  O   UNL     1      -7.757   8.520  -6.449  1.00  0.00    -0.377 OA
BRANCH  40  41
ATOM     41  C   UNL     1      -8.455   9.742  -6.556  1.00  0.00     0.188 C 
BRANCH  41  42
ATOM     42  C   UNL     1      -8.107  10.555  -7.809  1.00  0.00     0.188 C 
BRANCH  42  43
ATOM     43  O   UNL     1      -7.909   9.715  -8.935  1.00  0.00    -0.376 OA
BRANCH  43  44
ATOM     44  C   UNL     1      -6.737   9.836  -9.706  1.00  0.00     0.202 C 
BRANCH  44  45
ATOM     45  C   UNL     1      -6.747  11.129 -10.518  1.00  0.00     0.261 C 
BRANCH  45  46
ATOM     46  O   UNL     1      -7.799  11.091 -11.511  1.00  0.00    -0.460 OA
BRANCH  46  47
ATOM     47  C   UNL     1      -9.068  11.312 -11.039  1.00  0.00     0.338 C 
ATOM     48  O   UNL     1      -9.415  12.251 -10.381  1.00  0.00    -0.246 OA
BRANCH  47  49
ATOM     49  C   UNL     1      -9.869  10.050 -11.241  1.00  0.00     0.060 A 
ATOM     50  C   UNL     1     -11.108   9.916 -10.629  1.00  0.00     0.016 A 
ATOM     51  C   UNL     1      -9.259   8.901 -11.752  1.00  0.00     0.016 A 
ATOM     52  C   UNL     1     -11.598   8.622 -10.363  1.00  0.00     0.010 A 
ATOM     53  C   UNL     1      -9.646   7.635 -11.292  1.00  0.00     0.010 A 
ATOM     54  C   UNL     1     -10.757   7.478 -10.449  1.00  0.00    -0.014 A 
BRANCH  54  55
ATOM     55  C   UNL     1     -11.017   6.003  -9.767  1.00  0.00     0.031 A 
ATOM     56  C   UNL     1     -11.980   5.489 -11.190  1.00  0.00     0.074 A 
ATOM     57  C   UNL     1     -10.856   5.371  -8.221  1.00  0.00     0.049 A 
ATOM     58  N   UNL     1     -13.204   5.002 -11.167  1.00  0.00    -0.248 NA
ATOM     59  C   UNL     1     -11.666   5.779 -12.610  1.00  0.00     0.031 C 
ATOM     60  C   UNL     1     -11.250   3.936  -7.462  1.00  0.00     0.029 A 
ATOM     61  N   UNL     1     -10.602   5.910  -6.823  1.00  0.00    -0.354 N 
ATOM     62  C   UNL     1     -13.434   4.350 -12.332  1.00  0.00     0.074 A 
ATOM     63  C   UNL     1     -12.657   5.137 -13.255  1.00  0.00     0.031 C 
ATOM     64  C   UNL     1     -11.249   3.909  -6.133  1.00  0.00     0.029 A 
ATOM     65  C   UNL     1     -11.272   5.256  -5.757  1.00  0.00     0.049 A 
ATOM     66  H   UNL     1     -10.003   6.675  -6.665  1.00  0.00     0.167 HD
ATOM     67  C   UNL     1     -13.958   3.077 -12.318  1.00  0.00     0.037 A 
ATOM     68  C   UNL     1     -12.291   5.740  -4.972  1.00  0.00     0.037 A 
ATOM     69  C   UNL     1     -14.197   2.532 -10.925  1.00  0.00     0.049 A 
ATOM     70  C   UNL     1     -13.609   4.941  -5.257  1.00  0.00     0.074 A 
ATOM     71  C   UNL     1     -13.555   1.523 -10.209  1.00  0.00     0.029 A 
ATOM     72  N   UNL     1     -14.985   3.188  -9.951  1.00  0.00    -0.354 N 
ATOM     73  N   UNL     1     -13.818   4.244  -6.355  1.00  0.00    -0.248 NA
ATOM     74  C   UNL     1     -14.737   4.806  -4.345  1.00  0.00     0.031 C 
ATOM     75  C   UNL     1     -13.893   1.615  -8.827  1.00  0.00     0.029 A 
ATOM     76  C   UNL     1     -14.787   2.661  -8.653  1.00  0.00     0.049 A 
ATOM     77  H   UNL     1     -15.601   3.929 -10.153  1.00  0.00     0.167 HD
ATOM     78  C   UNL     1     -15.066   3.674  -6.383  1.00  0.00     0.074 A 
ATOM     79  C   UNL     1     -15.558   3.991  -5.043  1.00  0.00     0.031 C 
ATOM     80  C   UNL     1     -15.618   3.031  -7.480  1.00  0.00     0.037 A 
BRANCH  67  81
ATOM     81  C   UNL     1     -13.795   2.195 -13.571  1.00  0.00     0.064 A 
ATOM     82  C   UNL     1     -13.682   0.789 -13.508  1.00  0.00     0.173 A 
ATOM     83  C   UNL     1     -13.691   2.708 -14.884  1.00  0.00     0.173 A 
ATOM     84  F   UNL     1     -13.948   0.111 -12.387  1.00  0.00    -0.203 F 
ATOM     85  C   UNL     1     -13.328   0.003 -14.616  1.00  0.00     0.198 A 
ATOM     86  C   UNL     1     -13.284   1.937 -15.982  1.00  0.00     0.198 A 
ATOM     87  F   UNL     1     -14.060   3.964 -15.168  1.00  0.00    -0.203 F 
ATOM     88  F   UNL     1     -13.227  -1.327 -14.482  1.00  0.00    -0.200 F 
ATOM     89  C   UNL     1     -13.086   0.582 -15.843  1.00  0.00     0.200 A 
ATOM     90  F   UNL     1     -13.102   2.519 -17.176  1.00  0.00    -0.200 F 
ATOM     91  F   UNL     1     -12.720  -0.166 -16.894  1.00  0.00    -0.200 F 
ENDBRANCH  67  81
BRANCH  68  92
ATOM     92  C   UNL     1     -12.155   7.173  -4.528  1.00  0.00     0.064 A 
ATOM     93  C   UNL     1     -10.943   7.550  -3.905  1.00  0.00     0.173 A 
ATOM     94  C   UNL     1     -12.993   8.224  -4.930  1.00  0.00     0.173 A 
ATOM     95  F   UNL     1     -10.114   6.604  -3.436  1.00  0.00    -0.203 F 
ATOM     96  C   UNL     1     -10.523   8.880  -3.840  1.00  0.00     0.198 A 
ATOM     97  C   UNL     1     -12.553   9.557  -4.904  1.00  0.00     0.198 A 
ATOM     98  F   UNL     1     -14.184   7.962  -5.489  1.00  0.00    -0.203 F 
ATOM     99  F   UNL     1      -9.315   9.178  -3.340  1.00  0.00    -0.200 F 
ATOM    100  C   UNL     1     -11.309   9.879  -4.384  1.00  0.00     0.200 A 
ATOM    101  F   UNL     1     -13.299  10.520  -5.466  1.00  0.00    -0.200 F 
ATOM    102  F   UNL     1     -10.840  11.134  -4.464  1.00  0.00    -0.200 F 
ENDBRANCH  68  92
BRANCH  80 103
ATOM    103  C   UNL     1     -17.054   2.531  -7.523  1.00  0.00     0.064 A 
ATOM    104  C   UNL     1     -18.117   3.157  -6.857  1.00  0.00     0.173 A 
ATOM    105  C   UNL     1     -17.422   1.448  -8.365  1.00  0.00     0.173 A 
ATOM    106  F   UNL     1     -17.930   4.278  -6.149  1.00  0.00    -0.203 F 
ATOM    107  C   UNL     1     -19.427   2.681  -6.947  1.00  0.00     0.198 A 
ATOM    108  C   UNL     1     -18.741   1.029  -8.517  1.00  0.00     0.198 A 
ATOM    109  F   UNL     1     -16.519   0.766  -9.082  1.00  0.00    -0.203 F 
ATOM    110  F   UNL     1     -20.392   3.271  -6.228  1.00  0.00    -0.200 F 
ATOM    111  C   UNL     1     -19.742   1.629  -7.785  1.00  0.00     0.200 A 
ATOM    112  F   UNL     1     -19.033   0.050  -9.384  1.00  0.00    -0.200 F 
ATOM    113  F   UNL     1     -21.007   1.208  -7.903  1.00  0.00    -0.200 F 
ENDBRANCH  80 103
ENDBRANCH  54  55
ENDBRANCH  47  49
ENDBRANCH  46  47
ENDBRANCH  45  46
ENDBRANCH  44  45
ENDBRANCH  43  44
ENDBRANCH  42  43
ENDBRANCH  41  42
ENDBRANCH  40  41
ENDBRANCH   1  40
TORSDOF 23
