REMARK SMILES COC(=O)[C@H]1CC[C@]2(C)[C@H]3CC=C4[C@@H]5CC(C)(C)CC[C@@]5(C(=O)OCCOCCOCCOCCOC(=O)c5ccc(-c6c7nc(c(-c8c(F)c(F)c(F)c(F)c8F)c8ccc([nH]8)c(-c8c(F)c(F)c(F)c(F)c8F)c8nc(c(-c9c(F)c(F)c(F)c(F)c9F)c9ccc6[nH]9)C=C8)C=C7)cc5)CC[C@@]4(C)[C@@]3(C)CC[C@H]2C1(C)C
REMARK SMILES IDX 30 1 29 2 28 3 27 4 26 5 25 6 24 7 22 8 23 9 21 10 5 11 6 12
REMARK SMILES IDX 111 13 7 14 110 15 112 16 113 17 8 18 109 19 9 20 10 21
REMARK SMILES IDX 108 22 11 23 106 24 12 25 104 26 107 27 13 28 103 29 105 30
REMARK SMILES IDX 14 31 102 32 15 33 16 34 20 35 17 36 18 37 19 38 3 39 4 40
REMARK SMILES IDX 2 41 1 42 31 43 32 44 33 45 34 46 35 47 36 48 37 49 38 50
REMARK SMILES IDX 39 51 40 52 101 53 41 54 100 55 42 56 43 57 44 58 94 59
REMARK SMILES IDX 45 60 99 61 93 62 95 63 46 64 98 65 92 66 91 67 47 69 79 70
REMARK SMILES IDX 59 71 78 72 60 73 63 74 77 75 96 76 61 77 62 78 76 80 97 81
REMARK SMILES IDX 64 82 48 83 49 84 57 85 50 86 51 87 55 88 58 89 52 90 53 91
REMARK SMILES IDX 56 92 54 93 80 94 81 95 89 96 82 97 83 98 87 99 90 100
REMARK SMILES IDX 84 101 85 102 88 103 86 104 65 105 66 106 74 107 67 108
REMARK SMILES IDX 68 109 72 110 75 111 69 112 70 113 73 114 71 115
REMARK H PARENT 95 68 63 79
REMARK Flexibility Score: inf
ROOT
ATOM      1  O   UNL     1      -5.935  -9.476  -6.828  1.00  0.00    -0.377 OA
ENDROOT
BRANCH   1   2
ATOM      2  C   UNL     1      -4.670  -9.079  -7.349  1.00  0.00     0.188 C 
BRANCH   2   3
ATOM      3  C   UNL     1      -3.360  -9.675  -6.774  1.00  0.00     0.188 C 
BRANCH   3   4
ATOM      4  O   UNL     1      -3.508 -10.387  -5.562  1.00  0.00    -0.376 OA
BRANCH   4   5
ATOM      5  C   UNL     1      -3.438  -9.587  -4.403  1.00  0.00     0.202 C 
BRANCH   5   6
ATOM      6  C   UNL     1      -4.425  -8.434  -4.286  1.00  0.00     0.261 C 
BRANCH   6   7
ATOM      7  O   UNL     1      -4.380  -7.222  -5.111  1.00  0.00    -0.463 OA
BRANCH   7   8
ATOM      8  C   UNL     1      -3.353  -6.620  -5.764  1.00  0.00     0.312 C 
ATOM      9  O   UNL     1      -3.027  -6.867  -6.923  1.00  0.00    -0.252 OA
BRANCH   8  10
ATOM     10  C   UNL     1      -2.850  -5.352  -5.121  1.00  0.00     0.075 C 
ATOM     11  C   UNL     1       0.740  -3.073   1.165  1.00  0.00     0.105 C 
ATOM     12  C   UNL     1       1.787  -4.270   1.257  1.00  0.00     0.016 C 
ATOM     13  C   UNL     1      -0.283  -3.066  -0.051  1.00  0.00    -0.019 C 
ATOM     14  C   UNL     1       1.947  -5.287   0.105  1.00  0.00     0.008 C 
ATOM     15  C   UNL     1       0.409  -3.953  -1.133  1.00  0.00     0.002 C 
ATOM     16  C   UNL     1      -1.757  -3.478   0.219  1.00  0.00     0.012 C 
ATOM     17  C   UNL     1      -0.430  -1.599  -0.554  1.00  0.00     0.012 C 
ATOM     18  C   UNL     1       0.627  -5.457  -0.692  1.00  0.00    -0.026 C 
ATOM     19  C   UNL     1       0.108  -3.664  -2.583  1.00  0.00     0.005 C 
ATOM     20  C   UNL     1      -0.350  -6.025   0.382  1.00  0.00     0.012 C 
ATOM     21  C   UNL     1       0.841  -6.558  -1.850  1.00  0.00     0.006 C 
ATOM     22  C   UNL     1       1.006  -4.485  -3.480  1.00  0.00     0.008 C 
ATOM     23  C   UNL     1      -0.158  -7.785  -1.745  1.00  0.00     0.032 C 
ATOM     24  C   UNL     1       0.945  -6.031  -3.369  1.00  0.00    -0.020 C 
ATOM     25  C   UNL     1      -1.502  -7.394  -2.288  1.00  0.00    -0.027 C 
ATOM     26  C   UNL     1      -0.230  -6.658  -4.278  1.00  0.00    -0.006 C 
ATOM     27  C   UNL     1       2.339  -6.490  -3.912  1.00  0.00     0.012 C 
ATOM     28  C   UNL     1      -1.528  -6.641  -3.401  1.00  0.00    -0.063 C 
ATOM     29  C   UNL     1      -0.418  -5.986  -5.670  1.00  0.00     0.013 C 
ATOM     30  C   UNL     1       0.159  -8.123  -4.747  1.00  0.00     0.017 C 
ATOM     31  C   UNL     1      -2.636  -5.594  -3.643  1.00  0.00     0.033 C 
ATOM     32  C   UNL     1      -1.502  -4.934  -5.775  1.00  0.00     0.020 C 
ATOM     33  C   UNL     1      -3.916  -5.521  -2.757  1.00  0.00     0.015 C 
ATOM     34  C   UNL     1      -4.968  -4.444  -3.157  1.00  0.00    -0.035 C 
ATOM     35  C   UNL     1      -3.800  -4.179  -5.410  1.00  0.00     0.020 C 
ATOM     36  C   UNL     1      -6.356  -4.860  -2.623  1.00  0.00     0.011 C 
ATOM     37  C   UNL     1      -4.584  -3.102  -2.508  1.00  0.00     0.011 C 
ATOM     38  C   UNL     1      -5.121  -4.276  -4.680  1.00  0.00     0.007 C 
BRANCH  11  39
ATOM     39  C   UNL     1       0.138  -2.875   2.556  1.00  0.00     0.309 C 
ATOM     40  O   UNL     1      -1.042  -2.735   2.834  1.00  0.00    -0.252 OA
BRANCH  39  41
ATOM     41  O   UNL     1       1.148  -2.909   3.476  1.00  0.00    -0.469 OA
ATOM     42  C   UNL     1       0.738  -3.186   4.812  1.00  0.00     0.282 C 
ENDBRANCH  39  41
ENDBRANCH  11  39
ENDBRANCH   8  10
ENDBRANCH   7   8
ENDBRANCH   6   7
ENDBRANCH   5   6
ENDBRANCH   4   5
ENDBRANCH   3   4
ENDBRANCH   2   3
ENDBRANCH   1   2
BRANCH   1  43
ATOM     43  C   UNL     1      -6.098 -10.827  -6.453  1.00  0.00     0.188 C 
BRANCH  43  44
ATOM     44  C   UNL     1      -5.768 -11.892  -7.506  1.00  0.00     0.188 C 
BRANCH  44  45
ATOM     45  O   UNL     1      -4.756 -11.511  -8.428  1.00  0.00    -0.376 OA
BRANCH  45  46
ATOM     46  C   UNL     1      -5.135 -11.413  -9.799  1.00  0.00     0.202 C 
BRANCH  46  47
ATOM     47  C   UNL     1      -5.983 -10.202 -10.256  1.00  0.00     0.261 C 
BRANCH  47  48
ATOM     48  O   UNL     1      -7.084  -9.850  -9.409  1.00  0.00    -0.460 OA
BRANCH  48  49
ATOM     49  C   UNL     1      -8.139 -10.689  -9.422  1.00  0.00     0.338 C 
ATOM     50  O   UNL     1      -8.282 -11.670 -10.124  1.00  0.00    -0.246 OA
BRANCH  49  51
ATOM     51  C   UNL     1      -9.007 -10.363  -8.268  1.00  0.00     0.060 A 
ATOM     52  C   UNL     1      -9.286 -11.396  -7.364  1.00  0.00     0.016 A 
ATOM     53  C   UNL     1      -9.530  -9.083  -8.062  1.00  0.00     0.016 A 
ATOM     54  C   UNL     1     -10.075 -11.154  -6.244  1.00  0.00     0.010 A 
ATOM     55  C   UNL     1     -10.401  -8.861  -6.987  1.00  0.00     0.010 A 
ATOM     56  C   UNL     1     -10.704  -9.909  -6.100  1.00  0.00    -0.014 A 
BRANCH  56  57
ATOM     57  C   UNL     1     -11.942  -9.878  -5.285  1.00  0.00     0.031 A 
ATOM     58  C   UNL     1     -13.165 -10.494  -5.917  1.00  0.00     0.074 A 
ATOM     59  C   UNL     1     -11.986  -9.394  -4.032  1.00  0.00     0.049 A 
ATOM     60  N   UNL     1     -14.357 -10.689  -5.418  1.00  0.00    -0.248 NA
ATOM     61  C   UNL     1     -13.011 -10.983  -7.301  1.00  0.00     0.031 C 
ATOM     62  C   UNL     1     -10.864  -8.817  -3.298  1.00  0.00     0.029 A 
ATOM     63  N   UNL     1     -13.040  -9.316  -3.155  1.00  0.00    -0.354 N 
ATOM     64  C   UNL     1     -15.072 -11.344  -6.412  1.00  0.00     0.074 A 
ATOM     65  C   UNL     1     -14.197 -11.511  -7.545  1.00  0.00     0.031 C 
ATOM     66  C   UNL     1     -11.296  -8.419  -2.085  1.00  0.00     0.029 A 
ATOM     67  C   UNL     1     -12.727  -8.700  -1.968  1.00  0.00     0.049 A 
ATOM     68  H   UNL     1     -13.936  -9.669  -3.357  1.00  0.00     0.167 HD
ATOM     69  C   UNL     1     -16.355 -11.764  -6.390  1.00  0.00     0.037 A 
ATOM     70  C   UNL     1     -13.522  -8.386  -0.924  1.00  0.00     0.037 A 
ATOM     71  C   UNL     1     -17.249 -11.546  -5.292  1.00  0.00     0.049 A 
ATOM     72  C   UNL     1     -14.983  -8.773  -0.970  1.00  0.00     0.074 A 
ATOM     73  C   UNL     1     -18.577 -11.910  -5.176  1.00  0.00     0.029 A 
ATOM     74  N   UNL     1     -16.906 -10.874  -4.130  1.00  0.00    -0.354 N 
ATOM     75  N   UNL     1     -15.639  -9.439  -1.891  1.00  0.00    -0.248 NA
ATOM     76  C   UNL     1     -15.816  -8.365   0.172  1.00  0.00     0.031 C 
ATOM     77  C   UNL     1     -19.055 -11.410  -3.962  1.00  0.00     0.029 A 
ATOM     78  C   UNL     1     -18.008 -10.786  -3.300  1.00  0.00     0.049 A 
ATOM     79  H   UNL     1     -16.013 -10.515  -3.925  1.00  0.00     0.167 HD
ATOM     80  C   UNL     1     -16.944  -9.557  -1.425  1.00  0.00     0.074 A 
ATOM     81  C   UNL     1     -16.986  -8.905  -0.134  1.00  0.00     0.031 C 
ATOM     82  C   UNL     1     -18.014 -10.150  -2.010  1.00  0.00     0.037 A 
BRANCH  69  83
ATOM     83  C   UNL     1     -16.874 -12.449  -7.615  1.00  0.00     0.064 A 
ATOM     84  C   UNL     1     -16.514 -13.768  -7.926  1.00  0.00     0.173 A 
ATOM     85  C   UNL     1     -17.754 -11.780  -8.478  1.00  0.00     0.173 A 
ATOM     86  F   UNL     1     -15.649 -14.434  -7.147  1.00  0.00    -0.203 F 
ATOM     87  C   UNL     1     -17.015 -14.393  -9.065  1.00  0.00     0.198 A 
ATOM     88  C   UNL     1     -18.270 -12.416  -9.602  1.00  0.00     0.198 A 
ATOM     89  F   UNL     1     -18.112 -10.512  -8.228  1.00  0.00    -0.203 F 
ATOM     90  F   UNL     1     -16.634 -15.642  -9.364  1.00  0.00    -0.200 F 
ATOM     91  C   UNL     1     -17.899 -13.720  -9.896  1.00  0.00     0.200 A 
ATOM     92  F   UNL     1     -19.125 -11.765 -10.403  1.00  0.00    -0.200 F 
ATOM     93  F   UNL     1     -18.389 -14.327 -10.985  1.00  0.00    -0.200 F 
ENDBRANCH  69  83
BRANCH  70  94
ATOM     94  C   UNL     1     -12.986  -7.629   0.241  1.00  0.00     0.064 A 
ATOM     95  C   UNL     1     -12.937  -8.196   1.522  1.00  0.00     0.173 A 
ATOM     96  C   UNL     1     -12.589  -6.289   0.109  1.00  0.00     0.173 A 
ATOM     97  F   UNL     1     -13.336  -9.463   1.710  1.00  0.00    -0.203 F 
ATOM     98  C   UNL     1     -12.546  -7.444   2.630  1.00  0.00     0.198 A 
ATOM     99  C   UNL     1     -12.169  -5.548   1.213  1.00  0.00     0.198 A 
ATOM    100  F   UNL     1     -12.625  -5.692  -1.091  1.00  0.00    -0.203 F 
ATOM    101  F   UNL     1     -12.576  -7.992   3.853  1.00  0.00    -0.200 F 
ATOM    102  C   UNL     1     -12.161  -6.122   2.474  1.00  0.00     0.200 A 
ATOM    103  F   UNL     1     -11.794  -4.271   1.056  1.00  0.00    -0.200 F 
ATOM    104  F   UNL     1     -11.800  -5.395   3.541  1.00  0.00    -0.200 F 
ENDBRANCH  70  94
BRANCH  82 105
ATOM    105  C   UNL     1     -19.307 -10.164  -1.249  1.00  0.00     0.064 A 
ATOM    106  C   UNL     1     -20.080  -9.006  -1.089  1.00  0.00     0.173 A 
ATOM    107  C   UNL     1     -19.812 -11.371  -0.740  1.00  0.00     0.173 A 
ATOM    108  F   UNL     1     -19.636  -7.828  -1.551  1.00  0.00    -0.203 F 
ATOM    109  C   UNL     1     -21.304  -9.052  -0.427  1.00  0.00     0.198 A 
ATOM    110  C   UNL     1     -21.049 -11.418  -0.107  1.00  0.00     0.198 A 
ATOM    111  F   UNL     1     -19.115 -12.509  -0.880  1.00  0.00    -0.203 F 
ATOM    112  F   UNL     1     -22.009  -7.926  -0.250  1.00  0.00    -0.200 F 
ATOM    113  C   UNL     1     -21.791 -10.258   0.055  1.00  0.00     0.200 A 
ATOM    114  F   UNL     1     -21.527 -12.588   0.340  1.00  0.00    -0.200 F 
ATOM    115  F   UNL     1     -22.977 -10.302   0.678  1.00  0.00    -0.200 F 
ENDBRANCH  82 105
ENDBRANCH  56  57
ENDBRANCH  49  51
ENDBRANCH  48  49
ENDBRANCH  47  48
ENDBRANCH  46  47
ENDBRANCH  45  46
ENDBRANCH  44  45
ENDBRANCH  43  44
ENDBRANCH   1  43
TORSDOF 22
