REMARK SMILES Cc1ccc(C)c(-n2nc(C)c(C=C(C#N)C(=O)OCCOCCOCCOCCOC(=O)c3ccc(-c4c5nc(c(-c6c(F)c(F)c(F)c(F)c6F)c6ccc([nH]6)c(-c6c(F)c(F)c(F)c(F)c6F)c6nc(c(-c7c(F)c(F)c(F)c(F)c7F)c7ccc4[nH]7)C=C6)C=C5)cc3)c2Cl)c1
REMARK SMILES IDX 25 1 24 2 23 3 22 4 21 5 20 6 19 7 17 8 18 9 14 10 13 11
REMARK SMILES IDX 12 12 8 13 9 14 97 15 10 16 98 17 11 18 7 19 1 20 2 21 3 22
REMARK SMILES IDX 99 23 4 24 5 25 6 26 15 27 16 28 26 29 27 30 28 31 29 32
REMARK SMILES IDX 30 33 31 34 32 35 33 36 34 37 35 38 96 39 36 40 95 41 37 42
REMARK SMILES IDX 38 43 39 44 89 45 40 46 94 47 88 48 90 49 41 50 93 51 87 52
REMARK SMILES IDX 86 53 42 55 74 56 54 57 73 58 55 59 58 60 72 61 91 62 56 63
REMARK SMILES IDX 57 64 71 66 92 67 59 68 43 69 44 70 52 71 45 72 46 73 50 74
REMARK SMILES IDX 53 75 47 76 48 77 51 78 49 79 75 80 76 81 84 82 77 83 78 84
REMARK SMILES IDX 82 85 85 86 79 87 80 88 83 89 81 90 60 91 61 92 69 93 62 94
REMARK SMILES IDX 63 95 67 96 70 97 64 98 65 99 68 100 66 101
REMARK H PARENT 90 54 58 65
REMARK Flexibility Score: inf
ROOT
ATOM      1  O   UNL     1      -7.292   6.686  -3.659  1.00  0.00    -0.377 OA
ENDROOT
BRANCH   1   2
ATOM      2  C   UNL     1      -6.212   6.329  -2.807  1.00  0.00     0.188 C 
BRANCH   2   3
ATOM      3  C   UNL     1      -6.333   6.271  -1.247  1.00  0.00     0.188 C 
BRANCH   3   4
ATOM      4  O   UNL     1      -7.143   7.138  -0.441  1.00  0.00    -0.376 OA
BRANCH   4   5
ATOM      5  C   UNL     1      -6.883   8.476   0.006  1.00  0.00     0.202 C 
BRANCH   5   6
ATOM      6  C   UNL     1      -5.566   8.820   0.733  1.00  0.00     0.261 C 
BRANCH   6   7
ATOM      7  O   UNL     1      -4.522   7.900   0.422  1.00  0.00    -0.459 OA
BRANCH   7   8
ATOM      8  C   UNL     1      -4.294   7.825  -0.890  1.00  0.00     0.348 C 
ATOM      9  O   UNL     1      -5.010   8.516  -1.626  1.00  0.00    -0.245 OA
BRANCH   8  10
ATOM     10  C   UNL     1      -3.024   6.816  -1.421  1.00  0.00     0.138 C 
ATOM     11  C   UNL     1      -3.193   5.449  -1.828  1.00  0.00     0.040 C 
BRANCH  11  12
ATOM     12  C   UNL     1      -2.513   4.081  -1.358  1.00  0.00     0.037 A 
ATOM     13  N   UNL     1      -1.211   2.172  -1.185  1.00  0.00    -0.221 N 
ATOM     14  N   UNL     1      -1.173   2.818  -0.023  1.00  0.00    -0.171 NA
ATOM     15  C   UNL     1      -2.044   2.931  -2.055  1.00  0.00     0.140 A 
ATOM     16  C   UNL     1      -2.354   3.422  -0.097  1.00  0.00     0.069 A 
ATOM     17  Cl  UNL     1      -2.314   2.341  -3.624  1.00  0.00    -0.061 Cl
ATOM     18  C   UNL     1      -3.073   3.338   1.147  1.00  0.00     0.069 C 
BRANCH  13  19
ATOM     19  C   UNL     1      -0.603   0.885  -1.097  1.00  0.00     0.069 A 
ATOM     20  C   UNL     1       2.961  -0.179  -0.072  1.00  0.00     0.044 C 
ATOM     21  C   UNL     1       1.486  -0.224  -0.358  1.00  0.00    -0.049 A 
ATOM     22  C   UNL     1       0.771  -1.393  -0.108  1.00  0.00     0.004 A 
ATOM     23  C   UNL     1       0.797   0.897  -0.858  1.00  0.00     0.032 A 
ATOM     24  C   UNL     1      -0.617  -1.398  -0.236  1.00  0.00     0.006 A 
ATOM     25  C   UNL     1      -1.327  -0.245  -0.650  1.00  0.00    -0.025 A 
ATOM     26  C   UNL     1      -2.816  -0.289  -0.429  1.00  0.00     0.047 C 
ENDBRANCH  13  19
ENDBRANCH  11  12
BRANCH  10  27
ATOM     27  C   UNL     1      -3.058   7.979  -2.401  1.00  0.00     0.107 C 
ATOM     28  N   UNL     1      -3.086   8.943  -3.213  1.00  0.00    -0.192 NA
ENDBRANCH  10  27
ENDBRANCH   8  10
ENDBRANCH   7   8
ENDBRANCH   6   7
ENDBRANCH   5   6
ENDBRANCH   4   5
ENDBRANCH   3   4
ENDBRANCH   2   3
ENDBRANCH   1   2
BRANCH   1  29
ATOM     29  C   UNL     1      -8.340   7.386  -3.017  1.00  0.00     0.188 C 
BRANCH  29  30
ATOM     30  C   UNL     1      -9.288   6.409  -2.319  1.00  0.00     0.188 C 
BRANCH  30  31
ATOM     31  O   UNL     1      -8.575   5.349  -1.718  1.00  0.00    -0.376 OA
BRANCH  31  32
ATOM     32  C   UNL     1      -8.697   4.034  -2.202  1.00  0.00     0.202 C 
BRANCH  32  33
ATOM     33  C   UNL     1      -9.911   3.459  -1.498  1.00  0.00     0.261 C 
BRANCH  33  34
ATOM     34  O   UNL     1      -9.655   3.421  -0.057  1.00  0.00    -0.460 OA
BRANCH  34  35
ATOM     35  C   UNL     1      -9.653   4.598   0.645  1.00  0.00     0.338 C 
ATOM     36  O   UNL     1     -10.586   5.412   0.645  1.00  0.00    -0.246 OA
BRANCH  35  37
ATOM     37  C   UNL     1      -8.314   4.824   1.312  1.00  0.00     0.060 A 
ATOM     38  C   UNL     1      -7.946   5.970   2.028  1.00  0.00     0.016 A 
ATOM     39  C   UNL     1      -7.286   3.950   1.021  1.00  0.00     0.016 A 
ATOM     40  C   UNL     1      -6.554   6.285   2.279  1.00  0.00     0.010 A 
ATOM     41  C   UNL     1      -5.934   4.340   1.151  1.00  0.00     0.010 A 
ATOM     42  C   UNL     1      -5.467   5.564   1.702  1.00  0.00    -0.014 A 
BRANCH  42  43
ATOM     43  C   UNL     1      -3.887   6.018   2.054  1.00  0.00     0.031 A 
ATOM     44  C   UNL     1      -3.815   5.588   3.466  1.00  0.00     0.074 A 
ATOM     45  C   UNL     1      -2.551   6.242   1.489  1.00  0.00     0.049 A 
ATOM     46  N   UNL     1      -3.400   6.325   4.435  1.00  0.00    -0.248 NA
ATOM     47  C   UNL     1      -4.346   4.281   3.930  1.00  0.00     0.031 C 
ATOM     48  C   UNL     1      -2.110   7.560   1.008  1.00  0.00     0.029 A 
ATOM     49  N   UNL     1      -1.415   5.538   0.896  1.00  0.00    -0.354 N 
ATOM     50  C   UNL     1      -2.974   5.356   5.313  1.00  0.00     0.074 A 
ATOM     51  C   UNL     1      -3.882   4.252   5.179  1.00  0.00     0.031 C 
ATOM     52  C   UNL     1      -1.108   7.535   0.088  1.00  0.00     0.029 A 
ATOM     53  C   UNL     1      -0.688   6.163  -0.197  1.00  0.00     0.049 A 
ATOM     54  H   UNL     1      -1.146   4.652   1.232  1.00  0.00     0.167 HD
ATOM     55  C   UNL     1      -1.625   5.297   5.480  1.00  0.00     0.037 A 
ATOM     56  C   UNL     1       0.478   5.941  -0.944  1.00  0.00     0.037 A 
ATOM     57  C   UNL     1      -0.982   6.559   5.140  1.00  0.00     0.049 A 
ATOM     58  C   UNL     1       1.538   6.365   0.016  1.00  0.00     0.074 A 
ATOM     59  C   UNL     1      -1.302   7.865   5.478  1.00  0.00     0.029 A 
ATOM     60  N   UNL     1      -0.186   6.638   4.016  1.00  0.00    -0.354 N 
ATOM     61  N   UNL     1       1.698   7.603   0.408  1.00  0.00    -0.248 NA
ATOM     62  C   UNL     1       1.947   5.336   0.971  1.00  0.00     0.031 C 
ATOM     63  C   UNL     1      -0.725   8.716   4.513  1.00  0.00     0.029 A 
ATOM     64  C   UNL     1       0.076   7.958   3.678  1.00  0.00     0.049 A 
ATOM     65  H   UNL     1       0.153   5.859   3.519  1.00  0.00     0.167 HD
ATOM     66  C   UNL     1       1.578   7.474   1.786  1.00  0.00     0.074 A 
ATOM     67  C   UNL     1       1.924   6.081   2.078  1.00  0.00     0.031 C 
ATOM     68  C   UNL     1       0.826   8.361   2.509  1.00  0.00     0.037 A 
BRANCH  55  69
ATOM     69  C   UNL     1      -0.897   4.004   5.636  1.00  0.00     0.064 A 
ATOM     70  C   UNL     1       0.197   3.977   6.499  1.00  0.00     0.173 A 
ATOM     71  C   UNL     1      -1.135   2.832   4.883  1.00  0.00     0.173 A 
ATOM     72  F   UNL     1       0.492   5.055   7.238  1.00  0.00    -0.203 F 
ATOM     73  C   UNL     1       1.016   2.854   6.596  1.00  0.00     0.198 A 
ATOM     74  C   UNL     1      -0.335   1.700   5.000  1.00  0.00     0.198 A 
ATOM     75  F   UNL     1      -2.117   2.754   3.980  1.00  0.00    -0.203 F 
ATOM     76  F   UNL     1       2.084   2.887   7.400  1.00  0.00    -0.200 F 
ATOM     77  C   UNL     1       0.750   1.717   5.848  1.00  0.00     0.200 A 
ATOM     78  F   UNL     1      -0.606   0.613   4.262  1.00  0.00    -0.200 F 
ATOM     79  F   UNL     1       1.554   0.649   5.928  1.00  0.00    -0.200 F 
ENDBRANCH  55  69
BRANCH  56  80
ATOM     80  C   UNL     1       0.891   5.187  -2.254  1.00  0.00     0.064 A 
ATOM     81  C   UNL     1       2.228   4.786  -2.533  1.00  0.00     0.173 A 
ATOM     82  C   UNL     1       0.049   4.947  -3.363  1.00  0.00     0.173 A 
ATOM     83  F   UNL     1       3.219   5.132  -1.700  1.00  0.00    -0.203 F 
ATOM     84  C   UNL     1       2.619   4.051  -3.686  1.00  0.00     0.198 A 
ATOM     85  C   UNL     1       0.417   4.174  -4.500  1.00  0.00     0.198 A 
ATOM     86  F   UNL     1      -1.158   5.514  -3.421  1.00  0.00    -0.203 F 
ATOM     87  F   UNL     1       3.904   3.707  -3.866  1.00  0.00    -0.200 F 
ATOM     88  C   UNL     1       1.695   3.687  -4.640  1.00  0.00     0.200 A 
ATOM     89  F   UNL     1      -0.482   3.913  -5.462  1.00  0.00    -0.200 F 
ATOM     90  F   UNL     1       2.038   2.927  -5.692  1.00  0.00    -0.200 F 
ENDBRANCH  56  80
BRANCH  68  91
ATOM     91  C   UNL     1       0.674   9.789   1.993  1.00  0.00     0.064 A 
ATOM     92  C   UNL     1      -0.385  10.277   1.215  1.00  0.00     0.173 A 
ATOM     93  C   UNL     1       1.445  10.808   2.534  1.00  0.00     0.173 A 
ATOM     94  F   UNL     1      -1.619   9.913   1.564  1.00  0.00    -0.203 F 
ATOM     95  C   UNL     1      -0.403  11.513   0.587  1.00  0.00     0.198 A 
ATOM     96  C   UNL     1       1.253  12.147   2.154  1.00  0.00     0.198 A 
ATOM     97  F   UNL     1       2.273  10.535   3.552  1.00  0.00    -0.203 F 
ATOM     98  F   UNL     1      -1.395  11.818  -0.264  1.00  0.00    -0.200 F 
ATOM     99  C   UNL     1       0.395  12.486   1.116  1.00  0.00     0.200 A 
ATOM    100  F   UNL     1       1.837  13.123   2.859  1.00  0.00    -0.200 F 
ATOM    101  F   UNL     1       0.208  13.763   0.757  1.00  0.00    -0.200 F 
ENDBRANCH  68  91
ENDBRANCH  42  43
ENDBRANCH  35  37
ENDBRANCH  34  35
ENDBRANCH  33  34
ENDBRANCH  32  33
ENDBRANCH  31  32
ENDBRANCH  30  31
ENDBRANCH  29  30
ENDBRANCH   1  29
TORSDOF 23
