REMARK SMILES Cc1cccc(C)c1Nc1ccccc1CC(=O)OCCOCCOCCOCCOC(=O)c1ccc(-c2c3nc(c(-c4c(F)c(F)c(F)c(F)c4F)c4ccc([nH]4)c(-c4c(F)c(F)c(F)c(F)c4F)c4nc(c(-c5c(F)c(F)c(F)c(F)c5F)c5ccc2[nH]5)C=C4)C=C3)cc1
REMARK SMILES IDX 24 1 23 2 22 3 21 4 20 5 19 6 17 7 18 8 16 9 15 10 10 11
REMARK SMILES IDX 11 12 12 13 14 14 13 15 9 16 8 18 1 19 2 20 3 21 4 22 6 23
REMARK SMILES IDX 5 24 7 25 25 26 26 27 27 28 28 29 29 30 30 31 31 32 32 33
REMARK SMILES IDX 33 34 34 35 35 36 96 37 36 38 95 39 37 40 38 41 39 42 89 43
REMARK SMILES IDX 40 44 94 45 88 46 90 47 41 48 93 49 87 50 86 51 42 53 74 54
REMARK SMILES IDX 54 55 73 56 55 57 58 58 72 59 91 60 56 61 57 62 71 64 92 65
REMARK SMILES IDX 59 66 43 67 44 68 52 69 45 70 46 71 50 72 53 73 47 74 48 75
REMARK SMILES IDX 51 76 49 77 75 78 76 79 84 80 77 81 78 82 82 83 85 84 79 85
REMARK SMILES IDX 80 86 83 87 81 88 60 89 61 90 69 91 62 92 63 93 67 94 70 95
REMARK SMILES IDX 64 96 65 97 68 98 66 99
REMARK H PARENT 9 17 90 52 58 63
REMARK Flexibility Score: inf
ROOT
ATOM      1  C   UNL     1      -2.677   4.692   3.651  1.00  0.00     0.188 C 
ENDROOT
BRANCH   1   2
ATOM      2  C   UNL     1      -3.192   3.592   4.605  1.00  0.00     0.188 C 
BRANCH   2   3
ATOM      3  O   UNL     1      -2.475   3.236   5.786  1.00  0.00    -0.376 OA
BRANCH   3   4
ATOM      4  C   UNL     1      -1.156   3.717   5.977  1.00  0.00     0.202 C 
BRANCH   4   5
ATOM      5  C   UNL     1      -0.075   3.210   4.999  1.00  0.00     0.261 C 
BRANCH   5   6
ATOM      6  O   UNL     1      -0.509   3.016   3.631  1.00  0.00    -0.463 OA
BRANCH   6   7
ATOM      7  C   UNL     1      -0.807   1.749   3.262  1.00  0.00     0.310 C 
ATOM      8  O   UNL     1      -0.528   0.772   3.958  1.00  0.00    -0.252 OA
BRANCH   7   9
ATOM      9  C   UNL     1      -1.662   1.577   2.016  1.00  0.00     0.160 C 
BRANCH   9  10
ATOM     10  C   UNL     1      -1.881   2.647   0.943  1.00  0.00    -0.013 A 
ATOM     11  C   UNL     1      -0.961   2.945  -0.080  1.00  0.00     0.042 A 
ATOM     12  C   UNL     1      -1.214   4.021  -0.963  1.00  0.00     0.026 A 
ATOM     13  C   UNL     1      -2.424   4.707  -0.944  1.00  0.00     0.002 A 
ATOM     14  C   UNL     1      -3.140   3.292   0.871  1.00  0.00     0.006 A 
ATOM     15  C   UNL     1      -3.408   4.308  -0.054  1.00  0.00     0.000 A 
BRANCH  11  16
ATOM     16  N   UNL     1       0.091   2.086  -0.444  1.00  0.00    -0.355 N 
ATOM     17  H   UNL     1       0.929   2.542  -0.684  1.00  0.00     0.167 HD
BRANCH  16  18
ATOM     18  C   UNL     1       0.144   0.673  -0.522  1.00  0.00     0.044 A 
ATOM     19  C   UNL     1       2.641   0.879  -0.049  1.00  0.00     0.046 C 
ATOM     20  C   UNL     1       1.389   0.061  -0.234  1.00  0.00    -0.027 A 
ATOM     21  C   UNL     1       1.460  -1.326  -0.043  1.00  0.00     0.005 A 
ATOM     22  C   UNL     1       0.320  -2.115  -0.143  1.00  0.00     0.001 A 
ATOM     23  C   UNL     1      -0.995  -0.153  -0.729  1.00  0.00    -0.027 A 
ATOM     24  C   UNL     1      -0.893  -1.536  -0.494  1.00  0.00     0.005 A 
ATOM     25  C   UNL     1      -2.365   0.345  -1.120  1.00  0.00     0.046 C 
ENDBRANCH  16  18
ENDBRANCH  11  16
ENDBRANCH   9  10
ENDBRANCH   7   9
ENDBRANCH   6   7
ENDBRANCH   5   6
ENDBRANCH   4   5
ENDBRANCH   3   4
ENDBRANCH   2   3
ENDBRANCH   1   2
BRANCH   1  26
ATOM     26  O   UNL     1      -1.822   5.637   4.261  1.00  0.00    -0.377 OA
BRANCH  26  27
ATOM     27  C   UNL     1      -2.382   6.915   4.447  1.00  0.00     0.188 C 
BRANCH  27  28
ATOM     28  C   UNL     1      -3.707   6.931   5.221  1.00  0.00     0.188 C 
BRANCH  28  29
ATOM     29  O   UNL     1      -4.703   6.112   4.620  1.00  0.00    -0.376 OA
BRANCH  29  30
ATOM     30  C   UNL     1      -5.729   6.715   3.853  1.00  0.00     0.202 C 
BRANCH  30  31
ATOM     31  C   UNL     1      -5.372   7.329   2.488  1.00  0.00     0.261 C 
BRANCH  31  32
ATOM     32  O   UNL     1      -4.230   8.192   2.429  1.00  0.00    -0.460 OA
BRANCH  32  33
ATOM     33  C   UNL     1      -4.293   9.368   3.098  1.00  0.00     0.338 C 
ATOM     34  O   UNL     1      -5.224   9.796   3.736  1.00  0.00    -0.246 OA
BRANCH  33  35
ATOM     35  C   UNL     1      -2.928   9.955   3.085  1.00  0.00     0.060 A 
ATOM     36  C   UNL     1      -2.282  10.171   4.310  1.00  0.00     0.016 A 
ATOM     37  C   UNL     1      -2.275  10.246   1.885  1.00  0.00     0.016 A 
ATOM     38  C   UNL     1      -0.987  10.690   4.339  1.00  0.00     0.010 A 
ATOM     39  C   UNL     1      -0.993  10.807   1.916  1.00  0.00     0.010 A 
ATOM     40  C   UNL     1      -0.356  11.057   3.144  1.00  0.00    -0.014 A 
BRANCH  40  41
ATOM     41  C   UNL     1       0.851  11.916   3.199  1.00  0.00     0.031 A 
ATOM     42  C   UNL     1       0.655  13.405   3.118  1.00  0.00     0.074 A 
ATOM     43  C   UNL     1       2.084  11.402   3.350  1.00  0.00     0.049 A 
ATOM     44  N   UNL     1       1.542  14.366   3.108  1.00  0.00    -0.248 NA
ATOM     45  C   UNL     1      -0.739  13.872   3.036  1.00  0.00     0.031 C 
ATOM     46  C   UNL     1       2.397   9.982   3.492  1.00  0.00     0.029 A 
ATOM     47  N   UNL     1       3.307  12.025   3.402  1.00  0.00    -0.354 N 
ATOM     48  C   UNL     1       0.815  15.546   3.016  1.00  0.00     0.074 A 
ATOM     49  C   UNL     1      -0.582  15.182   2.939  1.00  0.00     0.031 C 
ATOM     50  C   UNL     1       3.731   9.841   3.600  1.00  0.00     0.029 A 
ATOM     51  C   UNL     1       4.364  11.155   3.500  1.00  0.00     0.049 A 
ATOM     52  H   UNL     1       3.414  13.003   3.371  1.00  0.00     0.167 HD
ATOM     53  C   UNL     1       1.272  16.820   3.003  1.00  0.00     0.037 A 
ATOM     54  C   UNL     1       5.691  11.398   3.486  1.00  0.00     0.037 A 
ATOM     55  C   UNL     1       2.663  17.177   3.068  1.00  0.00     0.049 A 
ATOM     56  C   UNL     1       6.179  12.823   3.380  1.00  0.00     0.074 A 
ATOM     57  C   UNL     1       3.231  18.438   3.072  1.00  0.00     0.029 A 
ATOM     58  N   UNL     1       3.708  16.266   3.126  1.00  0.00    -0.354 N 
ATOM     59  N   UNL     1       5.488  13.936   3.319  1.00  0.00    -0.248 NA
ATOM     60  C   UNL     1       7.635  13.024   3.344  1.00  0.00     0.031 C 
ATOM     61  C   UNL     1       4.621  18.289   3.067  1.00  0.00     0.029 A 
ATOM     62  C   UNL     1       4.920  16.938   3.133  1.00  0.00     0.049 A 
ATOM     63  H   UNL     1       3.604  15.287   3.158  1.00  0.00     0.167 HD
ATOM     64  C   UNL     1       6.420  14.966   3.273  1.00  0.00     0.074 A 
ATOM     65  C   UNL     1       7.727  14.346   3.326  1.00  0.00     0.031 C 
ATOM     66  C   UNL     1       6.214  16.305   3.196  1.00  0.00     0.037 A 
BRANCH  53  67
ATOM     67  C   UNL     1       0.256  17.918   2.874  1.00  0.00     0.064 A 
ATOM     68  C   UNL     1      -0.640  18.225   3.909  1.00  0.00     0.173 A 
ATOM     69  C   UNL     1       0.193  18.688   1.703  1.00  0.00     0.173 A 
ATOM     70  F   UNL     1      -0.635  17.507   5.043  1.00  0.00    -0.203 F 
ATOM     71  C   UNL     1      -1.579  19.243   3.766  1.00  0.00     0.198 A 
ATOM     72  C   UNL     1      -0.725  19.727   1.576  1.00  0.00     0.198 A 
ATOM     73  F   UNL     1       1.025  18.436   0.681  1.00  0.00    -0.203 F 
ATOM     74  F   UNL     1      -2.461  19.482   4.746  1.00  0.00    -0.200 F 
ATOM     75  C   UNL     1      -1.615  19.999   2.603  1.00  0.00     0.200 A 
ATOM     76  F   UNL     1      -0.749  20.464   0.457  1.00  0.00    -0.200 F 
ATOM     77  F   UNL     1      -2.514  20.983   2.470  1.00  0.00    -0.200 F 
ENDBRANCH  53  67
BRANCH  54  78
ATOM     78  C   UNL     1       6.659  10.269   3.553  1.00  0.00     0.064 A 
ATOM     79  C   UNL     1       7.509  10.105   4.655  1.00  0.00     0.173 A 
ATOM     80  C   UNL     1       6.778   9.351   2.499  1.00  0.00     0.173 A 
ATOM     81  F   UNL     1       7.457  10.974   5.676  1.00  0.00    -0.203 F 
ATOM     82  C   UNL     1       8.455   9.082   4.691  1.00  0.00     0.198 A 
ATOM     83  C   UNL     1       7.701   8.308   2.550  1.00  0.00     0.198 A 
ATOM     84  F   UNL     1       5.994   9.464   1.416  1.00  0.00    -0.203 F 
ATOM     85  F   UNL     1       9.294   8.984   5.732  1.00  0.00    -0.200 F 
ATOM     86  C   UNL     1       8.546   8.180   3.642  1.00  0.00     0.200 A 
ATOM     87  F   UNL     1       7.777   7.434   1.538  1.00  0.00    -0.200 F 
ATOM     88  F   UNL     1       9.455   7.197   3.676  1.00  0.00    -0.200 F 
ENDBRANCH  54  78
BRANCH  66  89
ATOM     89  C   UNL     1       7.424  17.197   3.210  1.00  0.00     0.064 A 
ATOM     90  C   UNL     1       8.311  17.261   2.126  1.00  0.00     0.173 A 
ATOM     91  C   UNL     1       7.669  18.038   4.308  1.00  0.00     0.173 A 
ATOM     92  F   UNL     1       8.129  16.471   1.056  1.00  0.00    -0.203 F 
ATOM     93  C   UNL     1       9.415  18.110   2.153  1.00  0.00     0.198 A 
ATOM     94  C   UNL     1       8.753  18.912   4.315  1.00  0.00     0.198 A 
ATOM     95  F   UNL     1       6.846  18.026   5.367  1.00  0.00    -0.203 F 
ATOM     96  F   UNL     1      10.279  18.115   1.128  1.00  0.00    -0.200 F 
ATOM     97  C   UNL     1       9.630  18.940   3.243  1.00  0.00     0.200 A 
ATOM     98  F   UNL     1       8.946  19.727   5.361  1.00  0.00    -0.200 F 
ATOM     99  F   UNL     1      10.687  19.764   3.262  1.00  0.00    -0.200 F 
ENDBRANCH  66  89
ENDBRANCH  40  41
ENDBRANCH  33  35
ENDBRANCH  32  33
ENDBRANCH  31  32
ENDBRANCH  30  31
ENDBRANCH  29  30
ENDBRANCH  28  29
ENDBRANCH  27  28
ENDBRANCH  26  27
ENDBRANCH   1  26
TORSDOF 23
