REMARK SMILES C[C@H]1C[C@]([NH2+]C2CCCCCC2)(C(=O)OCCOCCOCCOCCOC(=O)c2ccc(-c3c4nc(c(-c5c(F)c(F)c(F)c(F)c5F)c5ccc([nH]5)c(-c5c(F)c(F)c(F)c(F)c5F)c5nc(c(-c6c(F)c(F)c(F)c(F)c6F)c6ccc3[nH]6)C=C5)C=C4)cc2)CS1
REMARK SMILES IDX 19 1 18 2 17 3 16 4 15 5 13 6 14 7 4 8 1 9 2 10 3 11 94 12
REMARK SMILES IDX 93 13 5 14 6 17 7 18 8 19 12 21 11 22 10 23 9 24 20 26 21 27
REMARK SMILES IDX 22 28 23 29 24 30 25 31 26 32 27 33 28 34 29 35 30 36 31 37
REMARK SMILES IDX 92 38 32 39 91 40 33 41 34 42 35 43 85 44 36 45 90 46 84 47
REMARK SMILES IDX 86 48 37 49 89 50 83 51 82 52 38 54 70 55 50 56 69 57 51 58
REMARK SMILES IDX 54 59 68 60 87 61 52 62 53 63 67 65 88 66 55 67 39 68 40 69
REMARK SMILES IDX 48 70 41 71 42 72 46 73 49 74 43 75 44 76 47 77 45 78 71 79
REMARK SMILES IDX 72 80 80 81 73 82 74 83 78 84 81 85 75 86 76 87 79 88 77 89
REMARK SMILES IDX 56 90 57 91 65 92 58 93 59 94 63 95 66 96 60 97 61 98 64 99
REMARK SMILES IDX 62 100
REMARK H PARENT 5 15 5 16 86 53 54 64
REMARK Flexibility Score: 80.00
ROOT
ATOM      1  C   UNL     1       2.257   5.924   2.100  1.00  0.00     0.188 C 
ENDROOT
BRANCH   1   2
ATOM      2  O   UNL     1       3.541   6.167   1.550  1.00  0.00    -0.376 OA
BRANCH   2   3
ATOM      3  C   UNL     1       3.933   5.683   0.275  1.00  0.00     0.202 C 
BRANCH   3   4
ATOM      4  C   UNL     1       3.336   4.462  -0.459  1.00  0.00     0.261 C 
BRANCH   4   5
ATOM      5  O   UNL     1       2.148   3.856   0.057  1.00  0.00    -0.459 OA
BRANCH   5   6
ATOM      6  C   UNL     1       2.365   2.907   1.010  1.00  0.00     0.369 C 
ATOM      7  O   UNL     1       3.484   2.632   1.428  1.00  0.00    -0.245 OA
BRANCH   6   8
ATOM      8  C   UNL     1       1.020   2.234   1.483  1.00  0.00     0.204 C 
ATOM      9  C   UNL     1      -0.944  -0.450   1.245  1.00  0.00     0.019 C 
ATOM     10  C   UNL     1       0.364  -0.043   0.574  1.00  0.00     0.050 C 
ATOM     11  C   UNL     1       0.441   1.451   0.269  1.00  0.00     0.096 C 
ATOM     12  S   UNL     1       1.748  -0.320   1.698  1.00  0.00    -0.151 SA
ATOM     13  C   UNL     1       1.444   1.236   2.580  1.00  0.00     0.150 C 
BRANCH   8  14
ATOM     14  N   UNL     1       0.058   3.315   1.874  1.00  0.00    -0.329 N 
ATOM     15  H   UNL     1      -0.321   3.697   1.007  1.00  0.00     0.347 HD
ATOM     16  H   UNL     1       0.627   3.932   2.454  1.00  0.00     0.347 HD
BRANCH  14  17
ATOM     17  C   UNL     1      -1.096   3.009   2.743  1.00  0.00     0.183 C 
BRANCH  17  18
ATOM     18  C   UNL     1      -0.642   2.991   4.218  1.00  0.00     0.065 C 
BRANCH  18  19
ATOM     19  C   UNL     1      -1.379   3.849   5.241  1.00  0.00     0.006 CG0
ATOM     20  G   UNL     1      -2.802   3.377   5.511  1.00  0.00     0.000 G0
ENDBRANCH  18  19
ENDBRANCH  17  18
BRANCH  17  21
ATOM     21  C   UNL     1      -2.261   3.989   2.459  1.00  0.00     0.065 C 
BRANCH  21  22
ATOM     22  C   UNL     1      -3.595   3.532   3.070  1.00  0.00     0.006 C 
BRANCH  22  23
ATOM     23  C   UNL     1      -3.821   3.929   4.525  1.00  0.00     0.000 C 
BRANCH  23  24
ATOM     24  C   UNL     1      -2.802   3.377   5.511  1.00  0.00     0.000 CG0
ATOM     25  G   UNL     1      -1.379   3.849   5.241  1.00  0.00     0.000 G0
ENDBRANCH  23  24
ENDBRANCH  22  23
ENDBRANCH  21  22
ENDBRANCH  17  21
ENDBRANCH  14  17
ENDBRANCH   8  14
ENDBRANCH   6   8
ENDBRANCH   5   6
ENDBRANCH   4   5
ENDBRANCH   3   4
ENDBRANCH   2   3
ENDBRANCH   1   2
BRANCH   1  26
ATOM     26  C   UNL     1       1.012   6.305   1.290  1.00  0.00     0.188 C 
BRANCH  26  27
ATOM     27  O   UNL     1       1.254   6.419  -0.098  1.00  0.00    -0.377 OA
BRANCH  27  28
ATOM     28  C   UNL     1       1.396   7.742  -0.592  1.00  0.00     0.188 C 
BRANCH  28  29
ATOM     29  C   UNL     1       2.139   8.787   0.274  1.00  0.00     0.188 C 
BRANCH  29  30
ATOM     30  O   UNL     1       1.731   8.846   1.633  1.00  0.00    -0.376 OA
BRANCH  30  31
ATOM     31  C   UNL     1       0.776   9.819   2.033  1.00  0.00     0.202 C 
BRANCH  31  32
ATOM     32  C   UNL     1      -0.653   9.710   1.473  1.00  0.00     0.261 C 
BRANCH  32  33
ATOM     33  O   UNL     1      -0.785   9.715   0.044  1.00  0.00    -0.460 OA
BRANCH  33  34
ATOM     34  C   UNL     1      -0.317  10.790  -0.633  1.00  0.00     0.338 C 
ATOM     35  O   UNL     1       0.149  11.804  -0.171  1.00  0.00    -0.246 OA
BRANCH  34  36
ATOM     36  C   UNL     1      -0.278  10.413  -2.068  1.00  0.00     0.060 A 
ATOM     37  C   UNL     1       0.956  10.403  -2.733  1.00  0.00     0.016 A 
ATOM     38  C   UNL     1      -1.441  10.024  -2.736  1.00  0.00     0.016 A 
ATOM     39  C   UNL     1       1.030  10.009  -4.070  1.00  0.00     0.010 A 
ATOM     40  C   UNL     1      -1.371   9.665  -4.085  1.00  0.00     0.010 A 
ATOM     41  C   UNL     1      -0.139   9.674  -4.763  1.00  0.00    -0.014 A 
BRANCH  41  42
ATOM     42  C   UNL     1      -0.114   9.515  -6.237  1.00  0.00     0.031 A 
ATOM     43  C   UNL     1      -0.488  10.698  -7.084  1.00  0.00     0.074 A 
ATOM     44  C   UNL     1       0.217   8.348  -6.816  1.00  0.00     0.049 A 
ATOM     45  N   UNL     1      -0.664  10.777  -8.378  1.00  0.00    -0.248 NA
ATOM     46  C   UNL     1      -0.697  11.967  -6.368  1.00  0.00     0.031 C 
ATOM     47  C   UNL     1       0.654   7.147  -6.109  1.00  0.00     0.029 A 
ATOM     48  N   UNL     1       0.214   7.979  -8.139  1.00  0.00    -0.354 N 
ATOM     49  C   UNL     1      -1.016  12.096  -8.628  1.00  0.00     0.074 A 
ATOM     50  C   UNL     1      -1.051  12.778  -7.353  1.00  0.00     0.031 C 
ATOM     51  C   UNL     1       0.853   6.164  -7.005  1.00  0.00     0.029 A 
ATOM     52  C   UNL     1       0.513   6.654  -8.341  1.00  0.00     0.049 A 
ATOM     53  H   UNL     1       0.016   8.605  -8.873  1.00  0.00     0.167 HD
ATOM     54  C   UNL     1      -1.285  12.685  -9.817  1.00  0.00     0.037 A 
ATOM     55  C   UNL     1       0.477   5.918  -9.469  1.00  0.00     0.037 A 
ATOM     56  C   UNL     1      -1.257  12.001 -11.082  1.00  0.00     0.049 A 
ATOM     57  C   UNL     1       0.074   6.573 -10.769  1.00  0.00     0.074 A 
ATOM     58  C   UNL     1      -1.496  12.513 -12.345  1.00  0.00     0.029 A 
ATOM     59  N   UNL     1      -0.987  10.649 -11.242  1.00  0.00    -0.354 N 
ATOM     60  N   UNL     1      -0.237   7.824 -11.006  1.00  0.00    -0.248 NA
ATOM     61  C   UNL     1       0.012   5.708 -11.957  1.00  0.00     0.031 C 
ATOM     62  C   UNL     1      -1.436  11.459 -13.262  1.00  0.00     0.029 A 
ATOM     63  C   UNL     1      -1.092  10.302 -12.580  1.00  0.00     0.049 A 
ATOM     64  H   UNL     1      -0.754  10.029 -10.514  1.00  0.00     0.167 HD
ATOM     65  C   UNL     1      -0.504   7.903 -12.368  1.00  0.00     0.074 A 
ATOM     66  C   UNL     1      -0.301   6.576 -12.909  1.00  0.00     0.031 C 
ATOM     67  C   UNL     1      -0.883   8.977 -13.105  1.00  0.00     0.037 A 
BRANCH  54  68
ATOM     68  C   UNL     1      -1.674  14.135  -9.801  1.00  0.00     0.064 A 
ATOM     69  C   UNL     1      -0.753  15.147  -9.492  1.00  0.00     0.173 A 
ATOM     70  C   UNL     1      -2.984  14.518 -10.129  1.00  0.00     0.173 A 
ATOM     71  F   UNL     1       0.507  14.833  -9.154  1.00  0.00    -0.203 F 
ATOM     72  C   UNL     1      -1.136  16.486  -9.487  1.00  0.00     0.198 A 
ATOM     73  C   UNL     1      -3.354  15.859 -10.156  1.00  0.00     0.198 A 
ATOM     74  F   UNL     1      -3.904  13.590 -10.434  1.00  0.00    -0.203 F 
ATOM     75  F   UNL     1      -0.252  17.432  -9.139  1.00  0.00    -0.200 F 
ATOM     76  C   UNL     1      -2.432  16.841  -9.827  1.00  0.00     0.200 A 
ATOM     77  F   UNL     1      -4.604  16.201 -10.498  1.00  0.00    -0.200 F 
ATOM     78  F   UNL     1      -2.796  18.131  -9.831  1.00  0.00    -0.200 F 
ENDBRANCH  54  68
BRANCH  55  79
ATOM     79  C   UNL     1       0.793   4.464  -9.424  1.00  0.00     0.064 A 
ATOM     80  C   UNL     1       1.920   3.947 -10.079  1.00  0.00     0.173 A 
ATOM     81  C   UNL     1      -0.043   3.557  -8.756  1.00  0.00     0.173 A 
ATOM     82  F   UNL     1       2.735   4.768 -10.758  1.00  0.00    -0.203 F 
ATOM     83  C   UNL     1       2.186   2.579 -10.084  1.00  0.00     0.198 A 
ATOM     84  C   UNL     1       0.242   2.193  -8.734  1.00  0.00     0.198 A 
ATOM     85  F   UNL     1      -1.139   3.995  -8.120  1.00  0.00    -0.203 F 
ATOM     86  F   UNL     1       3.239   2.107 -10.765  1.00  0.00    -0.200 F 
ATOM     87  C   UNL     1       1.351   1.704  -9.406  1.00  0.00     0.200 A 
ATOM     88  F   UNL     1      -0.562   1.353  -8.068  1.00  0.00    -0.200 F 
ATOM     89  F   UNL     1       1.608   0.389  -9.411  1.00  0.00    -0.200 F 
ENDBRANCH  55  79
BRANCH  67  90
ATOM     90  C   UNL     1      -1.074   8.776 -14.583  1.00  0.00     0.064 A 
ATOM     91  C   UNL     1      -2.155   8.043 -15.095  1.00  0.00     0.173 A 
ATOM     92  C   UNL     1      -0.195   9.373 -15.501  1.00  0.00     0.173 A 
ATOM     93  F   UNL     1      -3.017   7.440 -14.262  1.00  0.00    -0.203 F 
ATOM     94  C   UNL     1      -2.335   7.897 -16.468  1.00  0.00     0.198 A 
ATOM     95  C   UNL     1      -0.398   9.254 -16.873  1.00  0.00     0.198 A 
ATOM     96  F   UNL     1       0.850  10.093 -15.066  1.00  0.00    -0.203 F 
ATOM     97  F   UNL     1      -3.348   7.153 -16.934  1.00  0.00    -0.200 F 
ATOM     98  C   UNL     1      -1.463   8.510 -17.356  1.00  0.00     0.200 A 
ATOM     99  F   UNL     1       0.435   9.864 -17.727  1.00  0.00    -0.200 F 
ATOM    100  F   UNL     1      -1.647   8.380 -18.677  1.00  0.00    -0.200 F 
ENDBRANCH  67  90
ENDBRANCH  41  42
ENDBRANCH  34  36
ENDBRANCH  33  34
ENDBRANCH  32  33
ENDBRANCH  31  32
ENDBRANCH  30  31
ENDBRANCH  29  30
ENDBRANCH  28  29
ENDBRANCH  27  28
ENDBRANCH  26  27
ENDBRANCH   1  26
TORSDOF 22
