REMARK SMILES [NH3+][C@@H]1CCCCC[C@H]1C(=O)NCC(=O)OCCOCCOCCOCCOC(=O)c1ccc(-c2c3nc(c(-c4c(F)c(F)c(F)c(F)c4F)c4ccc([nH]4)c(-c4c(F)c(F)c(F)c(F)c4F)c4nc(c(-c5c(F)c(F)c(F)c(F)c5F)c5ccc2[nH]5)C=C4)C=C3)cc1
REMARK SMILES IDX 19 1 18 2 17 3 16 4 15 5 13 6 14 7 12 8 11 9 9 10 10 11 8 13
REMARK SMILES IDX 2 14 1 15 3 19 7 21 6 22 5 23 4 24 20 26 21 27 22 28 23 29
REMARK SMILES IDX 24 30 25 31 26 32 27 33 28 34 29 35 30 36 31 37 92 38 32 39
REMARK SMILES IDX 91 40 33 41 34 42 35 43 85 44 36 45 90 46 84 47 86 48 37 49
REMARK SMILES IDX 89 50 83 51 82 52 38 54 70 55 50 56 69 57 51 58 54 59 68 60
REMARK SMILES IDX 87 61 52 62 53 63 67 65 88 66 55 67 39 68 40 69 48 70 41 71
REMARK SMILES IDX 42 72 46 73 49 74 43 75 44 76 47 77 45 78 71 79 72 80 80 81
REMARK SMILES IDX 73 82 74 83 78 84 81 85 75 86 76 87 79 88 77 89 56 90 57 91
REMARK SMILES IDX 65 92 58 93 59 94 63 95 66 96 60 97 61 98 64 99 62 100
REMARK H PARENT 11 12 1 16 1 17 1 18 86 53 54 64
REMARK Flexibility Score: 90.00
ROOT
ATOM      1  C   UNL     1      -4.690   1.497   0.345  1.00  0.00     0.188 C 
ENDROOT
BRANCH   1   2
ATOM      2  O   UNL     1      -5.191   0.314   0.952  1.00  0.00    -0.376 OA
BRANCH   2   3
ATOM      3  C   UNL     1      -4.314  -0.716   1.387  1.00  0.00     0.202 C 
BRANCH   3   4
ATOM      4  C   UNL     1      -3.172  -1.235   0.493  1.00  0.00     0.261 C 
BRANCH   4   5
ATOM      5  O   UNL     1      -2.446  -0.230  -0.234  1.00  0.00    -0.462 OA
BRANCH   5   6
ATOM      6  C   UNL     1      -2.639  -0.198  -1.571  1.00  0.00     0.325 C 
ATOM      7  O   UNL     1      -3.303  -1.020  -2.196  1.00  0.00    -0.250 OA
BRANCH   6   8
ATOM      8  C   UNL     1      -2.032   1.032  -2.267  1.00  0.00     0.238 C 
BRANCH   8   9
ATOM      9  N   UNL     1      -1.148   2.013  -1.622  1.00  0.00    -0.345 N 
ATOM     10  C   UNL     1       0.201   2.137  -1.508  1.00  0.00     0.229 C 
ATOM     11  O   UNL     1       0.628   3.165  -0.975  1.00  0.00    -0.275 OA
ATOM     12  H   UNL     1      -1.640   2.738  -1.174  1.00  0.00     0.164 HD
BRANCH  10  13
ATOM     13  C   UNL     1       1.151   1.121  -2.122  1.00  0.00     0.136 C 
BRANCH  13  14
ATOM     14  C   UNL     1       0.959  -0.254  -1.450  1.00  0.00     0.193 C 
BRANCH  14  15
ATOM     15  N   UNL     1       1.563  -0.236  -0.106  1.00  0.00    -0.354 N 
ATOM     16  H   UNL     1       1.434  -1.147   0.336  1.00  0.00     0.344 HD
ATOM     17  H   UNL     1       1.113   0.483   0.460  1.00  0.00     0.344 HD
ATOM     18  H   UNL     1       2.560  -0.034  -0.184  1.00  0.00     0.344 HD
ENDBRANCH  14  15
BRANCH  14  19
ATOM     19  C   UNL     1       1.489  -1.468  -2.214  1.00  0.00     0.066 CG0
ATOM     20  G   UNL     1       0.691  -1.725  -3.487  1.00  0.00     0.000 G0
ENDBRANCH  14  19
ENDBRANCH  13  14
BRANCH  13  21
ATOM     21  C   UNL     1       1.040   1.299  -3.650  1.00  0.00     0.020 C 
BRANCH  21  22
ATOM     22  C   UNL     1       1.867   0.354  -4.497  1.00  0.00     0.001 C 
BRANCH  22  23
ATOM     23  C   UNL     1       1.213  -1.004  -4.723  1.00  0.00     0.000 C 
BRANCH  23  24
ATOM     24  C   UNL     1       0.691  -1.725  -3.487  1.00  0.00     0.006 CG0
ATOM     25  G   UNL     1       1.489  -1.468  -2.214  1.00  0.00     0.000 G0
ENDBRANCH  23  24
ENDBRANCH  22  23
ENDBRANCH  21  22
ENDBRANCH  13  21
ENDBRANCH  10  13
ENDBRANCH   8   9
ENDBRANCH   6   8
ENDBRANCH   5   6
ENDBRANCH   4   5
ENDBRANCH   3   4
ENDBRANCH   2   3
ENDBRANCH   1   2
BRANCH   1  26
ATOM     26  C   UNL     1      -3.427   2.190   0.881  1.00  0.00     0.188 C 
BRANCH  26  27
ATOM     27  O   UNL     1      -2.679   1.439   1.812  1.00  0.00    -0.377 OA
BRANCH  27  28
ATOM     28  C   UNL     1      -2.854   1.773   3.180  1.00  0.00     0.188 C 
BRANCH  28  29
ATOM     29  C   UNL     1      -4.277   2.153   3.631  1.00  0.00     0.188 C 
BRANCH  29  30
ATOM     30  O   UNL     1      -4.886   3.172   2.849  1.00  0.00    -0.376 OA
BRANCH  30  31
ATOM     31  C   UNL     1      -4.786   4.525   3.272  1.00  0.00     0.202 C 
BRANCH  31  32
ATOM     32  C   UNL     1      -3.390   5.170   3.353  1.00  0.00     0.261 C 
BRANCH  32  33
ATOM     33  O   UNL     1      -2.440   4.542   4.229  1.00  0.00    -0.460 OA
BRANCH  33  34
ATOM     34  C   UNL     1      -2.778   4.385   5.522  1.00  0.00     0.338 C 
ATOM     35  O   UNL     1      -3.785   4.800   6.077  1.00  0.00    -0.246 OA
BRANCH  34  36
ATOM     36  C   UNL     1      -1.830   3.430   6.132  1.00  0.00     0.060 A 
ATOM     37  C   UNL     1      -2.340   2.260   6.710  1.00  0.00     0.016 A 
ATOM     38  C   UNL     1      -0.456   3.682   6.144  1.00  0.00     0.016 A 
ATOM     39  C   UNL     1      -1.484   1.364   7.346  1.00  0.00     0.010 A 
ATOM     40  C   UNL     1       0.400   2.794   6.805  1.00  0.00     0.010 A 
ATOM     41  C   UNL     1      -0.117   1.654   7.444  1.00  0.00    -0.014 A 
BRANCH  41  42
ATOM     42  C   UNL     1       0.714   0.865   8.386  1.00  0.00     0.031 A 
ATOM     43  C   UNL     1       0.971   1.425   9.758  1.00  0.00     0.074 A 
ATOM     44  C   UNL     1       1.176  -0.353   8.056  1.00  0.00     0.049 A 
ATOM     45  N   UNL     1       1.628   0.904  10.764  1.00  0.00    -0.248 NA
ATOM     46  C   UNL     1       0.406   2.755  10.033  1.00  0.00     0.031 C 
ATOM     47  C   UNL     1       0.954  -1.022   6.778  1.00  0.00     0.029 A 
ATOM     48  N   UNL     1       1.923  -1.246   8.783  1.00  0.00    -0.354 N 
ATOM     49  C   UNL     1       1.564   1.846  11.784  1.00  0.00     0.074 A 
ATOM     50  C   UNL     1       0.834   2.982  11.265  1.00  0.00     0.031 C 
ATOM     51  C   UNL     1       1.544  -2.229   6.812  1.00  0.00     0.029 A 
ATOM     52  C   UNL     1       2.211  -2.402   8.101  1.00  0.00     0.049 A 
ATOM     53  H   UNL     1       2.222  -1.075   9.705  1.00  0.00     0.167 HD
ATOM     54  C   UNL     1       2.063   1.767  13.041  1.00  0.00     0.037 A 
ATOM     55  C   UNL     1       2.940  -3.471   8.478  1.00  0.00     0.037 A 
ATOM     56  C   UNL     1       2.792   0.635  13.551  1.00  0.00     0.049 A 
ATOM     57  C   UNL     1       3.552  -3.500   9.855  1.00  0.00     0.074 A 
ATOM     58  C   UNL     1       3.311   0.442  14.819  1.00  0.00     0.029 A 
ATOM     59  N   UNL     1       3.123  -0.491  12.810  1.00  0.00    -0.354 N 
ATOM     60  N   UNL     1       3.454  -2.627  10.829  1.00  0.00    -0.248 NA
ATOM     61  C   UNL     1       4.374  -4.673  10.184  1.00  0.00     0.031 C 
ATOM     62  C   UNL     1       4.019  -0.765  14.823  1.00  0.00     0.029 A 
ATOM     63  C   UNL     1       3.877  -1.363  13.581  1.00  0.00     0.049 A 
ATOM     64  H   UNL     1       2.862  -0.647  11.874  1.00  0.00     0.167 HD
ATOM     65  C   UNL     1       4.171  -3.158  11.895  1.00  0.00     0.074 A 
ATOM     66  C   UNL     1       4.681  -4.439  11.452  1.00  0.00     0.031 C 
ATOM     67  C   UNL     1       4.387  -2.634  13.128  1.00  0.00     0.037 A 
BRANCH  54  68
ATOM     68  C   UNL     1       1.879   2.965  13.932  1.00  0.00     0.064 A 
ATOM     69  C   UNL     1       0.618   3.360  14.404  1.00  0.00     0.173 A 
ATOM     70  C   UNL     1       2.990   3.731  14.319  1.00  0.00     0.173 A 
ATOM     71  F   UNL     1      -0.481   2.673  14.054  1.00  0.00    -0.203 F 
ATOM     72  C   UNL     1       0.471   4.498  15.194  1.00  0.00     0.198 A 
ATOM     73  C   UNL     1       2.844   4.846  15.139  1.00  0.00     0.198 A 
ATOM     74  F   UNL     1       4.221   3.398  13.901  1.00  0.00    -0.203 F 
ATOM     75  F   UNL     1      -0.751   4.894  15.576  1.00  0.00    -0.200 F 
ATOM     76  C   UNL     1       1.584   5.237  15.565  1.00  0.00     0.200 A 
ATOM     77  F   UNL     1       3.924   5.548  15.510  1.00  0.00    -0.200 F 
ATOM     78  F   UNL     1       1.442   6.331  16.325  1.00  0.00    -0.200 F 
ENDBRANCH  54  68
BRANCH  55  79
ATOM     79  C   UNL     1       3.123  -4.613   7.543  1.00  0.00     0.064 A 
ATOM     80  C   UNL     1       2.560  -5.868   7.820  1.00  0.00     0.173 A 
ATOM     81  C   UNL     1       3.874  -4.482   6.367  1.00  0.00     0.173 A 
ATOM     82  F   UNL     1       1.856  -6.052   8.946  1.00  0.00    -0.203 F 
ATOM     83  C   UNL     1       2.756  -6.950   6.964  1.00  0.00     0.198 A 
ATOM     84  C   UNL     1       4.043  -5.556   5.496  1.00  0.00     0.198 A 
ATOM     85  F   UNL     1       4.439  -3.305   6.057  1.00  0.00    -0.203 F 
ATOM     86  F   UNL     1       2.247  -8.149   7.277  1.00  0.00    -0.200 F 
ATOM     87  C   UNL     1       3.491  -6.791   5.799  1.00  0.00     0.200 A 
ATOM     88  F   UNL     1       4.743  -5.395   4.364  1.00  0.00    -0.200 F 
ATOM     89  F   UNL     1       3.673  -7.830   4.973  1.00  0.00    -0.200 F 
ENDBRANCH  55  79
BRANCH  67  90
ATOM     90  C   UNL     1       5.181  -3.466  14.099  1.00  0.00     0.064 A 
ATOM     91  C   UNL     1       6.546  -3.732  13.908  1.00  0.00     0.173 A 
ATOM     92  C   UNL     1       4.567  -4.003  15.242  1.00  0.00     0.173 A 
ATOM     93  F   UNL     1       7.182  -3.254  12.827  1.00  0.00    -0.203 F 
ATOM     94  C   UNL     1       7.251  -4.543  14.794  1.00  0.00     0.198 A 
ATOM     95  C   UNL     1       5.285  -4.779  16.148  1.00  0.00     0.198 A 
ATOM     96  F   UNL     1       3.268  -3.773  15.484  1.00  0.00    -0.203 F 
ATOM     97  F   UNL     1       8.534  -4.844  14.548  1.00  0.00    -0.200 F 
ATOM     98  C   UNL     1       6.622  -5.061  15.916  1.00  0.00     0.200 A 
ATOM     99  F   UNL     1       4.680  -5.262  17.242  1.00  0.00    -0.200 F 
ATOM    100  F   UNL     1       7.301  -5.843  16.766  1.00  0.00    -0.200 F 
ENDBRANCH  67  90
ENDBRANCH  41  42
ENDBRANCH  34  36
ENDBRANCH  33  34
ENDBRANCH  32  33
ENDBRANCH  31  32
ENDBRANCH  30  31
ENDBRANCH  29  30
ENDBRANCH  28  29
ENDBRANCH  27  28
ENDBRANCH  26  27
ENDBRANCH   1  26
TORSDOF 23
