REMARK SMILES CCCc1cc2c(cc1Cl)C=C(C(=O)OCCOCCOCCOCCOC(=O)c1ccc(-c3c4nc(c(-c5c(F)c(F)c(F)c(F)c5F)c5ccc([nH]5)c(-c5c(F)c(F)c(F)c(F)c5F)c5nc(c(-c6c(F)c(F)c(F)c(F)c6F)c6ccc3[nH]6)C=C5)C=C4)cc1)[C@H](C(F)(F)F)O2
REMARK SMILES IDX 21 1 20 2 19 3 18 4 17 5 16 6 15 7 13 8 14 9 12 10 4 11 5 12
REMARK SMILES IDX 9 13 6 14 8 15 10 16 7 17 98 18 11 19 93 20 3 21 2 22 1 23
REMARK SMILES IDX 94 24 95 25 96 26 97 27 22 28 23 29 24 30 25 31 26 32 27 33
REMARK SMILES IDX 28 34 29 35 30 36 31 37 92 38 32 39 91 40 33 41 34 42 35 43
REMARK SMILES IDX 85 44 36 45 90 46 84 47 86 48 37 49 89 50 83 51 82 52 38 54
REMARK SMILES IDX 70 55 50 56 69 57 51 58 54 59 68 60 87 61 52 62 53 63 67 65
REMARK SMILES IDX 88 66 55 67 39 68 40 69 48 70 41 71 42 72 46 73 49 74 43 75
REMARK SMILES IDX 44 76 47 77 45 78 71 79 72 80 80 81 73 82 74 83 78 84 81 85
REMARK SMILES IDX 75 86 76 87 79 88 77 89 56 90 57 91 65 92 58 93 59 94 63 95
REMARK SMILES IDX 66 96 60 97 61 98 64 99 62 100
REMARK H PARENT 86 53 54 64
REMARK Flexibility Score: inf
ROOT
ATOM      1  O   UNL     1      -2.331  -3.757  -7.555  1.00  0.00    -0.377 OA
ENDROOT
BRANCH   1   2
ATOM      2  C   UNL     1      -2.481  -2.361  -7.395  1.00  0.00     0.188 C 
BRANCH   2   3
ATOM      3  C   UNL     1      -2.209  -1.539  -8.668  1.00  0.00     0.188 C 
BRANCH   3   4
ATOM      4  O   UNL     1      -1.888  -2.155  -9.911  1.00  0.00    -0.376 OA
BRANCH   4   5
ATOM      5  C   UNL     1      -1.128  -3.353  -9.977  1.00  0.00     0.202 C 
BRANCH   5   6
ATOM      6  C   UNL     1       0.283  -3.390  -9.375  1.00  0.00     0.261 C 
BRANCH   6   7
ATOM      7  O   UNL     1       0.350  -3.021  -7.988  1.00  0.00    -0.460 OA
BRANCH   7   8
ATOM      8  C   UNL     1       0.978  -1.855  -7.735  1.00  0.00     0.338 C 
ATOM      9  O   UNL     1       1.571  -1.158  -8.544  1.00  0.00    -0.246 OA
BRANCH   8  10
ATOM     10  C   UNL     1       0.752  -1.432  -6.344  1.00  0.00     0.087 C 
ATOM     11  C   UNL     1       0.737   1.547  -2.305  1.00  0.00    -0.026 A 
ATOM     12  C   UNL     1       1.237   0.264  -2.599  1.00  0.00     0.052 A 
ATOM     13  C   UNL     1       0.001   2.214  -3.300  1.00  0.00     0.045 A 
ATOM     14  C   UNL     1       1.026  -0.327  -3.841  1.00  0.00     0.128 A 
ATOM     15  C   UNL     1      -0.179   1.636  -4.563  1.00  0.00     0.032 A 
ATOM     16  Cl  UNL     1      -0.668   3.789  -3.060  1.00  0.00    -0.084 Cl
ATOM     17  C   UNL     1       0.354   0.376  -4.840  1.00  0.00     0.019 A 
ATOM     18  O   UNL     1       1.593  -1.558  -4.043  1.00  0.00    -0.475 OA
ATOM     19  C   UNL     1       0.367  -0.156  -6.190  1.00  0.00     0.027 C 
ATOM     20  C   UNL     1       1.085  -2.324  -5.179  1.00  0.00     0.316 C 
BRANCH  11  21
ATOM     21  C   UNL     1       1.096   2.173  -0.975  1.00  0.00     0.037 C 
BRANCH  21  22
ATOM     22  C   UNL     1       0.389   1.588   0.253  1.00  0.00     0.001 C 
ATOM     23  C   UNL     1       0.852   0.189   0.638  1.00  0.00     0.004 C 
ENDBRANCH  21  22
ENDBRANCH  11  21
BRANCH  20  24
ATOM     24  C   UNL     1      -0.049  -3.254  -4.702  1.00  0.00     0.430 C 
ATOM     25  F   UNL     1       0.286  -3.868  -3.537  1.00  0.00    -0.167 F 
ATOM     26  F   UNL     1      -1.208  -2.595  -4.474  1.00  0.00    -0.167 F 
ATOM     27  F   UNL     1      -0.299  -4.244  -5.587  1.00  0.00    -0.167 F 
ENDBRANCH  20  24
ENDBRANCH   8  10
ENDBRANCH   7   8
ENDBRANCH   6   7
ENDBRANCH   5   6
ENDBRANCH   4   5
ENDBRANCH   3   4
ENDBRANCH   2   3
ENDBRANCH   1   2
BRANCH   1  28
ATOM     28  C   UNL     1      -3.539  -4.497  -7.675  1.00  0.00     0.188 C 
BRANCH  28  29
ATOM     29  C   UNL     1      -4.591  -3.923  -8.637  1.00  0.00     0.188 C 
BRANCH  29  30
ATOM     30  O   UNL     1      -5.147  -2.700  -8.153  1.00  0.00    -0.376 OA
BRANCH  30  31
ATOM     31  C   UNL     1      -6.427  -2.782  -7.532  1.00  0.00     0.202 C 
BRANCH  31  32
ATOM     32  C   UNL     1      -6.443  -3.382  -6.118  1.00  0.00     0.261 C 
BRANCH  32  33
ATOM     33  O   UNL     1      -6.046  -4.760  -5.995  1.00  0.00    -0.460 OA
BRANCH  33  34
ATOM     34  C   UNL     1      -6.645  -5.694  -6.763  1.00  0.00     0.338 C 
ATOM     35  O   UNL     1      -7.576  -5.533  -7.532  1.00  0.00    -0.246 OA
BRANCH  34  36
ATOM     36  C   UNL     1      -5.838  -6.932  -6.666  1.00  0.00     0.060 A 
ATOM     37  C   UNL     1      -5.439  -7.426  -5.421  1.00  0.00     0.016 A 
ATOM     38  C   UNL     1      -5.459  -7.595  -7.841  1.00  0.00     0.016 A 
ATOM     39  C   UNL     1      -4.695  -8.605  -5.351  1.00  0.00     0.010 A 
ATOM     40  C   UNL     1      -4.708  -8.774  -7.770  1.00  0.00     0.010 A 
ATOM     41  C   UNL     1      -4.348  -9.303  -6.522  1.00  0.00    -0.014 A 
BRANCH  41  42
ATOM     42  C   UNL     1      -3.803 -10.679  -6.412  1.00  0.00     0.031 A 
ATOM     43  C   UNL     1      -2.348 -10.986  -6.589  1.00  0.00     0.074 A 
ATOM     44  C   UNL     1      -4.671 -11.668  -6.127  1.00  0.00     0.049 A 
ATOM     45  N   UNL     1      -1.724 -12.125  -6.408  1.00  0.00    -0.248 NA
ATOM     46  C   UNL     1      -1.482  -9.887  -7.032  1.00  0.00     0.031 C 
ATOM     47  C   UNL     1      -6.115 -11.487  -5.966  1.00  0.00     0.029 A 
ATOM     48  N   UNL     1      -4.475 -13.007  -5.907  1.00  0.00    -0.354 N 
ATOM     49  C   UNL     1      -0.388 -11.876  -6.686  1.00  0.00     0.074 A 
ATOM     50  C   UNL     1      -0.299 -10.489  -7.099  1.00  0.00     0.031 C 
ATOM     51  C   UNL     1      -6.669 -12.662  -5.637  1.00  0.00     0.029 A 
ATOM     52  C   UNL     1      -5.626 -13.683  -5.586  1.00  0.00     0.049 A 
ATOM     53  H   UNL     1      -3.594 -13.442  -5.972  1.00  0.00     0.167 HD
ATOM     54  C   UNL     1       0.663 -12.727  -6.585  1.00  0.00     0.037 A 
ATOM     55  C   UNL     1      -5.823 -14.977  -5.273  1.00  0.00     0.037 A 
ATOM     56  C   UNL     1       0.560 -14.111  -6.190  1.00  0.00     0.049 A 
ATOM     57  C   UNL     1      -4.644 -15.905  -5.209  1.00  0.00     0.074 A 
ATOM     58  C   UNL     1       1.576 -15.038  -6.024  1.00  0.00     0.029 A 
ATOM     59  N   UNL     1      -0.628 -14.773  -5.914  1.00  0.00    -0.354 N 
ATOM     60  N   UNL     1      -3.375 -15.639  -5.393  1.00  0.00    -0.248 NA
ATOM     61  C   UNL     1      -4.924 -17.311  -4.885  1.00  0.00     0.031 C 
ATOM     62  C   UNL     1       1.000 -16.270  -5.700  1.00  0.00     0.029 A 
ATOM     63  C   UNL     1      -0.371 -16.102  -5.609  1.00  0.00     0.049 A 
ATOM     64  H   UNL     1      -1.522 -14.361  -5.932  1.00  0.00     0.167 HD
ATOM     65  C   UNL     1      -2.701 -16.835  -5.187  1.00  0.00     0.074 A 
ATOM     66  C   UNL     1      -3.702 -17.825  -4.848  1.00  0.00     0.031 C 
ATOM     67  C   UNL     1      -1.372 -17.084  -5.272  1.00  0.00     0.037 A 
BRANCH  54  68
ATOM     68  C   UNL     1       2.034 -12.193  -6.886  1.00  0.00     0.064 A 
ATOM     69  C   UNL     1       2.680 -11.312  -6.006  1.00  0.00     0.173 A 
ATOM     70  C   UNL     1       2.751 -12.646  -8.004  1.00  0.00     0.173 A 
ATOM     71  F   UNL     1       2.039 -10.850  -4.922  1.00  0.00    -0.203 F 
ATOM     72  C   UNL     1       3.988 -10.895  -6.241  1.00  0.00     0.198 A 
ATOM     73  C   UNL     1       4.068 -12.247  -8.222  1.00  0.00     0.198 A 
ATOM     74  F   UNL     1       2.186 -13.501  -8.870  1.00  0.00    -0.203 F 
ATOM     75  F   UNL     1       4.577 -10.034  -5.399  1.00  0.00    -0.200 F 
ATOM     76  C   UNL     1       4.684 -11.370  -7.342  1.00  0.00     0.200 A 
ATOM     77  F   UNL     1       4.746 -12.722  -9.276  1.00  0.00    -0.200 F 
ATOM     78  F   UNL     1       5.950 -10.983  -7.555  1.00  0.00    -0.200 F 
ENDBRANCH  54  68
BRANCH  55  79
ATOM     79  C   UNL     1      -7.193 -15.446  -4.945  1.00  0.00     0.064 A 
ATOM     80  C   UNL     1      -7.537 -15.793  -3.631  1.00  0.00     0.173 A 
ATOM     81  C   UNL     1      -8.194 -15.516  -5.924  1.00  0.00     0.173 A 
ATOM     82  F   UNL     1      -6.608 -15.755  -2.664  1.00  0.00    -0.203 F 
ATOM     83  C   UNL     1      -8.830 -16.199  -3.311  1.00  0.00     0.198 A 
ATOM     84  C   UNL     1      -9.493 -15.896  -5.598  1.00  0.00     0.198 A 
ATOM     85  F   UNL     1      -7.915 -15.186  -7.194  1.00  0.00    -0.203 F 
ATOM     86  F   UNL     1      -9.126 -16.552  -2.053  1.00  0.00    -0.200 F 
ATOM     87  C   UNL     1      -9.809 -16.241  -4.292  1.00  0.00     0.200 A 
ATOM     88  F   UNL     1     -10.441 -15.918  -6.545  1.00  0.00    -0.200 F 
ATOM     89  F   UNL     1     -11.057 -16.617  -3.980  1.00  0.00    -0.200 F 
ENDBRANCH  55  79
BRANCH  67  90
ATOM     90  C   UNL     1      -0.907 -18.482  -4.983  1.00  0.00     0.064 A 
ATOM     91  C   UNL     1      -1.138 -19.532  -5.884  1.00  0.00     0.173 A 
ATOM     92  C   UNL     1      -0.162 -18.760  -3.827  1.00  0.00     0.173 A 
ATOM     93  F   UNL     1      -1.858 -19.322  -6.995  1.00  0.00    -0.203 F 
ATOM     94  C   UNL     1      -0.649 -20.811  -5.632  1.00  0.00     0.198 A 
ATOM     95  C   UNL     1       0.350 -20.034  -3.593  1.00  0.00     0.198 A 
ATOM     96  F   UNL     1       0.091 -17.790  -2.936  1.00  0.00    -0.203 F 
ATOM     97  F   UNL     1      -0.910 -21.807  -6.490  1.00  0.00    -0.200 F 
ATOM     98  C   UNL     1       0.103 -21.059  -4.493  1.00  0.00     0.200 A 
ATOM     99  F   UNL     1       1.089 -20.267  -2.499  1.00  0.00    -0.200 F 
ATOM    100  F   UNL     1       0.588 -22.286  -4.262  1.00  0.00    -0.200 F 
ENDBRANCH  67  90
ENDBRANCH  41  42
ENDBRANCH  34  36
ENDBRANCH  33  34
ENDBRANCH  32  33
ENDBRANCH  31  32
ENDBRANCH  30  31
ENDBRANCH  29  30
ENDBRANCH  28  29
ENDBRANCH   1  28
TORSDOF 23
