REMARK SMILES CC(C)(C)OC(=O)N1CC(Cc2ccc(C(=O)OCCOCCOCCOCCOC(=O)c3ccc(-c4c5nc(c(-c6c(F)c(F)c(F)c(F)c6F)c6ccc([nH]6)c(-c6c(F)c(F)c(F)c(F)c6F)c6nc(c(-c7c(F)c(F)c(F)c(F)c7F)c7ccc4[nH]7)C=C6)C=C5)cc3)cc2)C1
REMARK SMILES IDX 23 1 22 2 21 3 20 4 19 5 18 6 16 7 17 8 15 9 12 10 13 11
REMARK SMILES IDX 97 12 14 13 96 14 11 15 10 16 6 17 7 18 8 19 9 20 98 21 5 22
REMARK SMILES IDX 2 23 1 24 3 25 4 26 24 27 25 28 26 29 27 30 28 31 29 32
REMARK SMILES IDX 30 33 31 34 32 35 33 36 34 37 95 38 35 39 94 40 36 41 37 42
REMARK SMILES IDX 38 43 88 44 39 45 93 46 87 47 89 48 40 49 92 50 86 51 85 52
REMARK SMILES IDX 41 54 73 55 53 56 72 57 54 58 57 59 71 60 90 61 55 62 56 63
REMARK SMILES IDX 70 65 91 66 58 67 42 68 43 69 51 70 44 71 45 72 49 73 52 74
REMARK SMILES IDX 46 75 47 76 50 77 48 78 74 79 75 80 83 81 76 82 77 83 81 84
REMARK SMILES IDX 84 85 78 86 79 87 82 88 80 89 59 90 60 91 68 92 61 93 62 94
REMARK SMILES IDX 66 95 69 96 63 97 64 98 67 99 65 100
REMARK H PARENT 89 53 57 64
REMARK Flexibility Score: inf
ROOT
ATOM      1  C   UNL     1       7.390   8.217   8.113  1.00  0.00     0.188 C 
ENDROOT
BRANCH   1   2
ATOM      2  C   UNL     1       8.594   7.261   8.155  1.00  0.00     0.188 C 
BRANCH   2   3
ATOM      3  O   UNL     1       9.789   7.799   7.593  1.00  0.00    -0.376 OA
BRANCH   3   4
ATOM      4  C   UNL     1      10.231   7.191   6.385  1.00  0.00     0.202 C 
BRANCH   4   5
ATOM      5  C   UNL     1       9.488   7.700   5.146  1.00  0.00     0.261 C 
BRANCH   5   6
ATOM      6  O   UNL     1       8.087   7.393   5.146  1.00  0.00    -0.460 OA
BRANCH   6   7
ATOM      7  C   UNL     1       7.759   6.083   5.103  1.00  0.00     0.338 C 
ATOM      8  O   UNL     1       8.524   5.141   4.997  1.00  0.00    -0.246 OA
BRANCH   7   9
ATOM      9  C   UNL     1       6.310   5.950   5.362  1.00  0.00     0.060 A 
ATOM     10  C   UNL     1       3.578   5.587   5.814  1.00  0.00    -0.048 A 
ATOM     11  C   UNL     1       4.500   4.661   6.316  1.00  0.00     0.004 A 
ATOM     12  C   UNL     1       4.040   6.732   5.146  1.00  0.00     0.004 A 
ATOM     13  C   UNL     1       5.863   4.839   6.087  1.00  0.00     0.016 A 
ATOM     14  C   UNL     1       5.401   6.912   4.914  1.00  0.00     0.016 A 
BRANCH  10  15
ATOM     15  C   UNL     1       2.097   5.308   5.882  1.00  0.00     0.042 C 
BRANCH  15  16
ATOM     16  C   UNL     1       1.624   4.940   4.483  1.00  0.00     0.033 C 
ATOM     17  C   UNL     1       0.153   3.177   2.176  1.00  0.00     0.410 C 
ATOM     18  O   UNL     1      -0.851   3.691   1.695  1.00  0.00    -0.224 OA
ATOM     19  N   UNL     1       0.652   3.534   3.389  1.00  0.00    -0.307 N 
ATOM     20  C   UNL     1       0.157   4.499   4.349  1.00  0.00     0.128 C 
ATOM     21  C   UNL     1       2.005   3.546   3.911  1.00  0.00     0.128 C 
BRANCH  17  22
ATOM     22  O   UNL     1       0.873   2.175   1.612  1.00  0.00    -0.444 OA
BRANCH  22  23
ATOM     23  C   UNL     1       0.460   1.579   0.352  1.00  0.00     0.106 C 
ATOM     24  C   UNL     1       1.193   0.230   0.285  1.00  0.00     0.056 C 
ATOM     25  C   UNL     1       0.927   2.466  -0.804  1.00  0.00     0.056 C 
ATOM     26  C   UNL     1      -1.048   1.294   0.269  1.00  0.00     0.056 C 
ENDBRANCH  22  23
ENDBRANCH  17  22
ENDBRANCH  15  16
ENDBRANCH  10  15
ENDBRANCH   7   9
ENDBRANCH   6   7
ENDBRANCH   5   6
ENDBRANCH   4   5
ENDBRANCH   3   4
ENDBRANCH   2   3
ENDBRANCH   1   2
BRANCH   1  27
ATOM     27  O   UNL     1       7.571   9.471   7.480  1.00  0.00    -0.377 OA
BRANCH  27  28
ATOM     28  C   UNL     1       8.600  10.345   7.930  1.00  0.00     0.188 C 
BRANCH  28  29
ATOM     29  C   UNL     1       9.331  10.141   9.274  1.00  0.00     0.188 C 
BRANCH  29  30
ATOM     30  O   UNL     1       8.571   9.468  10.271  1.00  0.00    -0.376 OA
BRANCH  30  31
ATOM     31  C   UNL     1       8.188  10.250  11.395  1.00  0.00     0.202 C 
BRANCH  31  32
ATOM     32  C   UNL     1       6.938  11.090  11.123  1.00  0.00     0.261 C 
BRANCH  32  33
ATOM     33  O   UNL     1       7.114  12.106  10.123  1.00  0.00    -0.460 OA
BRANCH  33  34
ATOM     34  C   UNL     1       8.028  13.064  10.379  1.00  0.00     0.338 C 
ATOM     35  O   UNL     1       8.714  13.195  11.378  1.00  0.00    -0.246 OA
BRANCH  34  36
ATOM     36  C   UNL     1       8.180  13.870   9.157  1.00  0.00     0.060 A 
ATOM     37  C   UNL     1       9.453  14.018   8.591  1.00  0.00     0.016 A 
ATOM     38  C   UNL     1       7.063  14.477   8.578  1.00  0.00     0.016 A 
ATOM     39  C   UNL     1       9.615  14.808   7.453  1.00  0.00     0.010 A 
ATOM     40  C   UNL     1       7.229  15.279   7.452  1.00  0.00     0.010 A 
ATOM     41  C   UNL     1       8.509  15.473   6.906  1.00  0.00    -0.014 A 
BRANCH  41  42
ATOM     42  C   UNL     1       8.697  16.531   5.890  1.00  0.00     0.031 A 
ATOM     43  C   UNL     1       8.807  17.952   6.363  1.00  0.00     0.074 A 
ATOM     44  C   UNL     1       8.721  16.244   4.579  1.00  0.00     0.049 A 
ATOM     45  N   UNL     1       8.860  19.059   5.670  1.00  0.00    -0.248 NA
ATOM     46  C   UNL     1       8.853  18.148   7.822  1.00  0.00     0.031 C 
ATOM     47  C   UNL     1       8.642  14.904   4.004  1.00  0.00     0.029 A 
ATOM     48  N   UNL     1       8.793  17.078   3.491  1.00  0.00    -0.354 N 
ATOM     49  C   UNL     1       8.945  20.081   6.606  1.00  0.00     0.074 A 
ATOM     50  C   UNL     1       8.905  19.467   7.915  1.00  0.00     0.031 C 
ATOM     51  C   UNL     1       8.641  15.007   2.663  1.00  0.00     0.029 A 
ATOM     52  C   UNL     1       8.690  16.420   2.291  1.00  0.00     0.049 A 
ATOM     53  H   UNL     1       8.907  18.053   3.565  1.00  0.00     0.167 HD
ATOM     54  C   UNL     1       9.053  21.413   6.392  1.00  0.00     0.037 A 
ATOM     55  C   UNL     1       8.614  16.912   1.040  1.00  0.00     0.037 A 
ATOM     56  C   UNL     1       9.069  22.022   5.090  1.00  0.00     0.049 A 
ATOM     57  C   UNL     1       8.669  18.404   0.826  1.00  0.00     0.074 A 
ATOM     58  C   UNL     1       9.173  23.362   4.763  1.00  0.00     0.029 A 
ATOM     59  N   UNL     1       8.964  21.324   3.896  1.00  0.00    -0.354 N 
ATOM     60  N   UNL     1       8.775  19.365   1.712  1.00  0.00    -0.248 NA
ATOM     61  C   UNL     1       8.594  18.878  -0.564  1.00  0.00     0.031 C 
ATOM     62  C   UNL     1       9.092  23.479   3.371  1.00  0.00     0.029 A 
ATOM     63  C   UNL     1       8.984  22.207   2.829  1.00  0.00     0.049 A 
ATOM     64  H   UNL     1       8.888  20.346   3.818  1.00  0.00     0.167 HD
ATOM     65  C   UNL     1       8.806  20.551   0.989  1.00  0.00     0.074 A 
ATOM     66  C   UNL     1       8.716  20.189  -0.410  1.00  0.00     0.031 C 
ATOM     67  C   UNL     1       8.901  21.825   1.443  1.00  0.00     0.037 A 
BRANCH  54  68
ATOM     68  C   UNL     1       9.136  22.293   7.602  1.00  0.00     0.064 A 
ATOM     69  C   UNL     1      10.286  22.326   8.406  1.00  0.00     0.173 A 
ATOM     70  C   UNL     1       8.055  23.110   7.965  1.00  0.00     0.173 A 
ATOM     71  F   UNL     1      11.338  21.547   8.112  1.00  0.00    -0.203 F 
ATOM     72  C   UNL     1      10.339  23.124   9.546  1.00  0.00     0.198 A 
ATOM     73  C   UNL     1       8.122  23.926   9.090  1.00  0.00     0.198 A 
ATOM     74  F   UNL     1       6.933  23.112   7.230  1.00  0.00    -0.203 F 
ATOM     75  F   UNL     1      11.427  23.100  10.328  1.00  0.00    -0.200 F 
ATOM     76  C   UNL     1       9.260  23.926   9.884  1.00  0.00     0.200 A 
ATOM     77  F   UNL     1       7.081  24.706   9.413  1.00  0.00    -0.200 F 
ATOM     78  F   UNL     1       9.311  24.692  10.982  1.00  0.00    -0.200 F 
ENDBRANCH  54  68
BRANCH  55  79
ATOM     79  C   UNL     1       8.460  15.985  -0.111  1.00  0.00     0.064 A 
ATOM     80  C   UNL     1       9.505  15.787  -1.023  1.00  0.00     0.173 A 
ATOM     81  C   UNL     1       7.263  15.287  -0.326  1.00  0.00     0.173 A 
ATOM     82  F   UNL     1      10.659  16.453  -0.874  1.00  0.00    -0.203 F 
ATOM     83  C   UNL     1       9.354  14.934  -2.115  1.00  0.00     0.198 A 
ATOM     84  C   UNL     1       7.121  14.417  -1.404  1.00  0.00     0.198 A 
ATOM     85  F   UNL     1       6.232  15.447   0.517  1.00  0.00    -0.203 F 
ATOM     86  F   UNL     1      10.354  14.793  -2.995  1.00  0.00    -0.200 F 
ATOM     87  C   UNL     1       8.165  14.246  -2.301  1.00  0.00     0.200 A 
ATOM     88  F   UNL     1       5.974  13.747  -1.575  1.00  0.00    -0.200 F 
ATOM     89  F   UNL     1       8.021  13.424  -3.350  1.00  0.00    -0.200 F 
ENDBRANCH  55  79
BRANCH  67  90
ATOM     90  C   UNL     1       8.950  22.921   0.419  1.00  0.00     0.064 A 
ATOM     91  C   UNL     1       7.808  23.313  -0.294  1.00  0.00     0.173 A 
ATOM     92  C   UNL     1      10.143  23.624   0.190  1.00  0.00     0.173 A 
ATOM     93  F   UNL     1       6.647  22.663  -0.120  1.00  0.00    -0.203 F 
ATOM     94  C   UNL     1       7.863  24.357  -1.214  1.00  0.00     0.198 A 
ATOM     95  C   UNL     1      10.188  24.684  -0.710  1.00  0.00     0.198 A 
ATOM     96  F   UNL     1      11.260  23.292   0.854  1.00  0.00    -0.203 F 
ATOM     97  F   UNL     1       6.770  24.691  -1.913  1.00  0.00    -0.200 F 
ATOM     98  C   UNL     1       9.050  25.046  -1.416  1.00  0.00     0.200 A 
ATOM     99  F   UNL     1      11.333  25.356  -0.894  1.00  0.00    -0.200 F 
ATOM    100  F   UNL     1       9.099  26.056  -2.295  1.00  0.00    -0.200 F 
ENDBRANCH  67  90
ENDBRANCH  41  42
ENDBRANCH  34  36
ENDBRANCH  33  34
ENDBRANCH  32  33
ENDBRANCH  31  32
ENDBRANCH  30  31
ENDBRANCH  29  30
ENDBRANCH  28  29
ENDBRANCH  27  28
ENDBRANCH   1  27
TORSDOF 24
