REMARK SMILES O=C(CCN1C(=O)S/C(=C\c2ccc(F)cc2)C1=O)Nc1ccc(O)cc1C(=O)OCCOCCOCCOCCOC(=O)c1ccc(-c2c3nc(c(-c4c(F)c(F)c(F)c(F)c4F)c4ccc([nH]4)c(-c4c(F)c(F)c(F)c(F)c4F)c4nc(c(-c5c(F)c(F)c(F)c(F)c5F)c5ccc2[nH]5)C=C4)C=C3)cc1
REMARK SMILES IDX 34 1 33 2 32 3 31 4 30 5 28 6 29 7 27 8 21 9 22 10 23 11
REMARK SMILES IDX 26 12 24 13 20 14 1 15 2 16 3 18 4 19 5 20 6 21 18 22 7 23
REMARK SMILES IDX 8 24 9 25 19 26 10 27 11 28 12 29 17 30 13 31 16 32 14 33
REMARK SMILES IDX 15 34 25 35 35 37 36 38 37 39 38 40 39 41 40 42 41 43 42 44
REMARK SMILES IDX 43 45 44 46 45 47 46 48 107 49 47 50 106 51 48 52 49 53
REMARK SMILES IDX 50 54 100 55 51 56 105 57 99 58 101 59 52 60 104 61 98 62
REMARK SMILES IDX 97 63 53 65 85 66 65 67 84 68 66 69 69 70 83 71 102 72 67 73
REMARK SMILES IDX 68 74 82 76 103 77 70 78 54 79 55 80 63 81 56 82 57 83 61 84
REMARK SMILES IDX 64 85 58 86 59 87 62 88 60 89 86 90 87 91 95 92 88 93 89 94
REMARK SMILES IDX 93 95 96 96 90 97 91 98 94 99 92 100 71 101 72 102 80 103
REMARK SMILES IDX 73 104 74 105 78 106 81 107 75 108 76 109 79 110 77 111
REMARK H PARENT 20 17 25 36 101 64 69 75
REMARK Flexibility Score: inf
ROOT
ATOM      1  C   UNL     1       2.961  -0.337  -5.549  1.00  0.00     0.188 C 
ENDROOT
BRANCH   1   2
ATOM      2  O   UNL     1       4.238  -0.620  -6.093  1.00  0.00    -0.376 OA
BRANCH   2   3
ATOM      3  C   UNL     1       5.383  -0.716  -5.271  1.00  0.00     0.202 C 
BRANCH   3   4
ATOM      4  C   UNL     1       5.588   0.082  -3.974  1.00  0.00     0.261 C 
BRANCH   4   5
ATOM      5  O   UNL     1       4.447   0.617  -3.305  1.00  0.00    -0.460 OA
BRANCH   5   6
ATOM      6  C   UNL     1       4.247   1.940  -3.464  1.00  0.00     0.340 C 
ATOM      7  O   UNL     1       5.013   2.725  -3.995  1.00  0.00    -0.246 OA
BRANCH   6   8
ATOM      8  C   UNL     1       2.850   2.263  -3.089  1.00  0.00     0.087 A 
ATOM      9  C   UNL     1       2.145   1.740  -1.979  1.00  0.00     0.056 A 
ATOM     10  C   UNL     1       0.829   2.189  -1.784  1.00  0.00     0.031 A 
ATOM     11  C   UNL     1       0.195   3.030  -2.706  1.00  0.00     0.048 A 
ATOM     12  C   UNL     1       2.201   3.092  -4.022  1.00  0.00     0.064 A 
ATOM     13  C   UNL     1       0.876   3.443  -3.838  1.00  0.00     0.116 A 
BRANCH   9  14
ATOM     14  N   UNL     1       2.737   0.781  -1.103  1.00  0.00    -0.325 N 
ATOM     15  O   UNL     1       0.876  -0.027   0.018  1.00  0.00    -0.275 OA
ATOM     16  C   UNL     1       2.097   0.030  -0.135  1.00  0.00     0.226 C 
ATOM     17  H   UNL     1       3.707   0.640  -1.199  1.00  0.00     0.169 HD
BRANCH  16  18
ATOM     18  C   UNL     1       2.982  -0.729   0.850  1.00  0.00     0.122 C 
BRANCH  18  19
ATOM     19  C   UNL     1       4.076  -1.627   0.281  1.00  0.00     0.140 C 
BRANCH  19  20
ATOM     20  N   UNL     1       5.364  -1.046  -0.102  1.00  0.00    -0.268 N 
ATOM     21  C   UNL     1       5.748   0.243   0.138  1.00  0.00     0.293 C 
ATOM     22  C   UNL     1       6.309  -1.854  -0.713  1.00  0.00     0.268 C 
ATOM     23  O   UNL     1       5.114   1.122   0.703  1.00  0.00    -0.261 OA
ATOM     24  S   UNL     1       7.310   0.562  -0.565  1.00  0.00    -0.022 SA
ATOM     25  C   UNL     1       7.452  -1.024  -1.204  1.00  0.00     0.083 C 
ATOM     26  O   UNL     1       6.214  -3.061  -0.895  1.00  0.00    -0.268 OA
ATOM     27  C   UNL     1       8.234  -1.465  -2.206  1.00  0.00     0.029 C 
BRANCH  27  28
ATOM     28  C   UNL     1       9.024  -0.634  -3.144  1.00  0.00    -0.024 A 
ATOM     29  C   UNL     1       9.748   0.505  -2.770  1.00  0.00     0.011 A 
ATOM     30  C   UNL     1       8.950  -0.957  -4.513  1.00  0.00     0.011 A 
ATOM     31  C   UNL     1      10.290   1.356  -3.739  1.00  0.00     0.040 A 
ATOM     32  C   UNL     1       9.504  -0.113  -5.481  1.00  0.00     0.040 A 
ATOM     33  C   UNL     1      10.151   1.047  -5.084  1.00  0.00     0.123 A 
ATOM     34  F   UNL     1      10.646   1.879  -6.010  1.00  0.00    -0.207 F 
ENDBRANCH  27  28
ENDBRANCH  19  20
ENDBRANCH  18  19
ENDBRANCH  16  18
ENDBRANCH   9  14
BRANCH  13  35
ATOM     35  O   UNL     1       0.279   4.191  -4.805  1.00  0.00    -0.508 OA
ATOM     36  H   UNL     1      -0.618   4.447  -4.712  1.00  0.00     0.293 HD
ENDBRANCH  13  35
ENDBRANCH   6   8
ENDBRANCH   5   6
ENDBRANCH   4   5
ENDBRANCH   3   4
ENDBRANCH   2   3
ENDBRANCH   1   2
BRANCH   1  37
ATOM     37  C   UNL     1       2.429  -1.123  -4.330  1.00  0.00     0.188 C 
BRANCH  37  38
ATOM     38  O   UNL     1       3.433  -1.815  -3.592  1.00  0.00    -0.377 OA
BRANCH  38  39
ATOM     39  C   UNL     1       3.451  -3.229  -3.778  1.00  0.00     0.188 C 
BRANCH  39  40
ATOM     40  C   UNL     1       3.513  -3.734  -5.234  1.00  0.00     0.188 C 
BRANCH  40  41
ATOM     41  O   UNL     1       2.536  -3.137  -6.073  1.00  0.00    -0.376 OA
BRANCH  41  42
ATOM     42  C   UNL     1       1.386  -3.885  -6.432  1.00  0.00     0.202 C 
BRANCH  42  43
ATOM     43  C   UNL     1       0.403  -4.263  -5.311  1.00  0.00     0.261 C 
BRANCH  43  44
ATOM     44  O   UNL     1       0.969  -4.927  -4.171  1.00  0.00    -0.460 OA
BRANCH  44  45
ATOM     45  C   UNL     1       1.476  -6.160  -4.378  1.00  0.00     0.338 C 
ATOM     46  O   UNL     1       1.474  -6.787  -5.421  1.00  0.00    -0.246 OA
BRANCH  45  47
ATOM     47  C   UNL     1       2.226  -6.566  -3.170  1.00  0.00     0.060 A 
ATOM     48  C   UNL     1       3.578  -6.898  -3.311  1.00  0.00     0.016 A 
ATOM     49  C   UNL     1       1.602  -6.658  -1.922  1.00  0.00     0.016 A 
ATOM     50  C   UNL     1       4.293  -7.387  -2.221  1.00  0.00     0.010 A 
ATOM     51  C   UNL     1       2.318  -7.164  -0.830  1.00  0.00     0.010 A 
ATOM     52  C   UNL     1       3.653  -7.577  -0.988  1.00  0.00    -0.014 A 
BRANCH  52  53
ATOM     53  C   UNL     1       4.346  -8.371   0.057  1.00  0.00     0.031 A 
ATOM     54  C   UNL     1       3.981  -9.822   0.230  1.00  0.00     0.074 A 
ATOM     55  C   UNL     1       5.348  -7.837   0.777  1.00  0.00     0.049 A 
ATOM     56  N   UNL     1       4.500 -10.720   1.028  1.00  0.00    -0.248 NA
ATOM     57  C   UNL     1       2.888 -10.332  -0.615  1.00  0.00     0.031 C 
ATOM     58  C   UNL     1       5.820  -6.459   0.671  1.00  0.00     0.029 A 
ATOM     59  N   UNL     1       6.159  -8.401   1.732  1.00  0.00    -0.354 N 
ATOM     60  C   UNL     1       3.801 -11.895   0.781  1.00  0.00     0.074 A 
ATOM     61  C   UNL     1       2.795 -11.591  -0.213  1.00  0.00     0.031 C 
ATOM     62  C   UNL     1       6.844  -6.284   1.523  1.00  0.00     0.029 A 
ATOM     63  C   UNL     1       7.082  -7.529   2.253  1.00  0.00     0.049 A 
ATOM     64  H   UNL     1       6.086  -9.341   2.015  1.00  0.00     0.167 HD
ATOM     65  C   UNL     1       3.992 -13.121   1.323  1.00  0.00     0.037 A 
ATOM     66  C   UNL     1       8.009  -7.712   3.215  1.00  0.00     0.037 A 
ATOM     67  C   UNL     1       5.004 -13.425   2.301  1.00  0.00     0.049 A 
ATOM     68  C   UNL     1       8.166  -9.075   3.841  1.00  0.00     0.074 A 
ATOM     69  C   UNL     1       5.296 -14.646   2.884  1.00  0.00     0.029 A 
ATOM     70  N   UNL     1       5.884 -12.501   2.845  1.00  0.00    -0.354 N 
ATOM     71  N   UNL     1       7.522 -10.186   3.578  1.00  0.00    -0.248 NA
ATOM     72  C   UNL     1       9.187  -9.210   4.890  1.00  0.00     0.031 C 
ATOM     73  C   UNL     1       6.304 -14.448   3.831  1.00  0.00     0.029 A 
ATOM     74  C   UNL     1       6.693 -13.119   3.787  1.00  0.00     0.049 A 
ATOM     75  H   UNL     1       5.927 -11.549   2.600  1.00  0.00     0.167 HD
ATOM     76  C   UNL     1       8.067 -11.153   4.414  1.00  0.00     0.074 A 
ATOM     77  C   UNL     1       9.116 -10.503   5.171  1.00  0.00     0.031 C 
ATOM     78  C   UNL     1       7.726 -12.459   4.546  1.00  0.00     0.037 A 
BRANCH  65  79
ATOM     79  C   UNL     1       3.085 -14.236   0.889  1.00  0.00     0.064 A 
ATOM     80  C   UNL     1       2.173 -14.797   1.797  1.00  0.00     0.173 A 
ATOM     81  C   UNL     1       3.177 -14.812  -0.386  1.00  0.00     0.173 A 
ATOM     82  F   UNL     1       2.046 -14.285   3.031  1.00  0.00    -0.203 F 
ATOM     83  C   UNL     1       1.408 -15.908   1.453  1.00  0.00     0.198 A 
ATOM     84  C   UNL     1       2.388 -15.905  -0.738  1.00  0.00     0.198 A 
ATOM     85  F   UNL     1       4.022 -14.305  -1.297  1.00  0.00    -0.203 F 
ATOM     86  F   UNL     1       0.577 -16.452   2.353  1.00  0.00    -0.200 F 
ATOM     87  C   UNL     1       1.514 -16.460   0.186  1.00  0.00     0.200 A 
ATOM     88  F   UNL     1       2.474 -16.423  -1.971  1.00  0.00    -0.200 F 
ATOM     89  F   UNL     1       0.776 -17.528  -0.145  1.00  0.00    -0.200 F 
ENDBRANCH  65  79
BRANCH  66  90
ATOM     90  C   UNL     1       8.861  -6.570   3.639  1.00  0.00     0.064 A 
ATOM     91  C   UNL     1       8.307  -5.461   4.298  1.00  0.00     0.173 A 
ATOM     92  C   UNL     1      10.239  -6.552   3.384  1.00  0.00     0.173 A 
ATOM     93  F   UNL     1       6.994  -5.427   4.569  1.00  0.00    -0.203 F 
ATOM     94  C   UNL     1       9.092  -4.369   4.660  1.00  0.00     0.198 A 
ATOM     95  C   UNL     1      11.030  -5.473   3.777  1.00  0.00     0.198 A 
ATOM     96  F   UNL     1      10.822  -7.598   2.780  1.00  0.00    -0.203 F 
ATOM     97  F   UNL     1       8.527  -3.306   5.248  1.00  0.00    -0.200 F 
ATOM     98  C   UNL     1      10.455  -4.378   4.404  1.00  0.00     0.200 A 
ATOM     99  F   UNL     1      12.351  -5.498   3.552  1.00  0.00    -0.200 F 
ATOM    100  F   UNL     1      11.212  -3.333   4.762  1.00  0.00    -0.200 F 
ENDBRANCH  66  90
BRANCH  78 101
ATOM    101  C   UNL     1       8.492 -13.281   5.546  1.00  0.00     0.064 A 
ATOM    102  C   UNL     1       9.326 -14.329   5.123  1.00  0.00     0.173 A 
ATOM    103  C   UNL     1       8.362 -13.067   6.927  1.00  0.00     0.173 A 
ATOM    104  F   UNL     1       9.477 -14.588   3.816  1.00  0.00    -0.203 F 
ATOM    105  C   UNL     1       9.995 -15.131   6.044  1.00  0.00     0.198 A 
ATOM    106  C   UNL     1       9.063 -13.846   7.843  1.00  0.00     0.198 A 
ATOM    107  F   UNL     1       7.584 -12.075   7.386  1.00  0.00    -0.203 F 
ATOM    108  F   UNL     1      10.759 -16.145   5.616  1.00  0.00    -0.200 F 
ATOM    109  C   UNL     1       9.872 -14.883   7.402  1.00  0.00     0.200 A 
ATOM    110  F   UNL     1       8.966 -13.585   9.154  1.00  0.00    -0.200 F 
ATOM    111  F   UNL     1      10.538 -15.638   8.286  1.00  0.00    -0.200 F 
ENDBRANCH  78 101
ENDBRANCH  52  53
ENDBRANCH  45  47
ENDBRANCH  44  45
ENDBRANCH  43  44
ENDBRANCH  42  43
ENDBRANCH  41  42
ENDBRANCH  40  41
ENDBRANCH  39  40
ENDBRANCH  38  39
ENDBRANCH  37  38
ENDBRANCH   1  37
TORSDOF 26
