REMARK SMILES Cc1ccc(N2C(=O)C[C@H](Sc3ccccc3C(=O)OCCOCCOCCOCCOC(=O)c3ccc(-c4c5nc(c(-c6c(F)c(F)c(F)c(F)c6F)c6ccc([nH]6)c(-c6c(F)c(F)c(F)c(F)c6F)c6nc(c(-c7c(F)c(F)c(F)c(F)c7F)c7ccc4[nH]7)C=C6)C=C5)cc3)C2=O)cc1
REMARK SMILES IDX 25 1 24 2 23 3 22 4 21 5 20 6 18 7 19 8 17 9 12 10 13 11
REMARK SMILES IDX 14 12 16 13 15 14 11 15 10 16 6 17 7 18 98 19 8 20 9 21
REMARK SMILES IDX 99 22 5 23 1 24 2 25 3 26 101 27 4 28 100 29 26 30 27 31
REMARK SMILES IDX 28 32 29 33 30 34 31 35 32 36 33 37 34 38 35 39 36 40 97 41
REMARK SMILES IDX 37 42 96 43 38 44 39 45 40 46 90 47 41 48 95 49 89 50 91 51
REMARK SMILES IDX 42 52 94 53 88 54 87 55 43 57 75 58 55 59 74 60 56 61 59 62
REMARK SMILES IDX 73 63 92 64 57 65 58 66 72 68 93 69 60 70 44 71 45 72 53 73
REMARK SMILES IDX 46 74 47 75 51 76 54 77 48 78 49 79 52 80 50 81 76 82 77 83
REMARK SMILES IDX 85 84 78 85 79 86 83 87 86 88 80 89 81 90 84 91 82 92 61 93
REMARK SMILES IDX 62 94 70 95 63 96 64 97 68 98 71 99 65 100 66 101 69 102
REMARK SMILES IDX 67 103
REMARK H PARENT 91 56 59 67
REMARK Flexibility Score: inf
ROOT
ATOM      1  C   UNL     1      -3.362   3.063  -0.269  1.00  0.00     0.188 C 
ENDROOT
BRANCH   1   2
ATOM      2  C   UNL     1      -4.783   2.531  -0.051  1.00  0.00     0.188 C 
BRANCH   2   3
ATOM      3  O   UNL     1      -5.327   1.860  -1.174  1.00  0.00    -0.376 OA
BRANCH   3   4
ATOM      4  C   UNL     1      -6.380   0.924  -0.975  1.00  0.00     0.202 C 
BRANCH   4   5
ATOM      5  C   UNL     1      -7.583   1.256  -0.107  1.00  0.00     0.261 C 
BRANCH   5   6
ATOM      6  O   UNL     1      -7.241   2.004   1.039  1.00  0.00    -0.460 OA
BRANCH   6   7
ATOM      7  C   UNL     1      -7.442   1.388   2.213  1.00  0.00     0.339 C 
ATOM      8  O   UNL     1      -8.168   0.430   2.420  1.00  0.00    -0.246 OA
BRANCH   7   9
ATOM      9  C   UNL     1      -6.359   1.903   3.072  1.00  0.00     0.073 A 
ATOM     10  C   UNL     1      -5.548   1.024   3.817  1.00  0.00     0.023 A 
ATOM     11  C   UNL     1      -4.549   1.602   4.610  1.00  0.00     0.016 A 
ATOM     12  C   UNL     1      -4.300   2.982   4.591  1.00  0.00     0.001 A 
ATOM     13  C   UNL     1      -6.085   3.293   3.030  1.00  0.00     0.017 A 
ATOM     14  C   UNL     1      -5.043   3.826   3.775  1.00  0.00     0.001 A 
BRANCH  10  15
ATOM     15  S   UNL     1      -5.787  -0.749   4.012  1.00  0.00    -0.111 SA
BRANCH  15  16
ATOM     16  C   UNL     1      -4.896  -1.600   2.639  1.00  0.00     0.151 C 
ATOM     17  N   UNL     1      -2.867  -0.804   1.795  1.00  0.00    -0.250 N 
ATOM     18  C   UNL     1      -3.788  -0.585   0.811  1.00  0.00     0.235 C 
ATOM     19  C   UNL     1      -3.391  -1.593   2.783  1.00  0.00     0.247 C 
ATOM     20  O   UNL     1      -3.567  -0.189  -0.305  1.00  0.00    -0.274 OA
ATOM     21  C   UNL     1      -5.128  -1.075   1.257  1.00  0.00     0.126 C 
ATOM     22  O   UNL     1      -2.776  -2.254   3.609  1.00  0.00    -0.273 OA
BRANCH  17  23
ATOM     23  C   UNL     1      -1.504  -0.646   1.480  1.00  0.00     0.052 A 
ATOM     24  C   UNL     1       2.481  -0.073  -0.068  1.00  0.00     0.044 C 
ATOM     25  C   UNL     1       1.082  -0.259   0.443  1.00  0.00    -0.051 A 
ATOM     26  C   UNL     1       0.534  -1.546   0.535  1.00  0.00     0.005 A 
ATOM     27  C   UNL     1       0.321   0.835   0.865  1.00  0.00     0.005 A 
ATOM     28  C   UNL     1      -0.749  -1.742   1.057  1.00  0.00     0.027 A 
ATOM     29  C   UNL     1      -0.968   0.643   1.371  1.00  0.00     0.027 A 
ENDBRANCH  17  23
ENDBRANCH  15  16
ENDBRANCH  10  15
ENDBRANCH   7   9
ENDBRANCH   6   7
ENDBRANCH   5   6
ENDBRANCH   4   5
ENDBRANCH   3   4
ENDBRANCH   2   3
ENDBRANCH   1   2
BRANCH   1  30
ATOM     30  O   UNL     1      -3.130   3.830  -1.448  1.00  0.00    -0.377 OA
BRANCH  30  31
ATOM     31  C   UNL     1      -2.981   3.058  -2.639  1.00  0.00     0.188 C 
BRANCH  31  32
ATOM     32  C   UNL     1      -1.944   1.950  -2.645  1.00  0.00     0.188 C 
BRANCH  32  33
ATOM     33  O   UNL     1      -2.670   0.730  -2.741  1.00  0.00    -0.376 OA
BRANCH  33  34
ATOM     34  C   UNL     1      -1.907  -0.460  -2.827  1.00  0.00     0.202 C 
BRANCH  34  35
ATOM     35  C   UNL     1      -0.953  -0.464  -4.025  1.00  0.00     0.261 C 
BRANCH  35  36
ATOM     36  O   UNL     1      -1.701  -0.540  -5.270  1.00  0.00    -0.460 OA
BRANCH  36  37
ATOM     37  C   UNL     1      -1.986   0.623  -5.927  1.00  0.00     0.338 C 
ATOM     38  O   UNL     1      -1.173   1.271  -6.566  1.00  0.00    -0.246 OA
BRANCH  37  39
ATOM     39  C   UNL     1      -3.418   1.024  -5.756  1.00  0.00     0.060 A 
ATOM     40  C   UNL     1      -3.890   2.286  -6.159  1.00  0.00     0.016 A 
ATOM     41  C   UNL     1      -4.257   0.216  -5.008  1.00  0.00     0.016 A 
ATOM     42  C   UNL     1      -5.118   2.788  -5.670  1.00  0.00     0.010 A 
ATOM     43  C   UNL     1      -5.385   0.771  -4.425  1.00  0.00     0.010 A 
ATOM     44  C   UNL     1      -5.832   2.074  -4.712  1.00  0.00    -0.014 A 
BRANCH  44  45
ATOM     45  C   UNL     1      -6.953   2.608  -3.880  1.00  0.00     0.031 A 
ATOM     46  C   UNL     1      -8.174   1.716  -3.698  1.00  0.00     0.074 A 
ATOM     47  C   UNL     1      -6.703   3.642  -3.016  1.00  0.00     0.049 A 
ATOM     48  N   UNL     1      -9.150   1.919  -2.875  1.00  0.00    -0.248 NA
ATOM     49  C   UNL     1      -8.353   0.434  -4.392  1.00  0.00     0.031 C 
ATOM     50  C   UNL     1      -7.372   3.911  -1.743  1.00  0.00     0.029 A 
ATOM     51  N   UNL     1      -5.700   4.636  -3.000  1.00  0.00    -0.354 N 
ATOM     52  C   UNL     1      -9.825   0.722  -2.651  1.00  0.00     0.074 A 
ATOM     53  C   UNL     1      -9.348  -0.140  -3.702  1.00  0.00     0.031 C 
ATOM     54  C   UNL     1      -6.817   4.940  -1.081  1.00  0.00     0.029 A 
ATOM     55  C   UNL     1      -6.118   5.656  -2.098  1.00  0.00     0.049 A 
ATOM     56  H   UNL     1      -4.863   4.626  -3.518  1.00  0.00     0.167 HD
ATOM     57  C   UNL     1     -10.597   0.578  -1.518  1.00  0.00     0.037 A 
ATOM     58  C   UNL     1      -6.597   6.843  -2.582  1.00  0.00     0.037 A 
ATOM     59  C   UNL     1     -10.732   1.869  -0.783  1.00  0.00     0.049 A 
ATOM     60  C   UNL     1      -8.139   6.948  -2.423  1.00  0.00     0.074 A 
ATOM     61  C   UNL     1     -10.651   2.291   0.537  1.00  0.00     0.029 A 
ATOM     62  N   UNL     1     -10.834   3.053  -1.515  1.00  0.00    -0.354 N 
ATOM     63  N   UNL     1      -8.886   6.019  -1.860  1.00  0.00    -0.248 NA
ATOM     64  C   UNL     1      -8.977   8.060  -2.843  1.00  0.00     0.031 C 
ATOM     65  C   UNL     1     -10.661   3.727   0.562  1.00  0.00     0.029 A 
ATOM     66  C   UNL     1     -10.812   4.190  -0.735  1.00  0.00     0.049 A 
ATOM     67  H   UNL     1     -10.914   3.075  -2.496  1.00  0.00     0.167 HD
ATOM     68  C   UNL     1     -10.213   6.311  -1.870  1.00  0.00     0.074 A 
ATOM     69  C   UNL     1     -10.215   7.617  -2.523  1.00  0.00     0.031 C 
ATOM     70  C   UNL     1     -11.178   5.463  -1.363  1.00  0.00     0.037 A 
BRANCH  57  71
ATOM     71  C   UNL     1     -11.131  -0.755  -0.926  1.00  0.00     0.064 A 
ATOM     72  C   UNL     1     -12.028  -0.751   0.175  1.00  0.00     0.173 A 
ATOM     73  C   UNL     1     -10.739  -2.059  -1.313  1.00  0.00     0.173 A 
ATOM     74  F   UNL     1     -12.553   0.391   0.638  1.00  0.00    -0.203 F 
ATOM     75  C   UNL     1     -12.443  -1.917   0.846  1.00  0.00     0.198 A 
ATOM     76  C   UNL     1     -11.208  -3.230  -0.684  1.00  0.00     0.198 A 
ATOM     77  F   UNL     1      -9.848  -2.272  -2.285  1.00  0.00    -0.203 F 
ATOM     78  F   UNL     1     -13.238  -1.822   1.922  1.00  0.00    -0.200 F 
ATOM     79  C   UNL     1     -12.042  -3.159   0.410  1.00  0.00     0.200 A 
ATOM     80  F   UNL     1     -10.820  -4.432  -1.140  1.00  0.00    -0.200 F 
ATOM     81  F   UNL     1     -12.450  -4.274   1.034  1.00  0.00    -0.200 F 
ENDBRANCH  57  71
BRANCH  58  82
ATOM     82  C   UNL     1      -5.604   7.325  -3.610  1.00  0.00     0.064 A 
ATOM     83  C   UNL     1      -4.294   7.552  -3.094  1.00  0.00     0.173 A 
ATOM     84  C   UNL     1      -5.676   6.839  -4.925  1.00  0.00     0.173 A 
ATOM     85  F   UNL     1      -4.146   8.052  -1.856  1.00  0.00    -0.203 F 
ATOM     86  C   UNL     1      -3.156   7.050  -3.735  1.00  0.00     0.198 A 
ATOM     87  C   UNL     1      -4.521   6.380  -5.582  1.00  0.00     0.198 A 
ATOM     88  F   UNL     1      -6.870   6.605  -5.487  1.00  0.00    -0.203 F 
ATOM     89  F   UNL     1      -1.966   7.075  -3.116  1.00  0.00    -0.200 F 
ATOM     90  C   UNL     1      -3.281   6.415  -4.956  1.00  0.00     0.200 A 
ATOM     91  F   UNL     1      -4.628   5.781  -6.777  1.00  0.00    -0.200 F 
ATOM     92  F   UNL     1      -2.229   5.785  -5.500  1.00  0.00    -0.200 F 
ENDBRANCH  58  82
BRANCH  70  93
ATOM     93  C   UNL     1     -12.666   5.696  -1.494  1.00  0.00     0.064 A 
ATOM     94  C   UNL     1     -13.240   6.965  -1.435  1.00  0.00     0.173 A 
ATOM     95  C   UNL     1     -13.585   4.620  -1.649  1.00  0.00     0.173 A 
ATOM     96  F   UNL     1     -12.518   8.028  -1.055  1.00  0.00    -0.203 F 
ATOM     97  C   UNL     1     -14.589   7.166  -1.728  1.00  0.00     0.198 A 
ATOM     98  C   UNL     1     -14.939   4.817  -1.880  1.00  0.00     0.198 A 
ATOM     99  F   UNL     1     -13.221   3.334  -1.595  1.00  0.00    -0.203 F 
ATOM    100  F   UNL     1     -15.070   8.414  -1.777  1.00  0.00    -0.200 F 
ATOM    101  C   UNL     1     -15.432   6.096  -1.973  1.00  0.00     0.200 A 
ATOM    102  F   UNL     1     -15.747   3.759  -2.033  1.00  0.00    -0.200 F 
ATOM    103  F   UNL     1     -16.718   6.295  -2.282  1.00  0.00    -0.200 F 
ENDBRANCH  70  93
ENDBRANCH  44  45
ENDBRANCH  37  39
ENDBRANCH  36  37
ENDBRANCH  35  36
ENDBRANCH  34  35
ENDBRANCH  33  34
ENDBRANCH  32  33
ENDBRANCH  31  32
ENDBRANCH  30  31
ENDBRANCH   1  30
TORSDOF 23
