REMARK SMILES O=C(OCCOCCOCCOCCOC(=O)[C@@H]1C[C@@H]2CC[C@H]1N2C(=O)C[C@H]1CCCCO1)c1ccc(-c2c3nc(c(-c4c(F)c(F)c(F)c(F)c4F)c4ccc([nH]4)c(-c4c(F)c(F)c(F)c(F)c4F)c4nc(c(-c5c(F)c(F)c(F)c(F)c5F)c5ccc2[nH]5)C=C4)C=C3)cc1
REMARK SMILES IDX 10 1 9 2 8 3 7 4 6 5 5 6 4 7 3 8 2 9 1 10 34 11 35 12 96 13
REMARK SMILES IDX 36 14 95 15 37 16 38 17 39 18 89 19 40 20 94 21 88 22 90 23
REMARK SMILES IDX 41 24 93 25 87 26 86 27 42 29 74 30 54 31 73 32 55 33 58 34
REMARK SMILES IDX 72 35 91 36 56 37 57 38 71 40 92 41 59 42 43 43 44 44 52 45
REMARK SMILES IDX 45 46 46 47 50 48 53 49 47 50 48 51 51 52 49 53 75 54 76 55
REMARK SMILES IDX 84 56 77 57 78 58 82 59 85 60 79 61 80 62 83 63 81 64 60 65
REMARK SMILES IDX 61 66 69 67 62 68 63 69 67 70 70 71 64 72 65 73 68 74 66 75
REMARK SMILES IDX 11 76 12 77 13 78 14 79 15 80 16 81 17 82 18 83 19 84 23 85
REMARK SMILES IDX 20 86 22 87 24 88 21 89 25 90 26 91 27 92 28 93 29 94 33 95
REMARK SMILES IDX 30 96 32 97 31 98
REMARK H PARENT 90 28 58 39
REMARK Flexibility Score: inf
ROOT
ATOM      1  C   UNL     1       2.031  -7.593   7.804  1.00  0.00     0.188 C 
ENDROOT
BRANCH   1   2
ATOM      2  O   UNL     1       2.363  -8.793   7.120  1.00  0.00    -0.377 OA
BRANCH   2   3
ATOM      3  C   UNL     1       1.369  -9.810   7.167  1.00  0.00     0.188 C 
BRANCH   3   4
ATOM      4  C   UNL     1       1.093 -10.274   8.593  1.00  0.00     0.188 C 
BRANCH   4   5
ATOM      5  O   UNL     1       0.532  -9.182   9.307  1.00  0.00    -0.376 OA
BRANCH   5   6
ATOM      6  C   UNL     1       0.938  -8.994  10.656  1.00  0.00     0.202 C 
BRANCH   6   7
ATOM      7  C   UNL     1       0.306  -9.976  11.621  1.00  0.00     0.261 C 
BRANCH   7   8
ATOM      8  O   UNL     1      -0.474 -11.024  11.016  1.00  0.00    -0.460 OA
BRANCH   8   9
ATOM      9  C   UNL     1      -1.595 -11.035  10.266  1.00  0.00     0.338 C 
ATOM     10  O   UNL     1      -1.933 -12.109   9.764  1.00  0.00    -0.246 OA
BRANCH   9  11
ATOM     11  C   UNL     1      -2.501  -9.874  10.020  1.00  0.00     0.060 A 
ATOM     12  C   UNL     1      -2.117  -8.544   9.870  1.00  0.00     0.016 A 
ATOM     13  C   UNL     1      -3.853 -10.183   9.790  1.00  0.00     0.016 A 
ATOM     14  C   UNL     1      -3.004  -7.551   9.510  1.00  0.00     0.010 A 
ATOM     15  C   UNL     1      -4.768  -9.191   9.431  1.00  0.00     0.010 A 
ATOM     16  C   UNL     1      -4.333  -7.870   9.299  1.00  0.00    -0.014 A 
BRANCH  16  17
ATOM     17  C   UNL     1      -5.256  -6.743   9.153  1.00  0.00     0.031 A 
ATOM     18  C   UNL     1      -6.061  -6.379  10.355  1.00  0.00     0.074 A 
ATOM     19  C   UNL     1      -5.219  -5.985   8.045  1.00  0.00     0.049 A 
ATOM     20  N   UNL     1      -7.056  -5.548  10.462  1.00  0.00    -0.248 NA
ATOM     21  C   UNL     1      -5.682  -7.037  11.621  1.00  0.00     0.031 C 
ATOM     22  C   UNL     1      -4.288  -6.163   6.926  1.00  0.00     0.029 A 
ATOM     23  N   UNL     1      -5.967  -4.899   7.686  1.00  0.00    -0.354 N 
ATOM     24  C   UNL     1      -7.469  -5.641  11.783  1.00  0.00     0.074 A 
ATOM     25  C   UNL     1      -6.596  -6.571  12.456  1.00  0.00     0.031 C 
ATOM     26  C   UNL     1      -4.533  -5.224   5.998  1.00  0.00     0.029 A 
ATOM     27  C   UNL     1      -5.699  -4.457   6.414  1.00  0.00     0.049 A 
ATOM     28  H   UNL     1      -6.631  -4.478   8.279  1.00  0.00     0.167 HD
ATOM     29  C   UNL     1      -8.522  -5.015  12.349  1.00  0.00     0.037 A 
ATOM     30  C   UNL     1      -6.393  -3.590   5.656  1.00  0.00     0.037 A 
ATOM     31  C   UNL     1      -9.337  -4.083  11.623  1.00  0.00     0.049 A 
ATOM     32  C   UNL     1      -7.634  -2.994   6.270  1.00  0.00     0.074 A 
ATOM     33  C   UNL     1     -10.462  -3.404  12.040  1.00  0.00     0.029 A 
ATOM     34  N   UNL     1      -9.095  -3.707  10.306  1.00  0.00    -0.354 N 
ATOM     35  N   UNL     1      -8.102  -3.139   7.489  1.00  0.00    -0.248 NA
ATOM     36  C   UNL     1      -8.462  -2.149   5.404  1.00  0.00     0.031 C 
ATOM     37  C   UNL     1     -10.935  -2.662  10.953  1.00  0.00     0.029 A 
ATOM     38  C   UNL     1     -10.072  -2.832   9.878  1.00  0.00     0.049 A 
ATOM     39  H   UNL     1      -8.337  -4.019   9.759  1.00  0.00     0.167 HD
ATOM     40  C   UNL     1      -9.273  -2.400   7.542  1.00  0.00     0.074 A 
ATOM     41  C   UNL     1      -9.428  -1.785   6.237  1.00  0.00     0.031 C 
ATOM     42  C   UNL     1     -10.154  -2.245   8.562  1.00  0.00     0.037 A 
BRANCH  29  43
ATOM     43  C   UNL     1      -8.897  -5.418  13.740  1.00  0.00     0.064 A 
ATOM     44  C   UNL     1      -8.136  -5.064  14.863  1.00  0.00     0.173 A 
ATOM     45  C   UNL     1     -10.034  -6.216  13.943  1.00  0.00     0.173 A 
ATOM     46  F   UNL     1      -7.017  -4.339  14.719  1.00  0.00    -0.203 F 
ATOM     47  C   UNL     1      -8.491  -5.508  16.136  1.00  0.00     0.198 A 
ATOM     48  C   UNL     1     -10.400  -6.636  15.218  1.00  0.00     0.198 A 
ATOM     49  F   UNL     1     -10.783  -6.603  12.900  1.00  0.00    -0.203 F 
ATOM     50  F   UNL     1      -7.720  -5.204  17.189  1.00  0.00    -0.200 F 
ATOM     51  C   UNL     1      -9.626  -6.286  16.313  1.00  0.00     0.200 A 
ATOM     52  F   UNL     1     -11.495  -7.391  15.385  1.00  0.00    -0.200 F 
ATOM     53  F   UNL     1      -9.963  -6.714  17.538  1.00  0.00    -0.200 F 
ENDBRANCH  29  43
BRANCH  30  54
ATOM     54  C   UNL     1      -6.018  -3.344   4.236  1.00  0.00     0.064 A 
ATOM     55  C   UNL     1      -5.674  -2.064   3.781  1.00  0.00     0.173 A 
ATOM     56  C   UNL     1      -6.034  -4.382   3.288  1.00  0.00     0.173 A 
ATOM     57  F   UNL     1      -5.661  -1.031   4.636  1.00  0.00    -0.203 F 
ATOM     58  C   UNL     1      -5.390  -1.827   2.436  1.00  0.00     0.198 A 
ATOM     59  C   UNL     1      -5.714  -4.151   1.951  1.00  0.00     0.198 A 
ATOM     60  F   UNL     1      -6.362  -5.629   3.658  1.00  0.00    -0.203 F 
ATOM     61  F   UNL     1      -5.125  -0.581   2.020  1.00  0.00    -0.200 F 
ATOM     62  C   UNL     1      -5.406  -2.871   1.523  1.00  0.00     0.200 A 
ATOM     63  F   UNL     1      -5.716  -5.168   1.078  1.00  0.00    -0.200 F 
ATOM     64  F   UNL     1      -5.139  -2.640   0.230  1.00  0.00    -0.200 F 
ENDBRANCH  30  54
BRANCH  42  65
ATOM     65  C   UNL     1     -11.333  -1.363   8.303  1.00  0.00     0.064 A 
ATOM     66  C   UNL     1     -12.402  -1.792   7.506  1.00  0.00     0.173 A 
ATOM     67  C   UNL     1     -11.429  -0.115   8.935  1.00  0.00     0.173 A 
ATOM     68  F   UNL     1     -12.341  -2.972   6.870  1.00  0.00    -0.203 F 
ATOM     69  C   UNL     1     -13.528  -0.993   7.343  1.00  0.00     0.198 A 
ATOM     70  C   UNL     1     -12.570   0.664   8.798  1.00  0.00     0.198 A 
ATOM     71  F   UNL     1     -10.430   0.327   9.715  1.00  0.00    -0.203 F 
ATOM     72  F   UNL     1     -14.527  -1.403   6.550  1.00  0.00    -0.200 F 
ATOM     73  C   UNL     1     -13.617   0.226   7.999  1.00  0.00     0.200 A 
ATOM     74  F   UNL     1     -12.663   1.832   9.448  1.00  0.00    -0.200 F 
ATOM     75  F   UNL     1     -14.714   0.983   7.861  1.00  0.00    -0.200 F 
ENDBRANCH  42  65
ENDBRANCH  16  17
ENDBRANCH   9  11
ENDBRANCH   8   9
ENDBRANCH   7   8
ENDBRANCH   6   7
ENDBRANCH   5   6
ENDBRANCH   4   5
ENDBRANCH   3   4
ENDBRANCH   2   3
ENDBRANCH   1   2
BRANCH   1  76
ATOM     76  C   UNL     1       0.873  -6.744   7.312  1.00  0.00     0.188 C 
BRANCH  76  77
ATOM     77  O   UNL     1       0.475  -7.078   5.995  1.00  0.00    -0.376 OA
BRANCH  77  78
ATOM     78  C   UNL     1       1.120  -6.319   4.978  1.00  0.00     0.202 C 
BRANCH  78  79
ATOM     79  C   UNL     1       2.553  -6.741   4.591  1.00  0.00     0.261 C 
BRANCH  79  80
ATOM     80  O   UNL     1       3.605  -6.728   5.589  1.00  0.00    -0.463 OA
BRANCH  80  81
ATOM     81  C   UNL     1       3.897  -5.593   6.268  1.00  0.00     0.311 C 
ATOM     82  O   UNL     1       3.339  -4.517   6.069  1.00  0.00    -0.252 OA
BRANCH  81  83
ATOM     83  C   UNL     1       5.025  -5.793   7.282  1.00  0.00     0.124 C 
ATOM     84  C   UNL     1       5.348  -7.131   8.027  1.00  0.00     0.042 C 
ATOM     85  C   UNL     1       4.992  -4.794   8.455  1.00  0.00     0.099 C 
ATOM     86  C   UNL     1       5.583  -6.675   9.495  1.00  0.00     0.086 C 
ATOM     87  C   UNL     1       3.818  -5.061   9.430  1.00  0.00     0.028 C 
ATOM     88  N   UNL     1       6.063  -5.338   9.270  1.00  0.00    -0.336 N 
ATOM     89  C   UNL     1       4.264  -6.340  10.184  1.00  0.00     0.027 C 
BRANCH  88  90
ATOM     90  C   UNL     1       7.180  -4.780   9.805  1.00  0.00     0.225 C 
ATOM     91  O   UNL     1       7.779  -5.291  10.750  1.00  0.00    -0.275 OA
BRANCH  90  92
ATOM     92  C   UNL     1       7.734  -3.573   9.087  1.00  0.00     0.132 C 
BRANCH  92  93
ATOM     93  C   UNL     1       8.281  -3.930   7.689  1.00  0.00     0.127 C 
ATOM     94  C   UNL     1       8.817  -5.367   7.559  1.00  0.00     0.033 C 
ATOM     95  O   UNL     1       7.248  -3.685   6.725  1.00  0.00    -0.378 OA
ATOM     96  C   UNL     1       9.195  -5.731   6.129  1.00  0.00     0.005 C 
ATOM     97  C   UNL     1       7.677  -3.871   5.378  1.00  0.00     0.160 C 
ATOM     98  C   UNL     1       8.134  -5.301   5.124  1.00  0.00     0.029 C 
ENDBRANCH  92  93
ENDBRANCH  90  92
ENDBRANCH  88  90
ENDBRANCH  81  83
ENDBRANCH  80  81
ENDBRANCH  79  80
ENDBRANCH  78  79
ENDBRANCH  77  78
ENDBRANCH  76  77
ENDBRANCH   1  76
TORSDOF 23
