REMARK SMILES CC(C)(C)OC(=O)N1CCC[C@H]1C(=O)N[C@@H](Cc1ccccc1)C(=O)OCCOCCOCCOCCOC(=O)c1ccc(-c2c3nc(c(-c4c(F)c(F)c(F)c(F)c4F)c4ccc([nH]4)c(-c4c(F)c(F)c(F)c(F)c4F)c4nc(c(-c5c(F)c(F)c(F)c(F)c5F)c5ccc2[nH]5)C=C4)C=C3)cc1
REMARK SMILES IDX 30 1 29 2 28 3 27 4 26 5 24 6 25 7 16 8 15 9 13 10 14 11
REMARK SMILES IDX 12 13 8 14 9 15 10 16 11 17 6 18 7 19 5 20 2 21 1 22 3 23
REMARK SMILES IDX 4 24 17 25 18 26 19 27 23 28 20 29 22 30 21 31 31 32 32 33
REMARK SMILES IDX 33 34 34 35 35 36 36 37 37 38 38 39 39 40 40 41 41 42 42 43
REMARK SMILES IDX 103 44 43 45 102 46 44 47 45 48 46 49 96 50 47 51 101 52
REMARK SMILES IDX 95 53 97 54 48 55 100 56 94 57 93 58 49 60 81 61 61 62 80 63
REMARK SMILES IDX 62 64 65 65 79 66 98 67 63 68 64 69 78 71 99 72 66 73 50 74
REMARK SMILES IDX 51 75 59 76 52 77 53 78 57 79 60 80 54 81 55 82 58 83 56 84
REMARK SMILES IDX 82 85 83 86 91 87 84 88 85 89 89 90 92 91 86 92 87 93 90 94
REMARK SMILES IDX 88 95 67 96 68 97 76 98 69 99 70 100 74 101 77 102 71 103
REMARK SMILES IDX 72 104 75 105 73 106
REMARK H PARENT 15 12 97 59 65 70
REMARK Flexibility Score: inf
ROOT
ATOM      1  C   UNL     1      -3.101   4.260  -8.029  1.00  0.00     0.188 C 
ENDROOT
BRANCH   1   2
ATOM      2  O   UNL     1      -3.860   5.006  -8.973  1.00  0.00    -0.376 OA
BRANCH   2   3
ATOM      3  C   UNL     1      -3.610   4.892 -10.368  1.00  0.00     0.202 C 
BRANCH   3   4
ATOM      4  C   UNL     1      -2.178   4.879 -10.919  1.00  0.00     0.261 C 
BRANCH   4   5
ATOM      5  O   UNL     1      -1.259   4.071 -10.166  1.00  0.00    -0.462 OA
BRANCH   5   6
ATOM      6  C   UNL     1      -0.242   4.714  -9.559  1.00  0.00     0.329 C 
ATOM      7  O   UNL     1      -0.033   5.921  -9.656  1.00  0.00    -0.250 OA
BRANCH   6   8
ATOM      8  C   UNL     1       0.745   3.783  -8.817  1.00  0.00     0.196 C 
BRANCH   8   9
ATOM      9  N   UNL     1       0.452   2.457  -8.220  1.00  0.00    -0.341 N 
ATOM     10  C   UNL     1       0.597   1.911  -6.973  1.00  0.00     0.243 C 
ATOM     11  O   UNL     1       0.593   0.675  -6.943  1.00  0.00    -0.273 OA
ATOM     12  H   UNL     1       0.064   1.825  -8.868  1.00  0.00     0.164 HD
BRANCH  10  13
ATOM     13  C   UNL     1       0.603   2.752  -5.667  1.00  0.00     0.178 C 
ATOM     14  N   UNL     1       1.102   1.998  -4.502  1.00  0.00    -0.296 N 
ATOM     15  C   UNL     1       2.402   2.481  -4.086  1.00  0.00     0.124 C 
ATOM     16  C   UNL     1       2.308   3.957  -4.397  1.00  0.00     0.024 C 
ATOM     17  C   UNL     1       1.537   3.968  -5.709  1.00  0.00     0.037 C 
BRANCH  14  18
ATOM     18  C   UNL     1       0.338   1.101  -3.792  1.00  0.00     0.410 C 
ATOM     19  O   UNL     1      -0.771   0.717  -4.150  1.00  0.00    -0.224 OA
BRANCH  18  20
ATOM     20  O   UNL     1       0.937   0.761  -2.621  1.00  0.00    -0.444 OA
BRANCH  20  21
ATOM     21  C   UNL     1       0.409  -0.209  -1.676  1.00  0.00     0.106 C 
ATOM     22  C   UNL     1       1.073   0.138  -0.332  1.00  0.00     0.056 C 
ATOM     23  C   UNL     1       0.866  -1.602  -2.113  1.00  0.00     0.056 C 
ATOM     24  C   UNL     1      -1.110  -0.153  -1.479  1.00  0.00     0.056 C 
ENDBRANCH  20  21
ENDBRANCH  18  20
ENDBRANCH  14  18
ENDBRANCH  10  13
ENDBRANCH   8   9
BRANCH   8  25
ATOM     25  C   UNL     1       1.939   3.616  -9.778  1.00  0.00     0.072 C 
BRANCH  25  26
ATOM     26  C   UNL     1       1.680   2.972 -11.134  1.00  0.00    -0.045 A 
ATOM     27  C   UNL     1       2.577   3.275 -12.169  1.00  0.00     0.004 A 
ATOM     28  C   UNL     1       0.626   2.090 -11.426  1.00  0.00     0.004 A 
ATOM     29  C   UNL     1       2.412   2.737 -13.447  1.00  0.00     0.000 A 
ATOM     30  C   UNL     1       0.465   1.543 -12.701  1.00  0.00     0.000 A 
ATOM     31  C   UNL     1       1.357   1.870 -13.714  1.00  0.00     0.000 A 
ENDBRANCH  25  26
ENDBRANCH   8  25
ENDBRANCH   6   8
ENDBRANCH   5   6
ENDBRANCH   4   5
ENDBRANCH   3   4
ENDBRANCH   2   3
ENDBRANCH   1   2
BRANCH   1  32
ATOM     32  C   UNL     1      -2.826   2.759  -8.239  1.00  0.00     0.188 C 
BRANCH  32  33
ATOM     33  O   UNL     1      -3.019   2.289  -9.559  1.00  0.00    -0.377 OA
BRANCH  33  34
ATOM     34  C   UNL     1      -4.248   1.626  -9.820  1.00  0.00     0.188 C 
BRANCH  34  35
ATOM     35  C   UNL     1      -5.517   2.150  -9.114  1.00  0.00     0.188 C 
BRANCH  35  36
ATOM     36  O   UNL     1      -5.373   2.354  -7.717  1.00  0.00    -0.376 OA
BRANCH  36  37
ATOM     37  C   UNL     1      -5.771   1.328  -6.819  1.00  0.00     0.202 C 
BRANCH  37  38
ATOM     38  C   UNL     1      -5.048  -0.030  -6.877  1.00  0.00     0.261 C 
BRANCH  38  39
ATOM     39  O   UNL     1      -5.060  -0.712  -8.142  1.00  0.00    -0.460 OA
BRANCH  39  40
ATOM     40  C   UNL     1      -6.255  -1.009  -8.692  1.00  0.00     0.338 C 
ATOM     41  O   UNL     1      -7.356  -0.823  -8.211  1.00  0.00    -0.246 OA
BRANCH  40  42
ATOM     42  C   UNL     1      -6.014  -1.413 -10.095  1.00  0.00     0.060 A 
ATOM     43  C   UNL     1      -6.619  -0.675 -11.121  1.00  0.00     0.016 A 
ATOM     44  C   UNL     1      -5.199  -2.506 -10.398  1.00  0.00     0.016 A 
ATOM     45  C   UNL     1      -6.447  -1.055 -12.452  1.00  0.00     0.010 A 
ATOM     46  C   UNL     1      -5.050  -2.903 -11.730  1.00  0.00     0.010 A 
ATOM     47  C   UNL     1      -5.705  -2.202 -12.759  1.00  0.00    -0.014 A 
BRANCH  47  48
ATOM     48  C   UNL     1      -5.797  -2.782 -14.120  1.00  0.00     0.031 A 
ATOM     49  C   UNL     1      -6.768  -3.908 -14.350  1.00  0.00     0.074 A 
ATOM     50  C   UNL     1      -5.072  -2.296 -15.142  1.00  0.00     0.049 A 
ATOM     51  N   UNL     1      -7.010  -4.594 -15.438  1.00  0.00    -0.248 NA
ATOM     52  C   UNL     1      -7.579  -4.314 -13.190  1.00  0.00     0.031 C 
ATOM     53  C   UNL     1      -4.139  -1.175 -15.059  1.00  0.00     0.029 A 
ATOM     54  N   UNL     1      -5.009  -2.692 -16.455  1.00  0.00    -0.354 N 
ATOM     55  C   UNL     1      -7.993  -5.513 -15.092  1.00  0.00     0.074 A 
ATOM     56  C   UNL     1      -8.278  -5.322 -13.687  1.00  0.00     0.031 C 
ATOM     57  C   UNL     1      -3.587  -0.979 -16.269  1.00  0.00     0.029 A 
ATOM     58  C   UNL     1      -4.101  -1.982 -17.201  1.00  0.00     0.049 A 
ATOM     59  H   UNL     1      -5.562  -3.417 -16.827  1.00  0.00     0.167 HD
ATOM     60  C   UNL     1      -8.609  -6.426 -15.878  1.00  0.00     0.037 A 
ATOM     61  C   UNL     1      -3.716  -2.143 -18.483  1.00  0.00     0.037 A 
ATOM     62  C   UNL     1      -8.317  -6.619 -17.274  1.00  0.00     0.049 A 
ATOM     63  C   UNL     1      -4.353  -3.230 -19.314  1.00  0.00     0.074 A 
ATOM     64  C   UNL     1      -8.891  -7.512 -18.161  1.00  0.00     0.029 A 
ATOM     65  N   UNL     1      -7.358  -5.911 -17.984  1.00  0.00    -0.354 N 
ATOM     66  N   UNL     1      -5.297  -4.080 -18.989  1.00  0.00    -0.248 NA
ATOM     67  C   UNL     1      -3.871  -3.375 -20.695  1.00  0.00     0.031 C 
ATOM     68  C   UNL     1      -8.235  -7.390 -19.390  1.00  0.00     0.029 A 
ATOM     69  C   UNL     1      -7.302  -6.370 -19.290  1.00  0.00     0.049 A 
ATOM     70  H   UNL     1      -6.799  -5.190 -17.614  1.00  0.00     0.167 HD
ATOM     71  C   UNL     1      -5.545  -4.835 -20.130  1.00  0.00     0.074 A 
ATOM     72  C   UNL     1      -4.663  -4.330 -21.161  1.00  0.00     0.031 C 
ATOM     73  C   UNL     1      -6.424  -5.853 -20.309  1.00  0.00     0.037 A 
BRANCH  60  74
ATOM     74  C   UNL     1      -9.639  -7.312 -15.235  1.00  0.00     0.064 A 
ATOM     75  C   UNL     1     -10.875  -6.814 -14.797  1.00  0.00     0.173 A 
ATOM     76  C   UNL     1      -9.394  -8.685 -15.080  1.00  0.00     0.173 A 
ATOM     77  F   UNL     1     -11.155  -5.506 -14.907  1.00  0.00    -0.203 F 
ATOM     78  C   UNL     1     -11.815  -7.652 -14.202  1.00  0.00     0.198 A 
ATOM     79  C   UNL     1     -10.349  -9.526 -14.516  1.00  0.00     0.198 A 
ATOM     80  F   UNL     1      -8.229  -9.214 -15.483  1.00  0.00    -0.203 F 
ATOM     81  F   UNL     1     -12.968  -7.144 -13.742  1.00  0.00    -0.200 F 
ATOM     82  C   UNL     1     -11.555  -9.008 -14.069  1.00  0.00     0.200 A 
ATOM     83  F   UNL     1     -10.101 -10.838 -14.402  1.00  0.00    -0.200 F 
ATOM     84  F   UNL     1     -12.464  -9.814 -13.505  1.00  0.00    -0.200 F 
ENDBRANCH  60  74
BRANCH  61  85
ATOM     85  C   UNL     1      -2.664  -1.266 -19.063  1.00  0.00     0.064 A 
ATOM     86  C   UNL     1      -2.958  -0.369 -20.100  1.00  0.00     0.173 A 
ATOM     87  C   UNL     1      -1.336  -1.328 -18.614  1.00  0.00     0.173 A 
ATOM     88  F   UNL     1      -4.206  -0.291 -20.584  1.00  0.00    -0.203 F 
ATOM     89  C   UNL     1      -1.961   0.412 -20.682  1.00  0.00     0.198 A 
ATOM     90  C   UNL     1      -0.347  -0.521 -19.173  1.00  0.00     0.198 A 
ATOM     91  F   UNL     1      -0.999  -2.170 -17.626  1.00  0.00    -0.203 F 
ATOM     92  F   UNL     1      -2.259   1.218 -21.710  1.00  0.00    -0.200 F 
ATOM     93  C   UNL     1      -0.658   0.340 -20.214  1.00  0.00     0.200 A 
ATOM     94  F   UNL     1       0.908  -0.583 -18.706  1.00  0.00    -0.200 F 
ATOM     95  F   UNL     1       0.300   1.093 -20.771  1.00  0.00    -0.200 F 
ENDBRANCH  61  85
BRANCH  73  96
ATOM     96  C   UNL     1      -6.511  -6.460 -21.683  1.00  0.00     0.064 A 
ATOM     97  C   UNL     1      -5.469  -7.229 -22.223  1.00  0.00     0.173 A 
ATOM     98  C   UNL     1      -7.671  -6.296 -22.457  1.00  0.00     0.173 A 
ATOM     99  F   UNL     1      -4.334  -7.408 -21.531  1.00  0.00    -0.203 F 
ATOM    100  C   UNL     1      -5.571  -7.780 -23.498  1.00  0.00     0.198 A 
ATOM    101  C   UNL     1      -7.785  -6.880 -23.716  1.00  0.00     0.198 A 
ATOM    102  F   UNL     1      -8.703  -5.579 -21.987  1.00  0.00    -0.203 F 
ATOM    103  F   UNL     1      -4.539  -8.460 -24.016  1.00  0.00    -0.200 F 
ATOM    104  C   UNL     1      -6.731  -7.612 -24.240  1.00  0.00     0.200 A 
ATOM    105  F   UNL     1      -8.914  -6.732 -24.422  1.00  0.00    -0.200 F 
ATOM    106  F   UNL     1      -6.829  -8.149 -25.464  1.00  0.00    -0.200 F 
ENDBRANCH  73  96
ENDBRANCH  47  48
ENDBRANCH  40  42
ENDBRANCH  39  40
ENDBRANCH  38  39
ENDBRANCH  37  38
ENDBRANCH  36  37
ENDBRANCH  35  36
ENDBRANCH  34  35
ENDBRANCH  33  34
ENDBRANCH  32  33
ENDBRANCH   1  32
TORSDOF 27
