REMARK SMILES COc1ccc(-c2ccc(/C=C3\SC(=S)N([C@H](Cc4ccccc4)C(=O)OCCOCCOCCOCCOC(=O)c4ccc(-c5c6nc(c(-c7c(F)c(F)c(F)c(F)c7F)c7ccc([nH]7)c(-c7c(F)c(F)c(F)c(F)c7F)c7nc(c(-c8c(F)c(F)c(F)c(F)c8F)c8ccc5[nH]8)C=C7)C=C6)cc4)C3=O)o2)cc1
REMARK SMILES IDX 32 1 31 2 30 3 29 4 28 5 27 6 25 7 26 8 17 9 16 10 11 11
REMARK SMILES IDX 12 12 13 13 105 14 14 15 106 16 15 17 10 18 7 19 8 20 107 21
REMARK SMILES IDX 9 22 6 23 3 24 4 25 109 26 5 27 108 28 2 29 1 30 18 31 19 32
REMARK SMILES IDX 20 33 24 34 21 35 23 36 22 37 33 38 34 39 35 40 36 41 37 42
REMARK SMILES IDX 38 43 39 44 40 45 41 46 42 47 43 48 104 49 44 50 103 51
REMARK SMILES IDX 45 52 46 53 47 54 97 55 48 56 102 57 96 58 98 59 49 60
REMARK SMILES IDX 101 61 95 62 94 63 50 65 82 66 62 67 81 68 63 69 66 70 80 71
REMARK SMILES IDX 99 72 64 73 65 74 79 76 100 77 67 78 51 79 52 80 60 81 53 82
REMARK SMILES IDX 54 83 58 84 61 85 55 86 56 87 59 88 57 89 83 90 84 91 92 92
REMARK SMILES IDX 85 93 86 94 90 95 93 96 87 97 88 98 91 99 89 100 68 101
REMARK SMILES IDX 69 102 77 103 70 104 71 105 75 106 78 107 72 108 73 109
REMARK SMILES IDX 76 110 74 111
REMARK H PARENT 98 64 66 75
REMARK Flexibility Score: inf
ROOT
ATOM      1  C   UNL     1       4.760   9.568  -9.734  1.00  0.00     0.188 C 
ENDROOT
BRANCH   1   2
ATOM      2  C   UNL     1       5.229  10.655 -10.718  1.00  0.00     0.188 C 
BRANCH   2   3
ATOM      3  O   UNL     1       6.120  11.682 -10.319  1.00  0.00    -0.376 OA
BRANCH   3   4
ATOM      4  C   UNL     1       5.921  12.529  -9.204  1.00  0.00     0.202 C 
BRANCH   4   5
ATOM      5  C   UNL     1       4.537  12.948  -8.702  1.00  0.00     0.261 C 
BRANCH   5   6
ATOM      6  O   UNL     1       3.552  11.903  -8.716  1.00  0.00    -0.462 OA
BRANCH   6   7
ATOM      7  C   UNL     1       2.381  12.193  -9.316  1.00  0.00     0.329 C 
ATOM      8  O   UNL     1       2.159  13.308  -9.781  1.00  0.00    -0.250 OA
BRANCH   7   9
ATOM      9  C   UNL     1       1.346  11.036  -9.427  1.00  0.00     0.206 C 
BRANCH   9  10
ATOM     10  N   UNL     1       0.067  11.694  -9.081  1.00  0.00    -0.278 N 
ATOM     11  C   UNL     1      -1.479  12.704  -6.119  1.00  0.00     0.068 C 
ATOM     12  C   UNL     1      -1.235  12.638  -7.426  1.00  0.00     0.084 C 
ATOM     13  S   UNL     1      -1.671  13.580  -8.780  1.00  0.00    -0.054 SA
ATOM     14  C   UNL     1      -0.544  11.444  -7.889  1.00  0.00     0.267 C 
ATOM     15  C   UNL     1      -0.610  12.626  -9.844  1.00  0.00     0.149 C 
ATOM     16  O   UNL     1      -0.780  10.353  -7.395  1.00  0.00    -0.268 OA
ATOM     17  S   UNL     1      -0.532  12.869 -11.492  1.00  0.00    -0.052 S 
BRANCH  11  18
ATOM     18  C   UNL     1      -2.493  13.516  -5.592  1.00  0.00     0.128 A 
ATOM     19  C   UNL     1      -3.554  14.850  -4.215  1.00  0.00     0.134 A 
ATOM     20  C   UNL     1      -4.519  14.309  -5.031  1.00  0.00     0.051 A 
ATOM     21  O   UNL     1      -2.324  14.384  -4.548  1.00  0.00    -0.457 OA
ATOM     22  C   UNL     1      -3.840  13.465  -5.920  1.00  0.00     0.051 A 
BRANCH  19  23
ATOM     23  C   UNL     1      -3.625  15.724  -3.071  1.00  0.00     0.017 A 
ATOM     24  C   UNL     1      -3.950  17.462  -0.909  1.00  0.00     0.118 A 
ATOM     25  C   UNL     1      -3.109  17.809  -1.969  1.00  0.00     0.047 A 
ATOM     26  C   UNL     1      -4.630  16.244  -0.930  1.00  0.00     0.047 A 
ATOM     27  C   UNL     1      -2.929  16.934  -3.042  1.00  0.00     0.016 A 
ATOM     28  C   UNL     1      -4.465  15.378  -2.008  1.00  0.00     0.016 A 
BRANCH  24  29
ATOM     29  O   UNL     1      -4.086  18.402   0.074  1.00  0.00    -0.497 OA
ATOM     30  C   UNL     1      -4.255  17.866   1.382  1.00  0.00     0.278 C 
ENDBRANCH  24  29
ENDBRANCH  19  23
ENDBRANCH  11  18
ENDBRANCH   9  10
BRANCH   9  31
ATOM     31  C   UNL     1       1.568   9.645  -8.751  1.00  0.00     0.073 C 
BRANCH  31  32
ATOM     32  C   UNL     1       1.708   9.417  -7.249  1.00  0.00    -0.045 A 
ATOM     33  C   UNL     1       1.120   8.249  -6.712  1.00  0.00     0.004 A 
ATOM     34  C   UNL     1       2.300  10.310  -6.351  1.00  0.00     0.004 A 
ATOM     35  C   UNL     1       1.028   8.044  -5.333  1.00  0.00     0.000 A 
ATOM     36  C   UNL     1       2.227  10.093  -4.968  1.00  0.00     0.000 A 
ATOM     37  C   UNL     1       1.570   8.976  -4.459  1.00  0.00     0.000 A 
ENDBRANCH  31  32
ENDBRANCH   9  31
ENDBRANCH   7   9
ENDBRANCH   6   7
ENDBRANCH   5   6
ENDBRANCH   4   5
ENDBRANCH   3   4
ENDBRANCH   2   3
ENDBRANCH   1   2
BRANCH   1  38
ATOM     38  O   UNL     1       5.622   8.694  -9.049  1.00  0.00    -0.377 OA
BRANCH  38  39
ATOM     39  C   UNL     1       6.719   9.300  -8.404  1.00  0.00     0.188 C 
BRANCH  39  40
ATOM     40  C   UNL     1       7.925   9.312  -9.341  1.00  0.00     0.188 C 
BRANCH  40  41
ATOM     41  O   UNL     1       7.611   8.758 -10.618  1.00  0.00    -0.376 OA
BRANCH  41  42
ATOM     42  C   UNL     1       7.794   7.351 -10.779  1.00  0.00     0.202 C 
BRANCH  42  43
ATOM     43  C   UNL     1       6.986   6.366  -9.904  1.00  0.00     0.261 C 
BRANCH  43  44
ATOM     44  O   UNL     1       7.204   6.429  -8.480  1.00  0.00    -0.460 OA
BRANCH  44  45
ATOM     45  C   UNL     1       8.460   6.303  -8.024  1.00  0.00     0.338 C 
ATOM     46  O   UNL     1       9.466   6.051  -8.675  1.00  0.00    -0.246 OA
BRANCH  45  47
ATOM     47  C   UNL     1       8.488   6.715  -6.606  1.00  0.00     0.060 A 
ATOM     48  C   UNL     1       9.381   7.724  -6.224  1.00  0.00     0.016 A 
ATOM     49  C   UNL     1       7.654   6.113  -5.659  1.00  0.00     0.016 A 
ATOM     50  C   UNL     1       9.488   8.092  -4.885  1.00  0.00     0.010 A 
ATOM     51  C   UNL     1       7.777   6.467  -4.311  1.00  0.00     0.010 A 
ATOM     52  C   UNL     1       8.729   7.423  -3.915  1.00  0.00    -0.014 A 
BRANCH  52  53
ATOM     53  C   UNL     1       9.129   7.545  -2.493  1.00  0.00     0.031 A 
ATOM     54  C   UNL     1      10.099   6.533  -1.947  1.00  0.00     0.074 A 
ATOM     55  C   UNL     1       8.708   8.562  -1.722  1.00  0.00     0.049 A 
ATOM     56  N   UNL     1      10.657   6.460  -0.766  1.00  0.00    -0.248 NA
ATOM     57  C   UNL     1      10.499   5.456  -2.868  1.00  0.00     0.031 C 
ATOM     58  C   UNL     1       7.807   9.629  -2.147  1.00  0.00     0.029 A 
ATOM     59  N   UNL     1       9.002   8.865  -0.416  1.00  0.00    -0.354 N 
ATOM     60  C   UNL     1      11.479   5.342  -0.808  1.00  0.00     0.074 A 
ATOM     61  C   UNL     1      11.312   4.738  -2.111  1.00  0.00     0.031 C 
ATOM     62  C   UNL     1       7.628  10.480  -1.121  1.00  0.00     0.029 A 
ATOM     63  C   UNL     1       8.385  10.005   0.037  1.00  0.00     0.049 A 
ATOM     64  H   UNL     1       9.598   8.317   0.143  1.00  0.00     0.167 HD
ATOM     65  C   UNL     1      12.315   4.868   0.146  1.00  0.00     0.037 A 
ATOM     66  C   UNL     1       8.431  10.591   1.250  1.00  0.00     0.037 A 
ATOM     67  C   UNL     1      12.465   5.454   1.450  1.00  0.00     0.049 A 
ATOM     68  C   UNL     1       9.288   9.985   2.333  1.00  0.00     0.074 A 
ATOM     69  C   UNL     1      13.280   5.050   2.492  1.00  0.00     0.029 A 
ATOM     70  N   UNL     1      11.765   6.566   1.896  1.00  0.00    -0.354 N 
ATOM     71  N   UNL     1      10.088   8.947   2.277  1.00  0.00    -0.248 NA
ATOM     72  C   UNL     1       9.248  10.638   3.650  1.00  0.00     0.031 C 
ATOM     73  C   UNL     1      13.035   5.886   3.586  1.00  0.00     0.029 A 
ATOM     74  C   UNL     1      12.109   6.846   3.208  1.00  0.00     0.049 A 
ATOM     75  H   UNL     1      11.121   7.081   1.359  1.00  0.00     0.167 HD
ATOM     76  C   UNL     1      10.672   8.844   3.534  1.00  0.00     0.074 A 
ATOM     77  C   UNL     1      10.138   9.929   4.331  1.00  0.00     0.031 C 
ATOM     78  C   UNL     1      11.573   7.936   3.986  1.00  0.00     0.037 A 
BRANCH  65  79
ATOM     79  C   UNL     1      13.099   3.633  -0.190  1.00  0.00     0.064 A 
ATOM     80  C   UNL     1      14.134   3.652  -1.139  1.00  0.00     0.173 A 
ATOM     81  C   UNL     1      12.800   2.410   0.428  1.00  0.00     0.173 A 
ATOM     82  F   UNL     1      14.446   4.793  -1.774  1.00  0.00    -0.203 F 
ATOM     83  C   UNL     1      14.810   2.486  -1.487  1.00  0.00     0.198 A 
ATOM     84  C   UNL     1      13.501   1.252   0.102  1.00  0.00     0.198 A 
ATOM     85  F   UNL     1      11.822   2.336   1.343  1.00  0.00    -0.203 F 
ATOM     86  F   UNL     1      15.747   2.516  -2.444  1.00  0.00    -0.200 F 
ATOM     87  C   UNL     1      14.496   1.288  -0.863  1.00  0.00     0.200 A 
ATOM     88  F   UNL     1      13.203   0.097   0.712  1.00  0.00    -0.200 F 
ATOM     89  F   UNL     1      15.143   0.164  -1.203  1.00  0.00    -0.200 F 
ENDBRANCH  65  79
BRANCH  66  90
ATOM     90  C   UNL     1       7.660  11.835   1.502  1.00  0.00     0.064 A 
ATOM     91  C   UNL     1       8.312  13.060   1.698  1.00  0.00     0.173 A 
ATOM     92  C   UNL     1       6.258  11.827   1.560  1.00  0.00     0.173 A 
ATOM     93  F   UNL     1       9.652  13.115   1.679  1.00  0.00    -0.203 F 
ATOM     94  C   UNL     1       7.594  14.227   1.952  1.00  0.00     0.198 A 
ATOM     95  C   UNL     1       5.540  12.998   1.788  1.00  0.00     0.198 A 
ATOM     96  F   UNL     1       5.586  10.680   1.384  1.00  0.00    -0.203 F 
ATOM     97  F   UNL     1       8.244  15.378   2.172  1.00  0.00    -0.200 F 
ATOM     98  C   UNL     1       6.208  14.197   1.990  1.00  0.00     0.200 A 
ATOM     99  F   UNL     1       4.200  12.966   1.814  1.00  0.00    -0.200 F 
ATOM    100  F   UNL     1       5.517  15.320   2.226  1.00  0.00    -0.200 F 
ENDBRANCH  66  90
BRANCH  78 101
ATOM    101  C   UNL     1      12.073   8.097   5.393  1.00  0.00     0.064 A 
ATOM    102  C   UNL     1      11.262   7.817   6.502  1.00  0.00     0.173 A 
ATOM    103  C   UNL     1      13.399   8.489   5.632  1.00  0.00     0.173 A 
ATOM    104  F   UNL     1       9.983   7.450   6.328  1.00  0.00    -0.203 F 
ATOM    105  C   UNL     1      11.752   7.948   7.799  1.00  0.00     0.198 A 
ATOM    106  C   UNL     1      13.895   8.590   6.929  1.00  0.00     0.198 A 
ATOM    107  F   UNL     1      14.220   8.761   4.606  1.00  0.00    -0.203 F 
ATOM    108  F   UNL     1      10.946   7.719   8.845  1.00  0.00    -0.200 F 
ATOM    109  C   UNL     1      13.070   8.326   8.011  1.00  0.00     0.200 A 
ATOM    110  F   UNL     1      15.173   8.941   7.131  1.00  0.00    -0.200 F 
ATOM    111  F   UNL     1      13.543   8.443   9.260  1.00  0.00    -0.200 F 
ENDBRANCH  78 101
ENDBRANCH  52  53
ENDBRANCH  45  47
ENDBRANCH  44  45
ENDBRANCH  43  44
ENDBRANCH  42  43
ENDBRANCH  41  42
ENDBRANCH  40  41
ENDBRANCH  39  40
ENDBRANCH  38  39
ENDBRANCH   1  38
TORSDOF 26
