REMARK SMILES COc1c(Cl)cc(C(=O)OCCOCCOCCOCCOC(=O)c2ccc(-c3c4nc(c(-c5c(F)c(F)c(F)c(F)c5F)c5ccc([nH]5)c(-c5c(F)c(F)c(F)c(F)c5F)c5nc(c(-c6c(F)c(F)c(F)c(F)c6F)c6ccc3[nH]6)C=C5)C=C4)cc2)cc1NC(=S)NC(=O)c1ccccc1F
REMARK SMILES IDX 15 1 14 2 13 3 12 4 11 5 10 6 8 7 9 8 7 9 3 10 4 11 89 12
REMARK SMILES IDX 5 13 6 14 88 15 2 16 1 17 90 18 91 20 92 21 93 22 94 23
REMARK SMILES IDX 95 25 96 26 97 27 101 28 98 29 100 30 102 31 99 32 16 33
REMARK SMILES IDX 17 34 18 35 19 36 20 37 21 38 22 39 23 40 24 41 25 42 26 43
REMARK SMILES IDX 87 44 27 45 86 46 28 47 29 48 30 49 80 50 31 51 85 52 79 53
REMARK SMILES IDX 81 54 32 55 84 56 78 57 77 58 33 60 65 61 45 62 64 63 46 64
REMARK SMILES IDX 49 65 63 66 82 67 47 68 48 69 62 71 83 72 50 73 34 74 35 75
REMARK SMILES IDX 43 76 36 77 37 78 41 79 44 80 38 81 39 82 42 83 40 84 66 85
REMARK SMILES IDX 67 86 75 87 68 88 69 89 73 90 76 91 70 92 71 93 74 94 72 95
REMARK SMILES IDX 51 96 52 97 60 98 53 99 54 100 58 101 61 102 55 103 56 104
REMARK SMILES IDX 59 105 57 106
REMARK H PARENT 90 19 93 24 81 59 49 70
REMARK Flexibility Score: inf
ROOT
ATOM      1  C   UNL     1       2.136   4.498  -6.141  1.00  0.00     0.188 C 
ENDROOT
BRANCH   1   2
ATOM      2  C   UNL     1       3.462   3.990  -6.717  1.00  0.00     0.188 C 
BRANCH   2   3
ATOM      3  O   UNL     1       3.603   3.917  -8.123  1.00  0.00    -0.376 OA
BRANCH   3   4
ATOM      4  C   UNL     1       2.816   2.973  -8.849  1.00  0.00     0.202 C 
BRANCH   4   5
ATOM      5  C   UNL     1       2.411   1.582  -8.298  1.00  0.00     0.261 C 
BRANCH   5   6
ATOM      6  O   UNL     1       1.873   1.566  -6.951  1.00  0.00    -0.460 OA
BRANCH   6   7
ATOM      7  C   UNL     1       2.135   0.442  -5.972  1.00  0.00     0.338 C 
ATOM      8  O   UNL     1       2.875  -0.302  -6.668  1.00  0.00    -0.246 OA
BRANCH   7   9
ATOM      9  C   UNL     1       1.378   0.281  -3.963  1.00  0.00     0.063 A 
ATOM     10  C   UNL     1       0.010  -0.061  -1.204  1.00  0.00     0.160 A 
ATOM     11  C   UNL     1       1.369   0.234  -1.319  1.00  0.00     0.086 A 
ATOM     12  C   UNL     1      -0.682  -0.027  -2.391  1.00  0.00     0.085 A 
ATOM     13  Cl  UNL     1       2.364   0.834  -0.021  1.00  0.00    -0.080 Cl
ATOM     14  C   UNL     1       2.011   0.262  -2.604  1.00  0.00     0.040 A 
ATOM     15  C   UNL     1      -0.004   0.414  -3.493  1.00  0.00     0.045 A 
BRANCH  10  16
ATOM     16  O   UNL     1      -0.736  -0.258  -0.082  1.00  0.00    -0.493 OA
ATOM     17  C   UNL     1      -0.040  -0.511   1.134  1.00  0.00     0.278 C 
ENDBRANCH  10  16
BRANCH  12  18
ATOM     18  N   UNL     1      -2.050  -0.253  -2.615  1.00  0.00    -0.329 N 
ATOM     19  H   UNL     1      -2.564  -0.442  -1.797  1.00  0.00     0.169 HD
BRANCH  18  20
ATOM     20  C   UNL     1      -2.800  -0.259  -3.759  1.00  0.00     0.177 C 
ATOM     21  S   UNL     1      -4.438  -0.592  -3.581  1.00  0.00    -0.040 S 
BRANCH  20  22
ATOM     22  N   UNL     1      -2.381   0.024  -5.074  1.00  0.00    -0.299 N 
ATOM     23  C   UNL     1      -1.370   0.377  -6.043  1.00  0.00     0.260 C 
ATOM     24  H   UNL     1      -3.202  -0.068  -5.610  1.00  0.00     0.172 HD
ATOM     25  O   UNL     1      -1.716   0.796  -7.146  1.00  0.00    -0.269 OA
BRANCH  23  26
ATOM     26  C   UNL     1       0.077   0.364  -5.748  1.00  0.00     0.075 A 
ATOM     27  C   UNL     1       0.898   1.912  -5.170  1.00  0.00     0.017 A 
ATOM     28  C   UNL     1       0.909  -1.206  -5.493  1.00  0.00     0.135 A 
ATOM     29  C   UNL     1       2.641   1.842  -4.572  1.00  0.00     0.001 A 
ATOM     30  C   UNL     1       2.580  -1.293  -4.811  1.00  0.00     0.040 A 
ATOM     31  F   UNL     1       0.268  -2.344  -5.789  1.00  0.00    -0.206 F 
ATOM     32  C   UNL     1       3.506   0.238  -4.473  1.00  0.00     0.003 A 
ENDBRANCH  23  26
ENDBRANCH  20  22
ENDBRANCH  18  20
ENDBRANCH  12  18
ENDBRANCH   7   9
ENDBRANCH   6   7
ENDBRANCH   5   6
ENDBRANCH   4   5
ENDBRANCH   3   4
ENDBRANCH   2   3
ENDBRANCH   1   2
BRANCH   1  33
ATOM     33  O   UNL     1       1.024   4.364  -6.991  1.00  0.00    -0.377 OA
BRANCH  33  34
ATOM     34  C   UNL     1       0.732   5.479  -7.819  1.00  0.00     0.188 C 
BRANCH  34  35
ATOM     35  C   UNL     1       1.790   6.592  -8.041  1.00  0.00     0.188 C 
BRANCH  35  36
ATOM     36  O   UNL     1       2.655   6.919  -6.965  1.00  0.00    -0.376 OA
BRANCH  36  37
ATOM     37  C   UNL     1       2.302   7.853  -5.952  1.00  0.00     0.202 C 
BRANCH  37  38
ATOM     38  C   UNL     1       0.947   7.798  -5.216  1.00  0.00     0.261 C 
BRANCH  38  39
ATOM     39  O   UNL     1      -0.222   7.635  -6.020  1.00  0.00    -0.460 OA
BRANCH  39  40
ATOM     40  C   UNL     1      -0.499   8.623  -6.895  1.00  0.00     0.338 C 
ATOM     41  O   UNL     1       0.119   9.658  -7.059  1.00  0.00    -0.246 OA
BRANCH  40  42
ATOM     42  C   UNL     1      -1.591   8.151  -7.769  1.00  0.00     0.060 A 
ATOM     43  C   UNL     1      -1.326   7.955  -9.131  1.00  0.00     0.016 A 
ATOM     44  C   UNL     1      -2.862   7.897  -7.249  1.00  0.00     0.016 A 
ATOM     45  C   UNL     1      -2.338   7.537  -9.987  1.00  0.00     0.010 A 
ATOM     46  C   UNL     1      -3.889   7.518  -8.117  1.00  0.00     0.010 A 
ATOM     47  C   UNL     1      -3.636   7.374  -9.493  1.00  0.00    -0.014 A 
BRANCH  47  48
ATOM     48  C   UNL     1      -4.757   7.287 -10.454  1.00  0.00     0.031 A 
ATOM     49  C   UNL     1      -5.506   8.549 -10.778  1.00  0.00     0.074 A 
ATOM     50  C   UNL     1      -5.069   6.131 -11.063  1.00  0.00     0.049 A 
ATOM     51  N   UNL     1      -6.550   8.726 -11.546  1.00  0.00    -0.248 NA
ATOM     52  C   UNL     1      -5.008   9.782 -10.147  1.00  0.00     0.031 C 
ATOM     53  C   UNL     1      -4.369   4.863 -10.878  1.00  0.00     0.029 A 
ATOM     54  N   UNL     1      -6.067   5.843 -11.959  1.00  0.00    -0.354 N 
ATOM     55  C   UNL     1      -6.839  10.082 -11.479  1.00  0.00     0.074 A 
ATOM     56  C   UNL     1      -5.883  10.679 -10.573  1.00  0.00     0.031 C 
ATOM     57  C   UNL     1      -4.971   3.924 -11.628  1.00  0.00     0.029 A 
ATOM     58  C   UNL     1      -6.119   4.518 -12.311  1.00  0.00     0.049 A 
ATOM     59  H   UNL     1      -6.686   6.521 -12.314  1.00  0.00     0.167 HD
ATOM     60  C   UNL     1      -7.813  10.768 -12.122  1.00  0.00     0.037 A 
ATOM     61  C   UNL     1      -7.014   3.862 -13.075  1.00  0.00     0.037 A 
ATOM     62  C   UNL     1      -8.762  10.164 -13.018  1.00  0.00     0.049 A 
ATOM     63  C   UNL     1      -8.150   4.633 -13.702  1.00  0.00     0.074 A 
ATOM     64  C   UNL     1      -9.783  10.769 -13.729  1.00  0.00     0.029 A 
ATOM     65  N   UNL     1      -8.815   8.809 -13.316  1.00  0.00    -0.354 N 
ATOM     66  N   UNL     1      -8.413   5.917 -13.651  1.00  0.00    -0.248 NA
ATOM     67  C   UNL     1      -9.114   3.859 -14.497  1.00  0.00     0.031 C 
ATOM     68  C   UNL     1     -10.498   9.772 -14.399  1.00  0.00     0.029 A 
ATOM     69  C   UNL     1      -9.874   8.555 -14.172  1.00  0.00     0.049 A 
ATOM     70  H   UNL     1      -8.193   8.130 -12.970  1.00  0.00     0.167 HD
ATOM     71  C   UNL     1      -9.545   6.110 -14.434  1.00  0.00     0.074 A 
ATOM     72  C   UNL     1      -9.911   4.811 -14.960  1.00  0.00     0.031 C 
ATOM     73  C   UNL     1     -10.219   7.257 -14.697  1.00  0.00     0.037 A 
BRANCH  60  74
ATOM     74  C   UNL     1      -7.926  12.239 -11.842  1.00  0.00     0.064 A 
ATOM     75  C   UNL     1      -6.952  13.156 -12.267  1.00  0.00     0.173 A 
ATOM     76  C   UNL     1      -9.043  12.742 -11.157  1.00  0.00     0.173 A 
ATOM     77  F   UNL     1      -5.856  12.727 -12.911  1.00  0.00    -0.203 F 
ATOM     78  C   UNL     1      -7.077  14.515 -11.988  1.00  0.00     0.198 A 
ATOM     79  C   UNL     1      -9.182  14.105 -10.913  1.00  0.00     0.198 A 
ATOM     80  F   UNL     1     -10.005  11.911 -10.729  1.00  0.00    -0.203 F 
ATOM     81  F   UNL     1      -6.105  15.364 -12.352  1.00  0.00    -0.200 F 
ATOM     82  C   UNL     1      -8.195  14.989 -11.319  1.00  0.00     0.200 A 
ATOM     83  F   UNL     1     -10.272  14.563 -10.280  1.00  0.00    -0.200 F 
ATOM     84  F   UNL     1      -8.318  16.298 -11.060  1.00  0.00    -0.200 F 
ENDBRANCH  60  74
BRANCH  61  85
ATOM     85  C   UNL     1      -6.890   2.394 -13.275  1.00  0.00     0.064 A 
ATOM     86  C   UNL     1      -6.624   1.856 -14.543  1.00  0.00     0.173 A 
ATOM     87  C   UNL     1      -7.068   1.496 -12.212  1.00  0.00     0.173 A 
ATOM     88  F   UNL     1      -6.474   2.671 -15.598  1.00  0.00    -0.203 F 
ATOM     89  C   UNL     1      -6.567   0.478 -14.743  1.00  0.00     0.198 A 
ATOM     90  C   UNL     1      -6.975   0.119 -12.407  1.00  0.00     0.198 A 
ATOM     91  F   UNL     1      -7.331   1.956 -10.980  1.00  0.00    -0.203 F 
ATOM     92  F   UNL     1      -6.373  -0.009 -15.976  1.00  0.00    -0.200 F 
ATOM     93  C   UNL     1      -6.736  -0.389 -13.674  1.00  0.00     0.200 A 
ATOM     94  F   UNL     1      -7.129  -0.714 -11.369  1.00  0.00    -0.200 F 
ATOM     95  F   UNL     1      -6.682  -1.714 -13.868  1.00  0.00    -0.200 F 
ENDBRANCH  61  85
BRANCH  73  96
ATOM     96  C   UNL     1     -11.391   7.176 -15.637  1.00  0.00     0.064 A 
ATOM     97  C   UNL     1     -12.584   6.527 -15.285  1.00  0.00     0.173 A 
ATOM     98  C   UNL     1     -11.332   7.798 -16.895  1.00  0.00     0.173 A 
ATOM     99  F   UNL     1     -12.692   5.907 -14.100  1.00  0.00    -0.203 F 
ATOM    100  C   UNL     1     -13.659   6.474 -16.169  1.00  0.00     0.198 A 
ATOM    101  C   UNL     1     -12.422   7.778 -17.759  1.00  0.00     0.198 A 
ATOM    102  F   UNL     1     -10.220   8.443 -17.279  1.00  0.00    -0.203 F 
ATOM    103  F   UNL     1     -14.767   5.799 -15.834  1.00  0.00    -0.200 F 
ATOM    104  C   UNL     1     -13.581   7.107 -17.401  1.00  0.00     0.200 A 
ATOM    105  F   UNL     1     -12.352   8.409 -18.939  1.00  0.00    -0.200 F 
ATOM    106  F   UNL     1     -14.621   7.066 -18.245  1.00  0.00    -0.200 F 
ENDBRANCH  73  96
ENDBRANCH  47  48
ENDBRANCH  40  42
ENDBRANCH  39  40
ENDBRANCH  38  39
ENDBRANCH  37  38
ENDBRANCH  36  37
ENDBRANCH  35  36
ENDBRANCH  34  35
ENDBRANCH  33  34
ENDBRANCH   1  33
TORSDOF 25
