REMARK SMILES Cc1ccc(CNC(=O)NC[C@@H]2CC[C@@H](C(=O)OCCOCCOCCOCCOC(=O)c3ccc(-c4c5nc(c(-c6c(F)c(F)c(F)c(F)c6F)c6ccc([nH]6)c(-c6c(F)c(F)c(F)c(F)c6F)c6nc(c(-c7c(F)c(F)c(F)c(F)c7F)c7ccc4[nH]7)C=C6)C=C5)cc3)O2)cn1
REMARK SMILES IDX 23 1 22 2 21 3 20 4 19 5 18 6 16 7 17 8 15 9 12 10 13 11
REMARK SMILES IDX 96 12 14 13 11 14 10 15 7 16 8 17 9 19 6 21 5 22 1 23 2 24
REMARK SMILES IDX 3 25 98 26 4 27 97 28 24 29 25 30 26 31 27 32 28 33 29 34
REMARK SMILES IDX 30 35 31 36 32 37 33 38 34 39 95 40 35 41 94 42 36 43 37 44
REMARK SMILES IDX 38 45 88 46 39 47 93 48 87 49 89 50 40 51 92 52 86 53 85 54
REMARK SMILES IDX 41 56 73 57 53 58 72 59 54 60 57 61 71 62 90 63 55 64 56 65
REMARK SMILES IDX 70 67 91 68 58 69 42 70 43 71 51 72 44 73 45 74 49 75 52 76
REMARK SMILES IDX 46 77 47 78 50 79 48 80 74 81 75 82 83 83 76 84 77 85 81 86
REMARK SMILES IDX 84 87 78 88 79 89 82 90 80 91 59 92 60 93 68 94 61 95 62 96
REMARK SMILES IDX 66 97 69 98 63 99 64 100 67 101 65 102
REMARK H PARENT 7 18 10 20 89 55 57 66
REMARK Flexibility Score: inf
ROOT
ATOM      1  C   UNL     1      -5.971   3.839  -6.389  1.00  0.00     0.188 C 
ENDROOT
BRANCH   1   2
ATOM      2  C   UNL     1      -6.907   2.960  -7.258  1.00  0.00     0.188 C 
BRANCH   2   3
ATOM      3  O   UNL     1      -8.164   3.544  -7.553  1.00  0.00    -0.376 OA
BRANCH   3   4
ATOM      4  C   UNL     1      -9.340   2.985  -7.000  1.00  0.00     0.202 C 
BRANCH   4   5
ATOM      5  C   UNL     1      -9.479   2.990  -5.473  1.00  0.00     0.261 C 
BRANCH   5   6
ATOM      6  O   UNL     1      -8.301   2.582  -4.776  1.00  0.00    -0.461 OA
BRANCH   6   7
ATOM      7  C   UNL     1      -8.018   1.252  -4.744  1.00  0.00     0.335 C 
ATOM      8  O   UNL     1      -8.738   0.372  -5.195  1.00  0.00    -0.249 OA
BRANCH   7   9
ATOM      9  C   UNL     1      -6.590   1.047  -4.228  1.00  0.00     0.228 C 
ATOM     10  C   UNL     1      -5.634   1.359  -2.113  1.00  0.00     0.138 C 
ATOM     11  C   UNL     1      -5.283  -0.035  -2.603  1.00  0.00     0.037 C 
ATOM     12  O   UNL     1      -6.189   2.024  -3.258  1.00  0.00    -0.361 OA
ATOM     13  C   UNL     1      -6.366  -0.315  -3.613  1.00  0.00     0.047 C 
BRANCH  10  14
ATOM     14  C   UNL     1      -4.455   2.187  -1.573  1.00  0.00     0.149 C 
BRANCH  14  15
ATOM     15  N   UNL     1      -4.674   2.618  -0.202  1.00  0.00    -0.336 N 
ATOM     16  N   UNL     1      -3.777   0.953   1.213  1.00  0.00    -0.334 N 
ATOM     17  C   UNL     1      -4.408   2.111   1.004  1.00  0.00     0.315 C 
ATOM     18  H   UNL     1      -3.638   0.767   2.170  1.00  0.00     0.165 HD
ATOM     19  O   UNL     1      -4.762   2.756   1.992  1.00  0.00    -0.249 OA
ATOM     20  H   UNL     1      -5.127   3.490  -0.150  1.00  0.00     0.165 HD
BRANCH  16  21
ATOM     21  C   UNL     1      -3.253  -0.091   0.367  1.00  0.00     0.155 C 
BRANCH  21  22
ATOM     22  C   UNL     1      -1.758  -0.105   0.270  1.00  0.00    -0.010 A 
ATOM     23  C   UNL     1       2.488  -0.056  -0.054  1.00  0.00     0.066 C 
ATOM     24  C   UNL     1       0.993  -0.106   0.025  1.00  0.00     0.037 A 
ATOM     25  C   UNL     1       0.320  -1.321   0.061  1.00  0.00     0.024 A 
ATOM     26  N   UNL     1       0.347   1.081   0.072  1.00  0.00    -0.261 NA
ATOM     27  C   UNL     1      -1.067  -1.317   0.176  1.00  0.00     0.009 A 
ATOM     28  C   UNL     1      -1.001   1.058   0.190  1.00  0.00     0.116 A 
ENDBRANCH  21  22
ENDBRANCH  16  21
ENDBRANCH  14  15
ENDBRANCH  10  14
ENDBRANCH   7   9
ENDBRANCH   6   7
ENDBRANCH   5   6
ENDBRANCH   4   5
ENDBRANCH   3   4
ENDBRANCH   2   3
ENDBRANCH   1   2
BRANCH   1  29
ATOM     29  O   UNL     1      -6.426   5.067  -5.836  1.00  0.00    -0.377 OA
BRANCH  29  30
ATOM     30  C   UNL     1      -7.319   5.890  -6.574  1.00  0.00     0.188 C 
BRANCH  30  31
ATOM     31  C   UNL     1      -7.168   6.020  -8.107  1.00  0.00     0.188 C 
BRANCH  31  32
ATOM     32  O   UNL     1      -6.101   5.265  -8.653  1.00  0.00    -0.376 OA
BRANCH  32  33
ATOM     33  C   UNL     1      -4.956   5.969  -9.097  1.00  0.00     0.202 C 
BRANCH  33  34
ATOM     34  C   UNL     1      -4.173   6.785  -8.057  1.00  0.00     0.261 C 
BRANCH  34  35
ATOM     35  O   UNL     1      -4.937   7.691  -7.246  1.00  0.00    -0.460 OA
BRANCH  35  36
ATOM     36  C   UNL     1      -5.490   8.758  -7.857  1.00  0.00     0.338 C 
ATOM     37  O   UNL     1      -5.417   9.054  -9.040  1.00  0.00    -0.246 OA
BRANCH  36  38
ATOM     38  C   UNL     1      -6.380   9.420  -6.882  1.00  0.00     0.060 A 
ATOM     39  C   UNL     1      -7.754   9.494  -7.147  1.00  0.00     0.016 A 
ATOM     40  C   UNL     1      -5.858   9.950  -5.700  1.00  0.00     0.016 A 
ATOM     41  C   UNL     1      -8.607  10.125  -6.242  1.00  0.00     0.010 A 
ATOM     42  C   UNL     1      -6.709  10.606  -4.807  1.00  0.00     0.010 A 
ATOM     43  C   UNL     1      -8.082  10.725  -5.090  1.00  0.00    -0.014 A 
BRANCH  43  44
ATOM     44  C   UNL     1      -8.929  11.644  -4.292  1.00  0.00     0.031 A 
ATOM     45  C   UNL     1      -8.808  13.121  -4.546  1.00  0.00     0.074 A 
ATOM     46  C   UNL     1      -9.805  11.181  -3.384  1.00  0.00     0.049 A 
ATOM     47  N   UNL     1      -9.414  14.122  -3.959  1.00  0.00    -0.248 NA
ATOM     48  C   UNL     1      -7.873  13.525  -5.610  1.00  0.00     0.031 C 
ATOM     49  C   UNL     1     -10.045   9.773  -3.080  1.00  0.00     0.029 A 
ATOM     50  N   UNL     1     -10.654  11.858  -2.543  1.00  0.00    -0.354 N 
ATOM     51  C   UNL     1      -8.925  15.268  -4.572  1.00  0.00     0.074 A 
ATOM     52  C   UNL     1      -7.954  14.845  -5.556  1.00  0.00     0.031 C 
ATOM     53  C   UNL     1     -10.977   9.689  -2.114  1.00  0.00     0.029 A 
ATOM     54  C   UNL     1     -11.371  11.038  -1.708  1.00  0.00     0.049 A 
ATOM     55  H   UNL     1     -10.741  12.839  -2.539  1.00  0.00     0.167 HD
ATOM     56  C   UNL     1      -9.261  16.559  -4.338  1.00  0.00     0.037 A 
ATOM     57  C   UNL     1     -12.229  11.347  -0.715  1.00  0.00     0.037 A 
ATOM     58  C   UNL     1     -10.230  16.975  -3.358  1.00  0.00     0.049 A 
ATOM     59  C   UNL     1     -12.524  12.798  -0.420  1.00  0.00     0.074 A 
ATOM     60  C   UNL     1     -10.664  18.256  -3.066  1.00  0.00     0.029 A 
ATOM     61  N   UNL     1     -10.905  16.118  -2.502  1.00  0.00    -0.354 N 
ATOM     62  N   UNL     1     -12.090  13.876  -1.029  1.00  0.00    -0.248 NA
ATOM     63  C   UNL     1     -13.434  13.073   0.701  1.00  0.00     0.031 C 
ATOM     64  C   UNL     1     -11.548  18.180  -1.985  1.00  0.00     0.029 A 
ATOM     65  C   UNL     1     -11.725  16.846  -1.654  1.00  0.00     0.049 A 
ATOM     66  H   UNL     1     -10.815  15.137  -2.496  1.00  0.00     0.167 HD
ATOM     67  C   UNL     1     -12.701  14.950  -0.391  1.00  0.00     0.074 A 
ATOM     68  C   UNL     1     -13.549  14.392   0.641  1.00  0.00     0.031 C 
ATOM     69  C   UNL     1     -12.573  16.277  -0.638  1.00  0.00     0.037 A 
BRANCH  56  70
ATOM     70  C   UNL     1      -8.549  17.619  -5.127  1.00  0.00     0.064 A 
ATOM     71  C   UNL     1      -8.769  17.797  -6.502  1.00  0.00     0.173 A 
ATOM     72  C   UNL     1      -7.661  18.497  -4.487  1.00  0.00     0.173 A 
ATOM     73  F   UNL     1      -9.597  16.976  -7.166  1.00  0.00    -0.203 F 
ATOM     74  C   UNL     1      -8.107  18.797  -7.209  1.00  0.00     0.198 A 
ATOM     75  C   UNL     1      -7.027  19.517  -5.191  1.00  0.00     0.198 A 
ATOM     76  F   UNL     1      -7.415  18.372  -3.174  1.00  0.00    -0.203 F 
ATOM     77  F   UNL     1      -8.296  18.918  -8.531  1.00  0.00    -0.200 F 
ATOM     78  C   UNL     1      -7.245  19.662  -6.552  1.00  0.00     0.200 A 
ATOM     79  F   UNL     1      -6.206  20.360  -4.550  1.00  0.00    -0.200 F 
ATOM     80  F   UNL     1      -6.619  20.632  -7.232  1.00  0.00    -0.200 F 
ENDBRANCH  56  70
BRANCH  57  81
ATOM     81  C   UNL     1     -12.869  10.271   0.089  1.00  0.00     0.064 A 
ATOM     82  C   UNL     1     -14.255  10.065   0.049  1.00  0.00     0.173 A 
ATOM     83  C   UNL     1     -12.117   9.456   0.949  1.00  0.00     0.173 A 
ATOM     84  F   UNL     1     -15.024  10.836  -0.735  1.00  0.00    -0.203 F 
ATOM     85  C   UNL     1     -14.867   9.108   0.856  1.00  0.00     0.198 A 
ATOM     86  C   UNL     1     -12.725   8.476   1.730  1.00  0.00     0.198 A 
ATOM     87  F   UNL     1     -10.787   9.614   1.032  1.00  0.00    -0.203 F 
ATOM     88  F   UNL     1     -16.201   8.976   0.842  1.00  0.00    -0.200 F 
ATOM     89  C   UNL     1     -14.101   8.310   1.692  1.00  0.00     0.200 A 
ATOM     90  F   UNL     1     -11.979   7.699   2.528  1.00  0.00    -0.200 F 
ATOM     91  F   UNL     1     -14.690   7.391   2.470  1.00  0.00    -0.200 F 
ENDBRANCH  57  81
BRANCH  69  92
ATOM     92  C   UNL     1     -13.407  17.220   0.186  1.00  0.00     0.064 A 
ATOM     93  C   UNL     1     -13.165  17.425   1.553  1.00  0.00     0.173 A 
ATOM     94  C   UNL     1     -14.442  17.956  -0.412  1.00  0.00     0.173 A 
ATOM     95  F   UNL     1     -12.196  16.739   2.178  1.00  0.00    -0.203 F 
ATOM     96  C   UNL     1     -13.951  18.303   2.296  1.00  0.00     0.198 A 
ATOM     97  C   UNL     1     -15.200  18.862   0.325  1.00  0.00     0.198 A 
ATOM     98  F   UNL     1     -14.710  17.809  -1.719  1.00  0.00    -0.203 F 
ATOM     99  F   UNL     1     -13.740  18.436   3.613  1.00  0.00    -0.200 F 
ATOM    100  C   UNL     1     -14.961  19.026   1.680  1.00  0.00     0.200 A 
ATOM    101  F   UNL     1     -16.162  19.575  -0.277  1.00  0.00    -0.200 F 
ATOM    102  F   UNL     1     -15.711  19.876   2.396  1.00  0.00    -0.200 F 
ENDBRANCH  69  92
ENDBRANCH  43  44
ENDBRANCH  36  38
ENDBRANCH  35  36
ENDBRANCH  34  35
ENDBRANCH  33  34
ENDBRANCH  32  33
ENDBRANCH  31  32
ENDBRANCH  30  31
ENDBRANCH  29  30
ENDBRANCH   1  29
TORSDOF 24
