REMARK SMILES COc1cc([C@H]2CC(c3ccc(S(C)(=O)=O)cc3)=NN2c2ccc(C(=O)OCCOCCOCCOCCOC(=O)c3ccc(-c4c5nc(c(-c6c(F)c(F)c(F)c(F)c6F)c6ccc([nH]6)c(-c6c(F)c(F)c(F)c(F)c6F)c6nc(c(-c7c(F)c(F)c(F)c(F)c7F)c7ccc4[nH]7)C=C6)C=C5)cc3)cc2)cc(OC)c1OC
REMARK SMILES IDX 32 1 31 2 30 3 29 4 28 5 27 6 25 7 26 8 24 9 21 10 22 11
REMARK SMILES IDX 106 12 23 13 105 14 20 15 6 16 7 17 8 18 19 19 5 20 3 21
REMARK SMILES IDX 4 22 111 23 108 24 107 25 2 26 1 27 112 28 113 29 109 30
REMARK SMILES IDX 110 31 9 32 10 33 18 34 11 35 17 36 12 37 13 38 14 39 15 40
REMARK SMILES IDX 16 41 33 42 34 43 35 44 36 45 37 46 38 47 39 48 40 49 41 50
REMARK SMILES IDX 42 51 43 52 104 53 44 54 103 55 45 56 46 57 47 58 97 59
REMARK SMILES IDX 48 60 102 61 96 62 98 63 49 64 101 65 95 66 94 67 50 69
REMARK SMILES IDX 82 70 62 71 81 72 63 73 66 74 80 75 99 76 64 77 65 78 79 80
REMARK SMILES IDX 100 81 67 82 51 83 52 84 60 85 53 86 54 87 58 88 61 89 55 90
REMARK SMILES IDX 56 91 59 92 57 93 83 94 84 95 92 96 85 97 86 98 90 99 93 100
REMARK SMILES IDX 87 101 88 102 91 103 89 104 68 105 69 106 77 107 70 108
REMARK SMILES IDX 71 109 75 110 78 111 72 112 73 113 76 114 74 115
REMARK H PARENT 98 68 66 79
REMARK Flexibility Score: inf
ROOT
ATOM      1  C   UNL     1       0.954 -10.146  -0.791  1.00  0.00     0.188 C 
ENDROOT
BRANCH   1   2
ATOM      2  C   UNL     1       2.381 -10.049  -0.204  1.00  0.00     0.188 C 
BRANCH   2   3
ATOM      3  O   UNL     1       2.494 -10.534   1.122  1.00  0.00    -0.376 OA
BRANCH   3   4
ATOM      4  C   UNL     1       2.733  -9.615   2.169  1.00  0.00     0.202 C 
BRANCH   4   5
ATOM      5  C   UNL     1       1.681  -8.529   2.439  1.00  0.00     0.261 C 
BRANCH   5   6
ATOM      6  O   UNL     1       1.158  -7.860   1.287  1.00  0.00    -0.460 OA
BRANCH   6   7
ATOM      7  C   UNL     1       1.976  -6.976   0.672  1.00  0.00     0.338 C 
ATOM      8  O   UNL     1       3.109  -6.682   1.010  1.00  0.00    -0.246 OA
BRANCH   7   9
ATOM      9  C   UNL     1       1.340  -6.579  -0.607  1.00  0.00     0.060 A 
ATOM     10  C   UNL     1       0.196  -5.827  -3.061  1.00  0.00     0.060 A 
ATOM     11  C   UNL     1       1.536  -6.234  -2.994  1.00  0.00     0.029 A 
ATOM     12  C   UNL     1      -0.581  -5.884  -1.895  1.00  0.00     0.029 A 
ATOM     13  C   UNL     1       2.118  -6.575  -1.770  1.00  0.00     0.018 A 
ATOM     14  C   UNL     1      -0.022  -6.274  -0.675  1.00  0.00     0.018 A 
BRANCH  10  15
ATOM     15  N   UNL     1      -0.322  -5.256  -4.224  1.00  0.00    -0.257 N 
ATOM     16  C   UNL     1      -0.681  -3.825  -4.266  1.00  0.00     0.144 C 
ATOM     17  C   UNL     1      -0.801  -3.563  -5.775  1.00  0.00     0.091 C 
ATOM     18  C   UNL     1      -0.394  -4.906  -6.325  1.00  0.00     0.071 C 
ATOM     19  N   UNL     1      -0.100  -5.814  -5.446  1.00  0.00    -0.176 NA
BRANCH  16  20
ATOM     20  C   UNL     1       0.344  -2.955  -3.536  1.00  0.00    -0.015 A 
ATOM     21  C   UNL     1       1.064  -1.813  -1.489  1.00  0.00     0.164 A 
ATOM     22  C   UNL     1       0.059  -2.419  -2.270  1.00  0.00     0.056 A 
ATOM     23  C   UNL     1       2.392  -1.737  -1.948  1.00  0.00     0.203 A 
ATOM     24  C   UNL     1       2.670  -2.228  -3.242  1.00  0.00     0.164 A 
ATOM     25  C   UNL     1       1.653  -2.819  -4.013  1.00  0.00     0.056 A 
BRANCH  21  26
ATOM     26  O   UNL     1       0.709  -1.478  -0.205  1.00  0.00    -0.493 OA
ATOM     27  C   UNL     1       0.168  -0.160  -0.118  1.00  0.00     0.278 C 
ENDBRANCH  21  26
BRANCH  23  28
ATOM     28  O   UNL     1       3.468  -1.289  -1.236  1.00  0.00    -0.490 OA
ATOM     29  C   UNL     1       3.324  -0.581  -0.022  1.00  0.00     0.278 C 
ENDBRANCH  23  28
BRANCH  24  30
ATOM     30  O   UNL     1       3.870  -2.249  -3.913  1.00  0.00    -0.493 OA
ATOM     31  C   UNL     1       5.050  -1.831  -3.244  1.00  0.00     0.278 C 
ENDBRANCH  24  30
ENDBRANCH  16  20
BRANCH  18  32
ATOM     32  C   UNL     1      -0.411  -5.169  -7.776  1.00  0.00    -0.002 A 
ATOM     33  C   UNL     1      -1.147  -6.262  -8.251  1.00  0.00     0.011 A 
ATOM     34  C   UNL     1       0.258  -4.327  -8.668  1.00  0.00     0.011 A 
ATOM     35  C   UNL     1      -1.242  -6.500  -9.626  1.00  0.00     0.021 A 
ATOM     36  C   UNL     1       0.188  -4.578 -10.044  1.00  0.00     0.021 A 
ATOM     37  C   UNL     1      -0.567  -5.659 -10.517  1.00  0.00     0.067 A 
BRANCH  37  38
ATOM     38  S   UNL     1      -0.738  -5.925 -12.270  1.00  0.00     0.175 S 
ATOM     39  C   UNL     1      -0.057  -7.536 -12.557  1.00  0.00     0.163 C 
ATOM     40  O   UNL     1      -2.161  -5.976 -12.544  1.00  0.00    -0.224 OA
ATOM     41  O   UNL     1       0.117  -4.965 -12.943  1.00  0.00    -0.224 OA
ENDBRANCH  37  38
ENDBRANCH  18  32
ENDBRANCH  10  15
ENDBRANCH   7   9
ENDBRANCH   6   7
ENDBRANCH   5   6
ENDBRANCH   4   5
ENDBRANCH   3   4
ENDBRANCH   2   3
ENDBRANCH   1   2
BRANCH   1  42
ATOM     42  O   UNL     1      -0.133 -10.541   0.037  1.00  0.00    -0.377 OA
BRANCH  42  43
ATOM     43  C   UNL     1       0.032 -11.595   0.980  1.00  0.00     0.188 C 
BRANCH  43  44
ATOM     44  C   UNL     1       0.988 -12.778   0.700  1.00  0.00     0.188 C 
BRANCH  44  45
ATOM     45  O   UNL     1       1.610 -12.741  -0.571  1.00  0.00    -0.376 OA
BRANCH  45  46
ATOM     46  C   UNL     1       1.167 -13.656  -1.555  1.00  0.00     0.202 C 
BRANCH  46  47
ATOM     47  C   UNL     1      -0.303 -13.583  -1.990  1.00  0.00     0.261 C 
BRANCH  47  48
ATOM     48  O   UNL     1      -1.282 -13.581  -0.939  1.00  0.00    -0.460 OA
BRANCH  48  49
ATOM     49  C   UNL     1      -1.433 -14.714  -0.224  1.00  0.00     0.338 C 
ATOM     50  O   UNL     1      -0.823 -15.764  -0.360  1.00  0.00    -0.246 OA
BRANCH  49  51
ATOM     51  C   UNL     1      -2.351 -14.415   0.894  1.00  0.00     0.060 A 
ATOM     52  C   UNL     1      -1.888 -14.527   2.213  1.00  0.00     0.016 A 
ATOM     53  C   UNL     1      -3.663 -14.011   0.637  1.00  0.00     0.016 A 
ATOM     54  C   UNL     1      -2.748 -14.265   3.280  1.00  0.00     0.010 A 
ATOM     55  C   UNL     1      -4.530 -13.772   1.706  1.00  0.00     0.010 A 
ATOM     56  C   UNL     1      -4.086 -13.930   3.032  1.00  0.00    -0.014 A 
BRANCH  56  57
ATOM     57  C   UNL     1      -5.069 -13.939   4.144  1.00  0.00     0.031 A 
ATOM     58  C   UNL     1      -5.925 -15.163   4.324  1.00  0.00     0.074 A 
ATOM     59  C   UNL     1      -5.197 -12.893   4.979  1.00  0.00     0.049 A 
ATOM     60  N   UNL     1      -6.895 -15.384   5.173  1.00  0.00    -0.248 NA
ATOM     61  C   UNL     1      -5.650 -16.290   3.418  1.00  0.00     0.031 C 
ATOM     62  C   UNL     1      -4.401 -11.669   4.930  1.00  0.00     0.029 A 
ATOM     63  N   UNL     1      -6.063 -12.692   6.026  1.00  0.00    -0.354 N 
ATOM     64  C   UNL     1      -7.357 -16.664   4.890  1.00  0.00     0.074 A 
ATOM     65  C   UNL     1      -6.577 -17.163   3.780  1.00  0.00     0.031 C 
ATOM     66  C   UNL     1      -4.828 -10.835   5.895  1.00  0.00     0.029 A 
ATOM     67  C   UNL     1      -5.951 -11.450   6.601  1.00  0.00     0.049 A 
ATOM     68  H   UNL     1      -6.702 -13.374   6.335  1.00  0.00     0.167 HD
ATOM     69  C   UNL     1      -8.341 -17.359   5.506  1.00  0.00     0.037 A 
ATOM     70  C   UNL     1      -6.694 -10.870   7.566  1.00  0.00     0.037 A 
ATOM     71  C   UNL     1      -9.107 -16.862   6.618  1.00  0.00     0.049 A 
ATOM     72  C   UNL     1      -7.829 -11.645   8.191  1.00  0.00     0.074 A 
ATOM     73  C   UNL     1     -10.097 -17.507   7.339  1.00  0.00     0.029 A 
ATOM     74  N   UNL     1      -8.979 -15.592   7.160  1.00  0.00    -0.354 N 
ATOM     75  N   UNL     1      -8.230 -12.871   7.951  1.00  0.00    -0.248 NA
ATOM     76  C   UNL     1      -8.613 -10.955   9.226  1.00  0.00     0.031 C 
ATOM     77  C   UNL     1     -10.617 -16.603   8.270  1.00  0.00     0.029 A 
ATOM     78  C   UNL     1      -9.899 -15.421   8.182  1.00  0.00     0.049 A 
ATOM     79  H   UNL     1      -8.330 -14.914   6.864  1.00  0.00     0.167 HD
ATOM     80  C   UNL     1      -9.283 -13.109   8.827  1.00  0.00     0.074 A 
ATOM     81  C   UNL     1      -9.450 -11.906   9.614  1.00  0.00     0.031 C 
ATOM     82  C   UNL     1     -10.044 -14.223   8.968  1.00  0.00     0.037 A 
BRANCH  69  83
ATOM     83  C   UNL     1      -8.679 -18.720   4.970  1.00  0.00     0.064 A 
ATOM     84  C   UNL     1      -7.815 -19.815   5.119  1.00  0.00     0.173 A 
ATOM     85  C   UNL     1      -9.915 -18.940   4.342  1.00  0.00     0.173 A 
ATOM     86  F   UNL     1      -6.616 -19.656   5.698  1.00  0.00    -0.203 F 
ATOM     87  C   UNL     1      -8.168 -21.075   4.642  1.00  0.00     0.198 A 
ATOM     88  C   UNL     1     -10.278 -20.208   3.896  1.00  0.00     0.198 A 
ATOM     89  F   UNL     1     -10.779 -17.928   4.175  1.00  0.00    -0.203 F 
ATOM     90  F   UNL     1      -7.310 -22.098   4.757  1.00  0.00    -0.200 F 
ATOM     91  C   UNL     1      -9.403 -21.273   4.041  1.00  0.00     0.200 A 
ATOM     92  F   UNL     1     -11.478 -20.398   3.330  1.00  0.00    -0.200 F 
ATOM     93  F   UNL     1      -9.748 -22.489   3.598  1.00  0.00    -0.200 F 
ENDBRANCH  69  83
BRANCH  70  94
ATOM     94  C   UNL     1      -6.418  -9.468   7.987  1.00  0.00     0.064 A 
ATOM     95  C   UNL     1      -5.986  -9.172   9.288  1.00  0.00     0.173 A 
ATOM     96  C   UNL     1      -6.634  -8.391   7.114  1.00  0.00     0.173 A 
ATOM     97  F   UNL     1      -5.792 -10.162  10.171  1.00  0.00    -0.203 F 
ATOM     98  C   UNL     1      -5.814  -7.854   9.708  1.00  0.00     0.198 A 
ATOM     99  C   UNL     1      -6.426  -7.076   7.524  1.00  0.00     0.198 A 
ATOM    100  F   UNL     1      -7.051  -8.616   5.859  1.00  0.00    -0.203 F 
ATOM    101  F   UNL     1      -5.469  -7.597  10.978  1.00  0.00    -0.200 F 
ATOM    102  C   UNL     1      -6.030  -6.807   8.825  1.00  0.00     0.200 A 
ATOM    103  F   UNL     1      -6.624  -6.069   6.663  1.00  0.00    -0.200 F 
ATOM    104  F   UNL     1      -5.870  -5.540   9.231  1.00  0.00    -0.200 F 
ENDBRANCH  70  94
BRANCH  82 105
ATOM    105  C   UNL     1     -11.091 -14.219  10.047  1.00  0.00     0.064 A 
ATOM    106  C   UNL     1     -12.244 -13.425   9.961  1.00  0.00     0.173 A 
ATOM    107  C   UNL     1     -10.958 -15.061  11.164  1.00  0.00     0.173 A 
ATOM    108  F   UNL     1     -12.416 -12.595   8.921  1.00  0.00    -0.203 F 
ATOM    109  C   UNL     1     -13.208 -13.450  10.967  1.00  0.00     0.198 A 
ATOM    110  C   UNL     1     -11.941 -15.111  12.148  1.00  0.00     0.198 A 
ATOM    111  F   UNL     1      -9.881 -15.850  11.292  1.00  0.00    -0.203 F 
ATOM    112  F   UNL     1     -14.274 -12.641  10.890  1.00  0.00    -0.200 F 
ATOM    113  C   UNL     1     -13.060 -14.298  12.054  1.00  0.00     0.200 A 
ATOM    114  F   UNL     1     -11.806 -15.947  13.187  1.00  0.00    -0.200 F 
ATOM    115  F   UNL     1     -13.994 -14.328  13.015  1.00  0.00    -0.200 F 
ENDBRANCH  82 105
ENDBRANCH  56  57
ENDBRANCH  49  51
ENDBRANCH  48  49
ENDBRANCH  47  48
ENDBRANCH  46  47
ENDBRANCH  45  46
ENDBRANCH  44  45
ENDBRANCH  43  44
ENDBRANCH  42  43
ENDBRANCH   1  42
TORSDOF 27
