REMARK SMILES Cc1cn2c(CC(=O)N[C@@H](C(=O)OCCOCCOCCOCCOC(=O)c3ccc(-c4c5nc(c(-c6c(F)c(F)c(F)c(F)c6F)c6ccc([nH]6)c(-c6c(F)c(F)c(F)c(F)c6F)c6nc(c(-c7c(F)c(F)c(F)c(F)c7F)c7ccc4[nH]7)C=C6)C=C5)cc3)[C@H](C)O)csc2n1
REMARK SMILES IDX 18 1 17 2 16 3 15 4 14 5 13 6 11 7 12 8 10 9 9 10 7 11 8 12
REMARK SMILES IDX 6 14 5 15 1 16 2 17 3 18 97 19 4 20 96 21 95 22 94 23 91 24
REMARK SMILES IDX 92 25 93 26 19 28 20 29 21 30 22 31 23 32 24 33 25 34 26 35
REMARK SMILES IDX 27 36 28 37 29 38 90 39 30 40 89 41 31 42 32 43 33 44 83 45
REMARK SMILES IDX 34 46 88 47 82 48 84 49 35 50 87 51 81 52 80 53 36 55 68 56
REMARK SMILES IDX 48 57 67 58 49 59 52 60 66 61 85 62 50 63 51 64 65 66 86 67
REMARK SMILES IDX 53 68 37 69 38 70 46 71 39 72 40 73 44 74 47 75 41 76 42 77
REMARK SMILES IDX 45 78 43 79 69 80 70 81 78 82 71 83 72 84 76 85 79 86 73 87
REMARK SMILES IDX 74 88 77 89 75 90 54 91 55 92 63 93 56 94 57 95 61 96 64 97
REMARK SMILES IDX 58 98 59 99 62 100 60 101
REMARK H PARENT 9 13 93 27 84 54 52 65
REMARK Flexibility Score: inf
ROOT
ATOM      1  C   UNL     1       1.786  -6.114   5.089  1.00  0.00     0.188 C 
ENDROOT
BRANCH   1   2
ATOM      2  C   UNL     1       0.413  -5.916   5.748  1.00  0.00     0.188 C 
BRANCH   2   3
ATOM      3  O   UNL     1      -0.454  -7.018   5.940  1.00  0.00    -0.376 OA
BRANCH   3   4
ATOM      4  C   UNL     1      -0.808  -7.872   4.862  1.00  0.00     0.202 C 
BRANCH   4   5
ATOM      5  C   UNL     1      -0.988  -7.397   3.404  1.00  0.00     0.261 C 
BRANCH   5   6
ATOM      6  O   UNL     1      -0.032  -6.451   2.888  1.00  0.00    -0.462 OA
BRANCH   6   7
ATOM      7  C   UNL     1      -0.490  -5.195   2.668  1.00  0.00     0.331 C 
ATOM      8  O   UNL     1      -1.646  -4.836   2.871  1.00  0.00    -0.250 OA
BRANCH   7   9
ATOM      9  C   UNL     1       0.596  -4.199   2.192  1.00  0.00     0.221 C 
BRANCH   9  10
ATOM     10  N   UNL     1       1.980  -4.659   1.945  1.00  0.00    -0.340 N 
ATOM     11  C   UNL     1       2.625  -5.007   0.801  1.00  0.00     0.226 C 
ATOM     12  O   UNL     1       3.824  -5.285   0.862  1.00  0.00    -0.275 OA
ATOM     13  H   UNL     1       2.534  -4.725   2.756  1.00  0.00     0.164 HD
BRANCH  11  14
ATOM     14  C   UNL     1       1.888  -5.018  -0.525  1.00  0.00     0.155 C 
BRANCH  14  15
ATOM     15  C   UNL     1       0.916  -6.146  -0.557  1.00  0.00     0.044 A 
ATOM     16  C   UNL     1      -3.808  -4.668  -0.123  1.00  0.00     0.068 C 
ATOM     17  C   UNL     1      -2.542  -5.397  -0.367  1.00  0.00     0.057 A 
ATOM     18  C   UNL     1      -1.293  -4.867  -0.654  1.00  0.00     0.117 A 
ATOM     19  N   UNL     1      -2.486  -6.779  -0.266  1.00  0.00    -0.224 NA
ATOM     20  N   UNL     1      -0.450  -5.937  -0.600  1.00  0.00    -0.294 N 
ATOM     21  C   UNL     1      -1.223  -7.047  -0.451  1.00  0.00     0.194 A 
ATOM     22  S   UNL     1      -0.249  -8.481  -0.352  1.00  0.00    -0.105 S 
ATOM     23  C   UNL     1       1.197  -7.460  -0.426  1.00  0.00     0.091 A 
ENDBRANCH  14  15
ENDBRANCH  11  14
ENDBRANCH   9  10
BRANCH   9  24
ATOM     24  C   UNL     1       0.593  -3.020   3.207  1.00  0.00     0.145 C 
ATOM     25  C   UNL     1      -0.405  -1.934   2.816  1.00  0.00     0.041 C 
BRANCH  24  26
ATOM     26  O   UNL     1       1.895  -2.436   3.340  1.00  0.00    -0.391 OA
ATOM     27  H   UNL     1       2.168  -2.056   2.490  1.00  0.00     0.211 HD
ENDBRANCH  24  26
ENDBRANCH   9  24
ENDBRANCH   7   9
ENDBRANCH   6   7
ENDBRANCH   5   6
ENDBRANCH   4   5
ENDBRANCH   3   4
ENDBRANCH   2   3
ENDBRANCH   1   2
BRANCH   1  28
ATOM     28  O   UNL     1       1.942  -7.330   4.387  1.00  0.00    -0.377 OA
BRANCH  28  29
ATOM     29  C   UNL     1       2.482  -8.433   5.105  1.00  0.00     0.188 C 
BRANCH  29  30
ATOM     30  C   UNL     1       2.286  -8.499   6.634  1.00  0.00     0.188 C 
BRANCH  30  31
ATOM     31  O   UNL     1       2.594  -7.293   7.318  1.00  0.00    -0.376 OA
BRANCH  31  32
ATOM     32  C   UNL     1       3.890  -7.119   7.871  1.00  0.00     0.202 C 
BRANCH  32  33
ATOM     33  C   UNL     1       5.099  -7.137   6.920  1.00  0.00     0.261 C 
BRANCH  33  34
ATOM     34  O   UNL     1       5.297  -8.335   6.153  1.00  0.00    -0.460 OA
BRANCH  34  35
ATOM     35  C   UNL     1       5.418  -9.507   6.807  1.00  0.00     0.338 C 
ATOM     36  O   UNL     1       5.455  -9.682   8.013  1.00  0.00    -0.246 OA
BRANCH  35  37
ATOM     37  C   UNL     1       5.291 -10.587   5.805  1.00  0.00     0.060 A 
ATOM     38  C   UNL     1       4.236 -11.502   5.920  1.00  0.00     0.016 A 
ATOM     39  C   UNL     1       6.196 -10.682   4.746  1.00  0.00     0.016 A 
ATOM     40  C   UNL     1       4.093 -12.527   4.983  1.00  0.00     0.010 A 
ATOM     41  C   UNL     1       6.068 -11.725   3.825  1.00  0.00     0.010 A 
ATOM     42  C   UNL     1       5.030 -12.666   3.952  1.00  0.00    -0.014 A 
BRANCH  42  43
ATOM     43  C   UNL     1       5.024 -13.879   3.099  1.00  0.00     0.031 A 
ATOM     44  C   UNL     1       5.975 -14.994   3.429  1.00  0.00     0.074 A 
ATOM     45  C   UNL     1       4.192 -13.988   2.049  1.00  0.00     0.049 A 
ATOM     46  N   UNL     1       6.218 -16.103   2.779  1.00  0.00    -0.248 NA
ATOM     47  C   UNL     1       6.761 -14.833   4.663  1.00  0.00     0.031 C 
ATOM     48  C   UNL     1       3.191 -13.000   1.658  1.00  0.00     0.029 A 
ATOM     49  N   UNL     1       4.073 -14.982   1.108  1.00  0.00    -0.354 N 
ATOM     50  C   UNL     1       7.191 -16.766   3.517  1.00  0.00     0.074 A 
ATOM     51  C   UNL     1       7.513 -15.924   4.649  1.00  0.00     0.031 C 
ATOM     52  C   UNL     1       2.571 -13.427   0.544  1.00  0.00     0.029 A 
ATOM     53  C   UNL     1       3.163 -14.695   0.120  1.00  0.00     0.049 A 
ATOM     54  H   UNL     1       4.591 -15.819   1.138  1.00  0.00     0.167 HD
ATOM     55  C   UNL     1       7.759 -17.970   3.272  1.00  0.00     0.037 A 
ATOM     56  C   UNL     1       2.870 -15.365  -1.012  1.00  0.00     0.037 A 
ATOM     57  C   UNL     1       7.438 -18.800   2.141  1.00  0.00     0.049 A 
ATOM     58  C   UNL     1       3.590 -16.657  -1.315  1.00  0.00     0.074 A 
ATOM     59  C   UNL     1       7.940 -20.048   1.817  1.00  0.00     0.029 A 
ATOM     60  N   UNL     1       6.543 -18.457   1.138  1.00  0.00    -0.354 N 
ATOM     61  N   UNL     1       4.486 -17.294  -0.601  1.00  0.00    -0.248 NA
ATOM     62  C   UNL     1       3.260 -17.319  -2.586  1.00  0.00     0.031 C 
ATOM     63  C   UNL     1       7.400 -20.430   0.585  1.00  0.00     0.029 A 
ATOM     64  C   UNL     1       6.510 -19.451   0.173  1.00  0.00     0.049 A 
ATOM     65  H   UNL     1       6.009 -17.630   1.116  1.00  0.00     0.167 HD
ATOM     66  C   UNL     1       4.808 -18.439  -1.320  1.00  0.00     0.074 A 
ATOM     67  C   UNL     1       3.997 -18.419  -2.519  1.00  0.00     0.031 C 
ATOM     68  C   UNL     1       5.697 -19.418  -1.017  1.00  0.00     0.037 A 
BRANCH  55  69
ATOM     69  C   UNL     1       8.817 -18.447   4.226  1.00  0.00     0.064 A 
ATOM     70  C   UNL     1       8.511 -18.838   5.538  1.00  0.00     0.173 A 
ATOM     71  C   UNL     1      10.153 -18.546   3.808  1.00  0.00     0.173 A 
ATOM     72  F   UNL     1       7.251 -18.750   5.993  1.00  0.00    -0.203 F 
ATOM     73  C   UNL     1       9.506 -19.284   6.404  1.00  0.00     0.198 A 
ATOM     74  C   UNL     1      11.140 -19.024   4.665  1.00  0.00     0.198 A 
ATOM     75  F   UNL     1      10.501 -18.189   2.563  1.00  0.00    -0.203 F 
ATOM     76  F   UNL     1       9.198 -19.604   7.668  1.00  0.00    -0.200 F 
ATOM     77  C   UNL     1      10.818 -19.384   5.965  1.00  0.00     0.200 A 
ATOM     78  F   UNL     1      12.404 -19.134   4.234  1.00  0.00    -0.200 F 
ATOM     79  F   UNL     1      11.773 -19.823   6.796  1.00  0.00    -0.200 F 
ENDBRANCH  55  69
BRANCH  56  80
ATOM     80  C   UNL     1       1.871 -14.813  -1.966  1.00  0.00     0.064 A 
ATOM     81  C   UNL     1       0.657 -15.472  -2.208  1.00  0.00     0.173 A 
ATOM     82  C   UNL     1       2.119 -13.627  -2.676  1.00  0.00     0.173 A 
ATOM     83  F   UNL     1       0.386 -16.625  -1.578  1.00  0.00    -0.203 F 
ATOM     84  C   UNL     1      -0.259 -14.978  -3.134  1.00  0.00     0.198 A 
ATOM     85  C   UNL     1       1.187 -13.117  -3.577  1.00  0.00     0.198 A 
ATOM     86  F   UNL     1       3.268 -12.960  -2.490  1.00  0.00    -0.203 F 
ATOM     87  F   UNL     1      -1.386 -15.659  -3.386  1.00  0.00    -0.200 F 
ATOM     88  C   UNL     1       0.003 -13.798  -3.813  1.00  0.00     0.200 A 
ATOM     89  F   UNL     1       1.442 -11.971  -4.224  1.00  0.00    -0.200 F 
ATOM     90  F   UNL     1      -0.878 -13.324  -4.704  1.00  0.00    -0.200 F 
ENDBRANCH  56  80
BRANCH  68  91
ATOM     91  C   UNL     1       5.828 -20.563  -1.982  1.00  0.00     0.064 A 
ATOM     92  C   UNL     1       6.431 -20.403  -3.238  1.00  0.00     0.173 A 
ATOM     93  C   UNL     1       5.398 -21.850  -1.622  1.00  0.00     0.173 A 
ATOM     94  F   UNL     1       6.848 -19.192  -3.637  1.00  0.00    -0.203 F 
ATOM     95  C   UNL     1       6.579 -21.483  -4.105  1.00  0.00     0.198 A 
ATOM     96  C   UNL     1       5.579 -22.934  -2.477  1.00  0.00     0.198 A 
ATOM     97  F   UNL     1       4.823 -22.062  -0.428  1.00  0.00    -0.203 F 
ATOM     98  F   UNL     1       7.117 -21.296  -5.319  1.00  0.00    -0.200 F 
ATOM     99  C   UNL     1       6.162 -22.748  -3.721  1.00  0.00     0.200 A 
ATOM    100  F   UNL     1       5.192 -24.159  -2.095  1.00  0.00    -0.200 F 
ATOM    101  F   UNL     1       6.319 -23.788  -4.551  1.00  0.00    -0.200 F 
ENDBRANCH  68  91
ENDBRANCH  42  43
ENDBRANCH  35  37
ENDBRANCH  34  35
ENDBRANCH  33  34
ENDBRANCH  32  33
ENDBRANCH  31  32
ENDBRANCH  30  31
ENDBRANCH  29  30
ENDBRANCH  28  29
ENDBRANCH   1  28
TORSDOF 25
