REMARK SMILES Cc1nc(CSCC(=O)N2CCCC[C@@H]2C(=O)OCCOCCOCCOCCOC(=O)c2ccc(-c3c4nc(c(-c5c(F)c(F)c(F)c(F)c5F)c5ccc([nH]5)c(-c5c(F)c(F)c(F)c(F)c5F)c5nc(c(-c6c(F)c(F)c(F)c(F)c6F)c6ccc3[nH]6)C=C5)C=C4)cc2)cs1
REMARK SMILES IDX 22 1 21 2 20 3 19 4 18 5 16 6 17 7 15 8 10 9 11 10 12 11
REMARK SMILES IDX 14 12 13 13 8 14 9 15 7 16 6 17 5 18 4 19 1 20 2 21 3 22
REMARK SMILES IDX 97 23 96 24 23 25 24 26 25 27 26 28 27 29 28 30 29 31 30 32
REMARK SMILES IDX 31 33 32 34 33 35 34 36 95 37 35 38 94 39 36 40 37 41 38 42
REMARK SMILES IDX 88 43 39 44 93 45 87 46 89 47 40 48 92 49 86 50 85 51 41 53
REMARK SMILES IDX 73 54 53 55 72 56 54 57 57 58 71 59 90 60 55 61 56 62 70 64
REMARK SMILES IDX 91 65 58 66 42 67 43 68 51 69 44 70 45 71 49 72 52 73 46 74
REMARK SMILES IDX 47 75 50 76 48 77 74 78 75 79 83 80 76 81 77 82 81 83 84 84
REMARK SMILES IDX 78 85 79 86 82 87 80 88 59 89 60 90 68 91 61 92 62 93 66 94
REMARK SMILES IDX 69 95 63 96 64 97 67 98 65 99
REMARK H PARENT 89 52 57 63
REMARK Flexibility Score: inf
ROOT
ATOM      1  C   UNL     1       4.917  -3.251   0.801  1.00  0.00     0.188 C 
ENDROOT
BRANCH   1   2
ATOM      2  O   UNL     1       3.951  -2.418   1.428  1.00  0.00    -0.376 OA
BRANCH   2   3
ATOM      3  C   UNL     1       2.876  -1.931   0.642  1.00  0.00     0.202 C 
BRANCH   3   4
ATOM      4  C   UNL     1       1.749  -2.938   0.384  1.00  0.00     0.261 C 
BRANCH   4   5
ATOM      5  O   UNL     1       2.014  -4.044  -0.500  1.00  0.00    -0.462 OA
BRANCH   5   6
ATOM      6  C   UNL     1       2.721  -3.895  -1.645  1.00  0.00     0.328 C 
ATOM      7  O   UNL     1       3.292  -2.872  -2.004  1.00  0.00    -0.250 OA
BRANCH   6   8
ATOM      8  C   UNL     1       2.642  -5.136  -2.538  1.00  0.00     0.195 C 
ATOM      9  N   UNL     1       1.820  -4.893  -3.736  1.00  0.00    -0.328 N 
ATOM     10  C   UNL     1       1.579  -6.030  -4.613  1.00  0.00     0.120 C 
ATOM     11  C   UNL     1       1.235  -7.314  -3.855  1.00  0.00     0.022 C 
ATOM     12  C   UNL     1       2.309  -6.436  -1.798  1.00  0.00     0.037 C 
ATOM     13  C   UNL     1       2.264  -7.606  -2.771  1.00  0.00     0.005 C 
BRANCH   9  14
ATOM     14  C   UNL     1       0.879  -3.858  -3.726  1.00  0.00     0.233 C 
ATOM     15  O   UNL     1      -0.167  -3.946  -3.096  1.00  0.00    -0.274 OA
BRANCH  14  16
ATOM     16  C   UNL     1       1.335  -2.647  -4.556  1.00  0.00     0.170 C 
BRANCH  16  17
ATOM     17  S   UNL     1       0.541  -1.060  -4.101  1.00  0.00    -0.146 SA
BRANCH  17  18
ATOM     18  C   UNL     1       1.195  -0.886  -2.426  1.00  0.00     0.127 C 
BRANCH  18  19
ATOM     19  C   UNL     1       0.429   0.016  -1.513  1.00  0.00     0.061 A 
ATOM     20  C   UNL     1      -2.784   0.480   0.156  1.00  0.00     0.079 C 
ATOM     21  C   UNL     1      -1.379   0.530  -0.327  1.00  0.00     0.090 A 
ATOM     22  N   UNL     1      -0.891  -0.298  -1.221  1.00  0.00    -0.246 NA
ATOM     23  S   UNL     1      -0.274   1.696   0.272  1.00  0.00    -0.127 S 
ATOM     24  C   UNL     1       0.939   1.060  -0.760  1.00  0.00     0.091 A 
ENDBRANCH  18  19
ENDBRANCH  17  18
ENDBRANCH  16  17
ENDBRANCH  14  16
ENDBRANCH   9  14
ENDBRANCH   6   8
ENDBRANCH   5   6
ENDBRANCH   4   5
ENDBRANCH   3   4
ENDBRANCH   2   3
ENDBRANCH   1   2
BRANCH   1  25
ATOM     25  C   UNL     1       4.643  -4.764   0.858  1.00  0.00     0.188 C 
BRANCH  25  26
ATOM     26  O   UNL     1       3.938  -5.373   1.932  1.00  0.00    -0.377 OA
BRANCH  26  27
ATOM     27  C   UNL     1       3.560  -4.584   3.048  1.00  0.00     0.188 C 
BRANCH  27  28
ATOM     28  C   UNL     1       4.719  -3.960   3.833  1.00  0.00     0.188 C 
BRANCH  28  29
ATOM     29  O   UNL     1       5.982  -4.424   3.380  1.00  0.00    -0.376 OA
BRANCH  29  30
ATOM     30  C   UNL     1       6.526  -5.564   4.030  1.00  0.00     0.202 C 
BRANCH  30  31
ATOM     31  C   UNL     1       5.707  -6.867   4.095  1.00  0.00     0.261 C 
BRANCH  31  32
ATOM     32  O   UNL     1       4.400  -6.823   4.697  1.00  0.00    -0.460 OA
BRANCH  32  33
ATOM     33  C   UNL     1       4.247  -6.336   5.945  1.00  0.00     0.338 C 
ATOM     34  O   UNL     1       5.122  -5.961   6.705  1.00  0.00    -0.246 OA
BRANCH  33  35
ATOM     35  C   UNL     1       2.792  -6.129   6.162  1.00  0.00     0.060 A 
ATOM     36  C   UNL     1       2.325  -4.851   6.503  1.00  0.00     0.016 A 
ATOM     37  C   UNL     1       1.887  -7.181   5.991  1.00  0.00     0.016 A 
ATOM     38  C   UNL     1       0.961  -4.634   6.720  1.00  0.00     0.010 A 
ATOM     39  C   UNL     1       0.526  -6.971   6.237  1.00  0.00     0.010 A 
ATOM     40  C   UNL     1       0.064  -5.708   6.647  1.00  0.00    -0.014 A 
BRANCH  40  41
ATOM     41  C   UNL     1      -1.270  -5.588   7.290  1.00  0.00     0.031 A 
ATOM     42  C   UNL     1      -1.380  -6.005   8.733  1.00  0.00     0.074 A 
ATOM     43  C   UNL     1      -2.349  -5.114   6.644  1.00  0.00     0.049 A 
ATOM     44  N   UNL     1      -2.426  -6.049   9.517  1.00  0.00    -0.248 NA
ATOM     45  C   UNL     1      -0.127  -6.433   9.377  1.00  0.00     0.031 C 
ATOM     46  C   UNL     1      -2.371  -4.628   5.268  1.00  0.00     0.029 A 
ATOM     47  N   UNL     1      -3.647  -4.971   7.074  1.00  0.00    -0.354 N 
ATOM     48  C   UNL     1      -1.957  -6.513  10.740  1.00  0.00     0.074 A 
ATOM     49  C   UNL     1      -0.542  -6.767  10.587  1.00  0.00     0.031 C 
ATOM     50  C   UNL     1      -3.625  -4.249   4.961  1.00  0.00     0.029 A 
ATOM     51  C   UNL     1      -4.499  -4.496   6.109  1.00  0.00     0.049 A 
ATOM     52  H   UNL     1      -3.938  -5.190   7.989  1.00  0.00     0.167 HD
ATOM     53  C   UNL     1      -2.639  -6.703  11.893  1.00  0.00     0.037 A 
ATOM     54  C   UNL     1      -5.833  -4.303   6.147  1.00  0.00     0.037 A 
ATOM     55  C   UNL     1      -4.048  -6.466  12.044  1.00  0.00     0.049 A 
ATOM     56  C   UNL     1      -6.594  -4.614   7.414  1.00  0.00     0.074 A 
ATOM     57  C   UNL     1      -4.835  -6.625  13.171  1.00  0.00     0.029 A 
ATOM     58  N   UNL     1      -4.886  -6.030  11.028  1.00  0.00    -0.354 N 
ATOM     59  N   UNL     1      -6.144  -5.034   8.572  1.00  0.00    -0.248 NA
ATOM     60  C   UNL     1      -8.052  -4.422   7.377  1.00  0.00     0.031 C 
ATOM     61  C   UNL     1      -6.159  -6.337  12.822  1.00  0.00     0.029 A 
ATOM     62  C   UNL     1      -6.187  -5.941  11.493  1.00  0.00     0.049 A 
ATOM     63  H   UNL     1      -4.597  -5.815  10.111  1.00  0.00     0.167 HD
ATOM     64  C   UNL     1      -7.252  -5.127   9.406  1.00  0.00     0.074 A 
ATOM     65  C   UNL     1      -8.397  -4.711   8.624  1.00  0.00     0.031 C 
ATOM     66  C   UNL     1      -7.316  -5.518  10.704  1.00  0.00     0.037 A 
BRANCH  53  67
ATOM     67  C   UNL     1      -1.865  -7.234  13.064  1.00  0.00     0.064 A 
ATOM     68  C   UNL     1      -0.905  -6.456  13.729  1.00  0.00     0.173 A 
ATOM     69  C   UNL     1      -2.078  -8.543  13.519  1.00  0.00     0.173 A 
ATOM     70  F   UNL     1      -0.647  -5.204  13.319  1.00  0.00    -0.203 F 
ATOM     71  C   UNL     1      -0.160  -6.982  14.781  1.00  0.00     0.198 A 
ATOM     72  C   UNL     1      -1.355  -9.056  14.592  1.00  0.00     0.198 A 
ATOM     73  F   UNL     1      -2.984  -9.330  12.918  1.00  0.00    -0.203 F 
ATOM     74  F   UNL     1       0.796  -6.243  15.359  1.00  0.00    -0.200 F 
ATOM     75  C   UNL     1      -0.390  -8.279  15.215  1.00  0.00     0.200 A 
ATOM     76  F   UNL     1      -1.585 -10.306  15.017  1.00  0.00    -0.200 F 
ATOM     77  F   UNL     1       0.329  -8.786  16.227  1.00  0.00    -0.200 F 
ENDBRANCH  53  67
BRANCH  54  78
ATOM     78  C   UNL     1      -6.547  -3.795   4.946  1.00  0.00     0.064 A 
ATOM     79  C   UNL     1      -7.119  -2.515   4.932  1.00  0.00     0.173 A 
ATOM     80  C   UNL     1      -6.692  -4.585   3.795  1.00  0.00     0.173 A 
ATOM     81  F   UNL     1      -7.037  -1.734   6.019  1.00  0.00    -0.203 F 
ATOM     82  C   UNL     1      -7.814  -2.047   3.818  1.00  0.00     0.198 A 
ATOM     83  C   UNL     1      -7.364  -4.106   2.672  1.00  0.00     0.198 A 
ATOM     84  F   UNL     1      -6.175  -5.822   3.761  1.00  0.00    -0.203 F 
ATOM     85  F   UNL     1      -8.385  -0.836   3.847  1.00  0.00    -0.200 F 
ATOM     86  C   UNL     1      -7.930  -2.840   2.686  1.00  0.00     0.200 A 
ATOM     87  F   UNL     1      -7.471  -4.875   1.579  1.00  0.00    -0.200 F 
ATOM     88  F   UNL     1      -8.595  -2.389   1.614  1.00  0.00    -0.200 F 
ENDBRANCH  54  78
BRANCH  66  89
ATOM     89  C   UNL     1      -8.658  -5.477  11.379  1.00  0.00     0.064 A 
ATOM     90  C   UNL     1      -9.668  -6.400  11.072  1.00  0.00     0.173 A 
ATOM     91  C   UNL     1      -8.915  -4.534  12.386  1.00  0.00     0.173 A 
ATOM     92  F   UNL     1      -9.478  -7.314  10.109  1.00  0.00    -0.203 F 
ATOM     93  C   UNL     1     -10.894  -6.364  11.732  1.00  0.00     0.198 A 
ATOM     94  C   UNL     1     -10.130  -4.521  13.066  1.00  0.00     0.198 A 
ATOM     95  F   UNL     1      -7.979  -3.635  12.726  1.00  0.00    -0.203 F 
ATOM     96  F   UNL     1     -11.861  -7.228  11.391  1.00  0.00    -0.200 F 
ATOM     97  C   UNL     1     -11.121  -5.431  12.733  1.00  0.00     0.200 A 
ATOM     98  F   UNL     1     -10.340  -3.630  14.044  1.00  0.00    -0.200 F 
ATOM     99  F   UNL     1     -12.298  -5.406  13.374  1.00  0.00    -0.200 F 
ENDBRANCH  66  89
ENDBRANCH  40  41
ENDBRANCH  33  35
ENDBRANCH  32  33
ENDBRANCH  31  32
ENDBRANCH  30  31
ENDBRANCH  29  30
ENDBRANCH  28  29
ENDBRANCH  27  28
ENDBRANCH  26  27
ENDBRANCH  25  26
ENDBRANCH   1  25
TORSDOF 25
