REMARK SMILES C[N@H+](CC(=O)OCCOCCOCCOCCOC(=O)c1ccc(-c2c3nc(c(-c4c(F)c(F)c(F)c(F)c4F)c4ccc([nH]4)c(-c4c(F)c(F)c(F)c(F)c4F)c4nc(c(-c5c(F)c(F)c(F)c(F)c5F)c5ccc2[nH]5)C=C4)C=C3)cc1)Cc1csc(-c2ccco2)n1
REMARK SMILES IDX 11 1 10 2 9 3 8 4 7 5 6 6 4 7 5 8 3 9 2 10 1 11 84 13 85 14
REMARK SMILES IDX 86 15 94 16 87 17 88 18 89 19 90 20 93 21 91 22 92 23 12 24
REMARK SMILES IDX 13 25 14 26 15 27 16 28 17 29 18 30 19 31 20 32 21 33 22 34
REMARK SMILES IDX 83 35 23 36 82 37 24 38 25 39 26 40 76 41 27 42 81 43 75 44
REMARK SMILES IDX 77 45 28 46 80 47 74 48 73 49 29 51 61 52 41 53 60 54 42 55
REMARK SMILES IDX 45 56 59 57 78 58 43 59 44 60 58 62 79 63 46 64 30 65 31 66
REMARK SMILES IDX 39 67 32 68 33 69 37 70 40 71 34 72 35 73 38 74 36 75 62 76
REMARK SMILES IDX 63 77 71 78 64 79 65 80 69 81 72 82 66 83 67 84 70 85 68 86
REMARK SMILES IDX 47 87 48 88 56 89 49 90 50 91 54 92 57 93 51 94 52 95 55 96
REMARK SMILES IDX 53 97
REMARK H PARENT 2 12 77 50 45 61
REMARK Flexibility Score: inf
ROOT
ATOM      1  C   UNL     1      -0.881  -1.490   2.864  1.00  0.00     0.188 C 
ENDROOT
BRANCH   1   2
ATOM      2  C   UNL     1      -2.414  -1.498   2.897  1.00  0.00     0.188 C 
BRANCH   2   3
ATOM      3  O   UNL     1      -3.113  -2.654   2.464  1.00  0.00    -0.376 OA
BRANCH   3   4
ATOM      4  C   UNL     1      -2.757  -3.188   1.197  1.00  0.00     0.202 C 
BRANCH   4   5
ATOM      5  C   UNL     1      -2.874  -2.239   0.000  1.00  0.00     0.261 C 
BRANCH   5   6
ATOM      6  O   UNL     1      -1.953  -1.130   0.072  1.00  0.00    -0.459 OA
BRANCH   6   7
ATOM      7  C   UNL     1      -2.477   0.096  -0.199  1.00  0.00     0.361 C 
ATOM      8  O   UNL     1      -3.615   0.268  -0.634  1.00  0.00    -0.245 OA
BRANCH   7   9
ATOM      9  C   UNL     1      -1.556   1.293   0.065  1.00  0.00     0.386 C 
BRANCH   9  10
ATOM     10  N   UNL     1      -0.356   1.038   0.886  1.00  0.00    -0.323 N 
ATOM     11  C   UNL     1       0.763   0.515   0.100  1.00  0.00     0.333 C 
ATOM     12  H   UNL     1      -0.606   0.287   1.530  1.00  0.00     0.348 HD
BRANCH  10  13
ATOM     13  C   UNL     1       0.001   2.166   1.758  1.00  0.00     0.320 C 
BRANCH  13  14
ATOM     14  C   UNL     1       0.053   1.743   3.219  1.00  0.00     0.106 A 
ATOM     15  C   UNL     1       1.223   1.611   3.946  1.00  0.00     0.097 A 
ATOM     16  N   UNL     1      -1.111   1.441   3.964  1.00  0.00    -0.232 NA
ATOM     17  S   UNL     1       0.859   1.457   5.609  1.00  0.00    -0.119 S 
ATOM     18  C   UNL     1      -0.767   1.069   5.193  1.00  0.00     0.159 A 
BRANCH  18  19
ATOM     19  C   UNL     1      -1.540   0.195   6.056  1.00  0.00     0.162 A 
ATOM     20  C   UNL     1      -2.897  -0.103   6.067  1.00  0.00     0.053 A 
ATOM     21  O   UNL     1      -0.925  -0.666   6.948  1.00  0.00    -0.462 OA
ATOM     22  C   UNL     1      -3.078  -1.261   6.876  1.00  0.00     0.043 A 
ATOM     23  C   UNL     1      -1.843  -1.558   7.391  1.00  0.00     0.196 A 
ENDBRANCH  18  19
ENDBRANCH  13  14
ENDBRANCH  10  13
ENDBRANCH   9  10
ENDBRANCH   7   9
ENDBRANCH   6   7
ENDBRANCH   5   6
ENDBRANCH   4   5
ENDBRANCH   3   4
ENDBRANCH   2   3
ENDBRANCH   1   2
BRANCH   1  24
ATOM     24  O   UNL     1      -0.222  -2.702   2.560  1.00  0.00    -0.377 OA
BRANCH  24  25
ATOM     25  C   UNL     1       0.187  -3.397   3.724  1.00  0.00     0.188 C 
BRANCH  25  26
ATOM     26  C   UNL     1       1.506  -2.866   4.292  1.00  0.00     0.188 C 
BRANCH  26  27
ATOM     27  O   UNL     1       1.390  -1.736   5.153  1.00  0.00    -0.376 OA
BRANCH  27  28
ATOM     28  C   UNL     1       2.482  -1.616   6.088  1.00  0.00     0.202 C 
BRANCH  28  29
ATOM     29  C   UNL     1       3.828  -1.221   5.451  1.00  0.00     0.261 C 
BRANCH  29  30
ATOM     30  O   UNL     1       4.368  -2.235   4.589  1.00  0.00    -0.460 OA
BRANCH  30  31
ATOM     31  C   UNL     1       4.621  -3.434   5.159  1.00  0.00     0.338 C 
ATOM     32  O   UNL     1       4.663  -3.707   6.347  1.00  0.00    -0.246 OA
BRANCH  31  33
ATOM     33  C   UNL     1       4.522  -4.421   4.074  1.00  0.00     0.060 A 
ATOM     34  C   UNL     1       3.571  -5.446   4.194  1.00  0.00     0.016 A 
ATOM     35  C   UNL     1       5.277  -4.267   2.910  1.00  0.00     0.016 A 
ATOM     36  C   UNL     1       3.354  -6.316   3.137  1.00  0.00     0.010 A 
ATOM     37  C   UNL     1       5.108  -5.178   1.876  1.00  0.00     0.010 A 
ATOM     38  C   UNL     1       4.170  -6.217   2.006  1.00  0.00    -0.014 A 
BRANCH  38  39
ATOM     39  C   UNL     1       4.295  -7.377   1.110  1.00  0.00     0.031 A 
ATOM     40  C   UNL     1       5.322  -8.401   1.489  1.00  0.00     0.074 A 
ATOM     41  C   UNL     1       3.566  -7.474  -0.009  1.00  0.00     0.049 A 
ATOM     42  N   UNL     1       5.771  -9.421   0.811  1.00  0.00    -0.248 NA
ATOM     43  C   UNL     1       5.942  -8.239   2.817  1.00  0.00     0.031 C 
ATOM     44  C   UNL     1       2.507  -6.552  -0.414  1.00  0.00     0.029 A 
ATOM     45  N   UNL     1       3.634  -8.387  -1.026  1.00  0.00    -0.354 N 
ATOM     46  C   UNL     1       6.728 -10.012   1.626  1.00  0.00     0.074 A 
ATOM     47  C   UNL     1       6.817  -9.229   2.834  1.00  0.00     0.031 C 
ATOM     48  C   UNL     1       2.045  -6.929  -1.619  1.00  0.00     0.029 A 
ATOM     49  C   UNL     1       2.811  -8.086  -2.081  1.00  0.00     0.049 A 
ATOM     50  H   UNL     1       4.216  -9.181  -1.003  1.00  0.00     0.167 HD
ATOM     51  C   UNL     1       7.469 -11.113   1.375  1.00  0.00     0.037 A 
ATOM     52  C   UNL     1       2.734  -8.664  -3.294  1.00  0.00     0.037 A 
ATOM     53  C   UNL     1       7.384 -11.850   0.146  1.00  0.00     0.049 A 
ATOM     54  C   UNL     1       3.653  -9.822  -3.597  1.00  0.00     0.074 A 
ATOM     55  C   UNL     1       8.074 -12.984  -0.232  1.00  0.00     0.029 A 
ATOM     56  N   UNL     1       6.562 -11.499  -0.917  1.00  0.00    -0.354 N 
ATOM     57  N   UNL     1       4.539 -10.403  -2.822  1.00  0.00    -0.248 NA
ATOM     58  C   UNL     1       3.571 -10.396  -4.946  1.00  0.00     0.031 C 
ATOM     59  C   UNL     1       7.716 -13.284  -1.550  1.00  0.00     0.029 A 
ATOM     60  C   UNL     1       6.757 -12.373  -1.971  1.00  0.00     0.049 A 
ATOM     61  H   UNL     1       5.933 -10.742  -0.920  1.00  0.00     0.167 HD
ATOM     62  C   UNL     1       5.106 -11.420  -3.578  1.00  0.00     0.074 A 
ATOM     63  C   UNL     1       4.448 -11.387  -4.870  1.00  0.00     0.031 C 
ATOM     64  C   UNL     1       6.082 -12.301  -3.244  1.00  0.00     0.037 A 
BRANCH  51  65
ATOM     65  C   UNL     1       8.455 -11.533   2.425  1.00  0.00     0.064 A 
ATOM     66  C   UNL     1       8.044 -12.029   3.673  1.00  0.00     0.173 A 
ATOM     67  C   UNL     1       9.833 -11.418   2.188  1.00  0.00     0.173 A 
ATOM     68  F   UNL     1       6.738 -12.131   3.962  1.00  0.00    -0.203 F 
ATOM     69  C   UNL     1       8.974 -12.364   4.653  1.00  0.00     0.198 A 
ATOM     70  C   UNL     1      10.761 -11.786   3.159  1.00  0.00     0.198 A 
ATOM     71  F   UNL     1      10.281 -10.940   1.018  1.00  0.00    -0.203 F 
ATOM     72  F   UNL     1       8.556 -12.774   5.859  1.00  0.00    -0.200 F 
ATOM     73  C   UNL     1      10.331 -12.249   4.393  1.00  0.00     0.200 A 
ATOM     74  F   UNL     1      12.072 -11.681   2.903  1.00  0.00    -0.200 F 
ATOM     75  F   UNL     1      11.226 -12.573   5.337  1.00  0.00    -0.200 F 
ENDBRANCH  51  65
BRANCH  52  76
ATOM     76  C   UNL     1       1.782  -8.143  -4.309  1.00  0.00     0.064 A 
ATOM     77  C   UNL     1       0.686  -8.910  -4.726  1.00  0.00     0.173 A 
ATOM     78  C   UNL     1       1.939  -6.870  -4.878  1.00  0.00     0.173 A 
ATOM     79  F   UNL     1       0.504 -10.142  -4.229  1.00  0.00    -0.203 F 
ATOM     80  C   UNL     1      -0.209  -8.430  -5.680  1.00  0.00     0.198 A 
ATOM     81  C   UNL     1       1.028  -6.379  -5.811  1.00  0.00     0.198 A 
ATOM     82  F   UNL     1       2.973  -6.095  -4.518  1.00  0.00    -0.203 F 
ATOM     83  F   UNL     1      -1.226  -9.201  -6.090  1.00  0.00    -0.200 F 
ATOM     84  C   UNL     1      -0.042  -7.162  -6.216  1.00  0.00     0.200 A 
ATOM     85  F   UNL     1       1.186  -5.148  -6.317  1.00  0.00    -0.200 F 
ATOM     86  F   UNL     1      -0.908  -6.698  -7.128  1.00  0.00    -0.200 F 
ENDBRANCH  52  76
BRANCH  64  87
ATOM     87  C   UNL     1       6.487 -13.305  -4.283  1.00  0.00     0.064 A 
ATOM     88  C   UNL     1       7.234 -12.931  -5.409  1.00  0.00     0.173 A 
ATOM     89  C   UNL     1       6.189 -14.665  -4.111  1.00  0.00     0.173 A 
ATOM     90  F   UNL     1       7.532 -11.640  -5.624  1.00  0.00    -0.203 F 
ATOM     91  C   UNL     1       7.654 -13.881  -6.334  1.00  0.00     0.198 A 
ATOM     92  C   UNL     1       6.640 -15.616  -5.019  1.00  0.00     0.198 A 
ATOM     93  F   UNL     1       5.486 -15.074  -3.043  1.00  0.00    -0.203 F 
ATOM     94  F   UNL     1       8.332 -13.498  -7.424  1.00  0.00    -0.200 F 
ATOM     95  C   UNL     1       7.367 -15.223  -6.133  1.00  0.00     0.200 A 
ATOM     96  F   UNL     1       6.380 -16.915  -4.812  1.00  0.00    -0.200 F 
ATOM     97  F   UNL     1       7.789 -16.139  -7.015  1.00  0.00    -0.200 F 
ENDBRANCH  64  87
ENDBRANCH  38  39
ENDBRANCH  31  33
ENDBRANCH  30  31
ENDBRANCH  29  30
ENDBRANCH  28  29
ENDBRANCH  27  28
ENDBRANCH  26  27
ENDBRANCH  25  26
ENDBRANCH  24  25
ENDBRANCH   1  24
TORSDOF 24
