REMARK SMILES CC(C)c1ccc(NC(=O)C(=O)N/N=C/c2ccccc2C(=O)OCCOCCOCCOCCOC(=O)c2ccc(-c3c4nc(c(-c5c(F)c(F)c(F)c(F)c5F)c5ccc([nH]5)c(-c5c(F)c(F)c(F)c(F)c5F)c5nc(c(-c6c(F)c(F)c(F)c(F)c6F)c6ccc3[nH]6)C=C5)C=C4)cc2)cc1
REMARK SMILES IDX 28 1 27 2 26 3 25 4 24 5 22 6 23 7 21 8 16 9 17 10 18 11
REMARK SMILES IDX 20 12 19 13 15 14 14 15 13 16 11 17 12 18 9 20 8 21 10 23
REMARK SMILES IDX 7 24 4 25 5 26 103 27 6 28 102 29 2 30 1 31 3 32 29 33 30 34
REMARK SMILES IDX 31 35 32 36 33 37 34 38 35 39 36 40 37 41 38 42 39 43 40 44
REMARK SMILES IDX 101 45 41 46 100 47 42 48 43 49 44 50 94 51 45 52 99 53
REMARK SMILES IDX 93 54 95 55 46 56 98 57 92 58 91 59 47 61 79 62 59 63 78 64
REMARK SMILES IDX 60 65 63 66 77 67 96 68 61 69 62 70 76 72 97 73 64 74 48 75
REMARK SMILES IDX 49 76 57 77 50 78 51 79 55 80 58 81 52 82 53 83 56 84 54 85
REMARK SMILES IDX 80 86 81 87 89 88 82 89 83 90 87 91 90 92 84 93 85 94 88 95
REMARK SMILES IDX 86 96 65 97 66 98 74 99 67 100 68 101 72 102 75 103 69 104
REMARK SMILES IDX 70 105 73 106 71 107
REMARK H PARENT 13 19 8 22 95 60 63 71
REMARK Flexibility Score: inf
ROOT
ATOM      1  C   UNL     1      -9.793   5.355  -4.415  1.00  0.00     0.188 C 
ENDROOT
BRANCH   1   2
ATOM      2  O   UNL     1      -8.788   6.277  -4.792  1.00  0.00    -0.376 OA
BRANCH   2   3
ATOM      3  C   UNL     1      -8.357   7.274  -3.888  1.00  0.00     0.202 C 
BRANCH   3   4
ATOM      4  C   UNL     1      -7.903   6.890  -2.475  1.00  0.00     0.261 C 
BRANCH   4   5
ATOM      5  O   UNL     1      -8.608   5.801  -1.880  1.00  0.00    -0.460 OA
BRANCH   5   6
ATOM      6  C   UNL     1      -9.756   6.051  -1.222  1.00  0.00     0.338 C 
ATOM      7  O   UNL     1     -10.306   7.133  -1.122  1.00  0.00    -0.246 OA
BRANCH   6   8
ATOM      8  C   UNL     1     -10.368   4.757  -0.809  1.00  0.00     0.068 A 
ATOM      9  C   UNL     1      -9.631   3.655  -0.349  1.00  0.00     0.009 A 
ATOM     10  C   UNL     1     -10.259   2.444  -0.043  1.00  0.00     0.010 A 
ATOM     11  C   UNL     1     -11.632   2.312  -0.240  1.00  0.00     0.001 A 
ATOM     12  C   UNL     1     -11.748   4.609  -1.006  1.00  0.00     0.016 A 
ATOM     13  C   UNL     1     -12.370   3.383  -0.746  1.00  0.00     0.001 A 
BRANCH   9  14
ATOM     14  C   UNL     1      -8.194   3.584  -0.589  1.00  0.00     0.142 C 
ATOM     15  N   UNL     1      -7.261   3.872   0.263  1.00  0.00    -0.180 NA
BRANCH  15  16
ATOM     16  N   UNL     1      -6.000   3.798  -0.292  1.00  0.00    -0.239 N 
ATOM     17  C   UNL     1      -5.557   2.838  -1.199  1.00  0.00     0.329 C 
ATOM     18  O   UNL     1      -4.803   3.134  -2.122  1.00  0.00    -0.262 OA
ATOM     19  H   UNL     1      -5.353   4.489  -0.022  1.00  0.00     0.194 HD
BRANCH  17  20
ATOM     20  C   UNL     1      -5.987   1.371  -0.951  1.00  0.00     0.315 C 
ATOM     21  N   UNL     1      -5.051   0.358  -0.889  1.00  0.00    -0.318 N 
ATOM     22  H   UNL     1      -5.446  -0.539  -0.791  1.00  0.00     0.170 HD
ATOM     23  O   UNL     1      -7.176   1.065  -0.869  1.00  0.00    -0.263 OA
BRANCH  21  24
ATOM     24  C   UNL     1      -3.651   0.353  -0.937  1.00  0.00     0.041 A 
ATOM     25  C   UNL     1      -0.835   0.187  -1.202  1.00  0.00    -0.045 A 
ATOM     26  C   UNL     1      -1.484   1.393  -0.938  1.00  0.00     0.006 A 
ATOM     27  C   UNL     1      -1.621  -0.962  -1.288  1.00  0.00     0.006 A 
ATOM     28  C   UNL     1      -2.862   1.477  -0.774  1.00  0.00     0.026 A 
ATOM     29  C   UNL     1      -3.016  -0.877  -1.160  1.00  0.00     0.026 A 
BRANCH  25  30
ATOM     30  C   UNL     1       0.677   0.184  -1.309  1.00  0.00     0.013 C 
ATOM     31  C   UNL     1       1.302  -0.332  -0.012  1.00  0.00     0.012 C 
ATOM     32  C   UNL     1       1.206  -0.570  -2.527  1.00  0.00     0.012 C 
ENDBRANCH  25  30
ENDBRANCH  21  24
ENDBRANCH  17  20
ENDBRANCH  15  16
ENDBRANCH   9  14
ENDBRANCH   6   8
ENDBRANCH   5   6
ENDBRANCH   4   5
ENDBRANCH   3   4
ENDBRANCH   2   3
ENDBRANCH   1   2
BRANCH   1  33
ATOM     33  C   UNL     1      -9.261   3.924  -4.190  1.00  0.00     0.188 C 
BRANCH  33  34
ATOM     34  O   UNL     1      -7.861   3.738  -4.038  1.00  0.00    -0.377 OA
BRANCH  34  35
ATOM     35  C   UNL     1      -6.955   4.242  -5.019  1.00  0.00     0.188 C 
BRANCH  35  36
ATOM     36  C   UNL     1      -7.415   4.616  -6.450  1.00  0.00     0.188 C 
BRANCH  36  37
ATOM     37  O   UNL     1      -8.724   4.191  -6.781  1.00  0.00    -0.376 OA
BRANCH  37  38
ATOM     38  C   UNL     1      -8.872   3.115  -7.686  1.00  0.00     0.202 C 
BRANCH  38  39
ATOM     39  C   UNL     1      -8.273   1.762  -7.279  1.00  0.00     0.261 C 
BRANCH  39  40
ATOM     40  O   UNL     1      -6.894   1.773  -6.879  1.00  0.00    -0.460 OA
BRANCH  40  41
ATOM     41  C   UNL     1      -5.973   2.047  -7.827  1.00  0.00     0.338 C 
ATOM     42  O   UNL     1      -6.177   2.287  -9.007  1.00  0.00    -0.246 OA
BRANCH  41  43
ATOM     43  C   UNL     1      -4.666   2.189  -7.153  1.00  0.00     0.060 A 
ATOM     44  C   UNL     1      -3.998   3.420  -7.206  1.00  0.00     0.016 A 
ATOM     45  C   UNL     1      -4.108   1.112  -6.462  1.00  0.00     0.016 A 
ATOM     46  C   UNL     1      -2.755   3.568  -6.587  1.00  0.00     0.010 A 
ATOM     47  C   UNL     1      -2.855   1.257  -5.858  1.00  0.00     0.010 A 
ATOM     48  C   UNL     1      -2.158   2.476  -5.941  1.00  0.00    -0.014 A 
BRANCH  48  49
ATOM     49  C   UNL     1      -0.730   2.542  -5.536  1.00  0.00     0.031 A 
ATOM     50  C   UNL     1       0.290   1.903  -6.443  1.00  0.00     0.074 A 
ATOM     51  C   UNL     1      -0.338   3.181  -4.417  1.00  0.00     0.049 A 
ATOM     52  N   UNL     1       1.578   1.747  -6.276  1.00  0.00    -0.248 NA
ATOM     53  C   UNL     1      -0.215   1.376  -7.723  1.00  0.00     0.031 C 
ATOM     54  C   UNL     1      -1.215   3.912  -3.503  1.00  0.00     0.029 A 
ATOM     55  N   UNL     1       0.909   3.303  -3.849  1.00  0.00    -0.354 N 
ATOM     56  C   UNL     1       2.034   1.112  -7.426  1.00  0.00     0.074 A 
ATOM     57  C   UNL     1       0.883   0.872  -8.266  1.00  0.00     0.031 C 
ATOM     58  C   UNL     1      -0.482   4.390  -2.480  1.00  0.00     0.029 A 
ATOM     59  C   UNL     1       0.901   3.945  -2.632  1.00  0.00     0.049 A 
ATOM     60  H   UNL     1       1.730   2.964  -4.274  1.00  0.00     0.167 HD
ATOM     61  C   UNL     1       3.304   0.777  -7.756  1.00  0.00     0.037 A 
ATOM     62  C   UNL     1       1.888   4.095  -1.724  1.00  0.00     0.037 A 
ATOM     63  C   UNL     1       4.441   1.018  -6.908  1.00  0.00     0.049 A 
ATOM     64  C   UNL     1       3.256   3.554  -2.043  1.00  0.00     0.074 A 
ATOM     65  C   UNL     1       5.775   0.744  -7.151  1.00  0.00     0.029 A 
ATOM     66  N   UNL     1       4.373   1.582  -5.641  1.00  0.00    -0.354 N 
ATOM     67  N   UNL     1       3.680   2.947  -3.124  1.00  0.00    -0.248 NA
ATOM     68  C   UNL     1       4.286   3.731  -1.010  1.00  0.00     0.031 C 
ATOM     69  C   UNL     1       6.504   1.077  -6.005  1.00  0.00     0.029 A 
ATOM     70  C   UNL     1       5.636   1.626  -5.075  1.00  0.00     0.049 A 
ATOM     71  H   UNL     1       3.548   1.902  -5.209  1.00  0.00     0.167 HD
ATOM     72  C   UNL     1       5.035   2.717  -2.927  1.00  0.00     0.074 A 
ATOM     73  C   UNL     1       5.357   3.238  -1.614  1.00  0.00     0.031 C 
ATOM     74  C   UNL     1       5.937   2.147  -3.765  1.00  0.00     0.037 A 
BRANCH  61  75
ATOM     75  C   UNL     1       3.529   0.089  -9.073  1.00  0.00     0.064 A 
ATOM     76  C   UNL     1       3.365   0.756 -10.297  1.00  0.00     0.173 A 
ATOM     77  C   UNL     1       3.955  -1.248  -9.111  1.00  0.00     0.173 A 
ATOM     78  F   UNL     1       2.949   2.031 -10.322  1.00  0.00    -0.203 F 
ATOM     79  C   UNL     1       3.593   0.103 -11.508  1.00  0.00     0.198 A 
ATOM     80  C   UNL     1       4.214  -1.887 -10.322  1.00  0.00     0.198 A 
ATOM     81  F   UNL     1       4.134  -1.934  -7.972  1.00  0.00    -0.203 F 
ATOM     82  F   UNL     1       3.383   0.747 -12.665  1.00  0.00    -0.200 F 
ATOM     83  C   UNL     1       4.025  -1.214 -11.518  1.00  0.00     0.200 A 
ATOM     84  F   UNL     1       4.647  -3.156 -10.328  1.00  0.00    -0.200 F 
ATOM     85  F   UNL     1       4.254  -1.837 -12.683  1.00  0.00    -0.200 F 
ENDBRANCH  61  75
BRANCH  62  86
ATOM     86  C   UNL     1       1.629   4.744  -0.409  1.00  0.00     0.064 A 
ATOM     87  C   UNL     1       2.079   6.040  -0.134  1.00  0.00     0.173 A 
ATOM     88  C   UNL     1       0.982   4.060   0.629  1.00  0.00     0.173 A 
ATOM     89  F   UNL     1       2.789   6.708  -1.054  1.00  0.00    -0.203 F 
ATOM     90  C   UNL     1       1.860   6.631   1.112  1.00  0.00     0.198 A 
ATOM     91  C   UNL     1       0.710   4.667   1.852  1.00  0.00     0.198 A 
ATOM     92  F   UNL     1       0.665   2.771   0.486  1.00  0.00    -0.203 F 
ATOM     93  F   UNL     1       2.357   7.848   1.370  1.00  0.00    -0.200 F 
ATOM     94  C   UNL     1       1.153   5.954   2.095  1.00  0.00     0.200 A 
ATOM     95  F   UNL     1       0.043   3.992   2.799  1.00  0.00    -0.200 F 
ATOM     96  F   UNL     1       0.930   6.526   3.286  1.00  0.00    -0.200 F 
ENDBRANCH  62  86
BRANCH  74  97
ATOM     97  C   UNL     1       7.368   2.106  -3.310  1.00  0.00     0.064 A 
ATOM     98  C   UNL     1       7.793   1.266  -2.272  1.00  0.00     0.173 A 
ATOM     99  C   UNL     1       8.334   2.900  -3.950  1.00  0.00     0.173 A 
ATOM    100  F   UNL     1       6.907   0.500  -1.617  1.00  0.00    -0.203 F 
ATOM    101  C   UNL     1       9.127   1.244  -1.870  1.00  0.00     0.198 A 
ATOM    102  C   UNL     1       9.672   2.848  -3.571  1.00  0.00     0.198 A 
ATOM    103  F   UNL     1       7.983   3.716  -4.955  1.00  0.00    -0.203 F 
ATOM    104  F   UNL     1       9.500   0.477  -0.836  1.00  0.00    -0.200 F 
ATOM    105  C   UNL     1      10.065   2.028  -2.524  1.00  0.00     0.200 A 
ATOM    106  F   UNL     1      10.580   3.592  -4.217  1.00  0.00    -0.200 F 
ATOM    107  F   UNL     1      11.349   1.999  -2.141  1.00  0.00    -0.200 F 
ENDBRANCH  74  97
ENDBRANCH  48  49
ENDBRANCH  41  43
ENDBRANCH  40  41
ENDBRANCH  39  40
ENDBRANCH  38  39
ENDBRANCH  37  38
ENDBRANCH  36  37
ENDBRANCH  35  36
ENDBRANCH  34  35
ENDBRANCH  33  34
ENDBRANCH   1  33
TORSDOF 25
