REMARK SMILES C[C@H]1OCC[C@@H]1C(=O)Nc1sc2c(c1C(=O)OCCOCCOCCOCCOC(=O)c1ccc(-c3c4nc(c(-c5c(F)c(F)c(F)c(F)c5F)c5ccc([nH]5)c(-c5c(F)c(F)c(F)c(F)c5F)c5nc(c(-c6c(F)c(F)c(F)c(F)c6F)c6ccc3[nH]6)C=C5)C=C4)cc1)CCC2
REMARK SMILES IDX 23 1 22 2 21 3 20 4 19 5 18 6 17 7 15 8 16 9 14 10 10 11
REMARK SMILES IDX 11 12 12 13 13 14 97 15 95 16 96 17 9 18 7 19 8 20 6 22 1 23
REMARK SMILES IDX 2 24 3 25 4 26 5 27 24 28 25 29 26 30 27 31 28 32 29 33
REMARK SMILES IDX 30 34 31 35 32 36 33 37 94 38 34 39 93 40 35 41 36 42 37 43
REMARK SMILES IDX 87 44 38 45 92 46 86 47 88 48 39 49 91 50 85 51 84 52 40 54
REMARK SMILES IDX 72 55 52 56 71 57 53 58 56 59 70 60 89 61 54 62 55 63 69 65
REMARK SMILES IDX 90 66 57 67 41 68 42 69 50 70 43 71 44 72 48 73 51 74 45 75
REMARK SMILES IDX 46 76 49 77 47 78 73 79 74 80 82 81 75 82 76 83 80 84 83 85
REMARK SMILES IDX 77 86 78 87 81 88 79 89 58 90 59 91 67 92 60 93 61 94 65 95
REMARK SMILES IDX 68 96 62 97 63 98 66 99 64 100
REMARK H PARENT 9 21 88 53 56 64
REMARK Flexibility Score: inf
ROOT
ATOM      1  O   UNL     1      -1.585   0.395  -2.082  1.00  0.00    -0.377 OA
ENDROOT
BRANCH   1   2
ATOM      2  C   UNL     1      -1.645  -0.950  -2.546  1.00  0.00     0.188 C 
BRANCH   2   3
ATOM      3  C   UNL     1      -2.705  -1.730  -1.788  1.00  0.00     0.188 C 
BRANCH   3   4
ATOM      4  O   UNL     1      -4.023  -1.332  -2.147  1.00  0.00    -0.376 OA
BRANCH   4   5
ATOM      5  C   UNL     1      -4.545  -0.212  -1.420  1.00  0.00     0.202 C 
BRANCH   5   6
ATOM      6  C   UNL     1      -4.866  -0.508   0.059  1.00  0.00     0.261 C 
BRANCH   6   7
ATOM      7  O   UNL     1      -3.825  -0.106   0.992  1.00  0.00    -0.460 OA
BRANCH   7   8
ATOM      8  C   UNL     1      -3.671  -0.930   2.090  1.00  0.00     0.341 C 
ATOM      9  O   UNL     1      -4.247  -1.999   2.220  1.00  0.00    -0.246 OA
BRANCH   8  10
ATOM     10  C   UNL     1      -2.738  -0.425   3.108  1.00  0.00     0.098 A 
ATOM     11  C   UNL     1      -1.666  -1.157   3.627  1.00  0.00     0.110 A 
ATOM     12  S   UNL     1      -0.919  -0.439   4.996  1.00  0.00    -0.122 S 
ATOM     13  C   UNL     1      -1.733   0.976   4.683  1.00  0.00     0.011 A 
ATOM     14  C   UNL     1      -2.668   0.884   3.684  1.00  0.00    -0.017 A 
ATOM     15  C   UNL     1      -1.542   2.329   5.244  1.00  0.00     0.047 C 
ATOM     16  C   UNL     1      -3.274   2.220   3.434  1.00  0.00     0.038 C 
ATOM     17  C   UNL     1      -2.273   3.179   4.168  1.00  0.00     0.010 C 
BRANCH  11  18
ATOM     18  N   UNL     1      -1.080  -2.355   3.264  1.00  0.00    -0.317 N 
ATOM     19  C   UNL     1       0.179  -2.376   2.698  1.00  0.00     0.230 C 
ATOM     20  O   UNL     1       0.996  -3.188   3.149  1.00  0.00    -0.274 OA
ATOM     21  H   UNL     1      -1.564  -3.199   3.411  1.00  0.00     0.170 HD
BRANCH  19  22
ATOM     22  C   UNL     1       0.566  -1.544   1.469  1.00  0.00     0.110 C 
ATOM     23  C   UNL     1       2.738  -0.530   0.664  1.00  0.00     0.039 C 
ATOM     24  C   UNL     1       1.586  -0.424   1.661  1.00  0.00     0.127 C 
ATOM     25  O   UNL     1       0.956   0.835   1.339  1.00  0.00    -0.378 OA
ATOM     26  C   UNL     1      -0.405   0.596   1.011  1.00  0.00     0.161 C 
ATOM     27  C   UNL     1      -0.525  -0.872   0.702  1.00  0.00     0.044 C 
ENDBRANCH  19  22
ENDBRANCH  11  18
ENDBRANCH   8  10
ENDBRANCH   7   8
ENDBRANCH   6   7
ENDBRANCH   5   6
ENDBRANCH   4   5
ENDBRANCH   3   4
ENDBRANCH   2   3
ENDBRANCH   1   2
BRANCH   1  28
ATOM     28  C   UNL     1      -1.616   1.408  -3.082  1.00  0.00     0.188 C 
BRANCH  28  29
ATOM     29  C   UNL     1      -0.991   1.081  -4.445  1.00  0.00     0.188 C 
BRANCH  29  30
ATOM     30  O   UNL     1       0.284   0.435  -4.524  1.00  0.00    -0.376 OA
BRANCH  30  31
ATOM     31  C   UNL     1       1.207   0.439  -3.435  1.00  0.00     0.202 C 
BRANCH  31  32
ATOM     32  C   UNL     1       2.180   1.607  -3.376  1.00  0.00     0.261 C 
BRANCH  32  33
ATOM     33  O   UNL     1       1.425   2.786  -3.176  1.00  0.00    -0.460 OA
BRANCH  33  34
ATOM     34  C   UNL     1       0.980   3.309  -4.338  1.00  0.00     0.338 C 
ATOM     35  O   UNL     1       1.291   2.977  -5.465  1.00  0.00    -0.246 OA
BRANCH  34  36
ATOM     36  C   UNL     1       0.040   4.420  -4.021  1.00  0.00     0.060 A 
ATOM     37  C   UNL     1      -0.227   5.119  -5.191  1.00  0.00     0.016 A 
ATOM     38  C   UNL     1       0.364   5.078  -2.827  1.00  0.00     0.016 A 
ATOM     39  C   UNL     1       0.468   6.288  -5.331  1.00  0.00     0.010 A 
ATOM     40  C   UNL     1       1.065   6.247  -2.951  1.00  0.00     0.010 A 
ATOM     41  C   UNL     1       1.194   6.777  -4.230  1.00  0.00    -0.014 A 
BRANCH  41  42
ATOM     42  C   UNL     1       1.863   8.033  -4.432  1.00  0.00     0.031 A 
ATOM     43  C   UNL     1       0.859   9.098  -4.621  1.00  0.00     0.074 A 
ATOM     44  C   UNL     1       3.191   8.203  -4.412  1.00  0.00     0.049 A 
ATOM     45  N   UNL     1       0.590   9.731  -5.712  1.00  0.00    -0.248 NA
ATOM     46  C   UNL     1      -0.138   9.270  -3.550  1.00  0.00     0.031 C 
ATOM     47  C   UNL     1       4.244   7.291  -3.972  1.00  0.00     0.029 A 
ATOM     48  N   UNL     1       3.870   9.332  -4.731  1.00  0.00    -0.354 N 
ATOM     49  C   UNL     1      -0.512  10.518  -5.408  1.00  0.00     0.074 A 
ATOM     50  C   UNL     1      -1.038  10.035  -4.162  1.00  0.00     0.031 C 
ATOM     51  C   UNL     1       5.397   7.990  -3.834  1.00  0.00     0.029 A 
ATOM     52  C   UNL     1       5.184   9.354  -4.295  1.00  0.00     0.049 A 
ATOM     53  H   UNL     1       3.463  10.075  -5.231  1.00  0.00     0.167 HD
ATOM     54  C   UNL     1      -0.722  11.685  -6.067  1.00  0.00     0.037 A 
ATOM     55  C   UNL     1       5.954  10.469  -4.237  1.00  0.00     0.037 A 
ATOM     56  C   UNL     1      -0.067  11.670  -7.353  1.00  0.00     0.049 A 
ATOM     57  C   UNL     1       5.322  11.490  -5.123  1.00  0.00     0.074 A 
ATOM     58  C   UNL     1      -0.182  10.875  -8.479  1.00  0.00     0.029 A 
ATOM     59  N   UNL     1       1.143  12.310  -7.474  1.00  0.00    -0.354 N 
ATOM     60  N   UNL     1       5.292  11.406  -6.424  1.00  0.00    -0.248 NA
ATOM     61  C   UNL     1       4.319  12.370  -4.535  1.00  0.00     0.031 C 
ATOM     62  C   UNL     1       1.149  10.722  -8.970  1.00  0.00     0.029 A 
ATOM     63  C   UNL     1       1.994  11.473  -8.152  1.00  0.00     0.049 A 
ATOM     64  H   UNL     1       1.361  13.209  -7.136  1.00  0.00     0.167 HD
ATOM     65  C   UNL     1       4.033  11.868  -6.783  1.00  0.00     0.074 A 
ATOM     66  C   UNL     1       3.510  12.522  -5.588  1.00  0.00     0.031 C 
ATOM     67  C   UNL     1       3.418  11.424  -7.919  1.00  0.00     0.037 A 
BRANCH  54  68
ATOM     68  C   UNL     1      -1.140  12.948  -5.354  1.00  0.00     0.064 A 
ATOM     69  C   UNL     1      -1.327  14.114  -6.118  1.00  0.00     0.173 A 
ATOM     70  C   UNL     1      -1.074  13.148  -3.954  1.00  0.00     0.173 A 
ATOM     71  F   UNL     1      -1.405  14.050  -7.455  1.00  0.00    -0.203 F 
ATOM     72  C   UNL     1      -1.336  15.383  -5.535  1.00  0.00     0.198 A 
ATOM     73  C   UNL     1      -1.136  14.410  -3.373  1.00  0.00     0.198 A 
ATOM     74  F   UNL     1      -0.842  12.160  -3.084  1.00  0.00    -0.203 F 
ATOM     75  F   UNL     1      -1.377  16.470  -6.316  1.00  0.00    -0.200 F 
ATOM     76  C   UNL     1      -1.228  15.530  -4.164  1.00  0.00     0.200 A 
ATOM     77  F   UNL     1      -1.017  14.526  -2.042  1.00  0.00    -0.200 F 
ATOM     78  F   UNL     1      -1.165  16.747  -3.610  1.00  0.00    -0.200 F 
ENDBRANCH  54  68
BRANCH  55  79
ATOM     79  C   UNL     1       6.971  10.835  -3.224  1.00  0.00     0.064 A 
ATOM     80  C   UNL     1       7.827  11.929  -3.439  1.00  0.00     0.173 A 
ATOM     81  C   UNL     1       6.936  10.318  -1.915  1.00  0.00     0.173 A 
ATOM     82  F   UNL     1       7.891  12.508  -4.647  1.00  0.00    -0.203 F 
ATOM     83  C   UNL     1       8.569  12.496  -2.399  1.00  0.00     0.198 A 
ATOM     84  C   UNL     1       7.686  10.878  -0.880  1.00  0.00     0.198 A 
ATOM     85  F   UNL     1       6.100   9.324  -1.585  1.00  0.00    -0.203 F 
ATOM     86  F   UNL     1       9.316  13.586  -2.628  1.00  0.00    -0.200 F 
ATOM     87  C   UNL     1       8.489  11.978  -1.118  1.00  0.00     0.200 A 
ATOM     88  F   UNL     1       7.572  10.388   0.363  1.00  0.00    -0.200 F 
ATOM     89  F   UNL     1       9.146  12.562  -0.107  1.00  0.00    -0.200 F 
ENDBRANCH  55  79
BRANCH  67  90
ATOM     90  C   UNL     1       4.245  10.627  -8.890  1.00  0.00     0.064 A 
ATOM     91  C   UNL     1       4.858   9.399  -8.581  1.00  0.00     0.173 A 
ATOM     92  C   UNL     1       4.321  11.067 -10.218  1.00  0.00     0.173 A 
ATOM     93  F   UNL     1       4.740   8.857  -7.362  1.00  0.00    -0.203 F 
ATOM     94  C   UNL     1       5.562   8.680  -9.546  1.00  0.00     0.198 A 
ATOM     95  C   UNL     1       4.988  10.326 -11.189  1.00  0.00     0.198 A 
ATOM     96  F   UNL     1       3.707  12.204 -10.585  1.00  0.00    -0.203 F 
ATOM     97  F   UNL     1       6.159   7.524  -9.220  1.00  0.00    -0.200 F 
ATOM     98  C   UNL     1       5.621   9.141 -10.850  1.00  0.00     0.200 A 
ATOM     99  F   UNL     1       4.998  10.752 -12.460  1.00  0.00    -0.200 F 
ATOM    100  F   UNL     1       6.266   8.432 -11.787  1.00  0.00    -0.200 F 
ENDBRANCH  67  90
ENDBRANCH  41  42
ENDBRANCH  34  36
ENDBRANCH  33  34
ENDBRANCH  32  33
ENDBRANCH  31  32
ENDBRANCH  30  31
ENDBRANCH  29  30
ENDBRANCH  28  29
ENDBRANCH   1  28
TORSDOF 22
