REMARK SMILES Cc1ccc(Cl)c(Nc2ccccc2C(=O)OCCOCCOCCOCCOC(=O)c2ccc(-c3c4nc(c(-c5c(F)c(F)c(F)c(F)c5F)c5ccc([nH]5)c(-c5c(F)c(F)c(F)c(F)c5F)c5nc(c(-c6c(F)c(F)c(F)c(F)c6F)c6ccc3[nH]6)C=C5)C=C4)cc2)c1Cl
REMARK SMILES IDX 23 1 22 2 21 3 20 4 19 5 18 6 17 7 15 8 16 9 14 10 9 11
REMARK SMILES IDX 10 12 11 13 13 14 12 15 8 16 7 18 1 19 2 20 3 21 95 22 4 23
REMARK SMILES IDX 96 24 5 25 6 26 24 27 25 28 26 29 27 30 28 31 29 32 30 33
REMARK SMILES IDX 31 34 32 35 33 36 94 37 34 38 93 39 35 40 36 41 37 42 87 43
REMARK SMILES IDX 38 44 92 45 86 46 88 47 39 48 91 49 85 50 84 51 40 53 72 54
REMARK SMILES IDX 52 55 71 56 53 57 56 58 70 59 89 60 54 61 55 62 69 64 90 65
REMARK SMILES IDX 57 66 41 67 42 68 50 69 43 70 44 71 48 72 51 73 45 74 46 75
REMARK SMILES IDX 49 76 47 77 73 78 74 79 82 80 75 81 76 82 80 83 83 84 77 85
REMARK SMILES IDX 78 86 81 87 79 88 58 89 59 90 67 91 60 92 61 93 65 94 68 95
REMARK SMILES IDX 62 96 63 97 66 98 64 99
REMARK H PARENT 8 17 88 52 56 63
REMARK Flexibility Score: inf
ROOT
ATOM      1  O   UNL     1      -0.939  -2.530   3.132  1.00  0.00    -0.377 OA
ENDROOT
BRANCH   1   2
ATOM      2  C   UNL     1       0.215  -3.335   3.318  1.00  0.00     0.188 C 
BRANCH   2   3
ATOM      3  C   UNL     1       1.468  -2.709   3.972  1.00  0.00     0.188 C 
BRANCH   3   4
ATOM      4  O   UNL     1       1.223  -1.521   4.698  1.00  0.00    -0.376 OA
BRANCH   4   5
ATOM      5  C   UNL     1       1.464  -0.253   4.127  1.00  0.00     0.202 C 
BRANCH   5   6
ATOM      6  C   UNL     1       1.202   0.062   2.650  1.00  0.00     0.261 C 
BRANCH   6   7
ATOM      7  O   UNL     1       1.104  -1.048   1.762  1.00  0.00    -0.460 OA
BRANCH   7   8
ATOM      8  C   UNL     1       2.236  -1.435   1.133  1.00  0.00     0.340 C 
ATOM      9  O   UNL     1       3.350  -0.974   1.326  1.00  0.00    -0.246 OA
BRANCH   8  10
ATOM     10  C   UNL     1       1.962  -2.649   0.317  1.00  0.00     0.083 A 
ATOM     11  C   UNL     1       0.848  -2.831  -0.536  1.00  0.00     0.053 A 
ATOM     12  C   UNL     1       0.713  -4.089  -1.160  1.00  0.00     0.027 A 
ATOM     13  C   UNL     1       1.633  -5.122  -0.950  1.00  0.00     0.002 A 
ATOM     14  C   UNL     1       2.886  -3.695   0.518  1.00  0.00     0.018 A 
ATOM     15  C   UNL     1       2.719  -4.926  -0.108  1.00  0.00     0.001 A 
BRANCH  11  16
ATOM     16  N   UNL     1      -0.110  -1.855  -0.902  1.00  0.00    -0.352 N 
ATOM     17  H   UNL     1      -0.948  -2.227  -1.262  1.00  0.00     0.167 HD
BRANCH  16  18
ATOM     18  C   UNL     1      -0.079  -0.439  -0.843  1.00  0.00     0.077 A 
ATOM     19  C   UNL     1       2.543   2.311  -0.484  1.00  0.00     0.046 C 
ATOM     20  C   UNL     1       1.202   1.640  -0.615  1.00  0.00    -0.030 A 
ATOM     21  C   UNL     1       0.064   2.282  -0.109  1.00  0.00     0.006 A 
ATOM     22  C   UNL     1       1.091   0.315  -1.078  1.00  0.00     0.069 A 
ATOM     23  C   UNL     1      -1.152   1.607  -0.033  1.00  0.00     0.023 A 
ATOM     24  Cl  UNL     1       2.405  -0.368  -1.996  1.00  0.00    -0.082 Cl
ATOM     25  C   UNL     1      -1.212   0.252  -0.361  1.00  0.00     0.066 A 
ATOM     26  Cl  UNL     1      -2.716  -0.570  -0.104  1.00  0.00    -0.082 Cl
ENDBRANCH  16  18
ENDBRANCH  11  16
ENDBRANCH   8  10
ENDBRANCH   7   8
ENDBRANCH   6   7
ENDBRANCH   5   6
ENDBRANCH   4   5
ENDBRANCH   3   4
ENDBRANCH   2   3
ENDBRANCH   1   2
BRANCH   1  27
ATOM     27  C   UNL     1      -1.539  -1.861   4.236  1.00  0.00     0.188 C 
BRANCH  27  28
ATOM     28  C   UNL     1      -1.218  -2.225   5.705  1.00  0.00     0.188 C 
BRANCH  28  29
ATOM     29  O   UNL     1      -0.497  -3.430   5.879  1.00  0.00    -0.376 OA
BRANCH  29  30
ATOM     30  C   UNL     1      -1.180  -4.567   6.369  1.00  0.00     0.202 C 
BRANCH  30  31
ATOM     31  C   UNL     1      -2.348  -5.108   5.533  1.00  0.00     0.261 C 
BRANCH  31  32
ATOM     32  O   UNL     1      -3.360  -4.158   5.170  1.00  0.00    -0.460 OA
BRANCH  32  33
ATOM     33  C   UNL     1      -4.101  -3.633   6.167  1.00  0.00     0.338 C 
ATOM     34  O   UNL     1      -4.018  -3.873   7.361  1.00  0.00    -0.246 OA
BRANCH  33  35
ATOM     35  C   UNL     1      -4.929  -2.561   5.582  1.00  0.00     0.060 A 
ATOM     36  C   UNL     1      -4.750  -1.241   6.017  1.00  0.00     0.016 A 
ATOM     37  C   UNL     1      -5.868  -2.862   4.594  1.00  0.00     0.016 A 
ATOM     38  C   UNL     1      -5.535  -0.220   5.484  1.00  0.00     0.010 A 
ATOM     39  C   UNL     1      -6.670  -1.843   4.078  1.00  0.00     0.010 A 
ATOM     40  C   UNL     1      -6.529  -0.524   4.545  1.00  0.00    -0.014 A 
BRANCH  40  41
ATOM     41  C   UNL     1      -7.549   0.493   4.198  1.00  0.00     0.031 A 
ATOM     42  C   UNL     1      -8.876   0.438   4.900  1.00  0.00     0.074 A 
ATOM     43  C   UNL     1      -7.303   1.446   3.284  1.00  0.00     0.049 A 
ATOM     44  N   UNL     1      -9.945   1.172   4.724  1.00  0.00    -0.248 NA
ATOM     45  C   UNL     1      -9.017  -0.594   5.940  1.00  0.00     0.031 C 
ATOM     46  C   UNL     1      -6.045   1.619   2.563  1.00  0.00     0.029 A 
ATOM     47  N   UNL     1      -8.115   2.439   2.797  1.00  0.00    -0.354 N 
ATOM     48  C   UNL     1     -10.887   0.681   5.618  1.00  0.00     0.074 A 
ATOM     49  C   UNL     1     -10.276  -0.430   6.313  1.00  0.00     0.031 C 
ATOM     50  C   UNL     1      -6.174   2.649   1.709  1.00  0.00     0.029 A 
ATOM     51  C   UNL     1      -7.535   3.180   1.798  1.00  0.00     0.049 A 
ATOM     52  H   UNL     1      -9.026   2.605   3.132  1.00  0.00     0.167 HD
ATOM     53  C   UNL     1     -12.148   1.122   5.840  1.00  0.00     0.037 A 
ATOM     54  C   UNL     1      -8.057   4.152   1.024  1.00  0.00     0.037 A 
ATOM     55  C   UNL     1     -12.751   2.225   5.139  1.00  0.00     0.049 A 
ATOM     56  C   UNL     1      -9.486   4.582   1.241  1.00  0.00     0.074 A 
ATOM     57  C   UNL     1     -14.008   2.774   5.313  1.00  0.00     0.029 A 
ATOM     58  N   UNL     1     -12.141   2.937   4.115  1.00  0.00    -0.354 N 
ATOM     59  N   UNL     1     -10.362   4.143   2.113  1.00  0.00    -0.248 NA
ATOM     60  C   UNL     1      -9.997   5.647   0.366  1.00  0.00     0.031 C 
ATOM     61  C   UNL     1     -14.187   3.769   4.346  1.00  0.00     0.029 A 
ATOM     62  C   UNL     1     -13.013   3.893   3.619  1.00  0.00     0.049 A 
ATOM     63  H   UNL     1     -11.225   2.785   3.789  1.00  0.00     0.167 HD
ATOM     64  C   UNL     1     -11.515   4.891   1.910  1.00  0.00     0.074 A 
ATOM     65  C   UNL     1     -11.222   5.825   0.843  1.00  0.00     0.031 C 
ATOM     66  C   UNL     1     -12.709   4.814   2.552  1.00  0.00     0.037 A 
BRANCH  53  67
ATOM     67  C   UNL     1     -12.973   0.375   6.850  1.00  0.00     0.064 A 
ATOM     68  C   UNL     1     -12.675   0.397   8.221  1.00  0.00     0.173 A 
ATOM     69  C   UNL     1     -14.087  -0.372   6.436  1.00  0.00     0.173 A 
ATOM     70  F   UNL     1     -11.613   1.083   8.670  1.00  0.00    -0.203 F 
ATOM     71  C   UNL     1     -13.435  -0.331   9.133  1.00  0.00     0.198 A 
ATOM     72  C   UNL     1     -14.867  -1.069   7.354  1.00  0.00     0.198 A 
ATOM     73  F   UNL     1     -14.421  -0.427   5.138  1.00  0.00    -0.203 F 
ATOM     74  F   UNL     1     -13.092  -0.346  10.428  1.00  0.00    -0.200 F 
ATOM     75  C   UNL     1     -14.534  -1.058   8.700  1.00  0.00     0.200 A 
ATOM     76  F   UNL     1     -15.938  -1.758   6.935  1.00  0.00    -0.200 F 
ATOM     77  F   UNL     1     -15.267  -1.756   9.578  1.00  0.00    -0.200 F 
ENDBRANCH  53  67
BRANCH  54  78
ATOM     78  C   UNL     1      -7.224   4.771  -0.040  1.00  0.00     0.064 A 
ATOM     79  C   UNL     1      -6.809   6.107   0.048  1.00  0.00     0.173 A 
ATOM     80  C   UNL     1      -6.821   4.036  -1.165  1.00  0.00     0.173 A 
ATOM     81  F   UNL     1      -7.189   6.859   1.091  1.00  0.00    -0.203 F 
ATOM     82  C   UNL     1      -6.032   6.686  -0.954  1.00  0.00     0.198 A 
ATOM     83  C   UNL     1      -6.018   4.607  -2.150  1.00  0.00     0.198 A 
ATOM     84  F   UNL     1      -7.193   2.755  -1.299  1.00  0.00    -0.203 F 
ATOM     85  F   UNL     1      -5.681   7.976  -0.864  1.00  0.00    -0.200 F 
ATOM     86  C   UNL     1      -5.629   5.934  -2.046  1.00  0.00     0.200 A 
ATOM     87  F   UNL     1      -5.617   3.871  -3.195  1.00  0.00    -0.200 F 
ATOM     88  F   UNL     1      -4.868   6.487  -3.001  1.00  0.00    -0.200 F 
ENDBRANCH  54  78
BRANCH  66  89
ATOM     89  C   UNL     1     -13.782   5.785   2.141  1.00  0.00     0.064 A 
ATOM     90  C   UNL     1     -14.426   5.697   0.898  1.00  0.00     0.173 A 
ATOM     91  C   UNL     1     -14.203   6.792   3.025  1.00  0.00     0.173 A 
ATOM     92  F   UNL     1     -14.054   4.762   0.010  1.00  0.00    -0.203 F 
ATOM     93  C   UNL     1     -15.429   6.596   0.545  1.00  0.00     0.198 A 
ATOM     94  C   UNL     1     -15.232   7.665   2.683  1.00  0.00     0.198 A 
ATOM     95  F   UNL     1     -13.629   6.917   4.231  1.00  0.00    -0.203 F 
ATOM     96  F   UNL     1     -15.992   6.525  -0.669  1.00  0.00    -0.200 F 
ATOM     97  C   UNL     1     -15.837   7.573   1.440  1.00  0.00     0.200 A 
ATOM     98  F   UNL     1     -15.637   8.596   3.558  1.00  0.00    -0.200 F 
ATOM     99  F   UNL     1     -16.810   8.431   1.102  1.00  0.00    -0.200 F 
ENDBRANCH  66  89
ENDBRANCH  40  41
ENDBRANCH  33  35
ENDBRANCH  32  33
ENDBRANCH  31  32
ENDBRANCH  30  31
ENDBRANCH  29  30
ENDBRANCH  28  29
ENDBRANCH  27  28
ENDBRANCH   1  27
TORSDOF 22
