REMARK SMILES O=C(OCCOCCOCCOCCOC(=O)c1nn(Cc2ccc(F)cc2)c2c1CN(C(=O)[C@H]1CC1(F)F)CC2)c1ccc(-c2c3nc(c(-c4c(F)c(F)c(F)c(F)c4F)c4ccc([nH]4)c(-c4c(F)c(F)c(F)c(F)c4F)c4nc(c(-c5c(F)c(F)c(F)c(F)c5F)c5ccc2[nH]5)C=C4)C=C3)cc1
REMARK SMILES IDX 9 1 8 2 7 3 6 4 5 5 4 6 3 7 2 8 1 9 42 10 43 11 104 12 44 13
REMARK SMILES IDX 103 14 45 15 46 16 47 17 97 18 48 19 102 20 96 21 98 22
REMARK SMILES IDX 49 23 101 24 95 25 94 26 50 28 82 29 62 30 81 31 63 32 66 33
REMARK SMILES IDX 80 34 99 35 64 36 65 37 79 39 100 40 67 41 51 42 52 43 60 44
REMARK SMILES IDX 53 45 54 46 58 47 61 48 55 49 56 50 59 51 57 52 83 53 84 54
REMARK SMILES IDX 92 55 85 56 86 57 90 58 93 59 87 60 88 61 91 62 89 63 68 64
REMARK SMILES IDX 69 65 77 66 70 67 71 68 75 69 78 70 72 71 73 72 76 73 74 74
REMARK SMILES IDX 10 75 11 76 12 77 13 78 14 79 15 80 16 81 17 82 18 83 19 84
REMARK SMILES IDX 30 85 20 86 29 87 31 88 41 89 32 90 40 91 21 92 22 93 23 94
REMARK SMILES IDX 28 95 24 96 27 97 25 98 26 99 33 100 34 101 35 102 36 103
REMARK SMILES IDX 37 104 38 105 39 106
REMARK H PARENT 98 27 66 38
REMARK Flexibility Score: inf
ROOT
ATOM      1  O   UNL     1      12.246   4.608  -0.655  1.00  0.00    -0.377 OA
ENDROOT
BRANCH   1   2
ATOM      2  C   UNL     1      11.051   5.263  -0.277  1.00  0.00     0.188 C 
BRANCH   2   3
ATOM      3  C   UNL     1      10.318   4.684   0.945  1.00  0.00     0.188 C 
BRANCH   3   4
ATOM      4  O   UNL     1       9.215   3.776   0.892  1.00  0.00    -0.376 OA
BRANCH   4   5
ATOM      5  C   UNL     1       8.986   2.751  -0.050  1.00  0.00     0.202 C 
BRANCH   5   6
ATOM      6  C   UNL     1       8.203   3.133  -1.306  1.00  0.00     0.261 C 
BRANCH   6   7
ATOM      7  O   UNL     1       8.498   4.419  -1.851  1.00  0.00    -0.460 OA
BRANCH   7   8
ATOM      8  C   UNL     1       8.108   5.634  -1.411  1.00  0.00     0.338 C 
ATOM      9  O   UNL     1       8.433   6.625  -2.066  1.00  0.00    -0.246 OA
BRANCH   8  10
ATOM     10  C   UNL     1       7.376   5.878  -0.142  1.00  0.00     0.060 A 
ATOM     11  C   UNL     1       6.521   4.969   0.482  1.00  0.00     0.016 A 
ATOM     12  C   UNL     1       7.485   7.185   0.374  1.00  0.00     0.016 A 
ATOM     13  C   UNL     1       5.655   5.399   1.461  1.00  0.00     0.010 A 
ATOM     14  C   UNL     1       6.624   7.623   1.361  1.00  0.00     0.010 A 
ATOM     15  C   UNL     1       5.649   6.745   1.810  1.00  0.00    -0.014 A 
BRANCH  15  16
ATOM     16  C   UNL     1       4.519   7.192   2.593  1.00  0.00     0.031 A 
ATOM     17  C   UNL     1       4.463   6.651   3.969  1.00  0.00     0.074 A 
ATOM     18  C   UNL     1       3.600   8.007   2.043  1.00  0.00     0.049 A 
ATOM     19  N   UNL     1       3.556   5.892   4.491  1.00  0.00    -0.248 NA
ATOM     20  C   UNL     1       5.634   6.874   4.829  1.00  0.00     0.031 C 
ATOM     21  C   UNL     1       3.687   8.746   0.779  1.00  0.00     0.029 A 
ATOM     22  N   UNL     1       2.415   8.424   2.557  1.00  0.00    -0.354 N 
ATOM     23  C   UNL     1       3.950   5.689   5.810  1.00  0.00     0.074 A 
ATOM     24  C   UNL     1       5.297   6.184   5.918  1.00  0.00     0.031 C 
ATOM     25  C   UNL     1       2.728   9.697   0.755  1.00  0.00     0.029 A 
ATOM     26  C   UNL     1       1.890   9.542   1.929  1.00  0.00     0.049 A 
ATOM     27  H   UNL     1       1.969   7.972   3.309  1.00  0.00     0.167 HD
ATOM     28  C   UNL     1       3.041   5.357   6.766  1.00  0.00     0.037 A 
ATOM     29  C   UNL     1       0.904  10.332   2.418  1.00  0.00     0.037 A 
ATOM     30  C   UNL     1       1.875   4.743   6.187  1.00  0.00     0.049 A 
ATOM     31  C   UNL     1       0.169   9.537   3.436  1.00  0.00     0.074 A 
ATOM     32  C   UNL     1       1.649   3.598   5.448  1.00  0.00     0.029 A 
ATOM     33  N   UNL     1       0.740   5.503   6.046  1.00  0.00    -0.354 N 
ATOM     34  N   UNL     1      -0.568   8.496   3.155  1.00  0.00    -0.248 NA
ATOM     35  C   UNL     1       0.616   9.628   4.819  1.00  0.00     0.031 C 
ATOM     36  C   UNL     1       0.613   3.943   4.532  1.00  0.00     0.029 A 
ATOM     37  C   UNL     1       0.235   5.259   4.796  1.00  0.00     0.049 A 
ATOM     38  H   UNL     1       0.359   6.112   6.720  1.00  0.00     0.167 HD
ATOM     39  C   UNL     1      -0.330   7.604   4.191  1.00  0.00     0.074 A 
ATOM     40  C   UNL     1       0.335   8.389   5.228  1.00  0.00     0.031 C 
ATOM     41  C   UNL     1      -0.433   6.257   3.996  1.00  0.00     0.037 A 
BRANCH  28  42
ATOM     42  C   UNL     1       3.037   5.962   8.152  1.00  0.00     0.064 A 
ATOM     43  C   UNL     1       3.716   7.152   8.497  1.00  0.00     0.173 A 
ATOM     44  C   UNL     1       2.064   5.532   9.078  1.00  0.00     0.173 A 
ATOM     45  F   UNL     1       4.622   7.723   7.696  1.00  0.00    -0.203 F 
ATOM     46  C   UNL     1       3.409   7.882   9.643  1.00  0.00     0.198 A 
ATOM     47  C   UNL     1       1.723   6.295  10.198  1.00  0.00     0.198 A 
ATOM     48  F   UNL     1       1.352   4.418   8.854  1.00  0.00    -0.203 F 
ATOM     49  F   UNL     1       4.056   9.032   9.882  1.00  0.00    -0.200 F 
ATOM     50  C   UNL     1       2.387   7.476  10.472  1.00  0.00     0.200 A 
ATOM     51  F   UNL     1       0.693   5.920  10.967  1.00  0.00    -0.200 F 
ATOM     52  F   UNL     1       2.013   8.246  11.501  1.00  0.00    -0.200 F 
ENDBRANCH  28  42
BRANCH  29  53
ATOM     53  C   UNL     1       0.836  11.814   2.355  1.00  0.00     0.064 A 
ATOM     54  C   UNL     1       1.992  12.608   2.212  1.00  0.00     0.173 A 
ATOM     55  C   UNL     1      -0.340  12.489   2.718  1.00  0.00     0.173 A 
ATOM     56  F   UNL     1       3.185  12.058   1.945  1.00  0.00    -0.203 F 
ATOM     57  C   UNL     1       1.977  13.985   2.438  1.00  0.00     0.198 A 
ATOM     58  C   UNL     1      -0.351  13.868   2.957  1.00  0.00     0.198 A 
ATOM     59  F   UNL     1      -1.476  11.804   2.917  1.00  0.00    -0.203 F 
ATOM     60  F   UNL     1       3.116  14.686   2.341  1.00  0.00    -0.200 F 
ATOM     61  C   UNL     1       0.810  14.612   2.827  1.00  0.00     0.200 A 
ATOM     62  F   UNL     1      -1.477  14.464   3.372  1.00  0.00    -0.200 F 
ATOM     63  F   UNL     1       0.815  15.920   3.119  1.00  0.00    -0.200 F 
ENDBRANCH  29  53
BRANCH  41  64
ATOM     64  C   UNL     1      -1.067   5.777   2.723  1.00  0.00     0.064 A 
ATOM     65  C   UNL     1      -2.181   4.932   2.816  1.00  0.00     0.173 A 
ATOM     66  C   UNL     1      -0.509   5.979   1.449  1.00  0.00     0.173 A 
ATOM     67  F   UNL     1      -2.717   4.658   4.015  1.00  0.00    -0.203 F 
ATOM     68  C   UNL     1      -2.711   4.312   1.689  1.00  0.00     0.198 A 
ATOM     69  C   UNL     1      -1.065   5.386   0.317  1.00  0.00     0.198 A 
ATOM     70  F   UNL     1       0.614   6.691   1.293  1.00  0.00    -0.203 F 
ATOM     71  F   UNL     1      -3.736   3.458   1.819  1.00  0.00    -0.200 F 
ATOM     72  C   UNL     1      -2.159   4.545   0.440  1.00  0.00     0.200 A 
ATOM     73  F   UNL     1      -0.515   5.591  -0.889  1.00  0.00    -0.200 F 
ATOM     74  F   UNL     1      -2.660   3.931  -0.641  1.00  0.00    -0.200 F 
ENDBRANCH  41  64
ENDBRANCH  15  16
ENDBRANCH   8  10
ENDBRANCH   7   8
ENDBRANCH   6   7
ENDBRANCH   5   6
ENDBRANCH   4   5
ENDBRANCH   3   4
ENDBRANCH   2   3
ENDBRANCH   1   2
BRANCH   1  75
ATOM     75  C   UNL     1      12.095   3.259  -1.020  1.00  0.00     0.188 C 
BRANCH  75  76
ATOM     76  C   UNL     1      12.422   2.268   0.123  1.00  0.00     0.188 C 
BRANCH  76  77
ATOM     77  O   UNL     1      13.187   2.659   1.251  1.00  0.00    -0.376 OA
BRANCH  77  78
ATOM     78  C   UNL     1      14.131   3.705   1.146  1.00  0.00     0.202 C 
BRANCH  78  79
ATOM     79  C   UNL     1      15.296   3.549   0.159  1.00  0.00     0.261 C 
BRANCH  79  80
ATOM     80  O   UNL     1      14.978   3.066  -1.156  1.00  0.00    -0.458 OA
BRANCH  80  81
ATOM     81  C   UNL     1      15.079   1.717  -1.382  1.00  0.00     0.359 C 
ATOM     82  O   UNL     1      15.375   0.888  -0.530  1.00  0.00    -0.244 OA
BRANCH  81  83
ATOM     83  C   UNL     1      14.687   1.359  -2.758  1.00  0.00     0.175 A 
ATOM     84  N   UNL     1      15.451   1.763  -3.793  1.00  0.00    -0.165 NA
ATOM     85  C   UNL     1      13.551   0.618  -3.233  1.00  0.00     0.028 A 
ATOM     86  N   UNL     1      14.831   1.299  -4.896  1.00  0.00    -0.264 N 
ATOM     87  C   UNL     1      13.670   0.652  -4.609  1.00  0.00     0.046 A 
ATOM     88  C   UNL     1      12.392  -0.033  -2.540  1.00  0.00     0.159 C 
ATOM     89  C   UNL     1      12.706   0.050  -5.566  1.00  0.00     0.078 C 
ATOM     90  N   UNL     1      11.543  -0.755  -3.516  1.00  0.00    -0.337 N 
ATOM     91  C   UNL     1      11.361  -0.126  -4.840  1.00  0.00     0.126 C 
BRANCH  86  92
ATOM     92  C   UNL     1      15.496   1.406  -6.188  1.00  0.00     0.180 C 
BRANCH  92  93
ATOM     93  C   UNL     1      15.418   2.796  -6.769  1.00  0.00    -0.026 A 
ATOM     94  C   UNL     1      16.159   3.845  -6.196  1.00  0.00     0.008 A 
ATOM     95  C   UNL     1      14.642   3.054  -7.910  1.00  0.00     0.008 A 
ATOM     96  C   UNL     1      16.137   5.120  -6.760  1.00  0.00     0.039 A 
ATOM     97  C   UNL     1      14.626   4.331  -8.475  1.00  0.00     0.039 A 
ATOM     98  C   UNL     1      15.377   5.349  -7.898  1.00  0.00     0.123 A 
ATOM     99  F   UNL     1      15.370   6.568  -8.452  1.00  0.00    -0.207 F 
ENDBRANCH  92  93
ENDBRANCH  86  92
BRANCH  90 100
ATOM    100  C   UNL     1      10.840  -1.870  -3.082  1.00  0.00     0.232 C 
ATOM    101  O   UNL     1      10.843  -2.250  -1.913  1.00  0.00    -0.274 OA
BRANCH 100 102
ATOM    102  C   UNL     1      10.000  -2.579  -4.070  1.00  0.00     0.154 C 
ATOM    103  C   UNL     1      10.635  -3.362  -5.210  1.00  0.00     0.097 C 
ATOM    104  C   UNL     1       9.959  -4.061  -4.093  1.00  0.00     0.260 C 
ATOM    105  F   UNL     1      10.708  -4.855  -3.260  1.00  0.00    -0.206 F 
ATOM    106  F   UNL     1       8.781  -4.729  -4.349  1.00  0.00    -0.206 F 
ENDBRANCH 100 102
ENDBRANCH  90 100
ENDBRANCH  81  83
ENDBRANCH  80  81
ENDBRANCH  79  80
ENDBRANCH  78  79
ENDBRANCH  77  78
ENDBRANCH  76  77
ENDBRANCH  75  76
ENDBRANCH   1  75
TORSDOF 24
