REMARK SMILES C/C(=C/C[NH+]1C[C@@H](C)[C@H](C)C1)C(=O)OCCOCCOCCOCCOC(=O)c1ccc(-c2c3nc(c(-c4c(F)c(F)c(F)c(F)c4F)c4ccc([nH]4)c(-c4c(F)c(F)c(F)c(F)c4F)c4nc(c(-c5c(F)c(F)c(F)c(F)c5F)c5ccc2[nH]5)C=C4)C=C3)cc1
REMARK SMILES IDX 20 1 19 2 18 3 17 4 16 5 15 6 14 7 12 8 13 9 2 10 1 11 3 12
REMARK SMILES IDX 4 13 5 14 6 15 11 16 7 18 9 19 8 20 10 21 21 22 22 23 23 24
REMARK SMILES IDX 24 25 25 26 26 27 27 28 28 29 29 30 30 31 91 32 31 33 90 34
REMARK SMILES IDX 32 35 33 36 34 37 84 38 35 39 89 40 83 41 85 42 36 43 88 44
REMARK SMILES IDX 82 45 81 46 37 48 69 49 49 50 68 51 50 52 53 53 67 54 86 55
REMARK SMILES IDX 51 56 52 57 66 59 87 60 54 61 38 62 39 63 47 64 40 65 41 66
REMARK SMILES IDX 45 67 48 68 42 69 43 70 46 71 44 72 70 73 71 74 79 75 72 76
REMARK SMILES IDX 73 77 77 78 80 79 74 80 75 81 78 82 76 83 55 84 56 85 64 86
REMARK SMILES IDX 57 87 58 88 62 89 65 90 59 91 60 92 63 93 61 94
REMARK H PARENT 5 17 85 47 53 58
REMARK Flexibility Score: inf
ROOT
ATOM      1  O   UNL     1      -1.482   3.674  -0.362  1.00  0.00    -0.377 OA
ENDROOT
BRANCH   1   2
ATOM      2  C   UNL     1      -0.710   2.924   0.565  1.00  0.00     0.188 C 
BRANCH   2   3
ATOM      3  C   UNL     1       0.697   3.435   0.947  1.00  0.00     0.188 C 
BRANCH   3   4
ATOM      4  O   UNL     1       0.937   4.777   0.547  1.00  0.00    -0.376 OA
BRANCH   4   5
ATOM      5  C   UNL     1       1.949   5.029  -0.411  1.00  0.00     0.202 C 
BRANCH   5   6
ATOM      6  C   UNL     1       1.770   4.447  -1.819  1.00  0.00     0.261 C 
BRANCH   6   7
ATOM      7  O   UNL     1       1.140   3.166  -1.857  1.00  0.00    -0.460 OA
BRANCH   7   8
ATOM      8  C   UNL     1       1.914   2.073  -1.701  1.00  0.00     0.333 C 
ATOM      9  O   UNL     1       3.125   2.071  -1.551  1.00  0.00    -0.247 OA
BRANCH   8  10
ATOM     10  C   UNL     1       1.047   0.867  -1.549  1.00  0.00     0.036 C 
ATOM     11  C   UNL     1       1.511  -0.107  -0.504  1.00  0.00     0.052 C 
ATOM     12  C   UNL     1      -0.077   0.640  -2.261  1.00  0.00     0.044 C 
BRANCH  12  13
ATOM     13  C   UNL     1      -0.711   1.463  -3.354  1.00  0.00     0.291 C 
BRANCH  13  14
ATOM     14  N   UNL     1      -0.205   1.179  -4.693  1.00  0.00    -0.331 N 
ATOM     15  C   UNL     1       1.143   1.674  -4.945  1.00  0.00     0.266 C 
ATOM     16  C   UNL     1      -0.285  -0.222  -5.109  1.00  0.00     0.266 C 
ATOM     17  H   UNL     1      -0.861   1.708  -5.268  1.00  0.00     0.348 HD
ATOM     18  C   UNL     1       1.587   0.891  -6.169  1.00  0.00     0.049 C 
ATOM     19  C   UNL     1       0.998  -0.498  -5.902  1.00  0.00     0.049 C 
ATOM     20  C   UNL     1       3.105   0.885  -6.304  1.00  0.00     0.014 C 
ATOM     21  C   UNL     1       0.766  -1.322  -7.163  1.00  0.00     0.014 C 
ENDBRANCH  13  14
ENDBRANCH  12  13
ENDBRANCH   8  10
ENDBRANCH   7   8
ENDBRANCH   6   7
ENDBRANCH   5   6
ENDBRANCH   4   5
ENDBRANCH   3   4
ENDBRANCH   2   3
ENDBRANCH   1   2
BRANCH   1  22
ATOM     22  C   UNL     1      -1.658   5.072  -0.149  1.00  0.00     0.188 C 
BRANCH  22  23
ATOM     23  C   UNL     1      -1.554   5.693   1.267  1.00  0.00     0.188 C 
BRANCH  23  24
ATOM     24  O   UNL     1      -1.504   4.760   2.334  1.00  0.00    -0.376 OA
BRANCH  24  25
ATOM     25  C   UNL     1      -2.670   4.622   3.131  1.00  0.00     0.202 C 
BRANCH  25  26
ATOM     26  C   UNL     1      -3.907   4.054   2.424  1.00  0.00     0.261 C 
BRANCH  26  27
ATOM     27  O   UNL     1      -4.377   4.806   1.294  1.00  0.00    -0.460 OA
BRANCH  27  28
ATOM     28  C   UNL     1      -4.793   6.072   1.509  1.00  0.00     0.338 C 
ATOM     29  O   UNL     1      -4.842   6.672   2.568  1.00  0.00    -0.246 OA
BRANCH  28  30
ATOM     30  C   UNL     1      -5.013   6.679   0.183  1.00  0.00     0.060 A 
ATOM     31  C   UNL     1      -4.213   7.754  -0.229  1.00  0.00     0.016 A 
ATOM     32  C   UNL     1      -5.981   6.145  -0.668  1.00  0.00     0.016 A 
ATOM     33  C   UNL     1      -4.378   8.296  -1.505  1.00  0.00     0.010 A 
ATOM     34  C   UNL     1      -6.164   6.705  -1.932  1.00  0.00     0.010 A 
ATOM     35  C   UNL     1      -5.374   7.790  -2.351  1.00  0.00    -0.014 A 
BRANCH  35  36
ATOM     36  C   UNL     1      -5.713   8.478  -3.617  1.00  0.00     0.031 A 
ATOM     37  C   UNL     1      -6.861   9.444  -3.617  1.00  0.00     0.074 A 
ATOM     38  C   UNL     1      -5.041   8.220  -4.752  1.00  0.00     0.049 A 
ATOM     39  N   UNL     1      -7.434  10.058  -4.620  1.00  0.00    -0.248 NA
ATOM     40  C   UNL     1      -7.447   9.752  -2.303  1.00  0.00     0.031 C 
ATOM     41  C   UNL     1      -3.879   7.343  -4.866  1.00  0.00     0.029 A 
ATOM     42  N   UNL     1      -5.261   8.661  -6.033  1.00  0.00    -0.354 N 
ATOM     43  C   UNL     1      -8.450  10.820  -4.060  1.00  0.00     0.074 A 
ATOM     44  C   UNL     1      -8.435  10.569  -2.635  1.00  0.00     0.031 C 
ATOM     45  C   UNL     1      -3.498   7.294  -6.154  1.00  0.00     0.029 A 
ATOM     46  C   UNL     1      -4.418   8.098  -6.958  1.00  0.00     0.049 A 
ATOM     47  H   UNL     1      -5.957   9.318  -6.266  1.00  0.00     0.167 HD
ATOM     48  C   UNL     1      -9.316  11.655  -4.681  1.00  0.00     0.037 A 
ATOM     49  C   UNL     1      -4.418   8.194  -8.303  1.00  0.00     0.037 A 
ATOM     50  C   UNL     1      -9.338  11.883  -6.101  1.00  0.00     0.049 A 
ATOM     51  C   UNL     1      -5.468   9.037  -8.983  1.00  0.00     0.074 A 
ATOM     52  C   UNL     1     -10.167  12.718  -6.828  1.00  0.00     0.029 A 
ATOM     53  N   UNL     1      -8.499  11.258  -7.012  1.00  0.00    -0.354 N 
ATOM     54  N   UNL     1      -6.414   9.773  -8.453  1.00  0.00    -0.248 NA
ATOM     55  C   UNL     1      -5.455   9.052 -10.454  1.00  0.00     0.031 C 
ATOM     56  C   UNL     1      -9.871  12.552  -8.185  1.00  0.00     0.029 A 
ATOM     57  C   UNL     1      -8.816  11.660  -8.300  1.00  0.00     0.049 A 
ATOM     58  H   UNL     1      -7.784  10.623  -6.779  1.00  0.00     0.167 HD
ATOM     59  C   UNL     1      -7.089  10.358  -9.517  1.00  0.00     0.074 A 
ATOM     60  C   UNL     1      -6.437   9.901 -10.726  1.00  0.00     0.031 C 
ATOM     61  C   UNL     1      -8.153  11.199  -9.495  1.00  0.00     0.037 A 
BRANCH  48  62
ATOM     62  C   UNL     1     -10.334  12.350  -3.825  1.00  0.00     0.064 A 
ATOM     63  C   UNL     1      -9.973  13.355  -2.914  1.00  0.00     0.173 A 
ATOM     64  C   UNL     1     -11.693  12.014  -3.925  1.00  0.00     0.173 A 
ATOM     65  F   UNL     1      -8.685  13.703  -2.769  1.00  0.00    -0.203 F 
ATOM     66  C   UNL     1     -10.928  13.972  -2.111  1.00  0.00     0.198 A 
ATOM     67  C   UNL     1     -12.650  12.656  -3.144  1.00  0.00     0.198 A 
ATOM     68  F   UNL     1     -12.094  11.062  -4.781  1.00  0.00    -0.203 F 
ATOM     69  F   UNL     1     -10.552  14.887  -1.208  1.00  0.00    -0.200 F 
ATOM     70  C   UNL     1     -12.266  13.627  -2.231  1.00  0.00     0.200 A 
ATOM     71  F   UNL     1     -13.944  12.330  -3.270  1.00  0.00    -0.200 F 
ATOM     72  F   UNL     1     -13.185  14.223  -1.459  1.00  0.00    -0.200 F 
ENDBRANCH  48  62
BRANCH  49  73
ATOM     73  C   UNL     1      -3.405   7.455  -9.102  1.00  0.00     0.064 A 
ATOM     74  C   UNL     1      -2.415   8.142  -9.819  1.00  0.00     0.173 A 
ATOM     75  C   UNL     1      -3.413   6.054  -9.180  1.00  0.00     0.173 A 
ATOM     76  F   UNL     1      -2.385   9.482  -9.802  1.00  0.00    -0.203 F 
ATOM     77  C   UNL     1      -1.481   7.457 -10.594  1.00  0.00     0.198 A 
ATOM     78  C   UNL     1      -2.460   5.369  -9.931  1.00  0.00     0.198 A 
ATOM     79  F   UNL     1      -4.345   5.350  -8.521  1.00  0.00    -0.203 F 
ATOM     80  F   UNL     1      -0.575   8.140 -11.306  1.00  0.00    -0.200 F 
ATOM     81  C   UNL     1      -1.499   6.071 -10.643  1.00  0.00     0.200 A 
ATOM     82  F   UNL     1      -2.478   4.030  -9.972  1.00  0.00    -0.200 F 
ATOM     83  F   UNL     1      -0.598   5.413 -11.385  1.00  0.00    -0.200 F 
ENDBRANCH  49  73
BRANCH  61  84
ATOM     84  C   UNL     1      -8.666  11.709 -10.812  1.00  0.00     0.064 A 
ATOM     85  C   UNL     1      -9.368  10.882 -11.699  1.00  0.00     0.173 A 
ATOM     86  C   UNL     1      -8.509  13.061 -11.159  1.00  0.00     0.173 A 
ATOM     87  F   UNL     1      -9.533   9.579 -11.422  1.00  0.00    -0.203 F 
ATOM     88  C   UNL     1      -9.881  11.384 -12.893  1.00  0.00     0.198 A 
ATOM     89  C   UNL     1      -9.050  13.566 -12.338  1.00  0.00     0.198 A 
ATOM     90  F   UNL     1      -7.852  13.897 -10.342  1.00  0.00    -0.203 F 
ATOM     91  F   UNL     1     -10.515  10.566 -13.745  1.00  0.00    -0.200 F 
ATOM     92  C   UNL     1      -9.731  12.727 -13.206  1.00  0.00     0.200 A 
ATOM     93  F   UNL     1      -8.918  14.868 -12.630  1.00  0.00    -0.200 F 
ATOM     94  F   UNL     1     -10.239  13.212 -14.347  1.00  0.00    -0.200 F 
ENDBRANCH  61  84
ENDBRANCH  35  36
ENDBRANCH  28  30
ENDBRANCH  27  28
ENDBRANCH  26  27
ENDBRANCH  25  26
ENDBRANCH  24  25
ENDBRANCH  23  24
ENDBRANCH  22  23
ENDBRANCH   1  22
TORSDOF 22
