REMARK SMILES O=C(OCCOCCOCCOCCOC(=O)[C@H]1CCCN(c2nc(-c3ccco3)cc(C(F)(F)F)n2)C1)c1ccc(-c2c3nc(c(-c4c(F)c(F)c(F)c(F)c4F)c4ccc([nH]4)c(-c4c(F)c(F)c(F)c(F)c4F)c4nc(c(-c5c(F)c(F)c(F)c(F)c5F)c5ccc2[nH]5)C=C4)C=C3)cc1
REMARK SMILES IDX 9 1 8 2 7 3 6 4 5 5 4 6 3 7 2 8 1 9 39 10 40 11 101 12 41 13
REMARK SMILES IDX 100 14 42 15 43 16 44 17 94 18 45 19 99 20 93 21 95 22 46 23
REMARK SMILES IDX 98 24 92 25 91 26 47 28 79 29 59 30 78 31 60 32 63 33 77 34
REMARK SMILES IDX 96 35 61 36 62 37 76 39 97 40 64 41 48 42 49 43 57 44 50 45
REMARK SMILES IDX 51 46 55 47 58 48 52 49 53 50 56 51 54 52 80 53 81 54 89 55
REMARK SMILES IDX 82 56 83 57 87 58 90 59 84 60 85 61 88 62 86 63 65 64 66 65
REMARK SMILES IDX 74 66 67 67 68 68 72 69 75 70 69 71 70 72 73 73 71 74 10 75
REMARK SMILES IDX 11 76 12 77 13 78 14 79 15 80 16 81 17 82 18 83 19 84 38 85
REMARK SMILES IDX 20 86 22 87 21 88 23 89 24 90 37 91 25 92 32 93 31 94 26 95
REMARK SMILES IDX 27 96 30 97 28 98 29 99 33 100 34 101 35 102 36 103
REMARK H PARENT 95 27 63 38
REMARK Flexibility Score: inf
ROOT
ATOM      1  O   UNL     1       4.721  -2.909  -0.131  1.00  0.00    -0.377 OA
ENDROOT
BRANCH   1   2
ATOM      2  C   UNL     1       5.002  -2.077   0.987  1.00  0.00     0.188 C 
BRANCH   2   3
ATOM      3  C   UNL     1       4.390  -2.488   2.333  1.00  0.00     0.188 C 
BRANCH   3   4
ATOM      4  O   UNL     1       4.850  -3.770   2.765  1.00  0.00    -0.376 OA
BRANCH   4   5
ATOM      5  C   UNL     1       3.936  -4.732   3.307  1.00  0.00     0.202 C 
BRANCH   5   6
ATOM      6  C   UNL     1       2.997  -4.274   4.406  1.00  0.00     0.261 C 
BRANCH   6   7
ATOM      7  O   UNL     1       3.100  -2.912   4.850  1.00  0.00    -0.460 OA
BRANCH   7   8
ATOM      8  C   UNL     1       4.094  -2.165   5.362  1.00  0.00     0.338 C 
ATOM      9  O   UNL     1       3.901  -0.951   5.475  1.00  0.00    -0.246 OA
BRANCH   8  10
ATOM     10  C   UNL     1       5.408  -2.682   5.824  1.00  0.00     0.060 A 
ATOM     11  C   UNL     1       6.100  -3.757   5.279  1.00  0.00     0.016 A 
ATOM     12  C   UNL     1       6.048  -1.949   6.833  1.00  0.00     0.016 A 
ATOM     13  C   UNL     1       7.334  -4.158   5.721  1.00  0.00     0.010 A 
ATOM     14  C   UNL     1       7.303  -2.334   7.303  1.00  0.00     0.010 A 
ATOM     15  C   UNL     1       7.920  -3.464   6.757  1.00  0.00    -0.014 A 
BRANCH  15  16
ATOM     16  C   UNL     1       9.018  -4.152   7.419  1.00  0.00     0.031 A 
ATOM     17  C   UNL     1       8.672  -4.866   8.678  1.00  0.00     0.074 A 
ATOM     18  C   UNL     1      10.195  -4.291   6.793  1.00  0.00     0.049 A 
ATOM     19  N   UNL     1       9.452  -5.360   9.591  1.00  0.00    -0.248 NA
ATOM     20  C   UNL     1       7.231  -5.046   8.948  1.00  0.00     0.031 C 
ATOM     21  C   UNL     1      10.490  -3.842   5.429  1.00  0.00     0.029 A 
ATOM     22  N   UNL     1      11.354  -4.865   7.219  1.00  0.00    -0.354 N 
ATOM     23  C   UNL     1       8.602  -5.824  10.583  1.00  0.00     0.074 A 
ATOM     24  C   UNL     1       7.246  -5.593  10.151  1.00  0.00     0.031 C 
ATOM     25  C   UNL     1      11.768  -4.132   5.143  1.00  0.00     0.029 A 
ATOM     26  C   UNL     1      12.390  -4.678   6.341  1.00  0.00     0.049 A 
ATOM     27  H   UNL     1      11.439  -5.361   8.066  1.00  0.00     0.167 HD
ATOM     28  C   UNL     1       8.965  -6.355  11.770  1.00  0.00     0.037 A 
ATOM     29  C   UNL     1      13.706  -4.845   6.552  1.00  0.00     0.037 A 
ATOM     30  C   UNL     1      10.346  -6.547  12.109  1.00  0.00     0.049 A 
ATOM     31  C   UNL     1      14.112  -5.321   7.920  1.00  0.00     0.074 A 
ATOM     32  C   UNL     1      10.906  -6.985  13.289  1.00  0.00     0.029 A 
ATOM     33  N   UNL     1      11.396  -6.296  11.225  1.00  0.00    -0.354 N 
ATOM     34  N   UNL     1      13.346  -5.627   8.945  1.00  0.00    -0.248 NA
ATOM     35  C   UNL     1      15.546  -5.455   8.178  1.00  0.00     0.031 C 
ATOM     36  C   UNL     1      12.297  -6.944  13.137  1.00  0.00     0.029 A 
ATOM     37  C   UNL     1      12.605  -6.552  11.838  1.00  0.00     0.049 A 
ATOM     38  H   UNL     1      11.290  -5.982  10.299  1.00  0.00     0.167 HD
ATOM     39  C   UNL     1      14.198  -6.018   9.963  1.00  0.00     0.074 A 
ATOM     40  C   UNL     1      15.544  -5.905   9.427  1.00  0.00     0.031 C 
ATOM     41  C   UNL     1      13.908  -6.437  11.222  1.00  0.00     0.037 A 
BRANCH  28  42
ATOM     42  C   UNL     1       7.870  -6.590  12.767  1.00  0.00     0.064 A 
ATOM     43  C   UNL     1       6.866  -7.553  12.577  1.00  0.00     0.173 A 
ATOM     44  C   UNL     1       7.757  -5.743  13.882  1.00  0.00     0.173 A 
ATOM     45  F   UNL     1       6.897  -8.359  11.505  1.00  0.00    -0.203 F 
ATOM     46  C   UNL     1       5.767  -7.622  13.433  1.00  0.00     0.198 A 
ATOM     47  C   UNL     1       6.676  -5.840  14.755  1.00  0.00     0.198 A 
ATOM     48  F   UNL     1       8.675  -4.791  14.103  1.00  0.00    -0.203 F 
ATOM     49  F   UNL     1       4.772  -8.483  13.174  1.00  0.00    -0.200 F 
ATOM     50  C   UNL     1       5.674  -6.767  14.520  1.00  0.00     0.200 A 
ATOM     51  F   UNL     1       6.589  -5.010  15.803  1.00  0.00    -0.200 F 
ATOM     52  F   UNL     1       4.605  -6.819  15.327  1.00  0.00    -0.200 F 
ENDBRANCH  28  42
BRANCH  29  53
ATOM     53  C   UNL     1      14.677  -4.468   5.494  1.00  0.00     0.064 A 
ATOM     54  C   UNL     1      15.458  -5.433   4.848  1.00  0.00     0.173 A 
ATOM     55  C   UNL     1      14.802  -3.136   5.061  1.00  0.00     0.173 A 
ATOM     56  F   UNL     1      15.385  -6.716   5.228  1.00  0.00    -0.203 F 
ATOM     57  C   UNL     1      16.328  -5.082   3.815  1.00  0.00     0.198 A 
ATOM     58  C   UNL     1      15.649  -2.791   4.010  1.00  0.00     0.198 A 
ATOM     59  F   UNL     1      14.073  -2.169   5.639  1.00  0.00    -0.203 F 
ATOM     60  F   UNL     1      17.081  -6.023   3.229  1.00  0.00    -0.200 F 
ATOM     61  C   UNL     1      16.415  -3.764   3.390  1.00  0.00     0.200 A 
ATOM     62  F   UNL     1      15.712  -1.519   3.591  1.00  0.00    -0.200 F 
ATOM     63  F   UNL     1      17.238  -3.433   2.386  1.00  0.00    -0.200 F 
ENDBRANCH  29  53
BRANCH  41  64
ATOM     64  C   UNL     1      15.062  -6.872  12.066  1.00  0.00     0.064 A 
ATOM     65  C   UNL     1      15.931  -5.948  12.658  1.00  0.00     0.173 A 
ATOM     66  C   UNL     1      15.218  -8.232  12.373  1.00  0.00     0.173 A 
ATOM     67  F   UNL     1      15.822  -4.640  12.379  1.00  0.00    -0.203 F 
ATOM     68  C   UNL     1      16.925  -6.374  13.531  1.00  0.00     0.198 A 
ATOM     69  C   UNL     1      16.190  -8.649  13.271  1.00  0.00     0.198 A 
ATOM     70  F   UNL     1      14.397  -9.145  11.832  1.00  0.00    -0.203 F 
ATOM     71  F   UNL     1      17.767  -5.482  14.071  1.00  0.00    -0.200 F 
ATOM     72  C   UNL     1      17.044  -7.721  13.848  1.00  0.00     0.200 A 
ATOM     73  F   UNL     1      16.288  -9.946  13.592  1.00  0.00    -0.200 F 
ATOM     74  F   UNL     1      17.982  -8.125  14.714  1.00  0.00    -0.200 F 
ENDBRANCH  41  64
ENDBRANCH  15  16
ENDBRANCH   8  10
ENDBRANCH   7   8
ENDBRANCH   6   7
ENDBRANCH   5   6
ENDBRANCH   4   5
ENDBRANCH   3   4
ENDBRANCH   2   3
ENDBRANCH   1   2
BRANCH   1  75
ATOM     75  C   UNL     1       4.480  -4.261   0.192  1.00  0.00     0.188 C 
BRANCH  75  76
ATOM     76  C   UNL     1       5.691  -5.202   0.406  1.00  0.00     0.188 C 
BRANCH  76  77
ATOM     77  O   UNL     1       6.882  -4.596   0.858  1.00  0.00    -0.376 OA
BRANCH  77  78
ATOM     78  C   UNL     1       7.706  -3.897  -0.064  1.00  0.00     0.202 C 
BRANCH  78  79
ATOM     79  C   UNL     1       7.402  -3.681  -1.570  1.00  0.00     0.261 C 
BRANCH  79  80
ATOM     80  O   UNL     1       6.213  -4.270  -2.138  1.00  0.00    -0.463 OA
BRANCH  80  81
ATOM     81  C   UNL     1       6.360  -5.349  -2.946  1.00  0.00     0.310 C 
ATOM     82  O   UNL     1       7.460  -5.845  -3.212  1.00  0.00    -0.252 OA
BRANCH  81  83
ATOM     83  C   UNL     1       5.032  -5.902  -3.504  1.00  0.00     0.119 C 
ATOM     84  C   UNL     1       5.229  -7.394  -3.808  1.00  0.00     0.019 C 
ATOM     85  C   UNL     1       3.869  -5.726  -2.533  1.00  0.00     0.135 C 
ATOM     86  C   UNL     1       3.917  -8.126  -4.079  1.00  0.00     0.022 C 
ATOM     87  N   UNL     1       2.680  -6.543  -2.772  1.00  0.00    -0.340 N 
ATOM     88  C   UNL     1       2.925  -7.963  -2.928  1.00  0.00     0.120 C 
BRANCH  87  89
ATOM     89  C   UNL     1       1.528  -6.149  -2.099  1.00  0.00     0.226 A 
ATOM     90  N   UNL     1       1.131  -4.880  -2.238  1.00  0.00    -0.210 NA
ATOM     91  N   UNL     1       0.820  -7.040  -1.378  1.00  0.00    -0.208 NA
ATOM     92  C   UNL     1      -0.050  -4.513  -1.700  1.00  0.00     0.112 A 
ATOM     93  C   UNL     1      -0.355  -6.641  -0.805  1.00  0.00     0.150 A 
ATOM     94  C   UNL     1      -0.829  -5.354  -0.947  1.00  0.00     0.066 A 
BRANCH  92  95
ATOM     95  C   UNL     1      -0.518  -3.181  -2.043  1.00  0.00     0.152 A 
ATOM     96  C   UNL     1      -1.091  -2.137  -1.344  1.00  0.00     0.052 A 
ATOM     97  O   UNL     1      -0.486  -2.876  -3.375  1.00  0.00    -0.463 OA
ATOM     98  C   UNL     1      -1.415  -1.141  -2.300  1.00  0.00     0.043 A 
ATOM     99  C   UNL     1      -1.032  -1.644  -3.521  1.00  0.00     0.196 A 
ENDBRANCH  92  95
BRANCH  93 100
ATOM    100  C   UNL     1      -1.177  -7.628   0.013  1.00  0.00     0.433 C 
ATOM    101  F   UNL     1      -1.280  -8.863  -0.551  1.00  0.00    -0.165 F 
ATOM    102  F   UNL     1      -0.672  -7.821   1.266  1.00  0.00    -0.165 F 
ATOM    103  F   UNL     1      -2.467  -7.213   0.211  1.00  0.00    -0.165 F 
ENDBRANCH  93 100
ENDBRANCH  87  89
ENDBRANCH  81  83
ENDBRANCH  80  81
ENDBRANCH  79  80
ENDBRANCH  78  79
ENDBRANCH  77  78
ENDBRANCH  76  77
ENDBRANCH  75  76
ENDBRANCH   1  75
TORSDOF 23
