REMARK SMILES COc1ccc(-c2cc(Cl)cc3c2O[C@@H](C(F)(F)F)C(C(=O)OCCOCCOCCOCCOC(=O)c2ccc(-c4c5nc(c(-c6c(F)c(F)c(F)c(F)c6F)c6ccc([nH]6)c(-c6c(F)c(F)c(F)c(F)c6F)c6nc(c(-c7c(F)c(F)c(F)c(F)c7F)c7ccc4[nH]7)C=C6)C=C5)cc2)=C3)cc1C
REMARK SMILES IDX 29 1 28 2 27 3 26 4 25 5 24 6 23 7 21 8 22 9 20 10 7 11 8 12
REMARK SMILES IDX 13 13 9 14 12 15 14 16 10 17 11 18 101 19 15 20 6 21 3 22
REMARK SMILES IDX 4 23 103 24 5 25 102 26 104 27 2 28 1 29 16 30 17 31 18 32
REMARK SMILES IDX 19 33 30 34 31 35 32 36 33 37 34 38 35 39 36 40 37 41 38 42
REMARK SMILES IDX 39 43 100 44 40 45 99 46 41 47 42 48 43 49 93 50 44 51 98 52
REMARK SMILES IDX 92 53 94 54 45 55 97 56 91 57 90 58 46 60 78 61 58 62 77 63
REMARK SMILES IDX 59 64 62 65 76 66 95 67 60 68 61 69 75 71 96 72 63 73 47 74
REMARK SMILES IDX 48 75 56 76 49 77 50 78 54 79 57 80 51 81 52 82 55 83 53 84
REMARK SMILES IDX 79 85 80 86 88 87 81 88 82 89 86 90 89 91 83 92 84 93 87 94
REMARK SMILES IDX 85 95 64 96 65 97 73 98 66 99 67 100 71 101 74 102 68 103
REMARK SMILES IDX 69 104 72 105 70 106
REMARK H PARENT 94 59 62 70
REMARK Flexibility Score: inf
ROOT
ATOM      1  O   UNL     1      -3.038  -8.058  -5.200  1.00  0.00    -0.377 OA
ENDROOT
BRANCH   1   2
ATOM      2  C   UNL     1      -2.163  -8.830  -4.388  1.00  0.00     0.188 C 
BRANCH   2   3
ATOM      3  C   UNL     1      -0.857  -8.152  -4.013  1.00  0.00     0.188 C 
BRANCH   3   4
ATOM      4  O   UNL     1      -0.697  -7.158  -2.999  1.00  0.00    -0.376 OA
BRANCH   4   5
ATOM      5  C   UNL     1      -0.176  -5.909  -3.507  1.00  0.00     0.202 C 
BRANCH   5   6
ATOM      6  C   UNL     1       1.310  -5.444  -3.829  1.00  0.00     0.261 C 
BRANCH   6   7
ATOM      7  O   UNL     1       2.044  -5.926  -4.959  1.00  0.00    -0.460 OA
BRANCH   7   8
ATOM      8  C   UNL     1       3.353  -6.314  -4.749  1.00  0.00     0.338 C 
ATOM      9  O   UNL     1       4.181  -5.769  -4.069  1.00  0.00    -0.246 OA
BRANCH   8  10
ATOM     10  C   UNL     1       3.439  -7.785  -5.172  1.00  0.00     0.087 C 
ATOM     11  C   UNL     1       2.301  -7.224  -1.317  1.00  0.00     0.026 A 
ATOM     12  C   UNL     1       3.294  -7.630  -0.391  1.00  0.00     0.033 A 
ATOM     13  C   UNL     1       2.470  -7.882  -2.646  1.00  0.00     0.135 A 
ATOM     14  C   UNL     1       4.363  -8.490  -0.712  1.00  0.00     0.042 A 
ATOM     15  C   UNL     1       3.703  -8.542  -2.981  1.00  0.00     0.019 A 
ATOM     16  O   UNL     1       1.568  -7.904  -3.750  1.00  0.00    -0.475 OA
ATOM     17  Cl  UNL     1       5.505  -8.916   0.500  1.00  0.00    -0.084 Cl
ATOM     18  C   UNL     1       4.595  -8.920  -2.006  1.00  0.00     0.032 A 
ATOM     19  C   UNL     1       4.155  -8.634  -4.407  1.00  0.00     0.027 C 
ATOM     20  C   UNL     1       2.039  -8.303  -5.174  1.00  0.00     0.316 C 
BRANCH  11  21
ATOM     21  C   UNL     1       1.490  -5.932  -0.714  1.00  0.00    -0.014 A 
ATOM     22  C   UNL     1       0.481  -3.505   0.812  1.00  0.00     0.121 A 
ATOM     23  C   UNL     1      -0.210  -4.733   0.668  1.00  0.00     0.047 A 
ATOM     24  C   UNL     1       1.751  -3.453   0.270  1.00  0.00    -0.008 A 
ATOM     25  C   UNL     1       0.267  -5.909  -0.055  1.00  0.00     0.013 A 
ATOM     26  C   UNL     1       2.166  -4.669  -0.513  1.00  0.00     0.016 A 
ATOM     27  C   UNL     1       2.598  -2.186   0.577  1.00  0.00     0.048 C 
BRANCH  22  28
ATOM     28  O   UNL     1      -0.179  -2.528   1.522  1.00  0.00    -0.496 OA
ATOM     29  C   UNL     1      -0.038  -1.125   1.246  1.00  0.00     0.278 C 
ENDBRANCH  22  28
ENDBRANCH  11  21
BRANCH  20  30
ATOM     30  C   UNL     1       1.364  -7.906  -6.584  1.00  0.00     0.430 C 
ATOM     31  F   UNL     1       2.016  -8.605  -7.567  1.00  0.00    -0.167 F 
ATOM     32  F   UNL     1       0.074  -8.288  -6.707  1.00  0.00    -0.167 F 
ATOM     33  F   UNL     1       1.439  -6.623  -6.986  1.00  0.00    -0.167 F 
ENDBRANCH  20  30
ENDBRANCH   8  10
ENDBRANCH   7   8
ENDBRANCH   6   7
ENDBRANCH   5   6
ENDBRANCH   4   5
ENDBRANCH   3   4
ENDBRANCH   2   3
ENDBRANCH   1   2
BRANCH   1  34
ATOM     34  C   UNL     1      -3.787  -7.085  -4.490  1.00  0.00     0.188 C 
BRANCH  34  35
ATOM     35  C   UNL     1      -4.479  -7.639  -3.264  1.00  0.00     0.188 C 
BRANCH  35  36
ATOM     36  O   UNL     1      -3.526  -7.533  -2.206  1.00  0.00    -0.376 OA
BRANCH  36  37
ATOM     37  C   UNL     1      -3.734  -8.385  -1.091  1.00  0.00     0.202 C 
BRANCH  37  38
ATOM     38  C   UNL     1      -5.076  -8.108  -0.419  1.00  0.00     0.261 C 
BRANCH  38  39
ATOM     39  O   UNL     1      -5.085  -6.720  -0.004  1.00  0.00    -0.460 OA
BRANCH  39  40
ATOM     40  C   UNL     1      -5.778  -5.866  -0.811  1.00  0.00     0.338 C 
ATOM     41  O   UNL     1      -6.917  -6.058  -1.208  1.00  0.00    -0.246 OA
BRANCH  40  42
ATOM     42  C   UNL     1      -4.871  -4.806  -1.378  1.00  0.00     0.060 A 
ATOM     43  C   UNL     1      -5.282  -3.982  -2.438  1.00  0.00     0.016 A 
ATOM     44  C   UNL     1      -3.526  -4.795  -1.050  1.00  0.00     0.016 A 
ATOM     45  C   UNL     1      -4.331  -3.305  -3.259  1.00  0.00     0.010 A 
ATOM     46  C   UNL     1      -2.610  -4.136  -1.877  1.00  0.00     0.010 A 
ATOM     47  C   UNL     1      -2.954  -3.448  -3.055  1.00  0.00    -0.014 A 
BRANCH  47  48
ATOM     48  C   UNL     1      -1.829  -3.121  -4.043  1.00  0.00     0.031 A 
ATOM     49  C   UNL     1      -0.477  -2.563  -3.561  1.00  0.00     0.074 A 
ATOM     50  C   UNL     1      -1.852  -3.721  -5.268  1.00  0.00     0.049 A 
ATOM     51  N   UNL     1       0.660  -2.458  -4.193  1.00  0.00    -0.248 NA
ATOM     52  C   UNL     1      -0.322  -2.064  -2.216  1.00  0.00     0.031 C 
ATOM     53  C   UNL     1      -0.687  -4.192  -6.041  1.00  0.00     0.029 A 
ATOM     54  N   UNL     1      -2.914  -4.205  -6.042  1.00  0.00    -0.354 N 
ATOM     55  C   UNL     1       1.756  -2.314  -3.277  1.00  0.00     0.074 A 
ATOM     56  C   UNL     1       1.011  -1.926  -2.127  1.00  0.00     0.031 C 
ATOM     57  C   UNL     1      -1.072  -4.863  -7.135  1.00  0.00     0.029 A 
ATOM     58  C   UNL     1      -2.420  -4.450  -7.353  1.00  0.00     0.049 A 
ATOM     59  H   UNL     1      -3.838  -4.349  -5.734  1.00  0.00     0.167 HD
ATOM     60  C   UNL     1       3.099  -2.620  -3.621  1.00  0.00     0.037 A 
ATOM     61  C   UNL     1      -2.727  -3.549  -8.340  1.00  0.00     0.037 A 
ATOM     62  C   UNL     1       3.150  -2.832  -5.113  1.00  0.00     0.049 A 
ATOM     63  C   UNL     1      -1.560  -2.575  -8.661  1.00  0.00     0.074 A 
ATOM     64  C   UNL     1       3.869  -3.564  -6.047  1.00  0.00     0.029 A 
ATOM     65  N   UNL     1       2.250  -2.133  -5.893  1.00  0.00    -0.354 N 
ATOM     66  N   UNL     1      -0.305  -2.732  -8.285  1.00  0.00    -0.248 NA
ATOM     67  C   UNL     1      -1.719  -1.323  -9.396  1.00  0.00     0.031 C 
ATOM     68  C   UNL     1       3.342  -3.308  -7.357  1.00  0.00     0.029 A 
ATOM     69  C   UNL     1       2.373  -2.337  -7.232  1.00  0.00     0.049 A 
ATOM     70  H   UNL     1       1.571  -1.532  -5.509  1.00  0.00     0.167 HD
ATOM     71  C   UNL     1       0.426  -1.597  -8.528  1.00  0.00     0.074 A 
ATOM     72  C   UNL     1      -0.497  -0.765  -9.278  1.00  0.00     0.031 C 
ATOM     73  C   UNL     1       1.697  -1.363  -8.061  1.00  0.00     0.037 A 
BRANCH  60  74
ATOM     74  C   UNL     1       4.593  -2.835  -2.827  1.00  0.00     0.064 A 
ATOM     75  C   UNL     1       5.772  -2.780  -3.618  1.00  0.00     0.173 A 
ATOM     76  C   UNL     1       5.010  -3.232  -1.514  1.00  0.00     0.173 A 
ATOM     77  F   UNL     1       5.741  -2.238  -4.841  1.00  0.00    -0.203 F 
ATOM     78  C   UNL     1       7.077  -3.207  -3.208  1.00  0.00     0.198 A 
ATOM     79  C   UNL     1       6.317  -3.541  -1.055  1.00  0.00     0.198 A 
ATOM     80  F   UNL     1       4.227  -3.447  -0.487  1.00  0.00    -0.203 F 
ATOM     81  F   UNL     1       8.076  -3.232  -4.100  1.00  0.00    -0.200 F 
ATOM     82  C   UNL     1       7.353  -3.585  -1.919  1.00  0.00     0.200 A 
ATOM     83  F   UNL     1       6.510  -3.841   0.244  1.00  0.00    -0.200 F 
ATOM     84  F   UNL     1       8.574  -3.956  -1.511  1.00  0.00    -0.200 F 
ENDBRANCH  60  74
BRANCH  61  85
ATOM     85  C   UNL     1      -4.229  -3.378  -8.309  1.00  0.00     0.064 A 
ATOM     86  C   UNL     1      -4.932  -4.590  -8.557  1.00  0.00     0.173 A 
ATOM     87  C   UNL     1      -4.817  -2.492  -7.390  1.00  0.00     0.173 A 
ATOM     88  F   UNL     1      -4.444  -5.467  -9.450  1.00  0.00    -0.203 F 
ATOM     89  C   UNL     1      -5.949  -5.026  -7.704  1.00  0.00     0.198 A 
ATOM     90  C   UNL     1      -5.886  -2.912  -6.582  1.00  0.00     0.198 A 
ATOM     91  F   UNL     1      -4.221  -1.325  -7.105  1.00  0.00    -0.203 F 
ATOM     92  F   UNL     1      -6.396  -6.288  -7.781  1.00  0.00    -0.200 F 
ATOM     93  C   UNL     1      -6.387  -4.204  -6.682  1.00  0.00     0.200 A 
ATOM     94  F   UNL     1      -6.334  -2.117  -5.599  1.00  0.00    -0.200 F 
ATOM     95  F   UNL     1      -7.225  -4.681  -5.748  1.00  0.00    -0.200 F 
ENDBRANCH  61  85
BRANCH  73  96
ATOM     96  C   UNL     1       2.442  -0.056  -8.220  1.00  0.00     0.064 A 
ATOM     97  C   UNL     1       2.574   0.554  -9.465  1.00  0.00     0.173 A 
ATOM     98  C   UNL     1       3.167   0.547  -7.151  1.00  0.00     0.173 A 
ATOM     99  F   UNL     1       2.006   0.010 -10.550  1.00  0.00    -0.203 F 
ATOM    100  C   UNL     1       3.312   1.729  -9.622  1.00  0.00     0.198 A 
ATOM    101  C   UNL     1       3.962   1.673  -7.328  1.00  0.00     0.198 A 
ATOM    102  F   UNL     1       3.106   0.096  -5.891  1.00  0.00    -0.203 F 
ATOM    103  F   UNL     1       3.343   2.330 -10.818  1.00  0.00    -0.200 F 
ATOM    104  C   UNL     1       4.011   2.282  -8.560  1.00  0.00     0.200 A 
ATOM    105  F   UNL     1       4.659   2.168  -6.294  1.00  0.00    -0.200 F 
ATOM    106  F   UNL     1       4.719   3.407  -8.722  1.00  0.00    -0.200 F 
ENDBRANCH  73  96
ENDBRANCH  47  48
ENDBRANCH  40  42
ENDBRANCH  39  40
ENDBRANCH  38  39
ENDBRANCH  37  38
ENDBRANCH  36  37
ENDBRANCH  35  36
ENDBRANCH  34  35
ENDBRANCH   1  34
TORSDOF 23
