REMARK SMILES CC(C)C[C@@H](C)NS(=O)(=O)c1ccsc1C(=O)OCCOCCOCCOCCOC(=O)c1ccc(-c2c3nc(c(-c4c(F)c(F)c(F)c(F)c4F)c4ccc([nH]4)c(-c4c(F)c(F)c(F)c(F)c4F)c4nc(c(-c5c(F)c(F)c(F)c(F)c5F)c5ccc2[nH]5)C=C4)C=C3)cc1
REMARK SMILES IDX 22 1 21 2 20 3 19 4 18 5 16 6 17 7 15 8 11 9 12 10 13 11
REMARK SMILES IDX 14 12 8 13 9 14 10 15 7 16 5 18 6 19 4 20 2 21 1 22 3 23
REMARK SMILES IDX 23 24 24 25 25 26 26 27 27 28 28 29 29 30 30 31 31 32 32 33
REMARK SMILES IDX 33 34 34 35 95 36 35 37 94 38 36 39 37 40 38 41 88 42 39 43
REMARK SMILES IDX 93 44 87 45 89 46 40 47 92 48 86 49 85 50 41 52 73 53 53 54
REMARK SMILES IDX 72 55 54 56 57 57 71 58 90 59 55 60 56 61 70 63 91 64 58 65
REMARK SMILES IDX 42 66 43 67 51 68 44 69 45 70 49 71 52 72 46 73 47 74 50 75
REMARK SMILES IDX 48 76 74 77 75 78 83 79 76 80 77 81 81 82 84 83 78 84 79 85
REMARK SMILES IDX 82 86 80 87 59 88 60 89 68 90 61 91 62 92 66 93 69 94 63 95
REMARK SMILES IDX 64 96 67 97 65 98
REMARK H PARENT 7 17 89 51 57 62
REMARK Flexibility Score: inf
ROOT
ATOM      1  C   UNL     1      -0.922  -0.398  -3.468  1.00  0.00     0.188 C 
ENDROOT
BRANCH   1   2
ATOM      2  O   UNL     1      -1.171   0.990  -3.258  1.00  0.00    -0.376 OA
BRANCH   2   3
ATOM      3  C   UNL     1      -2.538   1.323  -3.008  1.00  0.00     0.202 C 
BRANCH   3   4
ATOM      4  C   UNL     1      -3.012   1.014  -1.578  1.00  0.00     0.261 C 
BRANCH   4   5
ATOM      5  O   UNL     1      -3.010  -0.382  -1.227  1.00  0.00    -0.459 OA
BRANCH   5   6
ATOM      6  C   UNL     1      -3.963  -1.157  -1.813  1.00  0.00     0.349 C 
ATOM      7  O   UNL     1      -4.810  -0.743  -2.595  1.00  0.00    -0.245 OA
BRANCH   6   8
ATOM      8  C   UNL     1      -3.680  -2.539  -1.511  1.00  0.00     0.132 A 
ATOM      9  C   UNL     1      -3.758  -3.232  -0.320  1.00  0.00     0.107 A 
ATOM     10  C   UNL     1      -3.300  -4.583  -0.452  1.00  0.00     0.034 A 
ATOM     11  C   UNL     1      -2.949  -4.889  -1.747  1.00  0.00     0.067 A 
ATOM     12  S   UNL     1      -3.176  -3.562  -2.796  1.00  0.00    -0.136 S 
BRANCH   9  13
ATOM     13  S   UNL     1      -4.462  -2.619   1.133  1.00  0.00     0.242 S 
ATOM     14  O   UNL     1      -4.307  -3.682   2.100  1.00  0.00    -0.207 OA
ATOM     15  O   UNL     1      -5.771  -2.171   0.719  1.00  0.00    -0.207 OA
BRANCH  13  16
ATOM     16  N   UNL     1      -3.674  -1.271   1.718  1.00  0.00    -0.208 NA
ATOM     17  H   UNL     1      -3.804  -0.540   1.019  1.00  0.00     0.141 HD
BRANCH  16  18
ATOM     18  C   UNL     1      -2.232  -1.280   2.042  1.00  0.00     0.067 C 
ATOM     19  C   UNL     1      -1.928  -2.111   3.282  1.00  0.00     0.025 C 
BRANCH  18  20
ATOM     20  C   UNL     1      -1.865   0.208   2.226  1.00  0.00     0.022 C 
BRANCH  20  21
ATOM     21  C   UNL     1      -0.422   0.572   2.600  1.00  0.00    -0.016 C 
ATOM     22  C   UNL     1       0.620  -0.370   2.011  1.00  0.00     0.007 C 
ATOM     23  C   UNL     1      -0.159   2.037   2.206  1.00  0.00     0.007 C 
ENDBRANCH  20  21
ENDBRANCH  18  20
ENDBRANCH  16  18
ENDBRANCH  13  16
ENDBRANCH   9  13
ENDBRANCH   6   8
ENDBRANCH   5   6
ENDBRANCH   4   5
ENDBRANCH   3   4
ENDBRANCH   2   3
ENDBRANCH   1   2
BRANCH   1  24
ATOM     24  C   UNL     1       0.168  -0.970  -2.545  1.00  0.00     0.188 C 
BRANCH  24  25
ATOM     25  O   UNL     1       0.209  -0.401  -1.236  1.00  0.00    -0.377 OA
BRANCH  25  26
ATOM     26  C   UNL     1       0.852   0.874  -1.203  1.00  0.00     0.188 C 
BRANCH  26  27
ATOM     27  C   UNL     1       2.369   0.877  -0.971  1.00  0.00     0.188 C 
BRANCH  27  28
ATOM     28  O   UNL     1       3.079  -0.215  -1.537  1.00  0.00    -0.376 OA
BRANCH  28  29
ATOM     29  C   UNL     1       3.190  -1.359  -0.682  1.00  0.00     0.202 C 
BRANCH  29  30
ATOM     30  C   UNL     1       4.311  -1.231   0.363  1.00  0.00     0.261 C 
BRANCH  30  31
ATOM     31  O   UNL     1       3.818  -0.675   1.605  1.00  0.00    -0.460 OA
BRANCH  31  32
ATOM     32  C   UNL     1       4.352   0.505   2.010  1.00  0.00     0.338 C 
ATOM     33  O   UNL     1       5.232   1.135   1.449  1.00  0.00    -0.246 OA
BRANCH  32  34
ATOM     34  C   UNL     1       3.607   1.035   3.186  1.00  0.00     0.060 A 
ATOM     35  C   UNL     1       3.411   2.419   3.267  1.00  0.00     0.016 A 
ATOM     36  C   UNL     1       3.083   0.208   4.189  1.00  0.00     0.016 A 
ATOM     37  C   UNL     1       2.704   2.974   4.340  1.00  0.00     0.010 A 
ATOM     38  C   UNL     1       2.369   0.765   5.265  1.00  0.00     0.010 A 
ATOM     39  C   UNL     1       2.195   2.156   5.361  1.00  0.00    -0.014 A 
BRANCH  39  40
ATOM     40  C   UNL     1       1.734   2.800   6.623  1.00  0.00     0.031 A 
ATOM     41  C   UNL     1       2.773   3.088   7.670  1.00  0.00     0.074 A 
ATOM     42  C   UNL     1       0.466   3.204   6.832  1.00  0.00     0.049 A 
ATOM     43  N   UNL     1       2.685   3.814   8.754  1.00  0.00    -0.248 NA
ATOM     44  C   UNL     1       4.093   2.472   7.458  1.00  0.00     0.031 C 
ATOM     45  C   UNL     1      -0.656   2.970   5.935  1.00  0.00     0.029 A 
ATOM     46  N   UNL     1      -0.087   3.917   7.872  1.00  0.00    -0.354 N 
ATOM     47  C   UNL     1       3.948   3.780   9.326  1.00  0.00     0.074 A 
ATOM     48  C   UNL     1       4.766   2.911   8.509  1.00  0.00     0.031 C 
ATOM     49  C   UNL     1      -1.758   3.556   6.436  1.00  0.00     0.029 A 
ATOM     50  C   UNL     1      -1.424   4.196   7.706  1.00  0.00     0.049 A 
ATOM     51  H   UNL     1       0.427   4.200   8.662  1.00  0.00     0.167 HD
ATOM     52  C   UNL     1       4.400   4.431  10.422  1.00  0.00     0.037 A 
ATOM     53  C   UNL     1      -2.276   4.895   8.485  1.00  0.00     0.037 A 
ATOM     54  C   UNL     1       3.588   5.248  11.278  1.00  0.00     0.049 A 
ATOM     55  C   UNL     1      -1.767   5.544   9.749  1.00  0.00     0.074 A 
ATOM     56  C   UNL     1       3.957   5.929  12.425  1.00  0.00     0.029 A 
ATOM     57  N   UNL     1       2.233   5.473  11.096  1.00  0.00    -0.354 N 
ATOM     58  N   UNL     1      -0.549   5.585  10.229  1.00  0.00    -0.248 NA
ATOM     59  C   UNL     1      -2.757   6.256  10.574  1.00  0.00     0.031 C 
ATOM     60  C   UNL     1       2.813   6.527  12.963  1.00  0.00     0.029 A 
ATOM     61  C   UNL     1       1.744   6.262  12.123  1.00  0.00     0.049 A 
ATOM     62  H   UNL     1       1.698   5.124  10.347  1.00  0.00     0.167 HD
ATOM     63  C   UNL     1      -0.617   6.356  11.384  1.00  0.00     0.074 A 
ATOM     64  C   UNL     1      -1.996   6.772  11.528  1.00  0.00     0.031 C 
ATOM     65  C   UNL     1       0.374   6.691  12.245  1.00  0.00     0.037 A 
BRANCH  52  66
ATOM     66  C   UNL     1       5.850   4.258  10.751  1.00  0.00     0.064 A 
ATOM     67  C   UNL     1       6.848   4.865   9.972  1.00  0.00     0.173 A 
ATOM     68  C   UNL     1       6.247   3.466  11.836  1.00  0.00     0.173 A 
ATOM     69  F   UNL     1       6.513   5.611   8.908  1.00  0.00    -0.203 F 
ATOM     70  C   UNL     1       8.195   4.661  10.253  1.00  0.00     0.198 A 
ATOM     71  C   UNL     1       7.596   3.285  12.129  1.00  0.00     0.198 A 
ATOM     72  F   UNL     1       5.329   2.860  12.603  1.00  0.00    -0.203 F 
ATOM     73  F   UNL     1       9.132   5.204   9.464  1.00  0.00    -0.200 F 
ATOM     74  C   UNL     1       8.567   3.875  11.333  1.00  0.00     0.200 A 
ATOM     75  F   UNL     1       7.956   2.526  13.173  1.00  0.00    -0.200 F 
ATOM     76  F   UNL     1       9.865   3.673  11.599  1.00  0.00    -0.200 F 
ENDBRANCH  52  66
BRANCH  53  77
ATOM     77  C   UNL     1      -3.707   5.045   8.101  1.00  0.00     0.064 A 
ATOM     78  C   UNL     1      -4.235   6.296   7.746  1.00  0.00     0.173 A 
ATOM     79  C   UNL     1      -4.591   3.958   8.151  1.00  0.00     0.173 A 
ATOM     80  F   UNL     1      -3.437   7.374   7.713  1.00  0.00    -0.203 F 
ATOM     81  C   UNL     1      -5.595   6.459   7.488  1.00  0.00     0.198 A 
ATOM     82  C   UNL     1      -5.946   4.117   7.866  1.00  0.00     0.198 A 
ATOM     83  F   UNL     1      -4.140   2.741   8.489  1.00  0.00    -0.203 F 
ATOM     84  F   UNL     1      -6.082   7.677   7.213  1.00  0.00    -0.200 F 
ATOM     85  C   UNL     1      -6.449   5.369   7.546  1.00  0.00     0.200 A 
ATOM     86  F   UNL     1      -6.768   3.059   7.918  1.00  0.00    -0.200 F 
ATOM     87  F   UNL     1      -7.759   5.527   7.310  1.00  0.00    -0.200 F 
ENDBRANCH  53  77
BRANCH  65  88
ATOM     88  C   UNL     1       0.025   7.593  13.394  1.00  0.00     0.064 A 
ATOM     89  C   UNL     1      -0.748   7.149  14.477  1.00  0.00     0.173 A 
ATOM     90  C   UNL     1       0.515   8.908  13.433  1.00  0.00     0.173 A 
ATOM     91  F   UNL     1      -1.250   5.905  14.483  1.00  0.00    -0.203 F 
ATOM     92  C   UNL     1      -1.040   7.997  15.543  1.00  0.00     0.198 A 
ATOM     93  C   UNL     1       0.246   9.743  14.514  1.00  0.00     0.198 A 
ATOM     94  F   UNL     1       1.266   9.380  12.427  1.00  0.00    -0.203 F 
ATOM     95  F   UNL     1      -1.819   7.566  16.545  1.00  0.00    -0.200 F 
ATOM     96  C   UNL     1      -0.537   9.289  15.565  1.00  0.00     0.200 A 
ATOM     97  F   UNL     1       0.746  10.986  14.540  1.00  0.00    -0.200 F 
ATOM     98  F   UNL     1      -0.812  10.100  16.595  1.00  0.00    -0.200 F 
ENDBRANCH  65  88
ENDBRANCH  39  40
ENDBRANCH  32  34
ENDBRANCH  31  32
ENDBRANCH  30  31
ENDBRANCH  29  30
ENDBRANCH  28  29
ENDBRANCH  27  28
ENDBRANCH  26  27
ENDBRANCH  25  26
ENDBRANCH  24  25
ENDBRANCH   1  24
TORSDOF 25
