REMARK SMILES CC(C)[C@H](NC(=O)[C@H](C)NC(=O)CNC(=O)OCc1ccccc1)C(=O)OCCOCCOCCOCCOC(=O)c1ccc(-c2c3nc(c(-c4c(F)c(F)c(F)c(F)c4F)c4ccc([nH]4)c(-c4c(F)c(F)c(F)c(F)c4F)c4nc(c(-c5c(F)c(F)c(F)c(F)c5F)c5ccc2[nH]5)C=C4)C=C3)cc1
REMARK SMILES IDX 30 1 29 2 28 3 27 4 25 5 26 6 4 7 2 8 1 9 3 10 5 11 6 12
REMARK SMILES IDX 7 14 8 15 9 16 10 17 11 18 12 20 13 21 14 22 15 23 16 25
REMARK SMILES IDX 17 26 18 27 19 28 20 29 24 30 21 31 23 32 22 33 31 34 32 35
REMARK SMILES IDX 33 36 34 37 35 38 36 39 37 40 38 41 39 42 40 43 41 44 42 45
REMARK SMILES IDX 43 46 104 47 44 48 103 49 45 50 46 51 47 52 97 53 48 54
REMARK SMILES IDX 102 55 96 56 98 57 49 58 101 59 95 60 94 61 50 63 82 64
REMARK SMILES IDX 62 65 81 66 63 67 66 68 80 69 99 70 64 71 65 72 79 74 100 75
REMARK SMILES IDX 67 76 51 77 52 78 60 79 53 80 54 81 58 82 61 83 55 84 56 85
REMARK SMILES IDX 59 86 57 87 83 88 84 89 92 90 85 91 86 92 90 93 93 94 87 95
REMARK SMILES IDX 88 96 91 97 89 98 68 99 69 100 77 101 70 102 71 103 75 104
REMARK SMILES IDX 78 105 72 106 73 107 76 108 74 109
REMARK H PARENT 5 13 10 19 14 24 98 62 66 73
REMARK Flexibility Score: inf
ROOT
ATOM      1  O   UNL     1      -5.031   0.457   1.190  1.00  0.00    -0.376 OA
ENDROOT
BRANCH   1   2
ATOM      2  C   UNL     1      -5.309  -0.879   1.563  1.00  0.00     0.202 C 
BRANCH   2   3
ATOM      3  C   UNL     1      -4.168  -1.748   2.121  1.00  0.00     0.261 C 
BRANCH   3   4
ATOM      4  O   UNL     1      -3.349  -1.182   3.170  1.00  0.00    -0.462 OA
BRANCH   4   5
ATOM      5  C   UNL     1      -2.109  -0.761   2.794  1.00  0.00     0.328 C 
ATOM      6  O   UNL     1      -1.690  -0.813   1.643  1.00  0.00    -0.250 OA
BRANCH   5   7
ATOM      7  C   UNL     1      -1.202  -0.304   3.973  1.00  0.00     0.194 C 
BRANCH   7   8
ATOM      8  C   UNL     1      -0.186  -1.408   4.426  1.00  0.00     0.017 C 
ATOM      9  C   UNL     1      -0.332  -1.870   5.884  1.00  0.00     0.010 C 
ATOM     10  C   UNL     1      -0.160  -2.647   3.526  1.00  0.00     0.010 C 
ENDBRANCH   7   8
BRANCH   7  11
ATOM     11  N   UNL     1      -1.884   0.294   5.133  1.00  0.00    -0.341 N 
ATOM     12  C   UNL     1      -1.785   1.531   5.695  1.00  0.00     0.242 C 
ATOM     13  H   UNL     1      -2.525  -0.305   5.580  1.00  0.00     0.164 HD
ATOM     14  O   UNL     1      -1.972   1.596   6.917  1.00  0.00    -0.273 OA
BRANCH  12  15
ATOM     15  C   UNL     1      -1.671   2.848   4.877  1.00  0.00     0.168 C 
ATOM     16  C   UNL     1      -2.995   3.588   5.116  1.00  0.00     0.041 C 
BRANCH  15  17
ATOM     17  N   UNL     1      -1.400   2.748   3.448  1.00  0.00    -0.343 N 
ATOM     18  C   UNL     1      -0.820   3.635   2.592  1.00  0.00     0.240 C 
ATOM     19  H   UNL     1      -1.681   1.900   3.033  1.00  0.00     0.164 HD
ATOM     20  O   UNL     1      -0.778   3.333   1.397  1.00  0.00    -0.273 OA
BRANCH  18  21
ATOM     21  C   UNL     1      -0.374   5.012   3.067  1.00  0.00     0.219 C 
BRANCH  21  22
ATOM     22  N   UNL     1      -1.536   5.879   3.022  1.00  0.00    -0.312 N 
ATOM     23  C   UNL     1      -2.137   6.455   4.096  1.00  0.00     0.407 C 
ATOM     24  H   UNL     1      -1.923   6.067   2.137  1.00  0.00     0.167 HD
ATOM     25  O   UNL     1      -3.244   6.964   4.021  1.00  0.00    -0.225 OA
BRANCH  23  26
ATOM     26  O   UNL     1      -1.379   6.364   5.216  1.00  0.00    -0.445 OA
BRANCH  26  27
ATOM     27  C   UNL     1      -1.959   6.910   6.408  1.00  0.00     0.270 C 
BRANCH  27  28
ATOM     28  C   UNL     1      -1.749   8.396   6.556  1.00  0.00    -0.011 A 
ATOM     29  C   UNL     1      -1.133   9.172   5.564  1.00  0.00     0.007 A 
ATOM     30  C   UNL     1      -2.226   9.031   7.711  1.00  0.00     0.007 A 
ATOM     31  C   UNL     1      -1.029  10.554   5.706  1.00  0.00     0.000 A 
ATOM     32  C   UNL     1      -2.111  10.413   7.857  1.00  0.00     0.000 A 
ATOM     33  C   UNL     1      -1.521  11.174   6.850  1.00  0.00     0.000 A 
ENDBRANCH  27  28
ENDBRANCH  26  27
ENDBRANCH  23  26
ENDBRANCH  21  22
ENDBRANCH  18  21
ENDBRANCH  15  17
ENDBRANCH  12  15
ENDBRANCH   7  11
ENDBRANCH   5   7
ENDBRANCH   4   5
ENDBRANCH   3   4
ENDBRANCH   2   3
ENDBRANCH   1   2
BRANCH   1  34
ATOM     34  C   UNL     1      -4.545   1.375   2.158  1.00  0.00     0.188 C 
BRANCH  34  35
ATOM     35  C   UNL     1      -4.855   1.187   3.653  1.00  0.00     0.188 C 
BRANCH  35  36
ATOM     36  O   UNL     1      -5.881   0.265   3.957  1.00  0.00    -0.377 OA
BRANCH  36  37
ATOM     37  C   UNL     1      -7.123   0.856   4.307  1.00  0.00     0.188 C 
BRANCH  37  38
ATOM     38  C   UNL     1      -7.635   1.933   3.335  1.00  0.00     0.188 C 
BRANCH  38  39
ATOM     39  O   UNL     1      -6.775   3.071   3.260  1.00  0.00    -0.376 OA
BRANCH  39  40
ATOM     40  C   UNL     1      -7.159   4.245   3.968  1.00  0.00     0.202 C 
BRANCH  40  41
ATOM     41  C   UNL     1      -6.895   4.221   5.482  1.00  0.00     0.261 C 
BRANCH  41  42
ATOM     42  O   UNL     1      -7.604   3.204   6.206  1.00  0.00    -0.460 OA
BRANCH  42  43
ATOM     43  C   UNL     1      -8.951   3.263   6.164  1.00  0.00     0.338 C 
ATOM     44  O   UNL     1      -9.637   4.142   5.677  1.00  0.00    -0.246 OA
BRANCH  43  45
ATOM     45  C   UNL     1      -9.472   1.951   6.593  1.00  0.00     0.060 A 
ATOM     46  C   UNL     1     -10.291   1.256   5.696  1.00  0.00     0.016 A 
ATOM     47  C   UNL     1      -9.149   1.401   7.838  1.00  0.00     0.016 A 
ATOM     48  C   UNL     1     -10.819   0.022   6.053  1.00  0.00     0.010 A 
ATOM     49  C   UNL     1      -9.706   0.174   8.209  1.00  0.00     0.010 A 
ATOM     50  C   UNL     1     -10.571  -0.498   7.329  1.00  0.00    -0.014 A 
BRANCH  50  51
ATOM     51  C   UNL     1     -11.413  -1.627   7.782  1.00  0.00     0.031 A 
ATOM     52  C   UNL     1     -12.682  -1.308   8.520  1.00  0.00     0.074 A 
ATOM     53  C   UNL     1     -11.114  -2.890   7.439  1.00  0.00     0.049 A 
ATOM     54  N   UNL     1     -13.644  -2.104   8.906  1.00  0.00    -0.248 NA
ATOM     55  C   UNL     1     -12.901   0.109   8.856  1.00  0.00     0.031 C 
ATOM     56  C   UNL     1      -9.930  -3.302   6.688  1.00  0.00     0.029 A 
ATOM     57  N   UNL     1     -11.797  -4.058   7.664  1.00  0.00    -0.354 N 
ATOM     58  C   UNL     1     -14.584  -1.286   9.520  1.00  0.00     0.074 A 
ATOM     59  C   UNL     1     -14.062   0.062   9.490  1.00  0.00     0.031 C 
ATOM     60  C   UNL     1      -9.971  -4.634   6.510  1.00  0.00     0.029 A 
ATOM     61  C   UNL     1     -11.173  -5.166   7.150  1.00  0.00     0.049 A 
ATOM     62  H   UNL     1     -12.654  -4.096   8.147  1.00  0.00     0.167 HD
ATOM     63  C   UNL     1     -15.780  -1.630  10.052  1.00  0.00     0.037 A 
ATOM     64  C   UNL     1     -11.535  -6.462   7.199  1.00  0.00     0.037 A 
ATOM     65  C   UNL     1     -16.280  -2.979  10.091  1.00  0.00     0.049 A 
ATOM     66  C   UNL     1     -12.845  -6.827   7.851  1.00  0.00     0.074 A 
ATOM     67  C   UNL     1     -17.479  -3.442  10.603  1.00  0.00     0.029 A 
ATOM     68  N   UNL     1     -15.596  -4.086   9.607  1.00  0.00    -0.354 N 
ATOM     69  N   UNL     1     -13.744  -6.047   8.402  1.00  0.00    -0.248 NA
ATOM     70  C   UNL     1     -13.197  -8.253   7.870  1.00  0.00     0.031 C 
ATOM     71  C   UNL     1     -17.491  -4.837  10.487  1.00  0.00     0.029 A 
ATOM     72  C   UNL     1     -16.334  -5.237   9.836  1.00  0.00     0.049 A 
ATOM     73  H   UNL     1     -14.716  -4.058   9.166  1.00  0.00     0.167 HD
ATOM     74  C   UNL     1     -14.779  -6.881   8.809  1.00  0.00     0.074 A 
ATOM     75  C   UNL     1     -14.402  -8.225   8.419  1.00  0.00     0.031 C 
ATOM     76  C   UNL     1     -15.936  -6.566   9.445  1.00  0.00     0.037 A 
BRANCH  63  77
ATOM     77  C   UNL     1     -16.599  -0.536  10.674  1.00  0.00     0.064 A 
ATOM     78  C   UNL     1     -17.200   0.473   9.905  1.00  0.00     0.173 A 
ATOM     79  C   UNL     1     -16.789  -0.499  12.064  1.00  0.00     0.173 A 
ATOM     80  F   UNL     1     -17.033   0.499   8.574  1.00  0.00    -0.203 F 
ATOM     81  C   UNL     1     -17.934   1.493  10.508  1.00  0.00     0.198 A 
ATOM     82  C   UNL     1     -17.550   0.503  12.659  1.00  0.00     0.198 A 
ATOM     83  F   UNL     1     -16.235  -1.437  12.847  1.00  0.00    -0.203 F 
ATOM     84  F   UNL     1     -18.450   2.478   9.759  1.00  0.00    -0.200 F 
ATOM     85  C   UNL     1     -18.114   1.503  11.882  1.00  0.00     0.200 A 
ATOM     86  F   UNL     1     -17.732   0.504  13.987  1.00  0.00    -0.200 F 
ATOM     87  F   UNL     1     -18.823   2.483  12.460  1.00  0.00    -0.200 F 
ENDBRANCH  63  77
BRANCH  64  88
ATOM     88  C   UNL     1     -10.648  -7.504   6.617  1.00  0.00     0.064 A 
ATOM     89  C   UNL     1     -11.030  -8.247   5.491  1.00  0.00     0.173 A 
ATOM     90  C   UNL     1      -9.396  -7.782   7.186  1.00  0.00     0.173 A 
ATOM     91  F   UNL     1     -12.226  -8.036   4.924  1.00  0.00    -0.203 F 
ATOM     92  C   UNL     1     -10.202  -9.239   4.968  1.00  0.00     0.198 A 
ATOM     93  C   UNL     1      -8.555  -8.752   6.643  1.00  0.00     0.198 A 
ATOM     94  F   UNL     1      -8.981  -7.102   8.264  1.00  0.00    -0.203 F 
ATOM     95  F   UNL     1     -10.611  -9.967   3.920  1.00  0.00    -0.200 F 
ATOM     96  C   UNL     1      -8.963  -9.486   5.540  1.00  0.00     0.200 A 
ATOM     97  F   UNL     1      -7.353  -8.976   7.190  1.00  0.00    -0.200 F 
ATOM     98  F   UNL     1      -8.164 -10.434   5.032  1.00  0.00    -0.200 F 
ENDBRANCH  64  88
BRANCH  76  99
ATOM     99  C   UNL     1     -16.890  -7.694   9.724  1.00  0.00     0.064 A 
ATOM    100  C   UNL     1     -16.598  -8.701  10.656  1.00  0.00     0.173 A 
ATOM    101  C   UNL     1     -18.122  -7.761   9.053  1.00  0.00     0.173 A 
ATOM    102  F   UNL     1     -15.430  -8.689  11.318  1.00  0.00    -0.203 F 
ATOM    103  C   UNL     1     -17.479  -9.757  10.870  1.00  0.00     0.198 A 
ATOM    104  C   UNL     1     -19.018  -8.798   9.299  1.00  0.00     0.198 A 
ATOM    105  F   UNL     1     -18.460  -6.819   8.161  1.00  0.00    -0.203 F 
ATOM    106  F   UNL     1     -17.145 -10.745  11.712  1.00  0.00    -0.200 F 
ATOM    107  C   UNL     1     -18.689  -9.803  10.196  1.00  0.00     0.200 A 
ATOM    108  F   UNL     1     -20.195  -8.829   8.660  1.00  0.00    -0.200 F 
ATOM    109  F   UNL     1     -19.535 -10.822  10.401  1.00  0.00    -0.200 F 
ENDBRANCH  76  99
ENDBRANCH  50  51
ENDBRANCH  43  45
ENDBRANCH  42  43
ENDBRANCH  41  42
ENDBRANCH  40  41
ENDBRANCH  39  40
ENDBRANCH  38  39
ENDBRANCH  37  38
ENDBRANCH  36  37
ENDBRANCH  35  36
ENDBRANCH  34  35
ENDBRANCH   1  34
TORSDOF 29
