REMARK SMILES COc1ccc2c(c1)c(CC(=O)OCCOCCOCCOCCOC(=O)c1ccc(-c3c4nc(c(-c5c(F)c(F)c(F)c(F)c5F)c5ccc([nH]5)c(-c5c(F)c(F)c(F)c(F)c5F)c5nc(c(-c6c(F)c(F)c(F)c(F)c6F)c6ccc3[nH]6)C=C5)C=C4)cc1)c(C)n2Cc1ccn(C(F)F)c(=O)c1
REMARK SMILES IDX 18 1 17 2 16 3 15 4 14 5 13 6 11 7 12 8 10 9 9 10 3 11 4 12
REMARK SMILES IDX 8 13 5 14 7 15 6 16 93 17 91 18 92 19 2 20 1 21 94 22 95 23
REMARK SMILES IDX 96 24 104 25 97 26 102 27 98 28 103 29 99 30 100 31 101 32
REMARK SMILES IDX 19 33 20 34 21 35 22 36 23 37 24 38 25 39 26 40 27 41 28 42
REMARK SMILES IDX 29 43 90 44 30 45 89 46 31 47 32 48 33 49 83 50 34 51 88 52
REMARK SMILES IDX 82 53 84 54 35 55 87 56 81 57 80 58 36 60 68 61 48 62 67 63
REMARK SMILES IDX 49 64 52 65 66 66 85 67 50 68 51 69 65 71 86 72 53 73 37 74
REMARK SMILES IDX 38 75 46 76 39 77 40 78 44 79 47 80 41 81 42 82 45 83 43 84
REMARK SMILES IDX 69 85 70 86 78 87 71 88 72 89 76 90 79 91 73 92 74 93 77 94
REMARK SMILES IDX 75 95 54 96 55 97 63 98 56 99 57 100 61 101 64 102 58 103
REMARK SMILES IDX 59 104 62 105 60 106
REMARK H PARENT 84 59 52 70
REMARK Flexibility Score: inf
ROOT
ATOM      1  C   UNL     1      -0.838  -0.944   4.076  1.00  0.00     0.188 C 
ENDROOT
BRANCH   1   2
ATOM      2  C   UNL     1      -2.216  -0.415   3.686  1.00  0.00     0.188 C 
BRANCH   2   3
ATOM      3  O   UNL     1      -3.295  -0.596   4.605  1.00  0.00    -0.376 OA
BRANCH   3   4
ATOM      4  C   UNL     1      -3.092  -0.193   5.947  1.00  0.00     0.202 C 
BRANCH   4   5
ATOM      5  C   UNL     1      -2.741  -1.363   6.889  1.00  0.00     0.261 C 
BRANCH   5   6
ATOM      6  O   UNL     1      -2.119  -2.492   6.227  1.00  0.00    -0.463 OA
BRANCH   6   7
ATOM      7  C   UNL     1      -2.955  -3.357   5.596  1.00  0.00     0.310 C 
ATOM      8  O   UNL     1      -4.170  -3.369   5.787  1.00  0.00    -0.252 OA
BRANCH   7   9
ATOM      9  C   UNL     1      -2.317  -4.282   4.557  1.00  0.00     0.160 C 
BRANCH   9  10
ATOM     10  C   UNL     1      -0.809  -4.388   4.430  1.00  0.00    -0.008 A 
ATOM     11  C   UNL     1       0.717  -2.813   1.273  1.00  0.00     0.119 A 
ATOM     12  C   UNL     1       2.037  -2.905   1.688  1.00  0.00     0.048 A 
ATOM     13  C   UNL     1      -0.295  -3.409   2.042  1.00  0.00     0.057 A 
ATOM     14  C   UNL     1       2.371  -3.560   2.885  1.00  0.00     0.031 A 
ATOM     15  C   UNL     1      -0.003  -3.963   3.316  1.00  0.00     0.007 A 
ATOM     16  C   UNL     1       1.338  -4.088   3.689  1.00  0.00     0.049 A 
ATOM     17  N   UNL     1       1.363  -4.819   4.874  1.00  0.00    -0.340 N 
ATOM     18  C   UNL     1       0.054  -5.097   5.257  1.00  0.00     0.020 A 
ATOM     19  C   UNL     1      -0.331  -6.046   6.334  1.00  0.00     0.065 C 
BRANCH  11  20
ATOM     20  O   UNL     1       0.274  -2.150   0.161  1.00  0.00    -0.497 OA
ATOM     21  C   UNL     1       1.045  -1.050  -0.319  1.00  0.00     0.278 C 
ENDBRANCH  11  20
BRANCH  17  22
ATOM     22  C   UNL     1       2.592  -5.426   5.423  1.00  0.00     0.158 C 
BRANCH  22  23
ATOM     23  C   UNL     1       3.050  -4.932   6.780  1.00  0.00    -0.021 A 
ATOM     24  C   UNL     1       2.440  -5.494   7.969  1.00  0.00     0.024 A 
ATOM     25  C   UNL     1       4.096  -4.101   6.947  1.00  0.00     0.077 A 
ATOM     26  C   UNL     1       2.787  -5.082   9.192  1.00  0.00     0.095 A 
ATOM     27  C   UNL     1       4.554  -3.686   8.312  1.00  0.00     0.255 A 
ATOM     28  N   UNL     1       3.798  -4.162   9.371  1.00  0.00    -0.258 N 
ATOM     29  O   UNL     1       5.544  -2.967   8.405  1.00  0.00    -0.269 OA
BRANCH  28  30
ATOM     30  C   UNL     1       4.173  -3.759  10.703  1.00  0.00     0.451 C 
ATOM     31  F   UNL     1       5.354  -4.316  11.062  1.00  0.00    -0.185 F 
ATOM     32  F   UNL     1       4.293  -2.413  10.802  1.00  0.00    -0.185 F 
ENDBRANCH  28  30
ENDBRANCH  22  23
ENDBRANCH  17  22
ENDBRANCH   9  10
ENDBRANCH   7   9
ENDBRANCH   6   7
ENDBRANCH   5   6
ENDBRANCH   4   5
ENDBRANCH   3   4
ENDBRANCH   2   3
ENDBRANCH   1   2
BRANCH   1  33
ATOM     33  O   UNL     1       0.257  -0.084   4.215  1.00  0.00    -0.377 OA
BRANCH  33  34
ATOM     34  C   UNL     1       0.128   1.004   5.069  1.00  0.00     0.188 C 
BRANCH  34  35
ATOM     35  C   UNL     1      -0.153   2.307   4.323  1.00  0.00     0.188 C 
BRANCH  35  36
ATOM     36  O   UNL     1       0.172   2.484   2.946  1.00  0.00    -0.376 OA
BRANCH  36  37
ATOM     37  C   UNL     1       1.019   1.571   2.260  1.00  0.00     0.202 C 
BRANCH  37  38
ATOM     38  C   UNL     1       2.515   1.515   2.636  1.00  0.00     0.261 C 
BRANCH  38  39
ATOM     39  O   UNL     1       2.763   1.505   4.043  1.00  0.00    -0.460 OA
BRANCH  39  40
ATOM     40  C   UNL     1       3.606   2.449   4.547  1.00  0.00     0.338 C 
ATOM     41  O   UNL     1       4.365   3.169   3.951  1.00  0.00    -0.246 OA
BRANCH  40  42
ATOM     42  C   UNL     1       3.124   2.664   5.931  1.00  0.00     0.060 A 
ATOM     43  C   UNL     1       3.049   1.604   6.841  1.00  0.00     0.016 A 
ATOM     44  C   UNL     1       2.391   3.841   6.126  1.00  0.00     0.016 A 
ATOM     45  C   UNL     1       2.096   1.665   7.857  1.00  0.00     0.010 A 
ATOM     46  C   UNL     1       1.419   3.883   7.120  1.00  0.00     0.010 A 
ATOM     47  C   UNL     1       1.226   2.769   7.942  1.00  0.00    -0.014 A 
BRANCH  47  48
ATOM     48  C   UNL     1       0.293   2.832   9.071  1.00  0.00     0.031 A 
ATOM     49  C   UNL     1       1.010   3.030  10.355  1.00  0.00     0.074 A 
ATOM     50  C   UNL     1      -1.055   2.899   9.021  1.00  0.00     0.049 A 
ATOM     51  N   UNL     1       0.962   2.308  11.425  1.00  0.00    -0.248 NA
ATOM     52  C   UNL     1       2.003   4.119  10.390  1.00  0.00     0.031 C 
ATOM     53  C   UNL     1      -1.898   3.022   7.834  1.00  0.00     0.029 A 
ATOM     54  N   UNL     1      -1.960   2.981  10.050  1.00  0.00    -0.354 N 
ATOM     55  C   UNL     1       1.809   2.945  12.322  1.00  0.00     0.074 A 
ATOM     56  C   UNL     1       2.543   3.944  11.591  1.00  0.00     0.031 C 
ATOM     57  C   UNL     1      -3.156   3.349   8.207  1.00  0.00     0.029 A 
ATOM     58  C   UNL     1      -3.228   3.401   9.658  1.00  0.00     0.049 A 
ATOM     59  H   UNL     1      -1.733   2.763  10.982  1.00  0.00     0.167 HD
ATOM     60  C   UNL     1       1.677   2.805  13.664  1.00  0.00     0.037 A 
ATOM     61  C   UNL     1      -4.235   3.853  10.452  1.00  0.00     0.037 A 
ATOM     62  C   UNL     1       0.979   1.611  14.033  1.00  0.00     0.049 A 
ATOM     63  C   UNL     1      -3.962   3.403  11.838  1.00  0.00     0.074 A 
ATOM     64  C   UNL     1       1.198   0.266  13.808  1.00  0.00     0.029 A 
ATOM     65  N   UNL     1      -0.322   1.715  14.454  1.00  0.00    -0.354 N 
ATOM     66  N   UNL     1      -4.036   2.167  12.245  1.00  0.00    -0.248 NA
ATOM     67  C   UNL     1      -3.229   4.305  12.715  1.00  0.00     0.031 C 
ATOM     68  C   UNL     1      -0.097  -0.307  13.667  1.00  0.00     0.029 A 
ATOM     69  C   UNL     1      -1.031   0.715  13.839  1.00  0.00     0.049 A 
ATOM     70  H   UNL     1      -0.680   2.384  15.081  1.00  0.00     0.167 HD
ATOM     71  C   UNL     1      -3.018   2.045  13.178  1.00  0.00     0.074 A 
ATOM     72  C   UNL     1      -2.634   3.412  13.507  1.00  0.00     0.031 C 
ATOM     73  C   UNL     1      -2.396   0.850  13.385  1.00  0.00     0.037 A 
BRANCH  60  74
ATOM     74  C   UNL     1       1.917   3.964  14.579  1.00  0.00     0.064 A 
ATOM     75  C   UNL     1       2.213   3.759  15.931  1.00  0.00     0.173 A 
ATOM     76  C   UNL     1       1.649   5.298  14.192  1.00  0.00     0.173 A 
ATOM     77  F   UNL     1       2.399   2.519  16.405  1.00  0.00    -0.203 F 
ATOM     78  C   UNL     1       2.258   4.826  16.833  1.00  0.00     0.198 A 
ATOM     79  C   UNL     1       1.761   6.364  15.075  1.00  0.00     0.198 A 
ATOM     80  F   UNL     1       1.180   5.595  12.971  1.00  0.00    -0.203 F 
ATOM     81  F   UNL     1       2.458   4.585  18.135  1.00  0.00    -0.200 F 
ATOM     82  C   UNL     1       2.050   6.127  16.401  1.00  0.00     0.200 A 
ATOM     83  F   UNL     1       1.524   7.610  14.641  1.00  0.00    -0.200 F 
ATOM     84  F   UNL     1       2.073   7.145  17.271  1.00  0.00    -0.200 F 
ENDBRANCH  60  74
BRANCH  61  85
ATOM     85  C   UNL     1      -5.278   4.872  10.143  1.00  0.00     0.064 A 
ATOM     86  C   UNL     1      -6.405   5.048  10.968  1.00  0.00     0.173 A 
ATOM     87  C   UNL     1      -5.069   5.871   9.171  1.00  0.00     0.173 A 
ATOM     88  F   UNL     1      -6.659   4.182  11.960  1.00  0.00    -0.203 F 
ATOM     89  C   UNL     1      -7.255   6.154  10.833  1.00  0.00     0.198 A 
ATOM     90  C   UNL     1      -5.926   6.963   9.025  1.00  0.00     0.198 A 
ATOM     91  F   UNL     1      -3.975   5.864   8.397  1.00  0.00    -0.203 F 
ATOM     92  F   UNL     1      -8.282   6.318  11.680  1.00  0.00    -0.200 F 
ATOM     93  C   UNL     1      -7.012   7.113   9.864  1.00  0.00     0.200 A 
ATOM     94  F   UNL     1      -5.655   7.900   8.104  1.00  0.00    -0.200 F 
ATOM     95  F   UNL     1      -7.793   8.198   9.767  1.00  0.00    -0.200 F 
ENDBRANCH  61  85
BRANCH  73  96
ATOM     96  C   UNL     1      -3.055  -0.392  12.856  1.00  0.00     0.064 A 
ATOM     97  C   UNL     1      -3.276  -0.646  11.492  1.00  0.00     0.173 A 
ATOM     98  C   UNL     1      -3.314  -1.435  13.759  1.00  0.00     0.173 A 
ATOM     99  F   UNL     1      -2.961   0.260  10.556  1.00  0.00    -0.203 F 
ATOM    100  C   UNL     1      -3.761  -1.880  11.062  1.00  0.00     0.198 A 
ATOM    101  C   UNL     1      -3.761  -2.678  13.321  1.00  0.00     0.198 A 
ATOM    102  F   UNL     1      -3.070  -1.266  15.069  1.00  0.00    -0.203 F 
ATOM    103  F   UNL     1      -3.962  -2.103   9.756  1.00  0.00    -0.200 F 
ATOM    104  C   UNL     1      -3.990  -2.898  11.973  1.00  0.00     0.200 A 
ATOM    105  F   UNL     1      -3.928  -3.675  14.200  1.00  0.00    -0.200 F 
ATOM    106  F   UNL     1      -4.395  -4.104  11.549  1.00  0.00    -0.200 F 
ENDBRANCH  73  96
ENDBRANCH  47  48
ENDBRANCH  40  42
ENDBRANCH  39  40
ENDBRANCH  38  39
ENDBRANCH  37  38
ENDBRANCH  36  37
ENDBRANCH  35  36
ENDBRANCH  34  35
ENDBRANCH  33  34
ENDBRANCH   1  33
TORSDOF 25
