REMARK SMILES O=C(OCCOCCOCCOCCOC(=O)[C@@H]1CC=CC[C@H]1C(=O)N1CC[NH+](Cc2ccc3c(c2)OCO3)CC1)c1ccc(-c2c3nc(c(-c4c(F)c(F)c(F)c(F)c4F)c4ccc([nH]4)c(-c4c(F)c(F)c(F)c(F)c4F)c4nc(c(-c5c(F)c(F)c(F)c(F)c5F)c5ccc2[nH]5)C=C4)C=C3)cc1
REMARK SMILES IDX 10 1 9 2 8 3 7 4 6 5 5 6 4 7 3 8 2 9 1 10 42 11 43 12 104 13
REMARK SMILES IDX 44 14 103 15 45 16 46 17 47 18 97 19 48 20 102 21 96 22
REMARK SMILES IDX 98 23 49 24 101 25 95 26 94 27 50 29 82 30 62 31 81 32 63 33
REMARK SMILES IDX 66 34 80 35 99 36 64 37 65 38 79 40 100 41 67 42 51 43 52 44
REMARK SMILES IDX 60 45 53 46 54 47 58 48 61 49 55 50 56 51 59 52 57 53 83 54
REMARK SMILES IDX 84 55 92 56 85 57 86 58 90 59 93 60 87 61 88 62 91 63 89 64
REMARK SMILES IDX 68 65 69 66 77 67 70 68 71 69 75 70 78 71 72 72 73 73 76 74
REMARK SMILES IDX 74 75 11 76 12 77 13 78 14 79 15 80 16 81 17 82 18 83 19 84
REMARK SMILES IDX 23 85 20 86 22 87 21 88 24 89 25 90 26 91 27 92 41 93 28 94
REMARK SMILES IDX 40 95 29 96 30 98 31 99 32 100 36 101 33 102 35 103 34 104
REMARK SMILES IDX 37 105 39 106 38 107
REMARK H PARENT 98 28 66 39 29 97
REMARK Flexibility Score: inf
ROOT
ATOM      1  C   UNL     1       4.392  -0.009   3.041  1.00  0.00     0.188 C 
ENDROOT
BRANCH   1   2
ATOM      2  O   UNL     1       5.510  -0.742   3.525  1.00  0.00    -0.377 OA
BRANCH   2   3
ATOM      3  C   UNL     1       6.664  -0.873   2.692  1.00  0.00     0.188 C 
BRANCH   3   4
ATOM      4  C   UNL     1       6.394  -1.718   1.457  1.00  0.00     0.188 C 
BRANCH   4   5
ATOM      5  O   UNL     1       5.455  -1.044   0.634  1.00  0.00    -0.376 OA
BRANCH   5   6
ATOM      6  C   UNL     1       4.679  -1.844  -0.231  1.00  0.00     0.202 C 
BRANCH   6   7
ATOM      7  C   UNL     1       5.428  -2.593  -1.337  1.00  0.00     0.261 C 
BRANCH   7   8
ATOM      8  O   UNL     1       6.865  -2.460  -1.355  1.00  0.00    -0.460 OA
BRANCH   8   9
ATOM      9  C   UNL     1       7.605  -1.585  -2.081  1.00  0.00     0.338 C 
ATOM     10  O   UNL     1       8.764  -1.799  -2.400  1.00  0.00    -0.246 OA
BRANCH   9  11
ATOM     11  C   UNL     1       6.972  -0.312  -2.438  1.00  0.00     0.060 A 
ATOM     12  C   UNL     1       6.453   0.486  -1.433  1.00  0.00     0.016 A 
ATOM     13  C   UNL     1       6.934   0.124  -3.756  1.00  0.00     0.016 A 
ATOM     14  C   UNL     1       5.595   1.518  -1.744  1.00  0.00     0.010 A 
ATOM     15  C   UNL     1       6.256   1.306  -4.054  1.00  0.00     0.010 A 
ATOM     16  C   UNL     1       5.514   1.972  -3.058  1.00  0.00    -0.014 A 
BRANCH  16  17
ATOM     17  C   UNL     1       4.630   3.113  -3.393  1.00  0.00     0.031 A 
ATOM     18  C   UNL     1       3.643   2.945  -4.511  1.00  0.00     0.074 A 
ATOM     19  C   UNL     1       4.701   4.264  -2.694  1.00  0.00     0.049 A 
ATOM     20  N   UNL     1       3.023   3.853  -5.213  1.00  0.00    -0.248 NA
ATOM     21  C   UNL     1       3.344   1.562  -4.926  1.00  0.00     0.031 C 
ATOM     22  C   UNL     1       5.561   4.507  -1.530  1.00  0.00     0.029 A 
ATOM     23  N   UNL     1       4.034   5.452  -2.852  1.00  0.00    -0.354 N 
ATOM     24  C   UNL     1       2.357   3.161  -6.217  1.00  0.00     0.074 A 
ATOM     25  C   UNL     1       2.616   1.754  -6.017  1.00  0.00     0.031 C 
ATOM     26  C   UNL     1       5.327   5.733  -1.047  1.00  0.00     0.029 A 
ATOM     27  C   UNL     1       4.427   6.420  -1.957  1.00  0.00     0.049 A 
ATOM     28  H   UNL     1       3.342   5.597  -3.537  1.00  0.00     0.167 HD
ATOM     29  C   UNL     1       1.624   3.683  -7.227  1.00  0.00     0.037 A 
ATOM     30  C   UNL     1       4.165   7.739  -1.933  1.00  0.00     0.037 A 
ATOM     31  C   UNL     1       1.331   5.088  -7.325  1.00  0.00     0.049 A 
ATOM     32  C   UNL     1       3.339   8.294  -3.059  1.00  0.00     0.074 A 
ATOM     33  C   UNL     1       0.600   5.760  -8.284  1.00  0.00     0.029 A 
ATOM     34  N   UNL     1       1.748   6.034  -6.395  1.00  0.00    -0.354 N 
ATOM     35  N   UNL     1       2.795   7.659  -4.072  1.00  0.00    -0.248 NA
ATOM     36  C   UNL     1       3.126   9.744  -3.069  1.00  0.00     0.031 C 
ATOM     37  C   UNL     1       0.598   7.119  -7.949  1.00  0.00     0.029 A 
ATOM     38  C   UNL     1       1.298   7.288  -6.762  1.00  0.00     0.049 A 
ATOM     39  H   UNL     1       2.285   5.839  -5.593  1.00  0.00     0.167 HD
ATOM     40  C   UNL     1       2.187   8.631  -4.848  1.00  0.00     0.074 A 
ATOM     41  C   UNL     1       2.393   9.894  -4.164  1.00  0.00     0.031 C 
ATOM     42  C   UNL     1       1.536   8.506  -6.031  1.00  0.00     0.037 A 
BRANCH  29  43
ATOM     43  C   UNL     1       1.163   2.756  -8.313  1.00  0.00     0.064 A 
ATOM     44  C   UNL     1       0.151   1.806  -8.118  1.00  0.00     0.173 A 
ATOM     45  C   UNL     1       1.757   2.823  -9.585  1.00  0.00     0.173 A 
ATOM     46  F   UNL     1      -0.433   1.680  -6.917  1.00  0.00    -0.203 F 
ATOM     47  C   UNL     1      -0.231   0.941  -9.144  1.00  0.00     0.198 A 
ATOM     48  C   UNL     1       1.356   1.976 -10.615  1.00  0.00     0.198 A 
ATOM     49  F   UNL     1       2.735   3.709  -9.828  1.00  0.00    -0.203 F 
ATOM     50  F   UNL     1      -1.164   0.006  -8.917  1.00  0.00    -0.200 F 
ATOM     51  C   UNL     1       0.368   1.030 -10.392  1.00  0.00     0.200 A 
ATOM     52  F   UNL     1       1.935   2.067 -11.821  1.00  0.00    -0.200 F 
ATOM     53  F   UNL     1       0.000   0.197 -11.376  1.00  0.00    -0.200 F 
ENDBRANCH  29  43
BRANCH  30  54
ATOM     54  C   UNL     1       4.774   8.614  -0.892  1.00  0.00     0.064 A 
ATOM     55  C   UNL     1       3.981   9.296   0.040  1.00  0.00     0.173 A 
ATOM     56  C   UNL     1       6.167   8.777  -0.795  1.00  0.00     0.173 A 
ATOM     57  F   UNL     1       2.645   9.196  -0.018  1.00  0.00    -0.203 F 
ATOM     58  C   UNL     1       4.553  10.112   1.017  1.00  0.00     0.198 A 
ATOM     59  C   UNL     1       6.740   9.560   0.206  1.00  0.00     0.198 A 
ATOM     60  F   UNL     1       6.981   8.151  -1.659  1.00  0.00    -0.203 F 
ATOM     61  F   UNL     1       3.767  10.788   1.865  1.00  0.00    -0.200 F 
ATOM     62  C   UNL     1       5.932  10.235   1.106  1.00  0.00     0.200 A 
ATOM     63  F   UNL     1       8.073   9.654   0.300  1.00  0.00    -0.200 F 
ATOM     64  F   UNL     1       6.480  11.008   2.053  1.00  0.00    -0.200 F 
ENDBRANCH  30  54
BRANCH  42  65
ATOM     65  C   UNL     1       1.007   9.770  -6.629  1.00  0.00     0.064 A 
ATOM     66  C   UNL     1       1.860  10.682  -7.264  1.00  0.00     0.173 A 
ATOM     67  C   UNL     1      -0.367  10.044  -6.603  1.00  0.00     0.173 A 
ATOM     68  F   UNL     1       3.183  10.464  -7.292  1.00  0.00    -0.203 F 
ATOM     69  C   UNL     1       1.353  11.841  -7.841  1.00  0.00     0.198 A 
ATOM     70  C   UNL     1      -0.872  11.190  -7.204  1.00  0.00     0.198 A 
ATOM     71  F   UNL     1      -1.215   9.193  -6.007  1.00  0.00    -0.203 F 
ATOM     72  F   UNL     1       2.187  12.723  -8.409  1.00  0.00    -0.200 F 
ATOM     73  C   UNL     1      -0.012  12.090  -7.817  1.00  0.00     0.200 A 
ATOM     74  F   UNL     1      -2.191  11.426  -7.189  1.00  0.00    -0.200 F 
ATOM     75  F   UNL     1      -0.499  13.203  -8.382  1.00  0.00    -0.200 F 
ENDBRANCH  42  65
ENDBRANCH  16  17
ENDBRANCH   9  11
ENDBRANCH   8   9
ENDBRANCH   7   8
ENDBRANCH   6   7
ENDBRANCH   5   6
ENDBRANCH   4   5
ENDBRANCH   3   4
ENDBRANCH   2   3
ENDBRANCH   1   2
BRANCH   1  76
ATOM     76  C   UNL     1       4.556   1.509   2.989  1.00  0.00     0.188 C 
BRANCH  76  77
ATOM     77  O   UNL     1       5.826   1.921   2.491  1.00  0.00    -0.376 OA
BRANCH  77  78
ATOM     78  C   UNL     1       6.513   2.802   3.380  1.00  0.00     0.202 C 
BRANCH  78  79
ATOM     79  C   UNL     1       7.140   2.174   4.648  1.00  0.00     0.261 C 
BRANCH  79  80
ATOM     80  O   UNL     1       6.444   1.019   5.160  1.00  0.00    -0.463 OA
BRANCH  80  81
ATOM     81  C   UNL     1       5.772   1.111   6.331  1.00  0.00     0.310 C 
ATOM     82  O   UNL     1       5.749   2.131   7.009  1.00  0.00    -0.252 OA
BRANCH  81  83
ATOM     83  C   UNL     1       4.962  -0.170   6.644  1.00  0.00     0.115 C 
ATOM     84  C   UNL     1       3.747   0.295   7.479  1.00  0.00     0.043 C 
ATOM     85  C   UNL     1       5.815  -1.290   7.283  1.00  0.00     0.097 C 
ATOM     86  C   UNL     1       3.089  -0.749   8.311  1.00  0.00    -0.030 C 
ATOM     87  C   UNL     1       5.132  -2.172   8.356  1.00  0.00     0.041 C 
ATOM     88  C   UNL     1       3.722  -1.850   8.716  1.00  0.00    -0.030 C 
BRANCH  85  89
ATOM     89  C   UNL     1       6.518  -2.217   6.262  1.00  0.00     0.227 C 
ATOM     90  O   UNL     1       7.693  -2.007   5.950  1.00  0.00    -0.275 OA
ATOM     91  N   UNL     1       5.846  -3.381   5.843  1.00  0.00    -0.331 N 
ATOM     92  C   UNL     1       6.630  -4.611   5.940  1.00  0.00     0.181 C 
ATOM     93  C   UNL     1       5.085  -3.307   4.602  1.00  0.00     0.181 C 
ATOM     94  C   UNL     1       5.837  -5.884   5.568  1.00  0.00     0.284 C 
ATOM     95  C   UNL     1       4.349  -4.590   4.175  1.00  0.00     0.284 C 
ATOM     96  N   UNL     1       5.118  -5.829   4.293  1.00  0.00    -0.328 N 
ATOM     97  H   UNL     1       4.429  -6.580   4.342  1.00  0.00     0.348 HD
BRANCH  96  98
ATOM     98  C   UNL     1       5.780  -6.350   3.092  1.00  0.00     0.299 C 
BRANCH  98  99
ATOM     99  C   UNL     1       7.109  -5.765   2.655  1.00  0.00     0.010 A 
ATOM    100  C   UNL     1       8.284  -5.960   3.418  1.00  0.00     0.013 A 
ATOM    101  C   UNL     1       7.224  -5.080   1.437  1.00  0.00     0.060 A 
ATOM    102  C   UNL     1       9.497  -5.343   3.086  1.00  0.00     0.051 A 
ATOM    103  C   UNL     1       8.444  -4.515   1.113  1.00  0.00     0.166 A 
ATOM    104  C   UNL     1       9.538  -4.600   1.935  1.00  0.00     0.165 A 
ATOM    105  O   UNL     1       8.716  -3.804  -0.009  1.00  0.00    -0.454 OA
ATOM    106  O   UNL     1      10.604  -3.898   1.464  1.00  0.00    -0.454 OA
ATOM    107  C   UNL     1      10.020  -3.278   0.298  1.00  0.00     0.468 C 
ENDBRANCH  98  99
ENDBRANCH  96  98
ENDBRANCH  85  89
ENDBRANCH  81  83
ENDBRANCH  80  81
ENDBRANCH  79  80
ENDBRANCH  78  79
ENDBRANCH  77  78
ENDBRANCH  76  77
ENDBRANCH   1  76
TORSDOF 23
