REMARK SMILES CCCc1nnc(SCC(=O)OCCOCCOCCOCCOC(=O)c2ccc(-c3c4nc(c(-c5c(F)c(F)c(F)c(F)c5F)c5ccc([nH]5)c(-c5c(F)c(F)c(F)c(F)c5F)c5nc(c(-c6c(F)c(F)c(F)c(F)c6F)c6ccc3[nH]6)C=C5)C=C4)cc2)n1C[C@H]1CCCO1
REMARK SMILES IDX 17 1 16 2 15 3 14 4 13 5 12 6 10 7 11 8 9 9 8 10 7 11 4 12
REMARK SMILES IDX 5 13 90 14 6 15 3 16 2 17 1 18 91 19 92 20 93 21 96 22 94 23
REMARK SMILES IDX 95 24 18 25 19 26 20 27 21 28 22 29 23 30 24 31 25 32 26 33
REMARK SMILES IDX 27 34 28 35 89 36 29 37 88 38 30 39 31 40 32 41 82 42 33 43
REMARK SMILES IDX 87 44 81 45 83 46 34 47 86 48 80 49 79 50 35 52 67 53 47 54
REMARK SMILES IDX 66 55 48 56 51 57 65 58 84 59 49 60 50 61 64 63 85 64 52 65
REMARK SMILES IDX 36 66 37 67 45 68 38 69 39 70 43 71 46 72 40 73 41 74 44 75
REMARK SMILES IDX 42 76 68 77 69 78 77 79 70 80 71 81 75 82 78 83 72 84 73 85
REMARK SMILES IDX 76 86 74 87 53 88 54 89 62 90 55 91 56 92 60 93 63 94 57 95
REMARK SMILES IDX 58 96 61 97 59 98
REMARK H PARENT 83 51 51 62
REMARK Flexibility Score: inf
ROOT
ATOM      1  C   UNL     1       6.481   4.554   4.213  1.00  0.00     0.188 C 
ENDROOT
BRANCH   1   2
ATOM      2  C   UNL     1       7.254   3.525   3.428  1.00  0.00     0.188 C 
BRANCH   2   3
ATOM      3  O   UNL     1       8.640   3.715   3.382  1.00  0.00    -0.376 OA
BRANCH   3   4
ATOM      4  C   UNL     1       9.144   4.835   2.664  1.00  0.00     0.202 C 
BRANCH   4   5
ATOM      5  C   UNL     1       8.310   5.606   1.608  1.00  0.00     0.261 C 
BRANCH   5   6
ATOM      6  O   UNL     1       7.163   6.377   2.071  1.00  0.00    -0.463 OA
BRANCH   6   7
ATOM      7  C   UNL     1       5.976   6.149   1.447  1.00  0.00     0.316 C 
ATOM      8  O   UNL     1       5.857   5.350   0.518  1.00  0.00    -0.251 OA
BRANCH   7   9
ATOM      9  C   UNL     1       4.772   6.972   1.888  1.00  0.00     0.200 C 
BRANCH   9  10
ATOM     10  S   UNL     1       4.434   7.276   3.610  1.00  0.00    -0.074 SA
BRANCH  10  11
ATOM     11  C   UNL     1       3.354   6.099   4.325  1.00  0.00     0.191 A 
ATOM     12  C   UNL     1       2.822   4.210   5.323  1.00  0.00     0.133 A 
ATOM     13  N   UNL     1       2.471   5.199   6.114  1.00  0.00    -0.134 NA
ATOM     14  N   UNL     1       3.160   4.752   4.078  1.00  0.00    -0.303 N 
ATOM     15  N   UNL     1       2.792   6.374   5.487  1.00  0.00    -0.123 NA
BRANCH  12  16
ATOM     16  C   UNL     1       2.979   2.765   5.713  1.00  0.00     0.077 C 
BRANCH  16  17
ATOM     17  C   UNL     1       2.872   2.458   7.215  1.00  0.00     0.005 C 
ATOM     18  C   UNL     1       1.455   2.438   7.760  1.00  0.00     0.004 C 
ENDBRANCH  16  17
ENDBRANCH  12  16
BRANCH  14  19
ATOM     19  C   UNL     1       3.400   3.964   2.891  1.00  0.00     0.158 C 
BRANCH  19  20
ATOM     20  C   UNL     1       2.201   3.715   1.969  1.00  0.00     0.138 C 
ATOM     21  C   UNL     1       1.690   4.916   1.194  1.00  0.00     0.036 C 
ATOM     22  O   UNL     1       2.621   2.772   0.963  1.00  0.00    -0.376 OA
ATOM     23  C   UNL     1       2.439   4.889  -0.120  1.00  0.00     0.031 C 
ATOM     24  C   UNL     1       2.944   3.470  -0.248  1.00  0.00     0.160 C 
ENDBRANCH  19  20
ENDBRANCH  14  19
ENDBRANCH  10  11
ENDBRANCH   9  10
ENDBRANCH   7   9
ENDBRANCH   6   7
ENDBRANCH   5   6
ENDBRANCH   4   5
ENDBRANCH   3   4
ENDBRANCH   2   3
ENDBRANCH   1   2
BRANCH   1  25
ATOM     25  O   UNL     1       7.031   5.804   4.526  1.00  0.00    -0.377 OA
BRANCH  25  26
ATOM     26  C   UNL     1       7.961   6.010   5.559  1.00  0.00     0.188 C 
BRANCH  26  27
ATOM     27  C   UNL     1       8.364   4.870   6.487  1.00  0.00     0.188 C 
BRANCH  27  28
ATOM     28  O   UNL     1       7.402   4.126   7.237  1.00  0.00    -0.376 OA
BRANCH  28  29
ATOM     29  C   UNL     1       6.020   4.462   7.229  1.00  0.00     0.202 C 
BRANCH  29  30
ATOM     30  C   UNL     1       5.444   4.866   8.575  1.00  0.00     0.261 C 
BRANCH  30  31
ATOM     31  O   UNL     1       5.850   6.201   8.802  1.00  0.00    -0.460 OA
BRANCH  31  32
ATOM     32  C   UNL     1       7.169   6.298   9.035  1.00  0.00     0.338 C 
ATOM     33  O   UNL     1       7.879   5.471   9.603  1.00  0.00    -0.246 OA
BRANCH  32  34
ATOM     34  C   UNL     1       7.630   7.620   8.562  1.00  0.00     0.060 A 
ATOM     35  C   UNL     1       8.674   8.051   9.361  1.00  0.00     0.016 A 
ATOM     36  C   UNL     1       6.630   8.492   8.089  1.00  0.00     0.016 A 
ATOM     37  C   UNL     1       8.347   9.070  10.204  1.00  0.00     0.010 A 
ATOM     38  C   UNL     1       6.319   9.545   8.899  1.00  0.00     0.010 A 
ATOM     39  C   UNL     1       7.107   9.707  10.029  1.00  0.00    -0.014 A 
BRANCH  39  40
ATOM     40  C   UNL     1       6.724  10.648  11.039  1.00  0.00     0.031 A 
ATOM     41  C   UNL     1       7.564  11.848  10.952  1.00  0.00     0.074 A 
ATOM     42  C   UNL     1       5.746  10.414  11.926  1.00  0.00     0.049 A 
ATOM     43  N   UNL     1       8.550  12.149  11.724  1.00  0.00    -0.248 NA
ATOM     44  C   UNL     1       7.499  12.623   9.704  1.00  0.00     0.031 C 
ATOM     45  C   UNL     1       4.738   9.356  11.966  1.00  0.00     0.029 A 
ATOM     46  N   UNL     1       5.424  11.197  12.986  1.00  0.00    -0.354 N 
ATOM     47  C   UNL     1       9.124  13.272  11.154  1.00  0.00     0.074 A 
ATOM     48  C   UNL     1       8.594  13.372   9.821  1.00  0.00     0.031 C 
ATOM     49  C   UNL     1       3.774   9.704  12.852  1.00  0.00     0.029 A 
ATOM     50  C   UNL     1       4.170  10.932  13.518  1.00  0.00     0.049 A 
ATOM     51  H   UNL     1       6.025  11.890  13.344  1.00  0.00     0.167 HD
ATOM     52  C   UNL     1       9.788  14.172  11.923  1.00  0.00     0.037 A 
ATOM     53  C   UNL     1       3.514  11.807  14.322  1.00  0.00     0.037 A 
ATOM     54  C   UNL     1      10.137  13.603  13.201  1.00  0.00     0.049 A 
ATOM     55  C   UNL     1       4.563  12.692  14.928  1.00  0.00     0.074 A 
ATOM     56  C   UNL     1      10.961  12.565  13.594  1.00  0.00     0.029 A 
ATOM     57  N   UNL     1       9.284  13.828  14.257  1.00  0.00    -0.354 N 
ATOM     58  N   UNL     1       5.469  12.253  15.764  1.00  0.00    -0.248 NA
ATOM     59  C   UNL     1       4.930  13.905  14.201  1.00  0.00     0.031 C 
ATOM     60  C   UNL     1      10.262  11.915  14.653  1.00  0.00     0.029 A 
ATOM     61  C   UNL     1       9.089  12.629  14.899  1.00  0.00     0.049 A 
ATOM     62  H   UNL     1       8.884  14.692  14.507  1.00  0.00     0.167 HD
ATOM     63  C   UNL     1       6.653  12.867  15.370  1.00  0.00     0.074 A 
ATOM     64  C   UNL     1       6.248  13.914  14.433  1.00  0.00     0.031 C 
ATOM     65  C   UNL     1       7.868  12.283  15.592  1.00  0.00     0.037 A 
BRANCH  52  66
ATOM     66  C   UNL     1       9.769  15.650  11.661  1.00  0.00     0.064 A 
ATOM     67  C   UNL     1      10.597  16.483  12.433  1.00  0.00     0.173 A 
ATOM     68  C   UNL     1       8.779  16.309  10.897  1.00  0.00     0.173 A 
ATOM     69  F   UNL     1      11.564  15.961  13.202  1.00  0.00    -0.203 F 
ATOM     70  C   UNL     1      10.390  17.862  12.500  1.00  0.00     0.198 A 
ATOM     71  C   UNL     1       8.614  17.689  10.921  1.00  0.00     0.198 A 
ATOM     72  F   UNL     1       7.857  15.651  10.185  1.00  0.00    -0.203 F 
ATOM     73  F   UNL     1      11.119  18.600  13.347  1.00  0.00    -0.200 F 
ATOM     74  C   UNL     1       9.395  18.462  11.750  1.00  0.00     0.200 A 
ATOM     75  F   UNL     1       7.634  18.246  10.196  1.00  0.00    -0.200 F 
ATOM     76  F   UNL     1       9.154  19.774  11.861  1.00  0.00    -0.200 F 
ENDBRANCH  52  66
BRANCH  53  77
ATOM     77  C   UNL     1       2.082  12.184  14.220  1.00  0.00     0.064 A 
ATOM     78  C   UNL     1       1.464  12.960  15.214  1.00  0.00     0.173 A 
ATOM     79  C   UNL     1       1.350  12.009  13.026  1.00  0.00     0.173 A 
ATOM     80  F   UNL     1       2.107  13.220  16.362  1.00  0.00    -0.203 F 
ATOM     81  C   UNL     1       0.203  13.537  15.018  1.00  0.00     0.198 A 
ATOM     82  C   UNL     1       0.091  12.577  12.835  1.00  0.00     0.198 A 
ATOM     83  F   UNL     1       1.876  11.361  11.978  1.00  0.00    -0.203 F 
ATOM     84  F   UNL     1      -0.330  14.319  15.967  1.00  0.00    -0.200 F 
ATOM     85  C   UNL     1      -0.478  13.352  13.826  1.00  0.00     0.200 A 
ATOM     86  F   UNL     1      -0.538  12.419  11.662  1.00  0.00    -0.200 F 
ATOM     87  F   UNL     1      -1.658  13.951  13.616  1.00  0.00    -0.200 F 
ENDBRANCH  53  77
BRANCH  65  88
ATOM     88  C   UNL     1       7.908  11.040  16.441  1.00  0.00     0.064 A 
ATOM     89  C   UNL     1       7.289   9.829  16.080  1.00  0.00     0.173 A 
ATOM     90  C   UNL     1       8.743  11.021  17.564  1.00  0.00     0.173 A 
ATOM     91  F   UNL     1       6.568   9.735  14.957  1.00  0.00    -0.203 F 
ATOM     92  C   UNL     1       7.462   8.670  16.836  1.00  0.00     0.198 A 
ATOM     93  C   UNL     1       8.946   9.854  18.296  1.00  0.00     0.198 A 
ATOM     94  F   UNL     1       9.413  12.128  17.920  1.00  0.00    -0.203 F 
ATOM     95  F   UNL     1       6.852   7.532  16.473  1.00  0.00    -0.200 F 
ATOM     96  C   UNL     1       8.297   8.682  17.940  1.00  0.00     0.200 A 
ATOM     97  F   UNL     1       9.799   9.857  19.330  1.00  0.00    -0.200 F 
ATOM     98  F   UNL     1       8.502   7.559  18.642  1.00  0.00    -0.200 F 
ENDBRANCH  65  88
ENDBRANCH  39  40
ENDBRANCH  32  34
ENDBRANCH  31  32
ENDBRANCH  30  31
ENDBRANCH  29  30
ENDBRANCH  28  29
ENDBRANCH  27  28
ENDBRANCH  26  27
ENDBRANCH  25  26
ENDBRANCH   1  25
TORSDOF 26
