REMARK SMILES CC[C@@H]1COCC[N@@H+]1[C@@H]1CC[C@]([NH2+]C(C)C)(C(=O)OCCOCCOCCOCCOC(=O)c2ccc(-c3c4nc(c(-c5c(F)c(F)c(F)c(F)c5F)c5ccc([nH]5)c(-c5c(F)c(F)c(F)c(F)c5F)c5nc(c(-c6c(F)c(F)c(F)c(F)c6F)c6ccc3[nH]6)C=C5)C=C4)cc2)C1
REMARK SMILES IDX 25 1 24 2 23 3 22 4 21 5 20 6 19 7 17 8 18 9 12 10 9 11
REMARK SMILES IDX 10 12 97 13 11 14 8 15 3 16 4 17 5 18 7 19 6 21 2 22 1 23
REMARK SMILES IDX 13 24 14 27 15 28 16 29 26 30 27 31 28 32 29 33 30 34 31 35
REMARK SMILES IDX 32 36 33 37 34 38 35 39 96 40 36 41 95 42 37 43 38 44 39 45
REMARK SMILES IDX 89 46 40 47 94 48 88 49 90 50 41 51 93 52 87 53 86 54 42 56
REMARK SMILES IDX 74 57 54 58 73 59 55 60 58 61 72 62 91 63 56 64 57 65 71 67
REMARK SMILES IDX 92 68 59 69 43 70 44 71 52 72 45 73 46 74 50 75 53 76 47 77
REMARK SMILES IDX 48 78 51 79 49 80 75 81 76 82 84 83 77 84 78 85 82 86 85 87
REMARK SMILES IDX 79 88 80 89 83 90 81 91 60 92 61 93 69 94 62 95 63 96 67 97
REMARK SMILES IDX 70 98 64 99 65 100 68 101 66 102
REMARK H PARENT 8 20 13 25 13 26 90 55 58 66
REMARK Flexibility Score: inf
ROOT
ATOM      1  O   UNL     1      -2.778   0.804   3.901  1.00  0.00    -0.377 OA
ENDROOT
BRANCH   1   2
ATOM      2  C   UNL     1      -3.219   1.773   2.960  1.00  0.00     0.188 C 
BRANCH   2   3
ATOM      3  C   UNL     1      -4.683   1.569   2.480  1.00  0.00     0.188 C 
BRANCH   3   4
ATOM      4  O   UNL     1      -5.351   0.335   2.688  1.00  0.00    -0.376 OA
BRANCH   4   5
ATOM      5  C   UNL     1      -4.607  -0.867   2.725  1.00  0.00     0.202 C 
BRANCH   5   6
ATOM      6  C   UNL     1      -3.557  -1.176   1.640  1.00  0.00     0.261 C 
BRANCH   6   7
ATOM      7  O   UNL     1      -3.004  -0.066   0.909  1.00  0.00    -0.459 OA
BRANCH   7   8
ATOM      8  C   UNL     1      -3.675   0.352  -0.195  1.00  0.00     0.368 C 
ATOM      9  O   UNL     1      -4.721  -0.164  -0.583  1.00  0.00    -0.245 OA
BRANCH   8  10
ATOM     10  C   UNL     1      -2.968   1.549  -0.969  1.00  0.00     0.200 C 
ATOM     11  C   UNL     1      -0.711   2.602  -0.984  1.00  0.00     0.191 C 
ATOM     12  C   UNL     1      -1.582   3.420  -0.055  1.00  0.00     0.072 C 
ATOM     13  C   UNL     1      -1.437   1.244  -1.070  1.00  0.00     0.146 C 
ATOM     14  C   UNL     1      -2.998   2.943  -0.287  1.00  0.00     0.087 C 
BRANCH  11  15
ATOM     15  N   UNL     1       0.743   2.656  -0.723  1.00  0.00    -0.326 N 
ATOM     16  C   UNL     1       1.349   2.284   0.590  1.00  0.00     0.210 C 
ATOM     17  C   UNL     1       1.298   3.391   1.680  1.00  0.00     0.225 C 
ATOM     18  O   UNL     1       1.873   4.618   1.219  1.00  0.00    -0.369 OA
ATOM     19  C   UNL     1       1.311   3.983  -1.096  1.00  0.00     0.291 C 
ATOM     20  H   UNL     1       1.000   1.865  -1.314  1.00  0.00     0.348 HD
ATOM     21  C   UNL     1       1.257   5.059   0.008  1.00  0.00     0.221 C 
BRANCH  16  22
ATOM     22  C   UNL     1       0.990   0.920   1.201  1.00  0.00     0.064 C 
ATOM     23  C   UNL     1       1.395  -0.248   0.309  1.00  0.00     0.010 C 
ENDBRANCH  16  22
ENDBRANCH  11  15
BRANCH  10  24
ATOM     24  N   UNL     1      -3.596   1.533  -2.329  1.00  0.00    -0.330 N 
ATOM     25  H   UNL     1      -4.180   0.698  -2.372  1.00  0.00     0.347 HD
ATOM     26  H   UNL     1      -2.792   1.582  -2.955  1.00  0.00     0.347 HD
BRANCH  24  27
ATOM     27  C   UNL     1      -4.433   2.657  -2.773  1.00  0.00     0.176 C 
ATOM     28  C   UNL     1      -4.949   2.304  -4.171  1.00  0.00     0.075 C 
ATOM     29  C   UNL     1      -5.655   3.020  -1.907  1.00  0.00     0.075 C 
ENDBRANCH  24  27
ENDBRANCH  10  24
ENDBRANCH   8  10
ENDBRANCH   7   8
ENDBRANCH   6   7
ENDBRANCH   5   6
ENDBRANCH   4   5
ENDBRANCH   3   4
ENDBRANCH   2   3
ENDBRANCH   1   2
BRANCH   1  30
ATOM     30  C   UNL     1      -2.834   1.243   5.249  1.00  0.00     0.188 C 
BRANCH  30  31
ATOM     31  C   UNL     1      -4.208   1.753   5.712  1.00  0.00     0.188 C 
BRANCH  31  32
ATOM     32  O   UNL     1      -4.657   2.847   4.923  1.00  0.00    -0.376 OA
BRANCH  32  33
ATOM     33  C   UNL     1      -4.643   4.161   5.442  1.00  0.00     0.202 C 
BRANCH  33  34
ATOM     34  C   UNL     1      -3.277   4.853   5.554  1.00  0.00     0.261 C 
BRANCH  34  35
ATOM     35  O   UNL     1      -2.240   4.109   6.204  1.00  0.00    -0.460 OA
BRANCH  35  36
ATOM     36  C   UNL     1      -2.421   3.788   7.502  1.00  0.00     0.338 C 
ATOM     37  O   UNL     1      -3.364   4.095   8.211  1.00  0.00    -0.246 OA
BRANCH  36  38
ATOM     38  C   UNL     1      -1.380   2.799   7.859  1.00  0.00     0.060 A 
ATOM     39  C   UNL     1      -1.780   1.564   8.389  1.00  0.00     0.016 A 
ATOM     40  C   UNL     1      -0.028   3.059   7.615  1.00  0.00     0.016 A 
ATOM     41  C   UNL     1      -0.827   0.594   8.696  1.00  0.00     0.010 A 
ATOM     42  C   UNL     1       0.929   2.100   7.956  1.00  0.00     0.010 A 
ATOM     43  C   UNL     1       0.535   0.877   8.527  1.00  0.00    -0.014 A 
BRANCH  43  44
ATOM     44  C   UNL     1       1.541   0.006   9.178  1.00  0.00     0.031 A 
ATOM     45  C   UNL     1       2.011   0.393  10.553  1.00  0.00     0.074 A 
ATOM     46  C   UNL     1       2.002  -1.110   8.588  1.00  0.00     0.049 A 
ATOM     47  N   UNL     1       2.901  -0.177  11.323  1.00  0.00    -0.248 NA
ATOM     48  C   UNL     1       1.388   1.593  11.139  1.00  0.00     0.031 C 
ATOM     49  C   UNL     1       1.583  -1.616   7.283  1.00  0.00     0.029 A 
ATOM     50  N   UNL     1       2.936  -2.020   9.019  1.00  0.00    -0.354 N 
ATOM     51  C   UNL     1       2.952   0.599  12.473  1.00  0.00     0.074 A 
ATOM     52  C   UNL     1       2.024   1.693  12.296  1.00  0.00     0.031 C 
ATOM     53  C   UNL     1       2.265  -2.745   7.015  1.00  0.00     0.029 A 
ATOM     54  C   UNL     1       3.191  -3.020   8.113  1.00  0.00     0.049 A 
ATOM     55  H   UNL     1       3.381  -1.961   9.895  1.00  0.00     0.167 HD
ATOM     56  C   UNL     1       3.704   0.412  13.582  1.00  0.00     0.037 A 
ATOM     57  C   UNL     1       4.087  -4.026   8.165  1.00  0.00     0.037 A 
ATOM     58  C   UNL     1       4.623  -0.679  13.757  1.00  0.00     0.049 A 
ATOM     59  C   UNL     1       4.974  -4.161   9.380  1.00  0.00     0.074 A 
ATOM     60  C   UNL     1       5.410  -0.975  14.855  1.00  0.00     0.029 A 
ATOM     61  N   UNL     1       4.886  -1.647  12.799  1.00  0.00    -0.354 N 
ATOM     62  N   UNL     1       4.990  -3.448  10.481  1.00  0.00    -0.248 NA
ATOM     63  C   UNL     1       5.968  -5.245   9.358  1.00  0.00     0.031 C 
ATOM     64  C   UNL     1       6.199  -2.085  14.537  1.00  0.00     0.029 A 
ATOM     65  C   UNL     1       5.852  -2.522  13.268  1.00  0.00     0.049 A 
ATOM     66  H   UNL     1       4.451  -1.704  11.918  1.00  0.00     0.167 HD
ATOM     67  C   UNL     1       5.962  -4.020  11.295  1.00  0.00     0.074 A 
ATOM     68  C   UNL     1       6.506  -5.145  10.565  1.00  0.00     0.031 C 
ATOM     69  C   UNL     1       6.368  -3.649  12.535  1.00  0.00     0.037 A 
BRANCH  56  70
ATOM     70  C   UNL     1       3.595   1.432  14.677  1.00  0.00     0.064 A 
ATOM     71  C   UNL     1       2.448   1.544  15.478  1.00  0.00     0.173 A 
ATOM     72  C   UNL     1       4.673   2.287  14.951  1.00  0.00     0.173 A 
ATOM     73  F   UNL     1       1.382   0.763  15.243  1.00  0.00    -0.203 F 
ATOM     74  C   UNL     1       2.378   2.487  16.500  1.00  0.00     0.198 A 
ATOM     75  C   UNL     1       4.611   3.208  15.994  1.00  0.00     0.198 A 
ATOM     76  F   UNL     1       5.791   2.223  14.213  1.00  0.00    -0.203 F 
ATOM     77  F   UNL     1       1.256   2.607  17.222  1.00  0.00    -0.200 F 
ATOM     78  C   UNL     1       3.462   3.311  16.763  1.00  0.00     0.200 A 
ATOM     79  F   UNL     1       5.665   3.994  16.253  1.00  0.00    -0.200 F 
ATOM     80  F   UNL     1       3.398   4.210  17.754  1.00  0.00    -0.200 F 
ENDBRANCH  56  70
BRANCH  57  81
ATOM     81  C   UNL     1       4.215  -4.984   7.032  1.00  0.00     0.064 A 
ATOM     82  C   UNL     1       3.903  -6.341   7.195  1.00  0.00     0.173 A 
ATOM     83  C   UNL     1       4.704  -4.575   5.783  1.00  0.00     0.173 A 
ATOM     84  F   UNL     1       3.459  -6.789   8.379  1.00  0.00    -0.203 F 
ATOM     85  C   UNL     1       4.103  -7.257   6.162  1.00  0.00     0.198 A 
ATOM     86  C   UNL     1       4.873  -5.485   4.741  1.00  0.00     0.198 A 
ATOM     87  F   UNL     1       5.025  -3.290   5.574  1.00  0.00    -0.203 F 
ATOM     88  F   UNL     1       3.856  -8.558   6.367  1.00  0.00    -0.200 F 
ATOM     89  C   UNL     1       4.583  -6.827   4.935  1.00  0.00     0.200 A 
ATOM     90  F   UNL     1       5.328  -5.064   3.553  1.00  0.00    -0.200 F 
ATOM     91  F   UNL     1       4.781  -7.708   3.945  1.00  0.00    -0.200 F 
ENDBRANCH  57  81
BRANCH  69  92
ATOM     92  C   UNL     1       7.411  -4.496  13.208  1.00  0.00     0.064 A 
ATOM     93  C   UNL     1       8.744  -4.516  12.773  1.00  0.00     0.173 A 
ATOM     94  C   UNL     1       7.078  -5.262  14.337  1.00  0.00     0.173 A 
ATOM     95  F   UNL     1       9.113  -3.812  11.693  1.00  0.00    -0.203 F 
ATOM     96  C   UNL     1       9.698  -5.293  13.426  1.00  0.00     0.198 A 
ATOM     97  C   UNL     1       8.042  -6.009  15.008  1.00  0.00     0.198 A 
ATOM     98  F   UNL     1       5.820  -5.270  14.802  1.00  0.00    -0.203 F 
ATOM     99  F   UNL     1      10.954  -5.338  12.961  1.00  0.00    -0.200 F 
ATOM    100  C   UNL     1       9.348  -6.032  14.547  1.00  0.00     0.200 A 
ATOM    101  F   UNL     1       7.705  -6.705  16.103  1.00  0.00    -0.200 F 
ATOM    102  F   UNL     1      10.271  -6.770  15.179  1.00  0.00    -0.200 F 
ENDBRANCH  69  92
ENDBRANCH  43  44
ENDBRANCH  36  38
ENDBRANCH  35  36
ENDBRANCH  34  35
ENDBRANCH  33  34
ENDBRANCH  32  33
ENDBRANCH  31  32
ENDBRANCH  30  31
ENDBRANCH   1  30
TORSDOF 24
