REMARK SMILES CCn1ccnc1[C@H](F)C(=O)OCCOCCOCCOCCOC(=O)c1ccc(-c2c3nc(c(-c4c(F)c(F)c(F)c(F)c4F)c4ccc([nH]4)c(-c4c(F)c(F)c(F)c(F)c4F)c4nc(c(-c5c(F)c(F)c(F)c(F)c5F)c5ccc2[nH]5)C=C4)C=C3)cc1
REMARK SMILES IDX 18 1 17 2 16 3 15 4 14 5 13 6 12 7 10 8 11 9 8 10 9 11 7 12
REMARK SMILES IDX 3 13 4 14 5 15 6 16 2 17 1 18 19 19 20 20 21 21 22 22 23 23
REMARK SMILES IDX 24 24 25 25 26 26 27 27 28 28 89 29 29 30 88 31 30 32 31 33
REMARK SMILES IDX 32 34 82 35 33 36 87 37 81 38 83 39 34 40 86 41 80 42 79 43
REMARK SMILES IDX 35 45 67 46 47 47 66 48 48 49 51 50 65 51 84 52 49 53 50 54
REMARK SMILES IDX 64 56 85 57 52 58 36 59 37 60 45 61 38 62 39 63 43 64 46 65
REMARK SMILES IDX 40 66 41 67 44 68 42 69 68 70 69 71 77 72 70 73 71 74 75 75
REMARK SMILES IDX 78 76 72 77 73 78 76 79 74 80 53 81 54 82 62 83 55 84 56 85
REMARK SMILES IDX 60 86 63 87 57 88 58 89 61 90 59 91
REMARK H PARENT 83 44 51 55
REMARK Flexibility Score: inf
ROOT
ATOM      1  O   UNL     1       4.950   3.935   0.818  1.00  0.00    -0.377 OA
ENDROOT
BRANCH   1   2
ATOM      2  C   UNL     1       4.184   2.774   1.080  1.00  0.00     0.188 C 
BRANCH   2   3
ATOM      3  C   UNL     1       4.923   1.437   0.844  1.00  0.00     0.188 C 
BRANCH   3   4
ATOM      4  O   UNL     1       6.330   1.380   0.631  1.00  0.00    -0.376 OA
BRANCH   4   5
ATOM      5  C   UNL     1       6.991   2.332  -0.193  1.00  0.00     0.202 C 
BRANCH   5   6
ATOM      6  C   UNL     1       6.561   2.470  -1.652  1.00  0.00     0.261 C 
BRANCH   6   7
ATOM      7  O   UNL     1       5.169   2.772  -1.795  1.00  0.00    -0.461 OA
BRANCH   7   8
ATOM      8  C   UNL     1       4.388   1.783  -2.307  1.00  0.00     0.348 C 
ATOM      9  O   UNL     1       4.808   0.692  -2.687  1.00  0.00    -0.248 OA
BRANCH   8  10
ATOM     10  C   UNL     1       2.910   2.131  -2.211  1.00  0.00     0.341 C 
ATOM     11  F   UNL     1       2.679   3.421  -1.808  1.00  0.00    -0.226 F 
BRANCH  10  12
ATOM     12  C   UNL     1       2.312   1.887  -3.547  1.00  0.00     0.155 A 
ATOM     13  N   UNL     1       1.707   0.729  -3.988  1.00  0.00    -0.332 N 
ATOM     14  C   UNL     1       1.449   0.913  -5.332  1.00  0.00     0.107 A 
ATOM     15  C   UNL     1       1.869   2.180  -5.632  1.00  0.00     0.131 A 
ATOM     16  N   UNL     1       2.380   2.777  -4.525  1.00  0.00    -0.238 NA
BRANCH  13  17
ATOM     17  C   UNL     1       1.314  -0.505  -3.331  1.00  0.00     0.120 C 
ATOM     18  C   UNL     1       1.819  -0.867  -1.945  1.00  0.00     0.027 C 
ENDBRANCH  13  17
ENDBRANCH  10  12
ENDBRANCH   8  10
ENDBRANCH   7   8
ENDBRANCH   6   7
ENDBRANCH   5   6
ENDBRANCH   4   5
ENDBRANCH   3   4
ENDBRANCH   2   3
ENDBRANCH   1   2
BRANCH   1  19
ATOM     19  C   UNL     1       5.425   4.609   1.981  1.00  0.00     0.188 C 
BRANCH  19  20
ATOM     20  C   UNL     1       6.259   3.766   2.971  1.00  0.00     0.188 C 
BRANCH  20  21
ATOM     21  O   UNL     1       5.610   2.563   3.388  1.00  0.00    -0.376 OA
BRANCH  21  22
ATOM     22  C   UNL     1       5.165   2.485   4.735  1.00  0.00     0.202 C 
BRANCH  22  23
ATOM     23  C   UNL     1       3.786   3.106   4.943  1.00  0.00     0.261 C 
BRANCH  23  24
ATOM     24  O   UNL     1       3.703   4.471   4.548  1.00  0.00    -0.460 OA
BRANCH  24  25
ATOM     25  C   UNL     1       4.532   5.322   5.168  1.00  0.00     0.338 C 
ATOM     26  O   UNL     1       5.422   5.046   5.972  1.00  0.00    -0.246 OA
BRANCH  25  27
ATOM     27  C   UNL     1       4.148   6.692   4.841  1.00  0.00     0.060 A 
ATOM     28  C   UNL     1       4.937   7.703   5.392  1.00  0.00     0.016 A 
ATOM     29  C   UNL     1       2.879   6.943   4.295  1.00  0.00     0.016 A 
ATOM     30  C   UNL     1       4.344   8.915   5.645  1.00  0.00     0.010 A 
ATOM     31  C   UNL     1       2.282   8.149   4.563  1.00  0.00     0.010 A 
ATOM     32  C   UNL     1       2.992   9.073   5.324  1.00  0.00    -0.014 A 
BRANCH  32  33
ATOM     33  C   UNL     1       2.323  10.230   5.866  1.00  0.00     0.031 A 
ATOM     34  C   UNL     1       2.550  11.479   5.124  1.00  0.00     0.074 A 
ATOM     35  C   UNL     1       1.512  10.137   6.935  1.00  0.00     0.049 A 
ATOM     36  N   UNL     1       3.109  12.560   5.551  1.00  0.00    -0.248 NA
ATOM     37  C   UNL     1       2.195  11.491   3.699  1.00  0.00     0.031 C 
ATOM     38  C   UNL     1       0.986   8.922   7.562  1.00  0.00     0.029 A 
ATOM     39  N   UNL     1       0.898  11.139   7.620  1.00  0.00    -0.354 N 
ATOM     40  C   UNL     1       3.022  13.459   4.497  1.00  0.00     0.074 A 
ATOM     41  C   UNL     1       2.586  12.713   3.345  1.00  0.00     0.031 C 
ATOM     42  C   UNL     1      -0.024   9.261   8.394  1.00  0.00     0.029 A 
ATOM     43  C   UNL     1      -0.132  10.711   8.439  1.00  0.00     0.049 A 
ATOM     44  H   UNL     1       1.164  12.084   7.542  1.00  0.00     0.167 HD
ATOM     45  C   UNL     1       3.073  14.797   4.716  1.00  0.00     0.037 A 
ATOM     46  C   UNL     1      -1.058  11.499   9.033  1.00  0.00     0.037 A 
ATOM     47  C   UNL     1       3.701  15.113   5.971  1.00  0.00     0.049 A 
ATOM     48  C   UNL     1      -0.525  12.885   9.063  1.00  0.00     0.074 A 
ATOM     49  C   UNL     1       4.944  14.863   6.522  1.00  0.00     0.029 A 
ATOM     50  N   UNL     1       2.907  15.517   7.014  1.00  0.00    -0.354 N 
ATOM     51  N   UNL     1       0.461  13.282   9.818  1.00  0.00    -0.248 NA
ATOM     52  C   UNL     1      -0.856  13.774   7.958  1.00  0.00     0.031 C 
ATOM     53  C   UNL     1       4.714  14.703   7.920  1.00  0.00     0.029 A 
ATOM     54  C   UNL     1       3.349  14.879   8.144  1.00  0.00     0.049 A 
ATOM     55  H   UNL     1       2.155  16.150   6.961  1.00  0.00     0.167 HD
ATOM     56  C   UNL     1       1.132  14.226   9.055  1.00  0.00     0.074 A 
ATOM     57  C   UNL     1       0.207  14.581   7.988  1.00  0.00     0.031 C 
ATOM     58  C   UNL     1       2.476  14.415   9.197  1.00  0.00     0.037 A 
BRANCH  45  59
ATOM     59  C   UNL     1       2.218  15.777   3.959  1.00  0.00     0.064 A 
ATOM     60  C   UNL     1       2.463  17.154   4.102  1.00  0.00     0.173 A 
ATOM     61  C   UNL     1       0.992  15.431   3.347  1.00  0.00     0.173 A 
ATOM     62  F   UNL     1       3.582  17.588   4.701  1.00  0.00    -0.203 F 
ATOM     63  C   UNL     1       1.520  18.110   3.721  1.00  0.00     0.198 A 
ATOM     64  C   UNL     1       0.080  16.390   2.913  1.00  0.00     0.198 A 
ATOM     65  F   UNL     1       0.574  14.163   3.250  1.00  0.00    -0.203 F 
ATOM     66  F   UNL     1       1.739  19.403   3.995  1.00  0.00    -0.200 F 
ATOM     67  C   UNL     1       0.329  17.727   3.130  1.00  0.00     0.200 A 
ATOM     68  F   UNL     1      -1.077  15.996   2.363  1.00  0.00    -0.200 F 
ATOM     69  F   UNL     1      -0.602  18.639   2.821  1.00  0.00    -0.200 F 
ENDBRANCH  45  59
BRANCH  46  70
ATOM     70  C   UNL     1      -2.472  11.184   9.338  1.00  0.00     0.064 A 
ATOM     71  C   UNL     1      -3.215  11.985  10.220  1.00  0.00     0.173 A 
ATOM     72  C   UNL     1      -3.202  10.245   8.582  1.00  0.00     0.173 A 
ATOM     73  F   UNL     1      -2.606  12.936  10.944  1.00  0.00    -0.203 F 
ATOM     74  C   UNL     1      -4.604  11.869  10.322  1.00  0.00     0.198 A 
ATOM     75  C   UNL     1      -4.586  10.118   8.697  1.00  0.00     0.198 A 
ATOM     76  F   UNL     1      -2.603   9.494   7.646  1.00  0.00    -0.203 F 
ATOM     77  F   UNL     1      -5.285  12.698  11.126  1.00  0.00    -0.200 F 
ATOM     78  C   UNL     1      -5.289  10.940   9.557  1.00  0.00     0.200 A 
ATOM     79  F   UNL     1      -5.238   9.237   7.926  1.00  0.00    -0.200 F 
ATOM     80  F   UNL     1      -6.625  10.866   9.615  1.00  0.00    -0.200 F 
ENDBRANCH  46  70
BRANCH  58  81
ATOM     81  C   UNL     1       3.130  13.853  10.426  1.00  0.00     0.064 A 
ATOM     82  C   UNL     1       3.188  12.481  10.725  1.00  0.00     0.173 A 
ATOM     83  C   UNL     1       3.824  14.730  11.270  1.00  0.00     0.173 A 
ATOM     84  F   UNL     1       2.640  11.573   9.906  1.00  0.00    -0.203 F 
ATOM     85  C   UNL     1       3.862  12.019  11.853  1.00  0.00     0.198 A 
ATOM     86  C   UNL     1       4.530  14.261  12.374  1.00  0.00     0.198 A 
ATOM     87  F   UNL     1       3.853  16.044  10.999  1.00  0.00    -0.203 F 
ATOM     88  F   UNL     1       3.886  10.707  12.131  1.00  0.00    -0.200 F 
ATOM     89  C   UNL     1       4.537  12.908  12.674  1.00  0.00     0.200 A 
ATOM     90  F   UNL     1       5.223  15.119  13.136  1.00  0.00    -0.200 F 
ATOM     91  F   UNL     1       5.216  12.459  13.739  1.00  0.00    -0.200 F 
ENDBRANCH  58  81
ENDBRANCH  32  33
ENDBRANCH  25  27
ENDBRANCH  24  25
ENDBRANCH  23  24
ENDBRANCH  22  23
ENDBRANCH  21  22
ENDBRANCH  20  21
ENDBRANCH  19  20
ENDBRANCH   1  19
TORSDOF 22
