REMARK SMILES CS(=O)(=O)c1ccc(/C=C(/C(=O)OCCOCCOCCOCCOC(=O)c2ccc(-c3c4nc(c(-c5c(F)c(F)c(F)c(F)c5F)c5ccc([nH]5)c(-c5c(F)c(F)c(F)c(F)c5F)c5nc(c(-c6c(F)c(F)c(F)c(F)c6F)c6ccc3[nH]6)C=C5)C=C4)cc2)c2ccc(-c3ccc(S(C)(=O)=O)cc3)cc2)cc1
REMARK SMILES IDX 18 1 17 2 16 3 15 4 14 5 13 6 11 7 12 8 10 9 9 10 8 11 5 12
REMARK SMILES IDX 6 13 108 14 7 15 107 16 2 17 1 18 3 19 4 20 91 21 92 22
REMARK SMILES IDX 106 23 93 24 105 25 94 26 95 27 96 28 104 29 97 30 103 31
REMARK SMILES IDX 98 32 99 33 100 34 101 35 102 36 19 37 20 38 21 39 22 40
REMARK SMILES IDX 23 41 24 42 25 43 26 44 27 45 28 46 29 47 90 48 30 49 89 50
REMARK SMILES IDX 31 51 32 52 33 53 83 54 34 55 88 56 82 57 84 58 35 59 87 60
REMARK SMILES IDX 81 61 80 62 36 64 68 65 48 66 67 67 49 68 52 69 66 70 85 71
REMARK SMILES IDX 50 72 51 73 65 75 86 76 53 77 37 78 38 79 46 80 39 81 40 82
REMARK SMILES IDX 44 83 47 84 41 85 42 86 45 87 43 88 69 89 70 90 78 91 71 92
REMARK SMILES IDX 72 93 76 94 79 95 73 96 74 97 77 98 75 99 54 100 55 101
REMARK SMILES IDX 63 102 56 103 57 104 61 105 64 106 58 107 59 108 62 109
REMARK SMILES IDX 60 110
REMARK H PARENT 84 63 52 74
REMARK Flexibility Score: inf
ROOT
ATOM      1  C   UNL     1       0.461  -2.129   9.551  1.00  0.00     0.188 C 
ENDROOT
BRANCH   1   2
ATOM      2  C   UNL     1       1.339  -3.360   9.871  1.00  0.00     0.188 C 
BRANCH   2   3
ATOM      3  O   UNL     1       2.040  -3.250  11.097  1.00  0.00    -0.376 OA
BRANCH   3   4
ATOM      4  C   UNL     1       3.430  -2.991  11.042  1.00  0.00     0.202 C 
BRANCH   4   5
ATOM      5  C   UNL     1       3.922  -1.726  10.319  1.00  0.00     0.261 C 
BRANCH   5   6
ATOM      6  O   UNL     1       3.273  -1.401   9.080  1.00  0.00    -0.460 OA
BRANCH   6   7
ATOM      7  C   UNL     1       3.618  -2.127   7.990  1.00  0.00     0.338 C 
ATOM      8  O   UNL     1       4.475  -2.996   7.967  1.00  0.00    -0.246 OA
BRANCH   7   9
ATOM      9  C   UNL     1       2.692  -1.830   6.844  1.00  0.00     0.067 C 
ATOM     10  C   UNL     1       2.293  -0.554   6.610  1.00  0.00     0.024 C 
BRANCH  10  11
ATOM     11  C   UNL     1       1.575  -0.013   5.425  1.00  0.00    -0.025 A 
ATOM     12  C   UNL     1       0.699   0.941   2.931  1.00  0.00     0.067 A 
ATOM     13  C   UNL     1       0.249  -0.290   3.394  1.00  0.00     0.021 A 
ATOM     14  C   UNL     1       1.466   1.764   3.755  1.00  0.00     0.021 A 
ATOM     15  C   UNL     1       0.655  -0.737   4.653  1.00  0.00     0.009 A 
ATOM     16  C   UNL     1       1.900   1.284   4.997  1.00  0.00     0.009 A 
BRANCH  12  17
ATOM     17  S   UNL     1       0.313   1.428   1.268  1.00  0.00     0.175 S 
ATOM     18  C   UNL     1       1.067   0.170   0.262  1.00  0.00     0.163 C 
ATOM     19  O   UNL     1       1.012   2.671   1.001  1.00  0.00    -0.224 OA
ATOM     20  O   UNL     1      -1.126   1.330   1.125  1.00  0.00    -0.224 OA
ENDBRANCH  12  17
ENDBRANCH  10  11
BRANCH   9  21
ATOM     21  C   UNL     1       2.294  -2.955   5.974  1.00  0.00    -0.011 A 
ATOM     22  C   UNL     1       1.168  -3.743   6.279  1.00  0.00     0.009 A 
ATOM     23  C   UNL     1       2.937  -3.143   4.755  1.00  0.00     0.009 A 
ATOM     24  C   UNL     1       0.661  -4.664   5.359  1.00  0.00     0.009 A 
ATOM     25  C   UNL     1       2.418  -4.052   3.833  1.00  0.00     0.009 A 
ATOM     26  C   UNL     1       1.268  -4.817   4.109  1.00  0.00    -0.018 A 
BRANCH  26  27
ATOM     27  C   UNL     1       0.723  -5.715   3.081  1.00  0.00    -0.018 A 
ATOM     28  C   UNL     1      -0.631  -5.678   2.700  1.00  0.00     0.010 A 
ATOM     29  C   UNL     1       1.587  -6.580   2.388  1.00  0.00     0.010 A 
ATOM     30  C   UNL     1      -1.091  -6.434   1.617  1.00  0.00     0.021 A 
ATOM     31  C   UNL     1       1.139  -7.335   1.307  1.00  0.00     0.021 A 
ATOM     32  C   UNL     1      -0.196  -7.247   0.918  1.00  0.00     0.067 A 
BRANCH  32  33
ATOM     33  S   UNL     1      -0.733  -8.094  -0.546  1.00  0.00     0.175 S 
ATOM     34  C   UNL     1      -1.816  -9.357   0.059  1.00  0.00     0.163 C 
ATOM     35  O   UNL     1      -1.515  -7.148  -1.318  1.00  0.00    -0.224 OA
ATOM     36  O   UNL     1       0.426  -8.749  -1.125  1.00  0.00    -0.224 OA
ENDBRANCH  32  33
ENDBRANCH  26  27
ENDBRANCH   9  21
ENDBRANCH   7   9
ENDBRANCH   6   7
ENDBRANCH   5   6
ENDBRANCH   4   5
ENDBRANCH   3   4
ENDBRANCH   2   3
ENDBRANCH   1   2
BRANCH   1  37
ATOM     37  O   UNL     1       0.528  -1.003  10.411  1.00  0.00    -0.377 OA
BRANCH  37  38
ATOM     38  C   UNL     1       0.428  -1.193  11.817  1.00  0.00     0.188 C 
BRANCH  38  39
ATOM     39  C   UNL     1      -0.275  -2.437  12.414  1.00  0.00     0.188 C 
BRANCH  39  40
ATOM     40  O   UNL     1      -0.967  -3.248  11.478  1.00  0.00    -0.376 OA
BRANCH  40  41
ATOM     41  C   UNL     1      -2.381  -3.192  11.461  1.00  0.00     0.202 C 
BRANCH  41  42
ATOM     42  C   UNL     1      -3.020  -1.854  11.059  1.00  0.00     0.261 C 
BRANCH  42  43
ATOM     43  O   UNL     1      -2.586  -0.706  11.803  1.00  0.00    -0.460 OA
BRANCH  43  44
ATOM     44  C   UNL     1      -2.892  -0.682  13.115  1.00  0.00     0.338 C 
ATOM     45  O   UNL     1      -3.520  -1.522  13.743  1.00  0.00    -0.246 OA
BRANCH  44  46
ATOM     46  C   UNL     1      -2.170   0.445  13.734  1.00  0.00     0.060 A 
ATOM     47  C   UNL     1      -1.274   0.178  14.778  1.00  0.00     0.016 A 
ATOM     48  C   UNL     1      -2.382   1.754  13.297  1.00  0.00     0.016 A 
ATOM     49  C   UNL     1      -0.636   1.227  15.432  1.00  0.00     0.010 A 
ATOM     50  C   UNL     1      -1.759   2.809  13.969  1.00  0.00     0.010 A 
ATOM     51  C   UNL     1      -0.927   2.550  15.073  1.00  0.00    -0.014 A 
BRANCH  51  52
ATOM     52  C   UNL     1      -0.565   3.634  16.016  1.00  0.00     0.031 A 
ATOM     53  C   UNL     1      -1.622   4.120  16.972  1.00  0.00     0.074 A 
ATOM     54  C   UNL     1       0.686   4.119  16.083  1.00  0.00     0.049 A 
ATOM     55  N   UNL     1      -1.546   5.027  17.912  1.00  0.00    -0.248 NA
ATOM     56  C   UNL     1      -2.949   3.493  16.850  1.00  0.00     0.031 C 
ATOM     57  C   UNL     1       1.803   3.697  15.242  1.00  0.00     0.029 A 
ATOM     58  N   UNL     1       1.224   5.075  16.907  1.00  0.00    -0.354 N 
ATOM     59  C   UNL     1      -2.809   5.079  18.487  1.00  0.00     0.074 A 
ATOM     60  C   UNL     1      -3.645   4.147  17.765  1.00  0.00     0.031 C 
ATOM     61  C   UNL     1       2.898   4.394  15.594  1.00  0.00     0.029 A 
ATOM     62  C   UNL     1       2.550   5.327  16.665  1.00  0.00     0.049 A 
ATOM     63  H   UNL     1       0.707   5.537  17.607  1.00  0.00     0.167 HD
ATOM     64  C   UNL     1      -3.232   5.826  19.535  1.00  0.00     0.037 A 
ATOM     65  C   UNL     1       3.380   6.221  17.237  1.00  0.00     0.037 A 
ATOM     66  C   UNL     1      -2.397   6.755  20.249  1.00  0.00     0.049 A 
ATOM     67  C   UNL     1       2.865   7.093  18.355  1.00  0.00     0.074 A 
ATOM     68  C   UNL     1      -2.724   7.555  21.330  1.00  0.00     0.029 A 
ATOM     69  N   UNL     1      -1.069   7.016  19.946  1.00  0.00    -0.354 N 
ATOM     70  N   UNL     1       1.678   7.119  18.913  1.00  0.00    -0.248 NA
ATOM     71  C   UNL     1       3.816   8.053  18.933  1.00  0.00     0.031 C 
ATOM     72  C   UNL     1      -1.613   8.345  21.640  1.00  0.00     0.029 A 
ATOM     73  C   UNL     1      -0.570   7.986  20.802  1.00  0.00     0.049 A 
ATOM     74  H   UNL     1      -0.556   6.577  19.229  1.00  0.00     0.167 HD
ATOM     75  C   UNL     1       1.749   8.069  19.925  1.00  0.00     0.074 A 
ATOM     76  C   UNL     1       3.104   8.579  19.918  1.00  0.00     0.031 C 
ATOM     77  C   UNL     1       0.783   8.483  20.783  1.00  0.00     0.037 A 
BRANCH  64  78
ATOM     78  C   UNL     1      -4.670   5.690  19.945  1.00  0.00     0.064 A 
ATOM     79  C   UNL     1      -5.167   4.517  20.535  1.00  0.00     0.173 A 
ATOM     80  C   UNL     1      -5.563   6.757  19.759  1.00  0.00     0.173 A 
ATOM     81  F   UNL     1      -4.362   3.459  20.719  1.00  0.00    -0.203 F 
ATOM     82  C   UNL     1      -6.508   4.408  20.896  1.00  0.00     0.198 A 
ATOM     83  C   UNL     1      -6.894   6.657  20.153  1.00  0.00     0.198 A 
ATOM     84  F   UNL     1      -5.142   7.901  19.199  1.00  0.00    -0.203 F 
ATOM     85  F   UNL     1      -6.972   3.258  21.405  1.00  0.00    -0.200 F 
ATOM     86  C   UNL     1      -7.368   5.480  20.712  1.00  0.00     0.200 A 
ATOM     87  F   UNL     1      -7.720   7.699  19.988  1.00  0.00    -0.200 F 
ATOM     88  F   UNL     1      -8.656   5.376  21.067  1.00  0.00    -0.200 F 
ENDBRANCH  64  78
BRANCH  65  89
ATOM     89  C   UNL     1       4.786   6.346  16.764  1.00  0.00     0.064 A 
ATOM     90  C   UNL     1       5.865   6.011  17.594  1.00  0.00     0.173 A 
ATOM     91  C   UNL     1       5.079   6.838  15.483  1.00  0.00     0.173 A 
ATOM     92  F   UNL     1       5.639   5.560  18.837  1.00  0.00    -0.203 F 
ATOM     93  C   UNL     1       7.181   6.189  17.172  1.00  0.00     0.198 A 
ATOM     94  C   UNL     1       6.395   6.983  15.050  1.00  0.00     0.198 A 
ATOM     95  F   UNL     1       4.085   7.176  14.649  1.00  0.00    -0.203 F 
ATOM     96  F   UNL     1       8.193   5.917  18.008  1.00  0.00    -0.200 F 
ATOM     97  C   UNL     1       7.445   6.669  15.899  1.00  0.00     0.200 A 
ATOM     98  F   UNL     1       6.645   7.435  13.813  1.00  0.00    -0.200 F 
ATOM     99  F   UNL     1       8.711   6.840  15.493  1.00  0.00    -0.200 F 
ENDBRANCH  65  89
BRANCH  77 100
ATOM    100  C   UNL     1       1.173   9.506  21.816  1.00  0.00     0.064 A 
ATOM    101  C   UNL     1       1.509  10.823  21.468  1.00  0.00     0.173 A 
ATOM    102  C   UNL     1       1.204   9.162  23.177  1.00  0.00     0.173 A 
ATOM    103  F   UNL     1       1.504  11.205  20.182  1.00  0.00    -0.203 F 
ATOM    104  C   UNL     1       1.912  11.740  22.436  1.00  0.00     0.198 A 
ATOM    105  C   UNL     1       1.567  10.094  24.146  1.00  0.00     0.198 A 
ATOM    106  F   UNL     1       0.879   7.922  23.570  1.00  0.00    -0.203 F 
ATOM    107  F   UNL     1       2.303  12.969  22.070  1.00  0.00    -0.200 F 
ATOM    108  C   UNL     1       1.936  11.377  23.774  1.00  0.00     0.200 A 
ATOM    109  F   UNL     1       1.570   9.745  25.440  1.00  0.00    -0.200 F 
ATOM    110  F   UNL     1       2.328  12.259  24.703  1.00  0.00    -0.200 F 
ENDBRANCH  77 100
ENDBRANCH  51  52
ENDBRANCH  44  46
ENDBRANCH  43  44
ENDBRANCH  42  43
ENDBRANCH  41  42
ENDBRANCH  40  41
ENDBRANCH  39  40
ENDBRANCH  38  39
ENDBRANCH  37  38
ENDBRANCH   1  37
TORSDOF 25
