REMARK SMILES CC[C@H](C)[C@H](NC(=O)[C@@H](C)Oc1ccc2c(C)c(C)c(=O)oc2c1C)C(=O)OCCOCCOCCOCCOC(=O)c1ccc(-c2c3nc(c(-c4c(F)c(F)c(F)c(F)c4F)c4ccc([nH]4)c(-c4c(F)c(F)c(F)c(F)c4F)c4nc(c(-c5c(F)c(F)c(F)c(F)c5F)c5ccc2[nH]5)C=C4)C=C3)cc1
REMARK SMILES IDX 33 1 32 2 31 3 30 4 29 5 28 6 26 7 27 8 5 9 3 10 4 11 2 12
REMARK SMILES IDX 1 13 6 14 7 15 8 17 9 18 10 19 11 20 12 21 13 22 24 23 14 24
REMARK SMILES IDX 23 25 25 26 15 27 22 28 16 29 20 30 17 31 18 32 21 33 19 34
REMARK SMILES IDX 34 35 35 36 36 37 37 38 38 39 39 40 40 41 41 42 42 43 43 44
REMARK SMILES IDX 44 45 105 46 45 47 104 48 46 49 47 50 48 51 98 52 49 53
REMARK SMILES IDX 103 54 97 55 99 56 50 57 102 58 96 59 95 60 51 62 83 63
REMARK SMILES IDX 63 64 82 65 64 66 67 67 81 68 100 69 65 70 66 71 80 73
REMARK SMILES IDX 101 74 68 75 52 76 53 77 61 78 54 79 55 80 59 81 62 82 56 83
REMARK SMILES IDX 57 84 60 85 58 86 84 87 85 88 93 89 86 90 87 91 91 92 94 93
REMARK SMILES IDX 88 94 89 95 92 96 90 97 69 98 70 99 78 100 71 101 72 102
REMARK SMILES IDX 76 103 79 104 73 105 74 106 77 107 75 108
REMARK H PARENT 6 16 99 61 67 72
REMARK Flexibility Score: inf
ROOT
ATOM      1  C   UNL     1       3.201  -2.829   2.515  1.00  0.00     0.188 C 
ENDROOT
BRANCH   1   2
ATOM      2  C   UNL     1       4.044  -3.464   3.999  1.00  0.00     0.188 C 
BRANCH   2   3
ATOM      3  O   UNL     1       3.881  -2.786   5.243  1.00  0.00    -0.376 OA
BRANCH   3   4
ATOM      4  C   UNL     1       3.995  -3.396   6.565  1.00  0.00     0.202 C 
BRANCH   4   5
ATOM      5  C   UNL     1       3.044  -2.616   7.580  1.00  0.00     0.261 C 
BRANCH   5   6
ATOM      6  O   UNL     1       2.525  -1.423   6.974  1.00  0.00    -0.462 OA
BRANCH   6   7
ATOM      7  C   UNL     1       3.555  -0.688   6.480  1.00  0.00     0.328 C 
ATOM      8  O   UNL     1       4.557  -0.436   7.142  1.00  0.00    -0.250 OA
BRANCH   7   9
ATOM      9  C   UNL     1       3.382  -0.368   4.971  1.00  0.00     0.195 C 
BRANCH   9  10
ATOM     10  C   UNL     1       3.627   1.166   4.808  1.00  0.00     0.019 C 
ATOM     11  C   UNL     1       2.818   1.971   5.833  1.00  0.00     0.010 C 
BRANCH  10  12
ATOM     12  C   UNL     1       5.161   1.453   4.820  1.00  0.00     0.002 C 
ATOM     13  C   UNL     1       5.611   2.732   5.508  1.00  0.00     0.004 C 
ENDBRANCH  10  12
ENDBRANCH   9  10
BRANCH   9  14
ATOM     14  N   UNL     1       2.083  -0.824   4.378  1.00  0.00    -0.339 N 
ATOM     15  C   UNL     1       1.355  -1.903   3.969  1.00  0.00     0.261 C 
ATOM     16  H   UNL     1       1.535  -0.022   4.220  1.00  0.00     0.164 HD
ATOM     17  O   UNL     1       0.249  -1.415   3.619  1.00  0.00    -0.271 OA
BRANCH  15  18
ATOM     18  C   UNL     1       1.592  -3.797   3.876  1.00  0.00     0.258 C 
ATOM     19  C   UNL     1       1.478  -4.245   5.412  1.00  0.00     0.064 C 
BRANCH  18  20
ATOM     20  O   UNL     1       1.515  -4.999   2.276  1.00  0.00    -0.480 OA
BRANCH  20  21
ATOM     21  C   UNL     1       1.428  -6.839   1.868  1.00  0.00     0.127 A 
ATOM     22  C   UNL     1       1.831  -7.848   2.865  1.00  0.00     0.047 A 
ATOM     23  C   UNL     1       1.663  -7.457   0.446  1.00  0.00     0.035 A 
ATOM     24  C   UNL     1       2.827  -8.864   2.575  1.00  0.00     0.016 A 
ATOM     25  C   UNL     1       2.464  -8.627   0.298  1.00  0.00     0.145 A 
ATOM     26  C   UNL     1       1.147  -7.205  -1.031  1.00  0.00     0.052 C 
ATOM     27  C   UNL     1       3.270  -9.127   1.278  1.00  0.00     0.021 A 
ATOM     28  O   UNL     1       2.466  -9.281  -0.952  1.00  0.00    -0.422 OA
ATOM     29  C   UNL     1       4.564  -9.677   0.777  1.00  0.00    -0.030 A 
ATOM     30  C   UNL     1       3.685  -9.495  -1.525  1.00  0.00     0.339 A 
ATOM     31  C   UNL     1       5.691  -9.799   1.759  1.00  0.00     0.045 C 
ATOM     32  C   UNL     1       4.768  -9.814  -0.561  1.00  0.00     0.038 A 
ATOM     33  O   UNL     1       3.840  -9.456  -2.739  1.00  0.00    -0.246 OA
ATOM     34  C   UNL     1       6.048 -10.221  -1.241  1.00  0.00     0.052 C 
ENDBRANCH  20  21
ENDBRANCH  18  20
ENDBRANCH  15  18
ENDBRANCH   9  14
ENDBRANCH   7   9
ENDBRANCH   6   7
ENDBRANCH   5   6
ENDBRANCH   4   5
ENDBRANCH   3   4
ENDBRANCH   2   3
ENDBRANCH   1   2
BRANCH   1  35
ATOM     35  O   UNL     1       1.602  -2.861   1.919  1.00  0.00    -0.377 OA
BRANCH  35  36
ATOM     36  C   UNL     1       0.085  -3.736   2.361  1.00  0.00     0.188 C 
BRANCH  36  37
ATOM     37  C   UNL     1       0.234  -5.424   3.451  1.00  0.00     0.188 C 
BRANCH  37  38
ATOM     38  O   UNL     1       2.098  -5.829   3.743  1.00  0.00    -0.376 OA
BRANCH  38  39
ATOM     39  C   UNL     1       3.262  -5.676   2.264  1.00  0.00     0.202 C 
BRANCH  39  40
ATOM     40  C   UNL     1       2.573  -5.133   0.537  1.00  0.00     0.261 C 
BRANCH  40  41
ATOM     41  O   UNL     1       0.828  -4.961   0.169  1.00  0.00    -0.460 OA
BRANCH  41  42
ATOM     42  C   UNL     1      -0.447  -5.657   0.359  1.00  0.00     0.338 C 
ATOM     43  O   UNL     1      -0.688  -6.842   0.623  1.00  0.00    -0.246 OA
BRANCH  42  44
ATOM     44  C   UNL     1      -1.748  -4.979   0.451  1.00  0.00     0.060 A 
ATOM     45  C   UNL     1      -2.463  -5.189   1.669  1.00  0.00     0.016 A 
ATOM     46  C   UNL     1      -2.324  -4.300  -0.600  1.00  0.00     0.016 A 
ATOM     47  C   UNL     1      -3.691  -4.624   1.893  1.00  0.00     0.010 A 
ATOM     48  C   UNL     1      -3.610  -3.804  -0.410  1.00  0.00     0.010 A 
ATOM     49  C   UNL     1      -4.272  -3.961   0.827  1.00  0.00    -0.014 A 
BRANCH  49  50
ATOM     50  C   UNL     1      -5.666  -3.555   0.970  1.00  0.00     0.031 A 
ATOM     51  C   UNL     1      -6.715  -4.526   0.553  1.00  0.00     0.074 A 
ATOM     52  C   UNL     1      -5.923  -2.339   1.466  1.00  0.00     0.049 A 
ATOM     53  N   UNL     1      -7.994  -4.334   0.400  1.00  0.00    -0.248 NA
ATOM     54  C   UNL     1      -6.265  -5.899   0.259  1.00  0.00     0.031 C 
ATOM     55  C   UNL     1      -4.917  -1.413   1.991  1.00  0.00     0.029 A 
ATOM     56  N   UNL     1      -7.103  -1.665   1.579  1.00  0.00    -0.354 N 
ATOM     57  C   UNL     1      -8.498  -5.551  -0.031  1.00  0.00     0.074 A 
ATOM     58  C   UNL     1      -7.393  -6.476  -0.126  1.00  0.00     0.031 C 
ATOM     59  C   UNL     1      -5.522  -0.262   2.321  1.00  0.00     0.029 A 
ATOM     60  C   UNL     1      -6.939  -0.368   1.991  1.00  0.00     0.049 A 
ATOM     61  H   UNL     1      -7.980  -2.068   1.384  1.00  0.00     0.167 HD
ATOM     62  C   UNL     1      -9.783  -5.844  -0.323  1.00  0.00     0.037 A 
ATOM     63  C   UNL     1      -7.846   0.621   2.041  1.00  0.00     0.037 A 
ATOM     64  C   UNL     1     -10.836  -4.869  -0.233  1.00  0.00     0.049 A 
ATOM     65  C   UNL     1      -9.252   0.295   1.617  1.00  0.00     0.074 A 
ATOM     66  C   UNL     1     -12.178  -5.014  -0.520  1.00  0.00     0.029 A 
ATOM     67  N   UNL     1     -10.646  -3.551   0.174  1.00  0.00    -0.354 N 
ATOM     68  N   UNL     1      -9.741  -0.847   1.188  1.00  0.00    -0.248 NA
ATOM     69  C   UNL     1     -10.230   1.383   1.681  1.00  0.00     0.031 C 
ATOM     70  C   UNL     1     -12.791  -3.771  -0.332  1.00  0.00     0.029 A 
ATOM     71  C   UNL     1     -11.844  -2.865   0.128  1.00  0.00     0.049 A 
ATOM     72  H   UNL     1      -9.784  -3.165   0.453  1.00  0.00     0.167 HD
ATOM     73  C   UNL     1     -11.088  -0.625   0.953  1.00  0.00     0.074 A 
ATOM     74  C   UNL     1     -11.340   0.762   1.302  1.00  0.00     0.031 C 
ATOM     75  C   UNL     1     -12.035  -1.480   0.491  1.00  0.00     0.037 A 
BRANCH  62  76
ATOM     76  C   UNL     1     -10.094  -7.233  -0.791  1.00  0.00     0.064 A 
ATOM     77  C   UNL     1     -10.011  -8.337   0.071  1.00  0.00     0.173 A 
ATOM     78  C   UNL     1     -10.493  -7.467  -2.116  1.00  0.00     0.173 A 
ATOM     79  F   UNL     1      -9.607  -8.174   1.341  1.00  0.00    -0.203 F 
ATOM     80  C   UNL     1     -10.302  -9.623  -0.378  1.00  0.00     0.198 A 
ATOM     81  C   UNL     1     -10.812  -8.750  -2.554  1.00  0.00     0.198 A 
ATOM     82  F   UNL     1     -10.577  -6.450  -2.986  1.00  0.00    -0.203 F 
ATOM     83  F   UNL     1     -10.175 -10.667   0.453  1.00  0.00    -0.200 F 
ATOM     84  C   UNL     1     -10.712  -9.827  -1.687  1.00  0.00     0.200 A 
ATOM     85  F   UNL     1     -11.215  -8.944  -3.817  1.00  0.00    -0.200 F 
ATOM     86  F   UNL     1     -11.005 -11.063  -2.114  1.00  0.00    -0.200 F 
ENDBRANCH  62  76
BRANCH  63  87
ATOM     87  C   UNL     1      -7.440   1.965   2.517  1.00  0.00     0.064 A 
ATOM     88  C   UNL     1      -7.882   2.441   3.757  1.00  0.00     0.173 A 
ATOM     89  C   UNL     1      -6.550   2.770   1.788  1.00  0.00     0.173 A 
ATOM     90  F   UNL     1      -8.741   1.712   4.485  1.00  0.00    -0.203 F 
ATOM     91  C   UNL     1      -7.453   3.671   4.251  1.00  0.00     0.198 A 
ATOM     92  C   UNL     1      -6.102   3.989   2.295  1.00  0.00     0.198 A 
ATOM     93  F   UNL     1      -6.089   2.357   0.599  1.00  0.00    -0.203 F 
ATOM     94  F   UNL     1      -7.909   4.111   5.432  1.00  0.00    -0.200 F 
ATOM     95  C   UNL     1      -6.556   4.440   3.524  1.00  0.00     0.200 A 
ATOM     96  F   UNL     1      -5.221   4.721   1.597  1.00  0.00    -0.200 F 
ATOM     97  F   UNL     1      -6.130   5.614   4.010  1.00  0.00    -0.200 F 
ENDBRANCH  63  87
BRANCH  75  98
ATOM     98  C   UNL     1     -13.426  -0.941   0.357  1.00  0.00     0.064 A 
ATOM     99  C   UNL     1     -13.768  -0.050  -0.669  1.00  0.00     0.173 A 
ATOM    100  C   UNL     1     -14.444  -1.392   1.211  1.00  0.00     0.173 A 
ATOM    101  F   UNL     1     -12.824   0.417  -1.501  1.00  0.00    -0.203 F 
ATOM    102  C   UNL     1     -15.080   0.383  -0.827  1.00  0.00     0.198 A 
ATOM    103  C   UNL     1     -15.760  -0.984   1.028  1.00  0.00     0.198 A 
ATOM    104  F   UNL     1     -14.165  -2.255   2.200  1.00  0.00    -0.203 F 
ATOM    105  F   UNL     1     -15.380   1.264  -1.791  1.00  0.00    -0.200 F 
ATOM    106  C   UNL     1     -16.076  -0.094   0.013  1.00  0.00     0.200 A 
ATOM    107  F   UNL     1     -16.724  -1.462   1.827  1.00  0.00    -0.200 F 
ATOM    108  F   UNL     1     -17.343   0.307  -0.156  1.00  0.00    -0.200 F 
ENDBRANCH  75  98
ENDBRANCH  49  50
ENDBRANCH  42  44
ENDBRANCH  41  42
ENDBRANCH  40  41
ENDBRANCH  39  40
ENDBRANCH  38  39
ENDBRANCH  37  38
ENDBRANCH  36  37
ENDBRANCH  35  36
ENDBRANCH   1  35
TORSDOF 26
