REMARK SMILES [NH3+]Cc1c(-c2ccccc2)c(C(=O)OCCOCCOCCOCCOC(=O)c2ccc(-c3c4nc(c(-c5c(F)c(F)c(F)c(F)c5F)c5ccc([nH]5)c(-c5c(F)c(F)c(F)c(F)c5F)c5nc(c(-c6c(F)c(F)c(F)c(F)c6F)c6ccc3[nH]6)C=C5)C=C4)cc2)c2ccccn12
REMARK SMILES IDX 20 1 19 2 18 3 17 4 16 5 15 6 14 7 12 8 13 9 11 10 3 11 4 12
REMARK SMILES IDX 97 13 92 14 96 15 93 16 95 17 94 18 2 19 1 20 5 24 6 25
REMARK SMILES IDX 10 26 7 27 9 28 8 29 21 30 22 31 23 32 24 33 25 34 26 35
REMARK SMILES IDX 27 36 28 37 29 38 30 39 91 40 31 41 90 42 32 43 33 44 34 45
REMARK SMILES IDX 84 46 35 47 89 48 83 49 85 50 36 51 88 52 82 53 81 54 37 56
REMARK SMILES IDX 69 57 49 58 68 59 50 60 53 61 67 62 86 63 51 64 52 65 66 67
REMARK SMILES IDX 87 68 54 69 38 70 39 71 47 72 40 73 41 74 45 75 48 76 42 77
REMARK SMILES IDX 43 78 46 79 44 80 70 81 71 82 79 83 72 84 73 85 77 86 80 87
REMARK SMILES IDX 74 88 75 89 78 90 76 91 55 92 56 93 64 94 57 95 58 96 62 97
REMARK SMILES IDX 65 98 59 99 60 100 63 101 61 102
REMARK H PARENT 1 21 1 22 1 23 85 55 53 66
REMARK Flexibility Score: inf
ROOT
ATOM      1  O   UNL     1      -0.093  -0.654   7.713  1.00  0.00    -0.377 OA
ENDROOT
BRANCH   1   2
ATOM      2  C   UNL     1       0.403  -1.522   6.704  1.00  0.00     0.188 C 
BRANCH   2   3
ATOM      3  C   UNL     1       1.509  -2.541   7.024  1.00  0.00     0.188 C 
BRANCH   3   4
ATOM      4  O   UNL     1       2.355  -2.160   8.107  1.00  0.00    -0.376 OA
BRANCH   4   5
ATOM      5  C   UNL     1       3.718  -1.946   7.756  1.00  0.00     0.202 C 
BRANCH   5   6
ATOM      6  C   UNL     1       3.973  -0.490   7.367  1.00  0.00     0.261 C 
BRANCH   6   7
ATOM      7  O   UNL     1       3.216  -0.055   6.228  1.00  0.00    -0.460 OA
BRANCH   7   8
ATOM      8  C   UNL     1       3.509  -0.635   5.031  1.00  0.00     0.341 C 
ATOM      9  O   UNL     1       4.420  -1.437   4.865  1.00  0.00    -0.246 OA
BRANCH   8  10
ATOM     10  C   UNL     1       2.557  -0.261   3.992  1.00  0.00     0.093 A 
ATOM     11  C   UNL     1       1.142  -0.358   2.196  1.00  0.00     0.086 A 
ATOM     12  C   UNL     1       1.996  -1.114   2.989  1.00  0.00     0.024 A 
ATOM     13  N   UNL     1       1.088   0.917   2.738  1.00  0.00    -0.314 N 
ATOM     14  C   UNL     1       1.934   0.971   3.844  1.00  0.00     0.061 A 
ATOM     15  C   UNL     1       0.327   2.017   2.322  1.00  0.00     0.092 A 
ATOM     16  C   UNL     1       1.976   2.201   4.575  1.00  0.00     0.027 A 
ATOM     17  C   UNL     1       0.382   3.170   3.007  1.00  0.00     0.018 A 
ATOM     18  C   UNL     1       1.229   3.247   4.180  1.00  0.00     0.004 A 
BRANCH  11  19
ATOM     19  C   UNL     1       0.344  -0.760   1.000  1.00  0.00     0.315 C 
BRANCH  19  20
ATOM     20  N   UNL     1       1.011  -0.312  -0.214  1.00  0.00    -0.353 N 
ATOM     21  H   UNL     1       0.461  -0.590  -1.027  1.00  0.00     0.344 HD
ATOM     22  H   UNL     1       1.937  -0.736  -0.270  1.00  0.00     0.344 HD
ATOM     23  H   UNL     1       1.103   0.704  -0.197  1.00  0.00     0.344 HD
ENDBRANCH  19  20
ENDBRANCH  11  19
BRANCH  12  24
ATOM     24  C   UNL     1       2.111  -2.558   2.870  1.00  0.00    -0.015 A 
ATOM     25  C   UNL     1       1.130  -3.373   3.455  1.00  0.00     0.009 A 
ATOM     26  C   UNL     1       3.189  -3.145   2.209  1.00  0.00     0.009 A 
ATOM     27  C   UNL     1       1.239  -4.762   3.401  1.00  0.00     0.001 A 
ATOM     28  C   UNL     1       3.288  -4.538   2.141  1.00  0.00     0.001 A 
ATOM     29  C   UNL     1       2.319  -5.344   2.741  1.00  0.00     0.000 A 
ENDBRANCH  12  24
ENDBRANCH   8  10
ENDBRANCH   7   8
ENDBRANCH   6   7
ENDBRANCH   5   6
ENDBRANCH   4   5
ENDBRANCH   3   4
ENDBRANCH   2   3
ENDBRANCH   1   2
BRANCH   1  30
ATOM     30  C   UNL     1      -0.062  -1.070   9.067  1.00  0.00     0.188 C 
BRANCH  30  31
ATOM     31  C   UNL     1      -0.502  -2.504   9.402  1.00  0.00     0.188 C 
BRANCH  31  32
ATOM     32  O   UNL     1      -1.208  -3.162   8.352  1.00  0.00    -0.376 OA
BRANCH  32  33
ATOM     33  C   UNL     1      -2.613  -3.287   8.536  1.00  0.00     0.202 C 
BRANCH  33  34
ATOM     34  C   UNL     1      -3.388  -2.006   8.210  1.00  0.00     0.261 C 
BRANCH  34  35
ATOM     35  O   UNL     1      -3.141  -0.919   9.117  1.00  0.00    -0.460 OA
BRANCH  35  36
ATOM     36  C   UNL     1      -3.470  -1.119  10.410  1.00  0.00     0.338 C 
ATOM     37  O   UNL     1      -4.013  -2.093  10.899  1.00  0.00    -0.246 OA
BRANCH  36  38
ATOM     38  C   UNL     1      -2.893  -0.013  11.194  1.00  0.00     0.060 A 
ATOM     39  C   UNL     1      -2.044  -0.325  12.262  1.00  0.00     0.016 A 
ATOM     40  C   UNL     1      -3.182   1.316  10.873  1.00  0.00     0.016 A 
ATOM     41  C   UNL     1      -1.513   0.699  13.043  1.00  0.00     0.010 A 
ATOM     42  C   UNL     1      -2.666   2.340  11.667  1.00  0.00     0.010 A 
ATOM     43  C   UNL     1      -1.861   2.031  12.775  1.00  0.00    -0.014 A 
BRANCH  43  44
ATOM     44  C   UNL     1      -1.568   3.069  13.789  1.00  0.00     0.031 A 
ATOM     45  C   UNL     1      -2.596   3.321  14.855  1.00  0.00     0.074 A 
ATOM     46  C   UNL     1      -0.412   3.753  13.780  1.00  0.00     0.049 A 
ATOM     47  N   UNL     1      -2.555   4.137  15.876  1.00  0.00    -0.248 NA
ATOM     48  C   UNL     1      -3.842   2.542  14.755  1.00  0.00     0.031 C 
ATOM     49  C   UNL     1       0.662   3.590  12.804  1.00  0.00     0.029 A 
ATOM     50  N   UNL     1       0.044   4.728  14.630  1.00  0.00    -0.354 N 
ATOM     51  C   UNL     1      -3.757   3.958  16.546  1.00  0.00     0.074 A 
ATOM     52  C   UNL     1      -4.525   2.987  15.798  1.00  0.00     0.031 C 
ATOM     53  C   UNL     1       1.655   4.446  13.107  1.00  0.00     0.029 A 
ATOM     54  C   UNL     1       1.279   5.220  14.290  1.00  0.00     0.049 A 
ATOM     55  H   UNL     1      -0.466   5.046  15.409  1.00  0.00     0.167 HD
ATOM     56  C   UNL     1      -4.179   4.540  17.692  1.00  0.00     0.037 A 
ATOM     57  C   UNL     1       2.014   6.187  14.872  1.00  0.00     0.037 A 
ATOM     58  C   UNL     1      -3.430   5.523  18.424  1.00  0.00     0.049 A 
ATOM     59  C   UNL     1       1.495   6.864  16.115  1.00  0.00     0.074 A 
ATOM     60  C   UNL     1      -3.766   6.167  19.601  1.00  0.00     0.029 A 
ATOM     61  N   UNL     1      -2.193   6.014  18.035  1.00  0.00    -0.354 N 
ATOM     62  N   UNL     1       0.383   6.649  16.775  1.00  0.00    -0.248 NA
ATOM     63  C   UNL     1       2.344   7.913  16.699  1.00  0.00     0.031 C 
ATOM     64  C   UNL     1      -2.748   7.079  19.903  1.00  0.00     0.029 A 
ATOM     65  C   UNL     1      -1.760   6.971  18.937  1.00  0.00     0.049 A 
ATOM     66  H   UNL     1      -1.696   5.725  17.235  1.00  0.00     0.167 HD
ATOM     67  C   UNL     1       0.408   7.515  17.861  1.00  0.00     0.074 A 
ATOM     68  C   UNL     1       1.654   8.249  17.780  1.00  0.00     0.031 C 
ATOM     69  C   UNL     1      -0.515   7.688  18.838  1.00  0.00     0.037 A 
BRANCH  56  70
ATOM     70  C   UNL     1      -5.526   4.133  18.206  1.00  0.00     0.064 A 
ATOM     71  C   UNL     1      -5.733   2.877  18.796  1.00  0.00     0.173 A 
ATOM     72  C   UNL     1      -6.619   5.005  18.109  1.00  0.00     0.173 A 
ATOM     73  F   UNL     1      -4.722   2.001  18.890  1.00  0.00    -0.203 F 
ATOM     74  C   UNL     1      -6.994   2.501  19.252  1.00  0.00     0.198 A 
ATOM     75  C   UNL     1      -7.873   4.634  18.586  1.00  0.00     0.198 A 
ATOM     76  F   UNL     1      -6.472   6.215  17.548  1.00  0.00    -0.203 F 
ATOM     77  F   UNL     1      -7.180   1.280  19.771  1.00  0.00    -0.200 F 
ATOM     78  C   UNL     1      -8.061   3.381  19.151  1.00  0.00     0.200 A 
ATOM     79  F   UNL     1      -8.903   5.487  18.492  1.00  0.00    -0.200 F 
ATOM     80  F   UNL     1      -9.274   3.018  19.589  1.00  0.00    -0.200 F 
ENDBRANCH  56  70
BRANCH  57  81
ATOM     81  C   UNL     1       3.327   6.573  14.295  1.00  0.00     0.064 A 
ATOM     82  C   UNL     1       4.524   6.265  14.954  1.00  0.00     0.173 A 
ATOM     83  C   UNL     1       3.408   7.283  13.089  1.00  0.00     0.173 A 
ATOM     84  F   UNL     1       4.495   5.611  16.125  1.00  0.00    -0.203 F 
ATOM     85  C   UNL     1       5.754   6.669  14.438  1.00  0.00     0.198 A 
ATOM     86  C   UNL     1       4.639   7.667  12.562  1.00  0.00     0.198 A 
ATOM     87  F   UNL     1       2.289   7.606  12.423  1.00  0.00    -0.203 F 
ATOM     88  F   UNL     1       6.881   6.402  15.111  1.00  0.00    -0.200 F 
ATOM     89  C   UNL     1       5.810   7.367  13.240  1.00  0.00     0.200 A 
ATOM     90  F   UNL     1       4.690   8.335  11.402  1.00  0.00    -0.200 F 
ATOM     91  F   UNL     1       6.993   7.758  12.746  1.00  0.00    -0.200 F 
ENDBRANCH  57  81
BRANCH  69  92
ATOM     92  C   UNL     1      -0.202   8.691  19.909  1.00  0.00     0.064 A 
ATOM     93  C   UNL     1      -0.253  10.070  19.660  1.00  0.00     0.173 A 
ATOM     94  C   UNL     1       0.118   8.268  21.208  1.00  0.00     0.173 A 
ATOM     95  F   UNL     1      -0.541  10.524  18.430  1.00  0.00    -0.203 F 
ATOM     96  C   UNL     1       0.030  10.990  20.666  1.00  0.00     0.198 A 
ATOM     97  C   UNL     1       0.374   9.190  22.218  1.00  0.00     0.198 A 
ATOM     98  F   UNL     1       0.172   6.960  21.499  1.00  0.00    -0.203 F 
ATOM     99  F   UNL     1       0.019  12.302  20.395  1.00  0.00    -0.200 F 
ATOM    100  C   UNL     1       0.338  10.549  21.945  1.00  0.00     0.200 A 
ATOM    101  F   UNL     1       0.660   8.764  23.456  1.00  0.00    -0.200 F 
ATOM    102  F   UNL     1       0.607  11.436  22.913  1.00  0.00    -0.200 F 
ENDBRANCH  69  92
ENDBRANCH  43  44
ENDBRANCH  36  38
ENDBRANCH  35  36
ENDBRANCH  34  35
ENDBRANCH  33  34
ENDBRANCH  32  33
ENDBRANCH  31  32
ENDBRANCH  30  31
ENDBRANCH   1  30
TORSDOF 23
