REMARK SMILES C=C(C)COc1ccc2nc(C)n(-c3cccc(C(=O)OCCOCCOCCOCCOC(=O)c4ccc(-c5c6nc(c(-c7c(F)c(F)c(F)c(F)c7F)c7ccc([nH]7)c(-c7c(F)c(F)c(F)c(F)c7F)c7nc(c(-c8c(F)c(F)c(F)c(F)c8F)c8ccc5[nH]8)C=C7)C=C6)cc4)c3)c(=O)c2c1
REMARK SMILES IDX 26 1 25 2 24 3 23 4 22 5 21 6 19 7 20 8 18 9 14 10 15 11
REMARK SMILES IDX 99 12 16 13 17 14 13 15 6 16 7 17 103 18 8 19 102 20 9 21
REMARK SMILES IDX 100 22 10 23 101 24 11 25 12 26 5 27 4 28 2 29 1 30 3 31
REMARK SMILES IDX 27 32 28 33 29 34 30 35 31 36 32 37 33 38 34 39 35 40 36 41
REMARK SMILES IDX 37 42 98 43 38 44 97 45 39 46 40 47 41 48 91 49 42 50 96 51
REMARK SMILES IDX 90 52 92 53 43 54 95 55 89 56 88 57 44 59 76 60 56 61 75 62
REMARK SMILES IDX 57 63 60 64 74 65 93 66 58 67 59 68 73 70 94 71 61 72 45 73
REMARK SMILES IDX 46 74 54 75 47 76 48 77 52 78 55 79 49 80 50 81 53 82 51 83
REMARK SMILES IDX 77 84 78 85 86 86 79 87 80 88 84 89 87 90 81 91 82 92 85 93
REMARK SMILES IDX 83 94 62 95 63 96 71 97 64 98 65 99 69 100 72 101 66 102
REMARK SMILES IDX 67 103 70 104 68 105
REMARK H PARENT 92 58 60 69
REMARK Flexibility Score: inf
ROOT
ATOM      1  C   UNL     1      -0.814  12.385   1.216  1.00  0.00     0.188 C 
ENDROOT
BRANCH   1   2
ATOM      2  C   UNL     1      -0.222  13.648   0.564  1.00  0.00     0.188 C 
BRANCH   2   3
ATOM      3  O   UNL     1      -0.723  13.928  -0.740  1.00  0.00    -0.376 OA
BRANCH   3   4
ATOM      4  C   UNL     1       0.230  13.877  -1.794  1.00  0.00     0.202 C 
BRANCH   4   5
ATOM      5  C   UNL     1       0.517  12.452  -2.280  1.00  0.00     0.261 C 
BRANCH   5   6
ATOM      6  O   UNL     1       1.053  11.591  -1.266  1.00  0.00    -0.460 OA
BRANCH   6   7
ATOM      7  C   UNL     1       2.289  11.885  -0.798  1.00  0.00     0.338 C 
ATOM      8  O   UNL     1       3.027  12.768  -1.195  1.00  0.00    -0.246 OA
BRANCH   7   9
ATOM      9  C   UNL     1       2.499  11.100   0.442  1.00  0.00     0.062 A 
ATOM     10  C   UNL     1       2.079   9.109   1.779  1.00  0.00     0.051 A 
ATOM     11  C   UNL     1       2.695   9.738   2.870  1.00  0.00     0.027 A 
ATOM     12  C   UNL     1       1.989   9.803   0.565  1.00  0.00     0.042 A 
ATOM     13  C   UNL     1       3.211  11.033   2.748  1.00  0.00     0.003 A 
ATOM     14  C   UNL     1       3.120  11.713   1.533  1.00  0.00     0.016 A 
BRANCH  10  15
ATOM     15  N   UNL     1       1.587   7.766   1.862  1.00  0.00    -0.264 N 
ATOM     16  C   UNL     1       1.502   3.218   0.169  1.00  0.00     0.120 A 
ATOM     17  C   UNL     1       0.697   2.870   1.254  1.00  0.00     0.049 A 
ATOM     18  C   UNL     1       1.941   4.528   0.021  1.00  0.00     0.062 A 
ATOM     19  C   UNL     1       0.308   3.841   2.179  1.00  0.00     0.033 A 
ATOM     20  C   UNL     1       1.544   5.491   0.958  1.00  0.00     0.070 A 
ATOM     21  C   UNL     1       0.739   5.160   2.040  1.00  0.00     0.078 A 
ATOM     22  C   UNL     1       1.995   6.884   0.846  1.00  0.00     0.266 A 
ATOM     23  N   UNL     1       0.351   6.096   2.998  1.00  0.00    -0.234 NA
ATOM     24  O   UNL     1       2.725   7.172  -0.103  1.00  0.00    -0.268 OA
ATOM     25  C   UNL     1       0.760   7.322   2.884  1.00  0.00     0.113 A 
ATOM     26  C   UNL     1       0.230   8.277   3.935  1.00  0.00     0.088 C 
BRANCH  16  27
ATOM     27  O   UNL     1       1.970   2.282  -0.713  1.00  0.00    -0.489 OA
BRANCH  27  28
ATOM     28  C   UNL     1       0.933   1.734  -1.541  1.00  0.00     0.260 C 
BRANCH  28  29
ATOM     29  C   UNL     1       0.298   0.506  -0.922  1.00  0.00    -0.043 C 
ATOM     30  C   UNL     1       1.005  -0.422  -0.254  1.00  0.00     0.011 C 
ATOM     31  C   UNL     1      -1.196   0.420  -1.050  1.00  0.00     0.042 C 
ENDBRANCH  28  29
ENDBRANCH  27  28
ENDBRANCH  16  27
ENDBRANCH  10  15
ENDBRANCH   7   9
ENDBRANCH   6   7
ENDBRANCH   5   6
ENDBRANCH   4   5
ENDBRANCH   3   4
ENDBRANCH   2   3
ENDBRANCH   1   2
BRANCH   1  32
ATOM     32  O   UNL     1      -1.719  11.591   0.467  1.00  0.00    -0.377 OA
BRANCH  32  33
ATOM     33  C   UNL     1      -2.818  12.215  -0.188  1.00  0.00     0.188 C 
BRANCH  33  34
ATOM     34  C   UNL     1      -3.400  13.558   0.305  1.00  0.00     0.188 C 
BRANCH  34  35
ATOM     35  O   UNL     1      -3.030  13.920   1.628  1.00  0.00    -0.376 OA
BRANCH  35  36
ATOM     36  C   UNL     1      -4.077  13.934   2.588  1.00  0.00     0.202 C 
BRANCH  36  37
ATOM     37  C   UNL     1      -4.447  12.539   3.099  1.00  0.00     0.261 C 
BRANCH  37  38
ATOM     38  O   UNL     1      -4.952  11.643   2.097  1.00  0.00    -0.460 OA
BRANCH  38  39
ATOM     39  C   UNL     1      -6.102  11.981   1.473  1.00  0.00     0.338 C 
ATOM     40  O   UNL     1      -6.789  12.968   1.660  1.00  0.00    -0.246 OA
BRANCH  39  41
ATOM     41  C   UNL     1      -6.289  11.013   0.375  1.00  0.00     0.060 A 
ATOM     42  C   UNL     1      -6.271   9.642   0.646  1.00  0.00     0.016 A 
ATOM     43  C   UNL     1      -6.411  11.479  -0.939  1.00  0.00     0.016 A 
ATOM     44  C   UNL     1      -6.379   8.732  -0.404  1.00  0.00     0.010 A 
ATOM     45  C   UNL     1      -6.505  10.565  -1.991  1.00  0.00     0.010 A 
ATOM     46  C   UNL     1      -6.501   9.186  -1.727  1.00  0.00    -0.014 A 
BRANCH  46  47
ATOM     47  C   UNL     1      -6.770   8.215  -2.811  1.00  0.00     0.031 A 
ATOM     48  C   UNL     1      -5.679   7.691  -3.693  1.00  0.00     0.074 A 
ATOM     49  C   UNL     1      -8.038   7.797  -2.978  1.00  0.00     0.049 A 
ATOM     50  N   UNL     1      -5.755   6.802  -4.652  1.00  0.00    -0.248 NA
ATOM     51  C   UNL     1      -4.330   8.230  -3.474  1.00  0.00     0.031 C 
ATOM     52  C   UNL     1      -9.176   8.243  -2.174  1.00  0.00     0.029 A 
ATOM     53  N   UNL     1      -8.581   6.908  -3.868  1.00  0.00    -0.354 N 
ATOM     54  C   UNL     1      -4.464   6.655  -5.138  1.00  0.00     0.074 A 
ATOM     55  C   UNL     1      -3.629   7.578  -4.395  1.00  0.00     0.031 C 
ATOM     56  C   UNL     1     -10.283   7.615  -2.599  1.00  0.00     0.029 A 
ATOM     57  C   UNL     1      -9.934   6.745  -3.718  1.00  0.00     0.049 A 
ATOM     58  H   UNL     1      -8.051   6.433  -4.549  1.00  0.00     0.167 HD
ATOM     59  C   UNL     1      -4.022   5.814  -6.105  1.00  0.00     0.037 A 
ATOM     60  C   UNL     1     -10.800   5.979  -4.406  1.00  0.00     0.037 A 
ATOM     61  C   UNL     1      -4.864   4.915  -6.857  1.00  0.00     0.049 A 
ATOM     62  C   UNL     1     -10.289   5.105  -5.515  1.00  0.00     0.074 A 
ATOM     63  C   UNL     1      -4.500   4.015  -7.845  1.00  0.00     0.029 A 
ATOM     64  N   UNL     1      -6.241   4.809  -6.714  1.00  0.00    -0.354 N 
ATOM     65  N   UNL     1      -9.059   4.939  -5.937  1.00  0.00    -0.248 NA
ATOM     66  C   UNL     1     -11.287   4.305  -6.238  1.00  0.00     0.031 C 
ATOM     67  C   UNL     1      -5.660   3.400  -8.332  1.00  0.00     0.029 A 
ATOM     68  C   UNL     1      -6.742   3.878  -7.612  1.00  0.00     0.049 A 
ATOM     69  H   UNL     1      -6.782   5.320  -6.069  1.00  0.00     0.167 HD
ATOM     70  C   UNL     1      -9.131   4.007  -6.962  1.00  0.00     0.074 A 
ATOM     71  C   UNL     1     -10.523   3.624  -7.081  1.00  0.00     0.031 C 
ATOM     72  C   UNL     1      -8.132   3.515  -7.736  1.00  0.00     0.037 A 
BRANCH  59  73
ATOM     73  C   UNL     1      -2.553   5.814  -6.413  1.00  0.00     0.064 A 
ATOM     74  C   UNL     1      -1.625   5.234  -5.535  1.00  0.00     0.173 A 
ATOM     75  C   UNL     1      -2.077   6.312  -7.636  1.00  0.00     0.173 A 
ATOM     76  F   UNL     1      -2.029   4.744  -4.353  1.00  0.00    -0.203 F 
ATOM     77  C   UNL     1      -0.274   5.163  -5.864  1.00  0.00     0.198 A 
ATOM     78  C   UNL     1      -0.729   6.218  -7.972  1.00  0.00     0.198 A 
ATOM     79  F   UNL     1      -2.925   6.864  -8.517  1.00  0.00    -0.203 F 
ATOM     80  F   UNL     1       0.596   4.620  -5.001  1.00  0.00    -0.200 F 
ATOM     81  C   UNL     1       0.172   5.646  -7.085  1.00  0.00     0.200 A 
ATOM     82  F   UNL     1      -0.303   6.669  -9.160  1.00  0.00    -0.200 F 
ATOM     83  F   UNL     1       1.469   5.558  -7.410  1.00  0.00    -0.200 F 
ENDBRANCH  59  73
BRANCH  60  84
ATOM     84  C   UNL     1     -12.237   5.990  -4.037  1.00  0.00     0.064 A 
ATOM     85  C   UNL     1     -12.826   4.881  -3.417  1.00  0.00     0.173 A 
ATOM     86  C   UNL     1     -13.040   7.115  -4.271  1.00  0.00     0.173 A 
ATOM     87  F   UNL     1     -12.100   3.776  -3.190  1.00  0.00    -0.203 F 
ATOM     88  C   UNL     1     -14.170   4.893  -3.053  1.00  0.00     0.198 A 
ATOM     89  C   UNL     1     -14.377   7.136  -3.883  1.00  0.00     0.198 A 
ATOM     90  F   UNL     1     -12.518   8.203  -4.858  1.00  0.00    -0.203 F 
ATOM     91  F   UNL     1     -14.719   3.808  -2.491  1.00  0.00    -0.200 F 
ATOM     92  C   UNL     1     -14.942   6.023  -3.279  1.00  0.00     0.200 A 
ATOM     93  F   UNL     1     -15.115   8.235  -4.089  1.00  0.00    -0.200 F 
ATOM     94  F   UNL     1     -16.232   6.038  -2.917  1.00  0.00    -0.200 F 
ENDBRANCH  60  84
BRANCH  72  95
ATOM     95  C   UNL     1      -8.511   2.503  -8.779  1.00  0.00     0.064 A 
ATOM     96  C   UNL     1      -9.239   2.866  -9.922  1.00  0.00     0.173 A 
ATOM     97  C   UNL     1      -8.127   1.160  -8.645  1.00  0.00     0.173 A 
ATOM     98  F   UNL     1      -9.644   4.134 -10.090  1.00  0.00    -0.203 F 
ATOM     99  C   UNL     1      -9.593   1.917 -10.878  1.00  0.00     0.198 A 
ATOM    100  C   UNL     1      -8.457   0.219  -9.618  1.00  0.00     0.198 A 
ATOM    101  F   UNL     1      -7.426   0.760  -7.574  1.00  0.00    -0.203 F 
ATOM    102  F   UNL     1     -10.335   2.277 -11.934  1.00  0.00    -0.200 F 
ATOM    103  C   UNL     1      -9.197   0.596 -10.728  1.00  0.00     0.200 A 
ATOM    104  F   UNL     1      -8.062  -1.054  -9.478  1.00  0.00    -0.200 F 
ATOM    105  F   UNL     1      -9.537  -0.315 -11.650  1.00  0.00    -0.200 F 
ENDBRANCH  72  95
ENDBRANCH  46  47
ENDBRANCH  39  41
ENDBRANCH  38  39
ENDBRANCH  37  38
ENDBRANCH  36  37
ENDBRANCH  35  36
ENDBRANCH  34  35
ENDBRANCH  33  34
ENDBRANCH  32  33
ENDBRANCH   1  32
TORSDOF 24
