REMARK SMILES CC1=C(C(=O)OCCOCCOCCOCCOC(=O)c2ccc(-c3c4nc(c(-c5c(F)c(F)c(F)c(F)c5F)c5ccc([nH]5)c(-c5c(F)c(F)c(F)c(F)c5F)c5nc(c(-c6c(F)c(F)c(F)c(F)c6F)c6ccc3[nH]6)C=C5)C=C4)cc2)[C@H](c2ccc(Cl)cc2)n2ncnc2N1
REMARK SMILES IDX 13 1 12 2 11 3 10 4 9 5 8 6 7 7 6 8 4 9 5 10 3 11 1 12 2 13
REMARK SMILES IDX 97 14 84 15 96 16 92 18 95 19 93 20 94 21 85 22 86 23 91 24
REMARK SMILES IDX 87 25 90 26 88 27 89 28 14 29 15 30 16 31 17 32 18 33 19 34
REMARK SMILES IDX 20 35 21 36 22 37 83 38 23 39 82 40 24 41 25 42 26 43 76 44
REMARK SMILES IDX 27 45 81 46 75 47 77 48 28 49 80 50 74 51 73 52 29 54 61 55
REMARK SMILES IDX 41 56 60 57 42 58 45 59 59 60 78 61 43 62 44 63 58 65 79 66
REMARK SMILES IDX 46 67 30 68 31 69 39 70 32 71 33 72 37 73 40 74 34 75 35 76
REMARK SMILES IDX 38 77 36 78 62 79 63 80 71 81 64 82 65 83 69 84 72 85 66 86
REMARK SMILES IDX 67 87 70 88 68 89 47 90 48 91 56 92 49 93 50 94 54 95 57 96
REMARK SMILES IDX 51 97 52 98 55 99 53 100
REMARK H PARENT 97 17 77 53 45 64
REMARK Flexibility Score: inf
ROOT
ATOM      1  C   UNL     1       4.500   2.434   1.886  1.00  0.00     0.188 C 
ENDROOT
BRANCH   1   2
ATOM      2  O   UNL     1       3.858   1.954   0.713  1.00  0.00    -0.377 OA
BRANCH   2   3
ATOM      3  C   UNL     1       3.073   2.850  -0.063  1.00  0.00     0.188 C 
BRANCH   3   4
ATOM      4  C   UNL     1       2.260   3.989   0.601  1.00  0.00     0.188 C 
BRANCH   4   5
ATOM      5  O   UNL     1       2.321   4.041   2.021  1.00  0.00    -0.376 OA
BRANCH   5   6
ATOM      6  C   UNL     1       1.114   3.734   2.705  1.00  0.00     0.202 C 
BRANCH   6   7
ATOM      7  C   UNL     1       0.752   2.248   2.668  1.00  0.00     0.261 C 
BRANCH   7   8
ATOM      8  O   UNL     1       0.652   1.743   1.327  1.00  0.00    -0.460 OA
BRANCH   8   9
ATOM      9  C   UNL     1      -0.499   1.996   0.660  1.00  0.00     0.338 C 
ATOM     10  O   UNL     1      -1.475   2.550   1.126  1.00  0.00    -0.246 OA
BRANCH   9  11
ATOM     11  C   UNL     1      -0.322   1.613  -0.762  1.00  0.00     0.085 C 
ATOM     12  C   UNL     1       0.330  -0.753  -0.116  1.00  0.00     0.065 C 
ATOM     13  C   UNL     1       0.082   0.363  -1.102  1.00  0.00     0.028 C 
ATOM     14  N   UNL     1       0.346   0.054  -2.429  1.00  0.00    -0.328 N 
ATOM     15  C   UNL     1      -0.428   2.731  -1.805  1.00  0.00     0.181 C 
ATOM     16  C   UNL     1       0.284   0.951  -3.428  1.00  0.00     0.226 A 
ATOM     17  H   UNL     1       0.593  -0.873  -2.651  1.00  0.00     0.169 HD
ATOM     18  N   UNL     1      -0.082   2.240  -3.151  1.00  0.00    -0.219 N 
ATOM     19  N   UNL     1       0.551   0.835  -4.703  1.00  0.00    -0.200 NA
ATOM     20  N   UNL     1       0.034   3.022  -4.247  1.00  0.00    -0.157 NA
ATOM     21  C   UNL     1       0.380   2.113  -5.166  1.00  0.00     0.248 A 
BRANCH  15  22
ATOM     22  C   UNL     1      -1.745   3.501  -1.794  1.00  0.00    -0.018 A 
ATOM     23  C   UNL     1      -2.845   3.131  -2.584  1.00  0.00     0.008 A 
ATOM     24  C   UNL     1      -1.884   4.609  -0.933  1.00  0.00     0.008 A 
ATOM     25  C   UNL     1      -4.047   3.839  -2.504  1.00  0.00     0.021 A 
ATOM     26  C   UNL     1      -3.095   5.294  -0.829  1.00  0.00     0.021 A 
ATOM     27  C   UNL     1      -4.173   4.904  -1.615  1.00  0.00     0.041 A 
ATOM     28  Cl  UNL     1      -5.672   5.736  -1.480  1.00  0.00    -0.084 Cl
ENDBRANCH  15  22
ENDBRANCH   9  11
ENDBRANCH   8   9
ENDBRANCH   7   8
ENDBRANCH   6   7
ENDBRANCH   5   6
ENDBRANCH   4   5
ENDBRANCH   3   4
ENDBRANCH   2   3
ENDBRANCH   1   2
BRANCH   1  29
ATOM     29  C   UNL     1       5.172   3.829   1.894  1.00  0.00     0.188 C 
BRANCH  29  30
ATOM     30  O   UNL     1       4.915   4.641   0.750  1.00  0.00    -0.376 OA
BRANCH  30  31
ATOM     31  C   UNL     1       6.014   5.020  -0.067  1.00  0.00     0.202 C 
BRANCH  31  32
ATOM     32  C   UNL     1       6.454   3.937  -1.052  1.00  0.00     0.261 C 
BRANCH  32  33
ATOM     33  O   UNL     1       6.669   2.683  -0.421  1.00  0.00    -0.460 OA
BRANCH  33  34
ATOM     34  C   UNL     1       7.640   2.684   0.510  1.00  0.00     0.338 C 
ATOM     35  O   UNL     1       8.348   3.619   0.839  1.00  0.00    -0.246 OA
BRANCH  34  36
ATOM     36  C   UNL     1       7.791   1.323   1.038  1.00  0.00     0.060 A 
ATOM     37  C   UNL     1       8.816   1.182   1.971  1.00  0.00     0.016 A 
ATOM     38  C   UNL     1       7.309   0.255   0.268  1.00  0.00     0.016 A 
ATOM     39  C   UNL     1       9.630   0.092   1.828  1.00  0.00     0.010 A 
ATOM     40  C   UNL     1       8.133  -0.827   0.111  1.00  0.00     0.010 A 
ATOM     41  C   UNL     1       9.344  -0.806   0.794  1.00  0.00    -0.014 A 
BRANCH  41  42
ATOM     42  C   UNL     1      10.436  -1.642   0.366  1.00  0.00     0.031 A 
ATOM     43  C   UNL     1      10.687  -2.803   1.226  1.00  0.00     0.074 A 
ATOM     44  C   UNL     1      11.152  -1.357  -0.734  1.00  0.00     0.049 A 
ATOM     45  N   UNL     1      11.742  -3.052   1.925  1.00  0.00    -0.248 NA
ATOM     46  C   UNL     1       9.576  -3.741   1.421  1.00  0.00     0.031 C 
ATOM     47  C   UNL     1      10.851  -0.410  -1.811  1.00  0.00     0.029 A 
ATOM     48  N   UNL     1      12.287  -1.967  -1.162  1.00  0.00    -0.354 N 
ATOM     49  C   UNL     1      11.489  -4.262   2.553  1.00  0.00     0.074 A 
ATOM     50  C   UNL     1      10.103  -4.577   2.312  1.00  0.00     0.031 C 
ATOM     51  C   UNL     1      11.653  -0.683  -2.865  1.00  0.00     0.029 A 
ATOM     52  C   UNL     1      12.583  -1.738  -2.492  1.00  0.00     0.049 A 
ATOM     53  H   UNL     1      12.849  -2.523  -0.576  1.00  0.00     0.167 HD
ATOM     54  C   UNL     1      12.492  -5.016   3.069  1.00  0.00     0.037 A 
ATOM     55  C   UNL     1      13.447  -2.469  -3.235  1.00  0.00     0.037 A 
ATOM     56  C   UNL     1      13.689  -4.249   3.287  1.00  0.00     0.049 A 
ATOM     57  C   UNL     1      14.359  -3.179  -2.294  1.00  0.00     0.074 A 
ATOM     58  C   UNL     1      13.992  -3.147   4.064  1.00  0.00     0.029 A 
ATOM     59  N   UNL     1      14.724  -4.366   2.391  1.00  0.00    -0.354 N 
ATOM     60  N   UNL     1      15.268  -2.589  -1.566  1.00  0.00    -0.248 NA
ATOM     61  C   UNL     1      13.969  -4.508  -1.838  1.00  0.00     0.031 C 
ATOM     62  C   UNL     1      14.931  -2.394   3.300  1.00  0.00     0.029 A 
ATOM     63  C   UNL     1      15.155  -3.092   2.113  1.00  0.00     0.049 A 
ATOM     64  H   UNL     1      15.086  -5.202   2.020  1.00  0.00     0.167 HD
ATOM     65  C   UNL     1      15.261  -3.276  -0.359  1.00  0.00     0.074 A 
ATOM     66  C   UNL     1      14.518  -4.503  -0.621  1.00  0.00     0.031 C 
ATOM     67  C   UNL     1      15.607  -2.662   0.811  1.00  0.00     0.037 A 
BRANCH  54  68
ATOM     68  C   UNL     1      12.454  -6.513   3.100  1.00  0.00     0.064 A 
ATOM     69  C   UNL     1      13.384  -7.216   3.884  1.00  0.00     0.173 A 
ATOM     70  C   UNL     1      11.706  -7.287   2.184  1.00  0.00     0.173 A 
ATOM     71  F   UNL     1      14.169  -6.567   4.756  1.00  0.00    -0.203 F 
ATOM     72  C   UNL     1      13.581  -8.589   3.729  1.00  0.00     0.198 A 
ATOM     73  C   UNL     1      11.862  -8.665   2.076  1.00  0.00     0.198 A 
ATOM     74  F   UNL     1      10.881  -6.727   1.290  1.00  0.00    -0.203 F 
ATOM     75  F   UNL     1      14.556  -9.200   4.415  1.00  0.00    -0.200 F 
ATOM     76  C   UNL     1      12.819  -9.312   2.827  1.00  0.00     0.200 A 
ATOM     77  F   UNL     1      11.127  -9.343   1.183  1.00  0.00    -0.200 F 
ATOM     78  F   UNL     1      13.040 -10.620   2.645  1.00  0.00    -0.200 F 
ENDBRANCH  54  68
BRANCH  55  79
ATOM     79  C   UNL     1      13.306  -2.840  -4.664  1.00  0.00     0.064 A 
ATOM     80  C   UNL     1      14.378  -3.412  -5.367  1.00  0.00     0.173 A 
ATOM     81  C   UNL     1      12.052  -2.871  -5.310  1.00  0.00     0.173 A 
ATOM     82  F   UNL     1      15.594  -3.476  -4.807  1.00  0.00    -0.203 F 
ATOM     83  C   UNL     1      14.203  -3.989  -6.630  1.00  0.00     0.198 A 
ATOM     84  C   UNL     1      11.883  -3.429  -6.577  1.00  0.00     0.198 A 
ATOM     85  F   UNL     1      10.940  -2.449  -4.694  1.00  0.00    -0.203 F 
ATOM     86  F   UNL     1      15.238  -4.583  -7.241  1.00  0.00    -0.200 F 
ATOM     87  C   UNL     1      12.956  -4.000  -7.232  1.00  0.00     0.200 A 
ATOM     88  F   UNL     1      10.662  -3.462  -7.130  1.00  0.00    -0.200 F 
ATOM     89  F   UNL     1      12.778  -4.595  -8.419  1.00  0.00    -0.200 F 
ENDBRANCH  55  79
BRANCH  67  90
ATOM     90  C   UNL     1      16.244  -1.304   0.731  1.00  0.00     0.064 A 
ATOM     91  C   UNL     1      15.595  -0.176   0.201  1.00  0.00     0.173 A 
ATOM     92  C   UNL     1      17.486  -1.103   1.348  1.00  0.00     0.173 A 
ATOM     93  F   UNL     1      14.356  -0.268  -0.299  1.00  0.00    -0.203 F 
ATOM     94  C   UNL     1      16.188   1.084   0.239  1.00  0.00     0.198 A 
ATOM     95  C   UNL     1      18.060   0.165   1.419  1.00  0.00     0.198 A 
ATOM     96  F   UNL     1      18.124  -2.130   1.931  1.00  0.00    -0.203 F 
ATOM     97  F   UNL     1      15.552   2.141  -0.287  1.00  0.00    -0.200 F 
ATOM     98  C   UNL     1      17.417   1.255   0.853  1.00  0.00     0.200 A 
ATOM     99  F   UNL     1      19.224   0.336   2.061  1.00  0.00    -0.200 F 
ATOM    100  F   UNL     1      17.968   2.474   0.927  1.00  0.00    -0.200 F 
ENDBRANCH  67  90
ENDBRANCH  41  42
ENDBRANCH  34  36
ENDBRANCH  33  34
ENDBRANCH  32  33
ENDBRANCH  31  32
ENDBRANCH  30  31
ENDBRANCH  29  30
ENDBRANCH   1  29
TORSDOF 21
