REMARK SMILES O=C(OCCOCCOCCOCCOC(=O)c1cccnc1Nc1cccc(C(F)(F)F)c1)c1ccc(-c2c3nc(c(-c4c(F)c(F)c(F)c(F)c4F)c4ccc([nH]4)c(-c4c(F)c(F)c(F)c(F)c4F)c4nc(c(-c5c(F)c(F)c(F)c(F)c5F)c5ccc2[nH]5)C=C4)C=C3)cc1
REMARK SMILES IDX 10 1 9 2 8 3 7 4 6 5 5 6 4 7 3 8 2 9 1 10 35 11 36 12 97 13
REMARK SMILES IDX 37 14 96 15 38 16 39 17 40 18 90 19 41 20 95 21 89 22 91 23
REMARK SMILES IDX 42 24 94 25 88 26 87 27 43 29 75 30 55 31 74 32 56 33 59 34
REMARK SMILES IDX 73 35 92 36 57 37 58 38 72 40 93 41 60 42 44 43 45 44 53 45
REMARK SMILES IDX 46 46 47 47 51 48 54 49 48 50 49 51 52 52 50 53 76 54 77 55
REMARK SMILES IDX 85 56 78 57 79 58 83 59 86 60 80 61 81 62 84 63 82 64 61 65
REMARK SMILES IDX 62 66 70 67 63 68 64 69 68 70 71 71 65 72 66 73 69 74 67 75
REMARK SMILES IDX 11 76 12 77 13 78 14 79 15 80 16 81 17 82 18 83 19 84 23 85
REMARK SMILES IDX 20 86 22 87 21 88 24 89 25 91 26 92 34 93 27 94 29 95 28 96
REMARK SMILES IDX 30 97 31 98 32 99 33 100
REMARK H PARENT 91 28 59 39 24 90
REMARK Flexibility Score: inf
ROOT
ATOM      1  C   UNL     1       3.719  -3.453  -1.420  1.00  0.00     0.188 C 
ENDROOT
BRANCH   1   2
ATOM      2  O   UNL     1       2.300  -3.480  -1.465  1.00  0.00    -0.377 OA
BRANCH   2   3
ATOM      3  C   UNL     1       1.650  -2.219  -1.363  1.00  0.00     0.188 C 
BRANCH   3   4
ATOM      4  C   UNL     1       2.179  -1.300  -0.262  1.00  0.00     0.188 C 
BRANCH   4   5
ATOM      5  O   UNL     1       3.513  -0.867  -0.534  1.00  0.00    -0.376 OA
BRANCH   5   6
ATOM      6  C   UNL     1       4.443  -0.879   0.547  1.00  0.00     0.202 C 
BRANCH   6   7
ATOM      7  C   UNL     1       4.265   0.220   1.587  1.00  0.00     0.261 C 
BRANCH   7   8
ATOM      8  O   UNL     1       2.937   0.745   1.654  1.00  0.00    -0.460 OA
BRANCH   8   9
ATOM      9  C   UNL     1       2.315   1.619   0.832  1.00  0.00     0.338 C 
ATOM     10  O   UNL     1       1.130   1.866   1.055  1.00  0.00    -0.246 OA
BRANCH   9  11
ATOM     11  C   UNL     1       2.943   2.306  -0.341  1.00  0.00     0.060 A 
ATOM     12  C   UNL     1       4.040   1.861  -1.084  1.00  0.00     0.016 A 
ATOM     13  C   UNL     1       2.296   3.476  -0.774  1.00  0.00     0.016 A 
ATOM     14  C   UNL     1       4.492   2.534  -2.207  1.00  0.00     0.010 A 
ATOM     15  C   UNL     1       2.757   4.185  -1.881  1.00  0.00     0.010 A 
ATOM     16  C   UNL     1       3.877   3.720  -2.575  1.00  0.00    -0.014 A 
BRANCH  16  17
ATOM     17  C   UNL     1       4.609   4.599  -3.489  1.00  0.00     0.031 A 
ATOM     18  C   UNL     1       5.376   5.714  -2.859  1.00  0.00     0.074 A 
ATOM     19  C   UNL     1       4.668   4.325  -4.799  1.00  0.00     0.049 A 
ATOM     20  N   UNL     1       5.929   6.758  -3.404  1.00  0.00    -0.248 NA
ATOM     21  C   UNL     1       5.538   5.638  -1.395  1.00  0.00     0.031 C 
ATOM     22  C   UNL     1       4.104   3.136  -5.439  1.00  0.00     0.029 A 
ATOM     23  N   UNL     1       5.231   5.030  -5.823  1.00  0.00    -0.354 N 
ATOM     24  C   UNL     1       6.441   7.495  -2.345  1.00  0.00     0.074 A 
ATOM     25  C   UNL     1       6.151   6.777  -1.129  1.00  0.00     0.031 C 
ATOM     26  C   UNL     1       4.325   3.210  -6.761  1.00  0.00     0.029 A 
ATOM     27  C   UNL     1       4.960   4.490  -7.054  1.00  0.00     0.049 A 
ATOM     28  H   UNL     1       5.775   5.841  -5.692  1.00  0.00     0.167 HD
ATOM     29  C   UNL     1       7.072   8.688  -2.410  1.00  0.00     0.037 A 
ATOM     30  C   UNL     1       5.139   5.032  -8.271  1.00  0.00     0.037 A 
ATOM     31  C   UNL     1       7.322   9.345  -3.662  1.00  0.00     0.049 A 
ATOM     32  C   UNL     1       5.743   6.410  -8.329  1.00  0.00     0.074 A 
ATOM     33  C   UNL     1       7.891  10.578  -3.903  1.00  0.00     0.029 A 
ATOM     34  N   UNL     1       6.998   8.796  -4.901  1.00  0.00    -0.354 N 
ATOM     35  N   UNL     1       6.139   7.177  -7.337  1.00  0.00    -0.248 NA
ATOM     36  C   UNL     1       5.911   7.008  -9.656  1.00  0.00     0.031 C 
ATOM     37  C   UNL     1       7.852  10.801  -5.284  1.00  0.00     0.029 A 
ATOM     38  C   UNL     1       7.334   9.674  -5.912  1.00  0.00     0.049 A 
ATOM     39  H   UNL     1       6.590   7.910  -5.036  1.00  0.00     0.167 HD
ATOM     40  C   UNL     1       6.634   8.335  -7.916  1.00  0.00     0.074 A 
ATOM     41  C   UNL     1       6.481   8.168  -9.351  1.00  0.00     0.031 C 
ATOM     42  C   UNL     1       7.173   9.433  -7.327  1.00  0.00     0.037 A 
BRANCH  29  43
ATOM     43  C   UNL     1       7.389   9.362  -1.106  1.00  0.00     0.064 A 
ATOM     44  C   UNL     1       8.318   8.840  -0.191  1.00  0.00     0.173 A 
ATOM     45  C   UNL     1       6.667  10.502  -0.720  1.00  0.00     0.173 A 
ATOM     46  F   UNL     1       9.011   7.731  -0.491  1.00  0.00    -0.203 F 
ATOM     47  C   UNL     1       8.468   9.397   1.078  1.00  0.00     0.198 A 
ATOM     48  C   UNL     1       6.847  11.079   0.535  1.00  0.00     0.198 A 
ATOM     49  F   UNL     1       5.757  11.039  -1.546  1.00  0.00    -0.203 F 
ATOM     50  F   UNL     1       9.287   8.820   1.969  1.00  0.00    -0.200 F 
ATOM     51  C   UNL     1       7.733  10.516   1.439  1.00  0.00     0.200 A 
ATOM     52  F   UNL     1       6.137  12.162   0.880  1.00  0.00    -0.200 F 
ATOM     53  F   UNL     1       7.861  11.037   2.667  1.00  0.00    -0.200 F 
ENDBRANCH  29  43
BRANCH  30  54
ATOM     54  C   UNL     1       4.676   4.300  -9.479  1.00  0.00     0.064 A 
ATOM     55  C   UNL     1       5.584   3.796 -10.417  1.00  0.00     0.173 A 
ATOM     56  C   UNL     1       3.312   4.038  -9.690  1.00  0.00     0.173 A 
ATOM     57  F   UNL     1       6.897   4.028 -10.270  1.00  0.00    -0.203 F 
ATOM     58  C   UNL     1       5.148   3.060 -11.519  1.00  0.00     0.198 A 
ATOM     59  C   UNL     1       2.879   3.279 -10.775  1.00  0.00     0.198 A 
ATOM     60  F   UNL     1       2.397   4.493  -8.821  1.00  0.00    -0.203 F 
ATOM     61  F   UNL     1       6.036   2.608 -12.414  1.00  0.00    -0.200 F 
ATOM     62  C   UNL     1       3.797   2.793 -11.691  1.00  0.00     0.200 A 
ATOM     63  F   UNL     1       1.575   3.007 -10.924  1.00  0.00    -0.200 F 
ATOM     64  F   UNL     1       3.382   2.070 -12.740  1.00  0.00    -0.200 F 
ENDBRANCH  30  54
BRANCH  42  65
ATOM     65  C   UNL     1       7.699  10.501  -8.235  1.00  0.00     0.064 A 
ATOM     66  C   UNL     1       6.848  11.375  -8.921  1.00  0.00     0.173 A 
ATOM     67  C   UNL     1       9.084  10.716  -8.318  1.00  0.00     0.173 A 
ATOM     68  F   UNL     1       5.519  11.197  -8.879  1.00  0.00    -0.203 F 
ATOM     69  C   UNL     1       7.366  12.429  -9.665  1.00  0.00     0.198 A 
ATOM     70  C   UNL     1       9.595  11.790  -9.034  1.00  0.00     0.198 A 
ATOM     71  F   UNL     1       9.934   9.907  -7.667  1.00  0.00    -0.203 F 
ATOM     72  F   UNL     1       6.539  13.241 -10.338  1.00  0.00    -0.200 F 
ATOM     73  C   UNL     1       8.737  12.645  -9.708  1.00  0.00     0.200 A 
ATOM     74  F   UNL     1      10.917  12.010  -9.054  1.00  0.00    -0.200 F 
ATOM     75  F   UNL     1       9.231  13.680 -10.399  1.00  0.00    -0.200 F 
ENDBRANCH  42  65
ENDBRANCH  16  17
ENDBRANCH   9  11
ENDBRANCH   8   9
ENDBRANCH   7   8
ENDBRANCH   6   7
ENDBRANCH   5   6
ENDBRANCH   4   5
ENDBRANCH   3   4
ENDBRANCH   2   3
ENDBRANCH   1   2
BRANCH   1  76
ATOM     76  C   UNL     1       4.471  -2.625  -2.497  1.00  0.00     0.188 C 
BRANCH  76  77
ATOM     77  O   UNL     1       3.619  -2.028  -3.441  1.00  0.00    -0.376 OA
BRANCH  77  78
ATOM     78  C   UNL     1       3.352  -2.761  -4.622  1.00  0.00     0.202 C 
BRANCH  78  79
ATOM     79  C   UNL     1       3.207  -4.302  -4.653  1.00  0.00     0.261 C 
BRANCH  79  80
ATOM     80  O   UNL     1       3.833  -5.114  -3.638  1.00  0.00    -0.460 OA
BRANCH  80  81
ATOM     81  C   UNL     1       5.147  -5.442  -3.713  1.00  0.00     0.341 C 
ATOM     82  O   UNL     1       5.924  -5.092  -4.587  1.00  0.00    -0.246 OA
BRANCH  81  83
ATOM     83  C   UNL     1       5.503  -6.243  -2.507  1.00  0.00     0.102 A 
ATOM     84  C   UNL     1       4.770  -7.417  -2.279  1.00  0.00     0.021 A 
ATOM     85  C   UNL     1       6.476  -5.859  -1.557  1.00  0.00     0.144 A 
ATOM     86  C   UNL     1       5.064  -8.210  -1.177  1.00  0.00     0.021 A 
ATOM     87  N   UNL     1       6.800  -6.675  -0.522  1.00  0.00    -0.238 NA
ATOM     88  C   UNL     1       6.104  -7.819  -0.356  1.00  0.00     0.113 A 
BRANCH  85  89
ATOM     89  N   UNL     1       6.967  -4.537  -1.478  1.00  0.00    -0.340 N 
ATOM     90  H   UNL     1       6.468  -3.867  -1.998  1.00  0.00     0.168 HD
BRANCH  89  91
ATOM     91  C   UNL     1       8.075  -4.045  -0.755  1.00  0.00     0.040 A 
ATOM     92  C   UNL     1       7.904  -3.022   0.194  1.00  0.00     0.026 A 
ATOM     93  C   UNL     1       9.357  -4.544  -0.974  1.00  0.00     0.039 A 
ATOM     94  C   UNL     1       8.994  -2.479   0.877  1.00  0.00     0.003 A 
ATOM     95  C   UNL     1      10.468  -3.991  -0.313  1.00  0.00     0.058 A 
ATOM     96  C   UNL     1      10.275  -2.953   0.613  1.00  0.00     0.013 A 
BRANCH  95  97
ATOM     97  C   UNL     1      11.861  -4.486  -0.604  1.00  0.00     0.416 C 
ATOM     98  F   UNL     1      12.673  -3.495  -1.067  1.00  0.00    -0.166 F 
ATOM     99  F   UNL     1      12.477  -4.983   0.504  1.00  0.00    -0.166 F 
ATOM    100  F   UNL     1      11.911  -5.475  -1.538  1.00  0.00    -0.166 F 
ENDBRANCH  95  97
ENDBRANCH  89  91
ENDBRANCH  85  89
ENDBRANCH  81  83
ENDBRANCH  80  81
ENDBRANCH  79  80
ENDBRANCH  78  79
ENDBRANCH  77  78
ENDBRANCH  76  77
ENDBRANCH   1  76
TORSDOF 23
