REMARK SMILES CC(=O)N[C@@H](Cc1cc(Br)c(O)c(Br)c1)C(=O)OCCOCCOCCOCCOC(=O)c1ccc(-c2c3nc(c(-c4c(F)c(F)c(F)c(F)c4F)c4ccc([nH]4)c(-c4c(F)c(F)c(F)c(F)c4F)c4nc(c(-c5c(F)c(F)c(F)c(F)c5F)c5ccc2[nH]5)C=C4)C=C3)cc1
REMARK SMILES IDX 23 1 22 2 21 3 20 4 19 5 18 6 16 7 17 8 5 9 4 10 1 11 2 12
REMARK SMILES IDX 3 13 6 15 7 16 8 17 15 18 9 19 13 20 10 21 11 22 14 23 12 24
REMARK SMILES IDX 24 26 25 27 26 28 27 29 28 30 29 31 30 32 31 33 32 34 33 35
REMARK SMILES IDX 34 36 95 37 35 38 94 39 36 40 37 41 38 42 88 43 39 44 93 45
REMARK SMILES IDX 87 46 89 47 40 48 92 49 86 50 85 51 41 53 73 54 53 55 72 56
REMARK SMILES IDX 54 57 57 58 71 59 90 60 55 61 56 62 70 64 91 65 58 66 42 67
REMARK SMILES IDX 43 68 51 69 44 70 45 71 49 72 52 73 46 74 47 75 50 76 48 77
REMARK SMILES IDX 74 78 75 79 83 80 76 81 77 82 81 83 84 84 78 85 79 86 82 87
REMARK SMILES IDX 80 88 59 89 60 90 68 91 61 92 62 93 66 94 69 95 63 96 64 97
REMARK SMILES IDX 67 98 65 99
REMARK H PARENT 4 14 12 25 89 52 57 63
REMARK Flexibility Score: inf
ROOT
ATOM      1  C   UNL     1      -1.224  -0.051   3.281  1.00  0.00     0.188 C 
ENDROOT
BRANCH   1   2
ATOM      2  C   UNL     1      -0.744  -1.473   3.632  1.00  0.00     0.188 C 
BRANCH   2   3
ATOM      3  O   UNL     1      -0.797  -1.967   4.965  1.00  0.00    -0.376 OA
BRANCH   3   4
ATOM      4  C   UNL     1      -0.576  -1.102   6.067  1.00  0.00     0.202 C 
BRANCH   4   5
ATOM      5  C   UNL     1       0.675  -0.213   6.110  1.00  0.00     0.261 C 
BRANCH   5   6
ATOM      6  O   UNL     1       1.036   0.427   4.873  1.00  0.00    -0.462 OA
BRANCH   6   7
ATOM      7  C   UNL     1       2.133  -0.054   4.236  1.00  0.00     0.329 C 
ATOM      8  O   UNL     1       2.825  -0.977   4.654  1.00  0.00    -0.250 OA
BRANCH   7   9
ATOM      9  C   UNL     1       2.546   0.788   3.010  1.00  0.00     0.196 C 
BRANCH   9  10
ATOM     10  N   UNL     1       1.541   1.623   2.329  1.00  0.00    -0.343 N 
ATOM     11  C   UNL     1       1.385   0.305   0.242  1.00  0.00     0.114 C 
ATOM     12  C   UNL     1       1.023   1.507   1.070  1.00  0.00     0.217 C 
ATOM     13  O   UNL     1       0.228   2.351   0.661  1.00  0.00    -0.275 OA
ATOM     14  H   UNL     1       1.190   2.374   2.859  1.00  0.00     0.164 HD
ENDBRANCH   9  10
BRANCH   9  15
ATOM     15  C   UNL     1       3.732   1.670   3.449  1.00  0.00     0.072 C 
BRANCH  15  16
ATOM     16  C   UNL     1       3.338   2.803   4.382  1.00  0.00    -0.043 A 
ATOM     17  C   UNL     1       3.116   2.568   5.748  1.00  0.00     0.023 A 
ATOM     18  C   UNL     1       3.131   4.095   3.877  1.00  0.00     0.023 A 
ATOM     19  C   UNL     1       2.660   3.595   6.579  1.00  0.00     0.061 A 
ATOM     20  C   UNL     1       2.709   5.129   4.720  1.00  0.00     0.061 A 
ATOM     21  Br  UNL     1       2.282   3.197   8.395  1.00  0.00    -0.047 Br
ATOM     22  C   UNL     1       2.465   4.880   6.072  1.00  0.00     0.143 A 
ATOM     23  Br  UNL     1       2.477   6.857   3.973  1.00  0.00    -0.047 Br
BRANCH  22  24
ATOM     24  O   UNL     1       2.038   5.898   6.883  1.00  0.00    -0.506 OA
ATOM     25  H   UNL     1       1.874   5.736   7.791  1.00  0.00     0.293 HD
ENDBRANCH  22  24
ENDBRANCH  15  16
ENDBRANCH   9  15
ENDBRANCH   7   9
ENDBRANCH   6   7
ENDBRANCH   5   6
ENDBRANCH   4   5
ENDBRANCH   3   4
ENDBRANCH   2   3
ENDBRANCH   1   2
BRANCH   1  26
ATOM     26  O   UNL     1      -1.596   0.758   4.380  1.00  0.00    -0.377 OA
BRANCH  26  27
ATOM     27  C   UNL     1      -2.991   0.880   4.613  1.00  0.00     0.188 C 
BRANCH  27  28
ATOM     28  C   UNL     1      -3.819  -0.415   4.509  1.00  0.00     0.188 C 
BRANCH  28  29
ATOM     29  O   UNL     1      -3.636  -1.117   3.285  1.00  0.00    -0.376 OA
BRANCH  29  30
ATOM     30  C   UNL     1      -4.561  -0.915   2.226  1.00  0.00     0.202 C 
BRANCH  30  31
ATOM     31  C   UNL     1      -4.636   0.480   1.578  1.00  0.00     0.261 C 
BRANCH  31  32
ATOM     32  O   UNL     1      -4.952   1.575   2.452  1.00  0.00    -0.460 OA
BRANCH  32  33
ATOM     33  C   UNL     1      -6.104   1.511   3.143  1.00  0.00     0.338 C 
ATOM     34  O   UNL     1      -6.968   0.650   3.057  1.00  0.00    -0.246 OA
BRANCH  33  35
ATOM     35  C   UNL     1      -6.072   2.541   4.201  1.00  0.00     0.060 A 
ATOM     36  C   UNL     1      -6.242   2.133   5.529  1.00  0.00     0.016 A 
ATOM     37  C   UNL     1      -5.896   3.894   3.895  1.00  0.00     0.016 A 
ATOM     38  C   UNL     1      -6.302   3.079   6.548  1.00  0.00     0.010 A 
ATOM     39  C   UNL     1      -5.978   4.846   4.917  1.00  0.00     0.010 A 
ATOM     40  C   UNL     1      -6.229   4.444   6.240  1.00  0.00    -0.014 A 
BRANCH  40  41
ATOM     41  C   UNL     1      -6.618   5.422   7.285  1.00  0.00     0.031 A 
ATOM     42  C   UNL     1      -8.018   5.975   7.270  1.00  0.00     0.074 A 
ATOM     43  C   UNL     1      -5.777   5.737   8.286  1.00  0.00     0.049 A 
ATOM     44  N   UNL     1      -8.608   6.775   8.121  1.00  0.00    -0.248 NA
ATOM     45  C   UNL     1      -8.869   5.565   6.142  1.00  0.00     0.031 C 
ATOM     46  C   UNL     1      -4.412   5.238   8.428  1.00  0.00     0.029 A 
ATOM     47  N   UNL     1      -5.958   6.546   9.380  1.00  0.00    -0.354 N 
ATOM     48  C   UNL     1      -9.896   6.960   7.634  1.00  0.00     0.074 A 
ATOM     49  C   UNL     1      -9.990   6.225   6.392  1.00  0.00     0.031 C 
ATOM     50  C   UNL     1      -3.878   5.747   9.552  1.00  0.00     0.029 A 
ATOM     51  C   UNL     1      -4.855   6.627  10.192  1.00  0.00     0.049 A 
ATOM     52  H   UNL     1      -6.800   7.022   9.564  1.00  0.00     0.167 HD
ATOM     53  C   UNL     1     -10.914   7.667   8.181  1.00  0.00     0.037 A 
ATOM     54  C   UNL     1      -4.657   7.339  11.318  1.00  0.00     0.037 A 
ATOM     55  C   UNL     1     -10.815   8.405   9.414  1.00  0.00     0.049 A 
ATOM     56  C   UNL     1      -5.788   8.170  11.870  1.00  0.00     0.074 A 
ATOM     57  C   UNL     1     -11.791   9.145  10.059  1.00  0.00     0.029 A 
ATOM     58  N   UNL     1      -9.665   8.504  10.184  1.00  0.00    -0.354 N 
ATOM     59  N   UNL     1      -7.013   8.313  11.424  1.00  0.00    -0.248 NA
ATOM     60  C   UNL     1      -5.508   8.928  13.098  1.00  0.00     0.031 C 
ATOM     61  C   UNL     1     -11.213   9.745  11.183  1.00  0.00     0.029 A 
ATOM     62  C   UNL     1      -9.899   9.318  11.283  1.00  0.00     0.049 A 
ATOM     63  H   UNL     1      -8.809   8.062   9.981  1.00  0.00     0.167 HD
ATOM     64  C   UNL     1      -7.656   9.150  12.327  1.00  0.00     0.074 A 
ATOM     65  C   UNL     1      -6.692   9.458  13.363  1.00  0.00     0.031 C 
ATOM     66  C   UNL     1      -8.928   9.622  12.304  1.00  0.00     0.037 A 
BRANCH  53  67
ATOM     67  C   UNL     1     -12.215   7.704   7.429  1.00  0.00     0.064 A 
ATOM     68  C   UNL     1     -13.032   6.570   7.302  1.00  0.00     0.173 A 
ATOM     69  C   UNL     1     -12.665   8.901   6.850  1.00  0.00     0.173 A 
ATOM     70  F   UNL     1     -12.644   5.396   7.822  1.00  0.00    -0.203 F 
ATOM     71  C   UNL     1     -14.235   6.626   6.601  1.00  0.00     0.198 A 
ATOM     72  C   UNL     1     -13.884   8.962   6.180  1.00  0.00     0.198 A 
ATOM     73  F   UNL     1     -11.926  10.017   6.942  1.00  0.00    -0.203 F 
ATOM     74  F   UNL     1     -14.972   5.517   6.448  1.00  0.00    -0.200 F 
ATOM     75  C   UNL     1     -14.664   7.824   6.048  1.00  0.00     0.200 A 
ATOM     76  F   UNL     1     -14.303  10.124   5.660  1.00  0.00    -0.200 F 
ATOM     77  F   UNL     1     -15.825   7.878   5.383  1.00  0.00    -0.200 F 
ENDBRANCH  53  67
BRANCH  54  78
ATOM     78  C   UNL     1      -3.337   7.300  12.003  1.00  0.00     0.064 A 
ATOM     79  C   UNL     1      -3.195   6.741  13.281  1.00  0.00     0.173 A 
ATOM     80  C   UNL     1      -2.194   7.849  11.403  1.00  0.00     0.173 A 
ATOM     81  F   UNL     1      -4.262   6.225  13.909  1.00  0.00    -0.203 F 
ATOM     82  C   UNL     1      -1.968   6.756  13.942  1.00  0.00     0.198 A 
ATOM     83  C   UNL     1      -0.960   7.830  12.049  1.00  0.00     0.198 A 
ATOM     84  F   UNL     1      -2.274   8.397  10.182  1.00  0.00    -0.203 F 
ATOM     85  F   UNL     1      -1.874   6.266  15.186  1.00  0.00    -0.200 F 
ATOM     86  C   UNL     1      -0.851   7.294  13.323  1.00  0.00     0.200 A 
ATOM     87  F   UNL     1       0.121   8.335  11.440  1.00  0.00    -0.200 F 
ATOM     88  F   UNL     1       0.330   7.303  13.956  1.00  0.00    -0.200 F 
ENDBRANCH  54  78
BRANCH  66  89
ATOM     89  C   UNL     1      -9.357  10.490  13.457  1.00  0.00     0.064 A 
ATOM     90  C   UNL     1      -8.812  11.766  13.670  1.00  0.00     0.173 A 
ATOM     91  C   UNL     1     -10.323  10.033  14.368  1.00  0.00     0.173 A 
ATOM     92  F   UNL     1      -7.879  12.250  12.836  1.00  0.00    -0.203 F 
ATOM     93  C   UNL     1      -9.174  12.524  14.781  1.00  0.00     0.198 A 
ATOM     94  C   UNL     1     -10.714  10.813  15.454  1.00  0.00     0.198 A 
ATOM     95  F   UNL     1     -10.890   8.828  14.207  1.00  0.00    -0.203 F 
ATOM     96  F   UNL     1      -8.576  13.703  15.008  1.00  0.00    -0.200 F 
ATOM     97  C   UNL     1     -10.126  12.049  15.670  1.00  0.00     0.200 A 
ATOM     98  F   UNL     1     -11.649  10.360  16.300  1.00  0.00    -0.200 F 
ATOM     99  F   UNL     1     -10.467  12.777  16.742  1.00  0.00    -0.200 F 
ENDBRANCH  66  89
ENDBRANCH  40  41
ENDBRANCH  33  35
ENDBRANCH  32  33
ENDBRANCH  31  32
ENDBRANCH  30  31
ENDBRANCH  29  30
ENDBRANCH  28  29
ENDBRANCH  27  28
ENDBRANCH  26  27
ENDBRANCH   1  26
TORSDOF 24
