REMARK SMILES CC1(C)CSC[C@](O)([C@H](F)C(=O)OCCOCCOCCOCCOC(=O)c2ccc(-c3c4nc(c(-c5c(F)c(F)c(F)c(F)c5F)c5ccc([nH]5)c(-c5c(F)c(F)c(F)c(F)c5F)c5nc(c(-c6c(F)c(F)c(F)c(F)c6F)c6ccc3[nH]6)C=C5)C=C4)cc2)C1
REMARK SMILES IDX 19 1 18 2 17 3 16 4 15 5 14 6 13 7 11 8 12 9 9 10 10 11 7 12
REMARK SMILES IDX 1 13 2 14 3 15 4 16 91 17 5 18 6 19 8 20 20 22 21 23 22 24
REMARK SMILES IDX 23 25 24 26 25 27 26 28 27 29 28 30 29 31 90 32 30 33 89 34
REMARK SMILES IDX 31 35 32 36 33 37 83 38 34 39 88 40 82 41 84 42 35 43 87 44
REMARK SMILES IDX 81 45 80 46 36 48 68 49 48 50 67 51 49 52 52 53 66 54 85 55
REMARK SMILES IDX 50 56 51 57 65 59 86 60 53 61 37 62 38 63 46 64 39 65 40 66
REMARK SMILES IDX 44 67 47 68 41 69 42 70 45 71 43 72 69 73 70 74 78 75 71 76
REMARK SMILES IDX 72 77 76 78 79 79 73 80 74 81 77 82 75 83 54 84 55 85 63 86
REMARK SMILES IDX 56 87 57 88 61 89 64 90 58 91 59 92 62 93 60 94
REMARK H PARENT 8 21 84 47 52 58
REMARK Flexibility Score: inf
ROOT
ATOM      1  O   UNL     1       1.033   1.287  -4.626  1.00  0.00    -0.377 OA
ENDROOT
BRANCH   1   2
ATOM      2  C   UNL     1       0.829   0.019  -4.036  1.00  0.00     0.188 C 
BRANCH   2   3
ATOM      3  C   UNL     1       0.057  -0.958  -4.939  1.00  0.00     0.188 C 
BRANCH   3   4
ATOM      4  O   UNL     1       0.064  -0.716  -6.333  1.00  0.00    -0.376 OA
BRANCH   4   5
ATOM      5  C   UNL     1      -0.621   0.338  -6.990  1.00  0.00     0.202 C 
BRANCH   5   6
ATOM      6  C   UNL     1      -1.409   1.495  -6.357  1.00  0.00     0.261 C 
BRANCH   6   7
ATOM      7  O   UNL     1      -1.582   1.490  -4.953  1.00  0.00    -0.461 OA
BRANCH   7   8
ATOM      8  C   UNL     1      -2.511   0.636  -4.485  1.00  0.00     0.343 C 
ATOM      9  O   UNL     1      -3.199  -0.106  -5.179  1.00  0.00    -0.249 OA
BRANCH   8  10
ATOM     10  C   UNL     1      -2.604   0.687  -2.982  1.00  0.00     0.308 C 
ATOM     11  F   UNL     1      -1.460   1.132  -2.372  1.00  0.00    -0.232 F 
BRANCH  10  12
ATOM     12  C   UNL     1      -3.756   1.599  -2.554  1.00  0.00     0.116 C 
ATOM     13  C   UNL     1      -4.513   3.827  -0.325  1.00  0.00     0.012 C 
ATOM     14  C   UNL     1      -4.970   2.349  -0.354  1.00  0.00    -0.023 C 
ATOM     15  C   UNL     1      -5.126   1.873   1.108  1.00  0.00     0.012 C 
ATOM     16  C   UNL     1      -6.348   2.172  -1.029  1.00  0.00     0.076 C 
ATOM     17  C   UNL     1      -3.893   1.464  -1.022  1.00  0.00     0.047 C 
ATOM     18  S   UNL     1      -6.381   2.399  -2.828  1.00  0.00    -0.158 SA
ATOM     19  C   UNL     1      -5.065   1.225  -3.267  1.00  0.00     0.108 C 
BRANCH  12  20
ATOM     20  O   UNL     1      -3.404   2.951  -2.900  1.00  0.00    -0.385 OA
ATOM     21  H   UNL     1      -4.120   3.549  -2.637  1.00  0.00     0.211 HD
ENDBRANCH  12  20
ENDBRANCH  10  12
ENDBRANCH   8  10
ENDBRANCH   7   8
ENDBRANCH   6   7
ENDBRANCH   5   6
ENDBRANCH   4   5
ENDBRANCH   3   4
ENDBRANCH   2   3
ENDBRANCH   1   2
BRANCH   1  22
ATOM     22  C   UNL     1       2.182   1.459  -5.445  1.00  0.00     0.188 C 
BRANCH  22  23
ATOM     23  C   UNL     1       2.816   0.259  -6.187  1.00  0.00     0.188 C 
BRANCH  23  24
ATOM     24  O   UNL     1       2.857  -0.949  -5.443  1.00  0.00    -0.376 OA
BRANCH  24  25
ATOM     25  C   UNL     1       4.083  -1.369  -4.873  1.00  0.00     0.202 C 
BRANCH  25  26
ATOM     26  C   UNL     1       4.643  -0.514  -3.729  1.00  0.00     0.261 C 
BRANCH  26  27
ATOM     27  O   UNL     1       4.833   0.877  -4.024  1.00  0.00    -0.460 OA
BRANCH  27  28
ATOM     28  C   UNL     1       5.702   1.187  -5.007  1.00  0.00     0.338 C 
ATOM     29  O   UNL     1       6.387   0.420  -5.662  1.00  0.00    -0.246 OA
BRANCH  28  30
ATOM     30  C   UNL     1       5.552   2.627  -5.294  1.00  0.00     0.060 A 
ATOM     31  C   UNL     1       5.190   3.032  -6.587  1.00  0.00     0.016 A 
ATOM     32  C   UNL     1       5.764   3.568  -4.286  1.00  0.00     0.016 A 
ATOM     33  C   UNL     1       5.086   4.390  -6.887  1.00  0.00     0.010 A 
ATOM     34  C   UNL     1       5.685   4.927  -4.593  1.00  0.00     0.010 A 
ATOM     35  C   UNL     1       5.389   5.340  -5.904  1.00  0.00    -0.014 A 
BRANCH  35  36
ATOM     36  C   UNL     1       5.653   6.745  -6.295  1.00  0.00     0.031 A 
ATOM     37  C   UNL     1       7.085   7.149  -6.513  1.00  0.00     0.074 A 
ATOM     38  C   UNL     1       4.661   7.637  -6.449  1.00  0.00     0.049 A 
ATOM     39  N   UNL     1       7.594   8.330  -6.748  1.00  0.00    -0.248 NA
ATOM     40  C   UNL     1       8.082   6.066  -6.447  1.00  0.00     0.031 C 
ATOM     41  C   UNL     1       3.236   7.351  -6.316  1.00  0.00     0.029 A 
ATOM     42  N   UNL     1       4.715   8.979  -6.734  1.00  0.00    -0.354 N 
ATOM     43  C   UNL     1       8.966   8.134  -6.841  1.00  0.00     0.074 A 
ATOM     44  C   UNL     1       9.215   6.729  -6.610  1.00  0.00     0.031 C 
ATOM     45  C   UNL     1       2.546   8.491  -6.500  1.00  0.00     0.029 A 
ATOM     46  C   UNL     1       3.486   9.590  -6.721  1.00  0.00     0.049 A 
ATOM     47  H   UNL     1       5.553   9.456  -6.930  1.00  0.00     0.167 HD
ATOM     48  C   UNL     1       9.931   9.046  -7.101  1.00  0.00     0.037 A 
ATOM     49  C   UNL     1       3.168  10.895  -6.839  1.00  0.00     0.037 A 
ATOM     50  C   UNL     1       9.676  10.443  -7.326  1.00  0.00     0.049 A 
ATOM     51  C   UNL     1       4.269  11.906  -7.045  1.00  0.00     0.074 A 
ATOM     52  C   UNL     1      10.579  11.451  -7.609  1.00  0.00     0.029 A 
ATOM     53  N   UNL     1       8.419  11.030  -7.282  1.00  0.00    -0.354 N 
ATOM     54  N   UNL     1       5.563  11.718  -7.149  1.00  0.00    -0.248 NA
ATOM     55  C   UNL     1       3.863  13.315  -7.152  1.00  0.00     0.031 C 
ATOM     56  C   UNL     1       9.878  12.658  -7.675  1.00  0.00     0.029 A 
ATOM     57  C   UNL     1       8.528  12.393  -7.506  1.00  0.00     0.049 A 
ATOM     58  H   UNL     1       7.576  10.550  -7.117  1.00  0.00     0.167 HD
ATOM     59  C   UNL     1       6.119  12.972  -7.372  1.00  0.00     0.074 A 
ATOM     60  C   UNL     1       5.020  13.915  -7.396  1.00  0.00     0.031 C 
ATOM     61  C   UNL     1       7.420  13.314  -7.545  1.00  0.00     0.037 A 
BRANCH  48  62
ATOM     62  C   UNL     1      11.353   8.565  -7.117  1.00  0.00     0.064 A 
ATOM     63  C   UNL     1      11.840   7.721  -8.127  1.00  0.00     0.173 A 
ATOM     64  C   UNL     1      12.248   8.972  -6.115  1.00  0.00     0.173 A 
ATOM     65  F   UNL     1      11.021   7.287  -9.098  1.00  0.00    -0.203 F 
ATOM     66  C   UNL     1      13.161   7.280  -8.117  1.00  0.00     0.198 A 
ATOM     67  C   UNL     1      13.576   8.557  -6.128  1.00  0.00     0.198 A 
ATOM     68  F   UNL     1      11.835   9.778  -5.126  1.00  0.00    -0.203 F 
ATOM     69  F   UNL     1      13.588   6.430  -9.062  1.00  0.00    -0.200 F 
ATOM     70  C   UNL     1      14.030   7.705  -7.124  1.00  0.00     0.200 A 
ATOM     71  F   UNL     1      14.418   8.979  -5.175  1.00  0.00    -0.200 F 
ATOM     72  F   UNL     1      15.303   7.286  -7.121  1.00  0.00    -0.200 F 
ENDBRANCH  48  62
BRANCH  49  73
ATOM     73  C   UNL     1       1.748  11.329  -6.747  1.00  0.00     0.064 A 
ATOM     74  C   UNL     1       1.086  11.878  -7.854  1.00  0.00     0.173 A 
ATOM     75  C   UNL     1       1.033  11.233  -5.544  1.00  0.00     0.173 A 
ATOM     76  F   UNL     1       1.735  12.018  -9.020  1.00  0.00    -0.203 F 
ATOM     77  C   UNL     1      -0.227  12.335  -7.756  1.00  0.00     0.198 A 
ATOM     78  C   UNL     1      -0.290  11.661  -5.455  1.00  0.00     0.198 A 
ATOM     79  F   UNL     1       1.620  10.721  -4.452  1.00  0.00    -0.203 F 
ATOM     80  F   UNL     1      -0.815  12.908  -8.815  1.00  0.00    -0.200 F 
ATOM     81  C   UNL     1      -0.916  12.221  -6.558  1.00  0.00     0.200 A 
ATOM     82  F   UNL     1      -0.956  11.539  -4.298  1.00  0.00    -0.200 F 
ATOM     83  F   UNL     1      -2.178  12.661  -6.464  1.00  0.00    -0.200 F 
ENDBRANCH  49  73
BRANCH  61  84
ATOM     84  C   UNL     1       7.729  14.756  -7.837  1.00  0.00     0.064 A 
ATOM     85  C   UNL     1       7.598  15.757  -6.864  1.00  0.00     0.173 A 
ATOM     86  C   UNL     1       8.219  15.129  -9.100  1.00  0.00     0.173 A 
ATOM     87  F   UNL     1       7.125  15.457  -5.646  1.00  0.00    -0.203 F 
ATOM     88  C   UNL     1       7.919  17.081  -7.153  1.00  0.00     0.198 A 
ATOM     89  C   UNL     1       8.573  16.447  -9.373  1.00  0.00     0.198 A 
ATOM     90  F   UNL     1       8.374  14.209 -10.064  1.00  0.00    -0.203 F 
ATOM     91  F   UNL     1       7.738  18.030  -6.223  1.00  0.00    -0.200 F 
ATOM     92  C   UNL     1       8.414  17.424  -8.402  1.00  0.00     0.200 A 
ATOM     93  F   UNL     1       9.070  16.770 -10.575  1.00  0.00    -0.200 F 
ATOM     94  F   UNL     1       8.734  18.696  -8.673  1.00  0.00    -0.200 F 
ENDBRANCH  61  84
ENDBRANCH  35  36
ENDBRANCH  28  30
ENDBRANCH  27  28
ENDBRANCH  26  27
ENDBRANCH  25  26
ENDBRANCH  24  25
ENDBRANCH  23  24
ENDBRANCH  22  23
ENDBRANCH   1  22
TORSDOF 22
