REMARK SMILES O=C(OCCOCCOCCOCCOC(=O)c1ccc(-c2c3nc(c(-c4c(F)c(F)c(F)c(F)c4F)c4ccc([nH]4)c(-c4c(F)c(F)c(F)c(F)c4F)c4nc(c(-c5c(F)c(F)c(F)c(F)c5F)c5ccc2[nH]5)C=C4)C=C3)cc1)C1=Cc2cc(S(F)(F)(F)(F)F)ccc2O[C@@H]1C(F)(F)F
REMARK SMILES IDX 10 1 9 2 8 3 7 4 6 5 5 6 4 7 3 8 2 9 1 10 81 11 82 12 96 13
REMARK SMILES IDX 83 14 95 15 84 16 94 17 85 18 93 19 92 20 97 21 98 22 99 23
REMARK SMILES IDX 100 24 86 25 87 26 88 27 89 28 90 29 91 30 11 31 12 32 13 33
REMARK SMILES IDX 14 34 15 35 16 36 17 37 18 38 19 39 80 40 20 41 79 42 21 43
REMARK SMILES IDX 22 44 23 45 73 46 24 47 78 48 72 49 74 50 25 51 77 52 71 53
REMARK SMILES IDX 70 54 26 56 58 57 38 58 57 59 39 60 42 61 56 62 75 63 40 64
REMARK SMILES IDX 41 65 55 67 76 68 43 69 27 70 28 71 36 72 29 73 30 74 34 75
REMARK SMILES IDX 37 76 31 77 32 78 35 79 33 80 59 81 60 82 68 83 61 84 62 85
REMARK SMILES IDX 66 86 69 87 63 88 64 89 67 90 65 91 44 92 45 93 53 94 46 95
REMARK SMILES IDX 47 96 51 97 54 98 48 99 49 100 52 101 50 102
REMARK H PARENT 74 55 42 66
REMARK Flexibility Score: inf
ROOT
ATOM      1  C   UNL     1       4.497  -0.910  -2.618  1.00  0.00     0.188 C 
ENDROOT
BRANCH   1   2
ATOM      2  O   UNL     1       3.077  -0.910  -2.618  1.00  0.00    -0.377 OA
BRANCH   2   3
ATOM      3  C   UNL     1       2.604   0.417  -2.437  1.00  0.00     0.188 C 
BRANCH   3   4
ATOM      4  C   UNL     1       3.111   0.960  -1.111  1.00  0.00     0.188 C 
BRANCH   4   5
ATOM      5  O   UNL     1       4.531   0.960  -1.111  1.00  0.00    -0.376 OA
BRANCH   5   6
ATOM      6  C   UNL     1       5.004  -0.367  -1.291  1.00  0.00     0.202 C 
BRANCH   6   7
ATOM      7  C   UNL     1       4.497  -1.244  -0.158  1.00  0.00     0.261 C 
BRANCH   7   8
ATOM      8  O   UNL     1       3.077  -1.244  -0.158  1.00  0.00    -0.460 OA
BRANCH   8   9
ATOM      9  C   UNL     1       2.367  -0.026   0.008  1.00  0.00     0.338 C 
ATOM     10  O   UNL     1       1.096  -0.026   0.008  1.00  0.00    -0.246 OA
BRANCH   9  11
ATOM     11  C   UNL     1       3.127   1.279   0.185  1.00  0.00     0.087 C 
ATOM     12  C   UNL     1       4.488   1.279   0.185  1.00  0.00     0.027 C 
ATOM     13  C   UNL     1       2.367   2.583   0.362  1.00  0.00     0.316 C 
ATOM     14  C   UNL     1       5.248  -0.026   0.008  1.00  0.00     0.019 A 
ATOM     15  O   UNL     1       3.664  -0.646  -1.653  1.00  0.00    -0.475 OA
ATOM     16  C   UNL     1       6.326  -0.299   0.833  1.00  0.00     0.036 A 
ATOM     17  C   UNL     1       4.866  -0.881  -0.934  1.00  0.00     0.128 A 
ATOM     18  C   UNL     1       7.124  -1.382   0.393  1.00  0.00     0.107 A 
ATOM     19  C   UNL     1       5.624  -1.991  -1.219  1.00  0.00     0.048 A 
ATOM     20  C   UNL     1       6.736  -2.291  -0.482  1.00  0.00     0.028 A 
BRANCH  13  21
ATOM     21  C   UNL     1       2.735   3.540  -0.760  1.00  0.00     0.430 C 
ATOM     22  F   UNL     1       2.413   2.995  -1.930  1.00  0.00    -0.167 F 
ATOM     23  F   UNL     1       2.069   4.681  -0.605  1.00  0.00    -0.167 F 
ATOM     24  F   UNL     1       4.042   3.781  -0.727  1.00  0.00    -0.167 F 
ENDBRANCH  13  21
BRANCH  18  25
ATOM     25  S   UNL     1       8.793  -1.530   1.077  1.00  0.00     0.310 S 
ATOM     26  F   UNL     1       8.250  -1.507   2.567  1.00  0.00    -0.094 F 
ATOM     27  F   UNL     1       8.871   0.042   1.154  1.00  0.00    -0.094 F 
ATOM     28  F   UNL     1      10.226  -1.657   1.667  1.00  0.00    -0.094 F 
ATOM     29  F   UNL     1       8.643  -3.101   1.124  1.00  0.00    -0.094 F 
ATOM     30  F   UNL     1       7.296  -1.416   0.584  1.00  0.00    -0.094 F 
ENDBRANCH  18  25
ENDBRANCH   9  11
ENDBRANCH   8   9
ENDBRANCH   7   8
ENDBRANCH   6   7
ENDBRANCH   5   6
ENDBRANCH   4   5
ENDBRANCH   3   4
ENDBRANCH   2   3
ENDBRANCH   1   2
BRANCH   1  31
ATOM     31  C   UNL     1       5.004  -0.032  -3.751  1.00  0.00     0.188 C 
BRANCH  31  32
ATOM     32  O   UNL     1       4.531   1.294  -3.570  1.00  0.00    -0.376 OA
BRANCH  32  33
ATOM     33  C   UNL     1       3.111   1.294  -3.570  1.00  0.00     0.202 C 
BRANCH  33  34
ATOM     34  C   UNL     1       2.604   0.751  -4.897  1.00  0.00     0.261 C 
BRANCH  34  35
ATOM     35  O   UNL     1       3.077  -0.575  -5.077  1.00  0.00    -0.460 OA
BRANCH  35  36
ATOM     36  C   UNL     1       4.473  -0.832  -5.112  1.00  0.00     0.338 C 
ATOM     37  O   UNL     1       5.299   0.125  -4.982  1.00  0.00    -0.246 OA
BRANCH  36  38
ATOM     38  C   UNL     1       4.980  -2.252  -5.305  1.00  0.00     0.060 A 
ATOM     39  C   UNL     1       6.011  -2.714  -4.504  1.00  0.00     0.016 A 
ATOM     40  C   UNL     1       4.430  -3.026  -6.234  1.00  0.00     0.016 A 
ATOM     41  C   UNL     1       6.593  -3.922  -4.957  1.00  0.00     0.010 A 
ATOM     42  C   UNL     1       4.970  -4.254  -6.531  1.00  0.00     0.010 A 
ATOM     43  C   UNL     1       6.028  -4.748  -5.818  1.00  0.00    -0.014 A 
BRANCH  43  44
ATOM     44  C   UNL     1       6.526  -6.171  -6.008  1.00  0.00     0.031 A 
ATOM     45  C   UNL     1       6.980  -6.568  -7.267  1.00  0.00     0.074 A 
ATOM     46  C   UNL     1       6.489  -7.002  -4.901  1.00  0.00     0.049 A 
ATOM     47  N   UNL     1       7.473  -7.758  -7.616  1.00  0.00    -0.248 NA
ATOM     48  C   UNL     1       6.989  -5.698  -8.452  1.00  0.00     0.031 C 
ATOM     49  C   UNL     1       6.040  -6.606  -3.626  1.00  0.00     0.029 A 
ATOM     50  N   UNL     1       6.864  -8.324  -4.824  1.00  0.00    -0.354 N 
ATOM     51  C   UNL     1       7.820  -7.753  -8.905  1.00  0.00     0.074 A 
ATOM     52  C   UNL     1       7.508  -6.430  -9.462  1.00  0.00     0.031 C 
ATOM     53  C   UNL     1       6.133  -7.677  -2.795  1.00  0.00     0.029 A 
ATOM     54  C   UNL     1       6.641  -8.760  -3.536  1.00  0.00     0.049 A 
ATOM     55  H   UNL     1       7.229  -8.865  -5.561  1.00  0.00     0.167 HD
ATOM     56  C   UNL     1       8.386  -8.799  -9.635  1.00  0.00     0.037 A 
ATOM     57  C   UNL     1       6.861 -10.027  -3.019  1.00  0.00     0.037 A 
ATOM     58  C   UNL     1       8.646 -10.053  -9.107  1.00  0.00     0.049 A 
ATOM     59  C   UNL     1       7.373 -11.091  -3.766  1.00  0.00     0.074 A 
ATOM     60  C   UNL     1       9.223 -11.116  -9.828  1.00  0.00     0.029 A 
ATOM     61  N   UNL     1       8.400 -10.496  -7.826  1.00  0.00    -0.354 N 
ATOM     62  N   UNL     1       7.756 -11.075  -5.043  1.00  0.00    -0.248 NA
ATOM     63  C   UNL     1       7.579 -12.446  -3.237  1.00  0.00     0.031 C 
ATOM     64  C   UNL     1       9.316 -12.188  -8.996  1.00  0.00     0.029 A 
ATOM     65  C   UNL     1       8.797 -11.813  -7.742  1.00  0.00     0.049 A 
ATOM     66  H   UNL     1       8.009  -9.964  -7.096  1.00  0.00     0.167 HD
ATOM     67  C   UNL     1       8.210 -12.277  -5.403  1.00  0.00     0.074 A 
ATOM     68  C   UNL     1       8.096 -13.178  -4.248  1.00  0.00     0.031 C 
ATOM     69  C   UNL     1       8.719 -12.657  -6.646  1.00  0.00     0.037 A 
BRANCH  56  70
ATOM     70  C   UNL     1       8.736  -8.548 -11.093  1.00  0.00     0.064 A 
ATOM     71  C   UNL     1       9.683  -7.591 -11.418  1.00  0.00     0.173 A 
ATOM     72  C   UNL     1       8.161  -9.293 -12.029  1.00  0.00     0.173 A 
ATOM     73  F   UNL     1      10.463  -7.005 -10.513  1.00  0.00    -0.203 F 
ATOM     74  C   UNL     1       9.746  -7.293 -12.800  1.00  0.00     0.198 A 
ATOM     75  C   UNL     1       8.374  -9.031 -13.361  1.00  0.00     0.198 A 
ATOM     76  F   UNL     1       7.371 -10.302 -11.675  1.00  0.00    -0.203 F 
ATOM     77  F   UNL     1      10.345  -6.162 -13.162  1.00  0.00    -0.200 F 
ATOM     78  C   UNL     1       9.252  -8.060 -13.755  1.00  0.00     0.200 A 
ATOM     79  F   UNL     1       7.718  -9.733 -14.280  1.00  0.00    -0.200 F 
ATOM     80  F   UNL     1       9.590  -7.896 -15.030  1.00  0.00    -0.200 F 
ENDBRANCH  56  70
BRANCH  57  81
ATOM     81  C   UNL     1       6.526 -10.273  -1.557  1.00  0.00     0.064 A 
ATOM     82  C   UNL     1       7.511 -10.731  -0.698  1.00  0.00     0.173 A 
ATOM     83  C   UNL     1       5.278 -10.094  -1.141  1.00  0.00     0.173 A 
ATOM     84  F   UNL     1       8.808 -10.685  -0.992  1.00  0.00    -0.203 F 
ATOM     85  C   UNL     1       7.014 -11.250   0.520  1.00  0.00     0.198 A 
ATOM     86  C   UNL     1       4.894 -10.503   0.114  1.00  0.00     0.198 A 
ATOM     87  F   UNL     1       4.392  -9.513  -1.944  1.00  0.00    -0.203 F 
ATOM     88  F   UNL     1       7.822 -12.026   1.238  1.00  0.00    -0.200 F 
ATOM     89  C   UNL     1       5.803 -11.019   0.994  1.00  0.00     0.200 A 
ATOM     90  F   UNL     1       3.619 -10.396   0.476  1.00  0.00    -0.200 F 
ATOM     91  F   UNL     1       5.486 -11.275   2.260  1.00  0.00    -0.200 F 
ENDBRANCH  57  81
BRANCH  69  92
ATOM     92  C   UNL     1       9.217 -14.084  -6.807  1.00  0.00     0.064 A 
ATOM     93  C   UNL     1       8.341 -15.138  -6.604  1.00  0.00     0.173 A 
ATOM     94  C   UNL     1      10.484 -14.297  -7.141  1.00  0.00     0.173 A 
ATOM     95  F   UNL     1       7.023 -14.979  -6.520  1.00  0.00    -0.203 F 
ATOM     96  C   UNL     1       8.975 -16.398  -6.492  1.00  0.00     0.198 A 
ATOM     97  C   UNL     1      11.003 -15.569  -7.143  1.00  0.00     0.198 A 
ATOM     98  F   UNL     1      11.259 -13.269  -7.475  1.00  0.00    -0.203 F 
ATOM     99  F   UNL     1       8.282 -17.394  -5.948  1.00  0.00    -0.200 F 
ATOM    100  C   UNL     1      10.208 -16.653  -6.892  1.00  0.00     0.200 A 
ATOM    101  F   UNL     1      12.297 -15.749  -7.392  1.00  0.00    -0.200 F 
ATOM    102  F   UNL     1      10.652 -17.898  -7.042  1.00  0.00    -0.200 F 
ENDBRANCH  69  92
ENDBRANCH  43  44
ENDBRANCH  36  38
ENDBRANCH  35  36
ENDBRANCH  34  35
ENDBRANCH  33  34
ENDBRANCH  32  33
ENDBRANCH  31  32
ENDBRANCH   1  31
TORSDOF 22
