REMARK SMILES CC1=C(C)C[C@@H](C(=O)OCCOCCOCCOCCOC(=O)c2ccc(-c3c4nc(c(-c5c(F)c(F)c(F)c(F)c5F)c5ccc([nH]5)c(-c5c(F)c(F)c(F)c(F)c5F)c5nc(c(-c6c(F)c(F)c(F)c(F)c6F)c6ccc3[nH]6)C=C5)C=C4)cc2)[C@H](C(=O)NCc2cccnc2)C1
REMARK SMILES IDX 14 1 13 2 12 3 11 4 10 5 9 6 7 7 8 8 6 9 1 10 2 11 3 12
REMARK SMILES IDX 98 13 4 14 5 15 87 16 88 17 89 18 90 19 91 21 92 22 93 23
REMARK SMILES IDX 97 24 94 25 96 26 95 27 15 28 16 29 17 30 18 31 19 32 20 33
REMARK SMILES IDX 21 34 22 35 23 36 24 37 25 38 86 39 26 40 85 41 27 42 28 43
REMARK SMILES IDX 29 44 79 45 30 46 84 47 78 48 80 49 31 50 83 51 77 52 76 53
REMARK SMILES IDX 32 55 64 56 44 57 63 58 45 59 48 60 62 61 81 62 46 63 47 64
REMARK SMILES IDX 61 66 82 67 49 68 33 69 34 70 42 71 35 72 36 73 40 74 43 75
REMARK SMILES IDX 37 76 38 77 41 78 39 79 65 80 66 81 74 82 67 83 68 84 72 85
REMARK SMILES IDX 75 86 69 87 70 88 73 89 71 90 50 91 51 92 59 93 52 94 53 95
REMARK SMILES IDX 57 96 60 97 54 98 55 99 58 100 56 101
REMARK H PARENT 90 20 80 54 48 65
REMARK Flexibility Score: inf
ROOT
ATOM      1  C   UNL     1       1.970   5.157   3.715  1.00  0.00     0.188 C 
ENDROOT
BRANCH   1   2
ATOM      2  C   UNL     1       1.683   5.260   5.216  1.00  0.00     0.188 C 
BRANCH   2   3
ATOM      3  O   UNL     1       2.585   4.741   6.181  1.00  0.00    -0.376 OA
BRANCH   3   4
ATOM      4  C   UNL     1       3.291   3.527   5.978  1.00  0.00     0.202 C 
BRANCH   4   5
ATOM      5  C   UNL     1       2.588   2.220   5.568  1.00  0.00     0.261 C 
BRANCH   5   6
ATOM      6  O   UNL     1       1.869   2.207   4.319  1.00  0.00    -0.463 OA
BRANCH   6   7
ATOM      7  C   UNL     1       0.524   2.311   4.421  1.00  0.00     0.310 C 
ATOM      8  O   UNL     1      -0.071   2.450   5.488  1.00  0.00    -0.252 OA
BRANCH   7   9
ATOM      9  C   UNL     1      -0.243   2.096   3.119  1.00  0.00     0.116 C 
ATOM     10  C   UNL     1       1.150  -0.552  -0.223  1.00  0.00     0.039 C 
ATOM     11  C   UNL     1       0.584   0.255   0.918  1.00  0.00    -0.074 C 
ATOM     12  C   UNL     1      -0.065  -0.245   1.988  1.00  0.00    -0.073 C 
ATOM     13  C   UNL     1       0.821   1.728   0.730  1.00  0.00     0.045 C 
ATOM     14  C   UNL     1      -0.353  -1.704   2.228  1.00  0.00     0.039 C 
ATOM     15  C   UNL     1      -0.602   0.614   3.103  1.00  0.00     0.046 C 
ATOM     16  C   UNL     1       0.336   2.678   1.822  1.00  0.00     0.097 C 
BRANCH  16  17
ATOM     17  C   UNL     1      -0.566   3.767   1.223  1.00  0.00     0.224 C 
ATOM     18  O   UNL     1      -0.179   4.940   1.170  1.00  0.00    -0.275 OA
ATOM     19  N   UNL     1      -1.802   3.520   0.720  1.00  0.00    -0.352 N 
ATOM     20  H   UNL     1      -2.266   4.320   0.384  1.00  0.00     0.163 HD
BRANCH  19  21
ATOM     21  C   UNL     1      -2.564   2.296   0.585  1.00  0.00     0.153 C 
BRANCH  21  22
ATOM     22  C   UNL     1      -3.612   2.105   1.646  1.00  0.00    -0.010 A 
ATOM     23  C   UNL     1      -4.053   0.816   1.973  1.00  0.00     0.009 A 
ATOM     24  C   UNL     1      -4.223   3.162   2.312  1.00  0.00     0.116 A 
ATOM     25  C   UNL     1      -5.008   0.634   2.969  1.00  0.00     0.020 A 
ATOM     26  N   UNL     1      -5.169   3.017   3.269  1.00  0.00    -0.264 NA
ATOM     27  C   UNL     1      -5.530   1.756   3.586  1.00  0.00     0.111 A 
ENDBRANCH  21  22
ENDBRANCH  19  21
ENDBRANCH  16  17
ENDBRANCH   7   9
ENDBRANCH   6   7
ENDBRANCH   5   6
ENDBRANCH   4   5
ENDBRANCH   3   4
ENDBRANCH   2   3
ENDBRANCH   1   2
BRANCH   1  28
ATOM     28  O   UNL     1       3.065   4.332   3.364  1.00  0.00    -0.377 OA
BRANCH  28  29
ATOM     29  C   UNL     1       4.317   4.957   3.114  1.00  0.00     0.188 C 
BRANCH  29  30
ATOM     30  C   UNL     1       4.624   6.264   3.860  1.00  0.00     0.188 C 
BRANCH  30  31
ATOM     31  O   UNL     1       3.655   7.276   3.640  1.00  0.00    -0.376 OA
BRANCH  31  32
ATOM     32  C   UNL     1       3.806   8.171   2.549  1.00  0.00     0.202 C 
BRANCH  32  33
ATOM     33  C   UNL     1       3.945   7.625   1.116  1.00  0.00     0.261 C 
BRANCH  33  34
ATOM     34  O   UNL     1       5.043   6.739   0.835  1.00  0.00    -0.460 OA
BRANCH  34  35
ATOM     35  C   UNL     1       6.295   7.105   1.179  1.00  0.00     0.338 C 
ATOM     36  O   UNL     1       6.655   8.163   1.648  1.00  0.00    -0.246 OA
BRANCH  35  37
ATOM     37  C   UNL     1       7.151   5.901   1.063  1.00  0.00     0.060 A 
ATOM     38  C   UNL     1       7.838   5.443   2.194  1.00  0.00     0.016 A 
ATOM     39  C   UNL     1       7.287   5.240  -0.160  1.00  0.00     0.016 A 
ATOM     40  C   UNL     1       8.700   4.350   2.095  1.00  0.00     0.010 A 
ATOM     41  C   UNL     1       8.167   4.159  -0.264  1.00  0.00     0.010 A 
ATOM     42  C   UNL     1       8.907   3.734   0.855  1.00  0.00    -0.014 A 
BRANCH  42  43
ATOM     43  C   UNL     1      10.034   2.784   0.681  1.00  0.00     0.031 A 
ATOM     44  C   UNL     1      11.312   3.298   0.074  1.00  0.00     0.074 A 
ATOM     45  C   UNL     1       9.932   1.498   1.060  1.00  0.00     0.049 A 
ATOM     46  N   UNL     1      12.403   2.650  -0.245  1.00  0.00    -0.248 NA
ATOM     47  C   UNL     1      11.362   4.740  -0.218  1.00  0.00     0.031 C 
ATOM     48  C   UNL     1       8.763   0.894   1.692  1.00  0.00     0.029 A 
ATOM     49  N   UNL     1      10.829   0.464   0.948  1.00  0.00    -0.354 N 
ATOM     50  C   UNL     1      13.259   3.600  -0.789  1.00  0.00     0.074 A 
ATOM     51  C   UNL     1      12.555   4.863  -0.779  1.00  0.00     0.031 C 
ATOM     52  C   UNL     1       9.004  -0.413   1.893  1.00  0.00     0.029 A 
ATOM     53  C   UNL     1      10.328  -0.744   1.369  1.00  0.00     0.049 A 
ATOM     54  H   UNL     1      11.743   0.577   0.600  1.00  0.00     0.167 HD
ATOM     55  C   UNL     1      14.519   3.431  -1.252  1.00  0.00     0.037 A 
ATOM     56  C   UNL     1      10.868  -1.978   1.304  1.00  0.00     0.037 A 
ATOM     57  C   UNL     1      15.218   2.173  -1.250  1.00  0.00     0.049 A 
ATOM     58  C   UNL     1      12.252  -2.148   0.727  1.00  0.00     0.074 A 
ATOM     59  C   UNL     1      16.512   1.905  -1.658  1.00  0.00     0.029 A 
ATOM     60  N   UNL     1      14.673   0.968  -0.830  1.00  0.00    -0.354 N 
ATOM     61  N   UNL     1      13.071  -1.240   0.251  1.00  0.00    -0.248 NA
ATOM     62  C   UNL     1      12.789  -3.516   0.681  1.00  0.00     0.031 C 
ATOM     63  C   UNL     1      16.727   0.528  -1.552  1.00  0.00     0.029 A 
ATOM     64  C   UNL     1      15.593  -0.052  -1.007  1.00  0.00     0.049 A 
ATOM     65  H   UNL     1      13.767   0.855  -0.462  1.00  0.00     0.167 HD
ATOM     66  C   UNL     1      14.226  -1.920  -0.119  1.00  0.00     0.074 A 
ATOM     67  C   UNL     1      14.009  -3.314   0.203  1.00  0.00     0.031 C 
ATOM     68  C   UNL     1      15.364  -1.435  -0.674  1.00  0.00     0.037 A 
BRANCH  55  69
ATOM     69  C   UNL     1      15.217   4.625  -1.837  1.00  0.00     0.064 A 
ATOM     70  C   UNL     1      15.655   5.695  -1.043  1.00  0.00     0.173 A 
ATOM     71  C   UNL     1      15.498   4.671  -3.212  1.00  0.00     0.173 A 
ATOM     72  F   UNL     1      15.400   5.708   0.274  1.00  0.00    -0.203 F 
ATOM     73  C   UNL     1      16.330   6.775  -1.607  1.00  0.00     0.198 A 
ATOM     74  C   UNL     1      16.201   5.737  -3.766  1.00  0.00     0.198 A 
ATOM     75  F   UNL     1      15.104   3.673  -4.017  1.00  0.00    -0.203 F 
ATOM     76  F   UNL     1      16.702   7.807  -0.836  1.00  0.00    -0.200 F 
ATOM     77  C   UNL     1      16.611   6.791  -2.965  1.00  0.00     0.200 A 
ATOM     78  F   UNL     1      16.484   5.742  -5.076  1.00  0.00    -0.200 F 
ATOM     79  F   UNL     1      17.274   7.824  -3.502  1.00  0.00    -0.200 F 
ENDBRANCH  55  69
BRANCH  56  80
ATOM     80  C   UNL     1      10.089  -3.160   1.764  1.00  0.00     0.064 A 
ATOM     81  C   UNL     1      10.500  -3.920   2.867  1.00  0.00     0.173 A 
ATOM     82  C   UNL     1       8.935  -3.577   1.081  1.00  0.00     0.173 A 
ATOM     83  F   UNL     1      11.611  -3.581   3.538  1.00  0.00    -0.203 F 
ATOM     84  C   UNL     1       9.805  -5.066   3.253  1.00  0.00     0.198 A 
ATOM     85  C   UNL     1       8.221  -4.702   1.489  1.00  0.00     0.198 A 
ATOM     86  F   UNL     1       8.498  -2.889   0.016  1.00  0.00    -0.203 F 
ATOM     87  F   UNL     1      10.257  -5.808   4.273  1.00  0.00    -0.200 F 
ATOM     88  C   UNL     1       8.664  -5.452   2.567  1.00  0.00     0.200 A 
ATOM     89  F   UNL     1       7.111  -5.063   0.832  1.00  0.00    -0.200 F 
ATOM     90  F   UNL     1       7.997  -6.554   2.938  1.00  0.00    -0.200 F 
ENDBRANCH  56  80
BRANCH  68  91
ATOM     91  C   UNL     1      16.481  -2.408  -0.933  1.00  0.00     0.064 A 
ATOM     92  C   UNL     1      16.393  -3.388  -1.933  1.00  0.00     0.173 A 
ATOM     93  C   UNL     1      17.674  -2.328  -0.197  1.00  0.00     0.173 A 
ATOM     94  F   UNL     1      15.271  -3.516  -2.657  1.00  0.00    -0.203 F 
ATOM     95  C   UNL     1      17.446  -4.270  -2.166  1.00  0.00     0.198 A 
ATOM     96  C   UNL     1      18.738  -3.187  -0.458  1.00  0.00     0.198 A 
ATOM     97  F   UNL     1      17.816  -1.403   0.764  1.00  0.00    -0.203 F 
ATOM     98  F   UNL     1      17.319  -5.232  -3.089  1.00  0.00    -0.200 F 
ATOM     99  C   UNL     1      18.620  -4.163  -1.435  1.00  0.00     0.200 A 
ATOM    100  F   UNL     1      19.878  -3.068   0.237  1.00  0.00    -0.200 F 
ATOM    101  F   UNL     1      19.635  -5.006  -1.667  1.00  0.00    -0.200 F 
ENDBRANCH  68  91
ENDBRANCH  42  43
ENDBRANCH  35  37
ENDBRANCH  34  35
ENDBRANCH  33  34
ENDBRANCH  32  33
ENDBRANCH  31  32
ENDBRANCH  30  31
ENDBRANCH  29  30
ENDBRANCH  28  29
ENDBRANCH   1  28
TORSDOF 23
