REMARK SMILES O=C(OCCOCCOCCOCCOC(=O)c1ccccc1-c1ccc(/C=C2/SC(=S)N(Cc3ccccc3)C2=O)o1)c1ccc(-c2c3nc(c(-c4c(F)c(F)c(F)c(F)c4F)c4ccc([nH]4)c(-c4c(F)c(F)c(F)c(F)c4F)c4nc(c(-c5c(F)c(F)c(F)c(F)c5F)c5ccc2[nH]5)C=C4)C=C3)cc1
REMARK SMILES IDX 10 1 9 2 8 3 7 4 6 5 5 6 4 7 3 8 2 9 1 10 44 11 45 12 106 13
REMARK SMILES IDX 46 14 105 15 47 16 48 17 49 18 99 19 50 20 104 21 98 22
REMARK SMILES IDX 100 23 51 24 103 25 97 26 96 27 52 29 84 30 64 31 83 32
REMARK SMILES IDX 65 33 68 34 82 35 101 36 66 37 67 38 81 40 102 41 69 42
REMARK SMILES IDX 53 43 54 44 62 45 55 46 56 47 60 48 63 49 57 50 58 51 61 52
REMARK SMILES IDX 59 53 85 54 86 55 94 56 87 57 88 58 92 59 95 60 89 61 90 62
REMARK SMILES IDX 93 63 91 64 70 65 71 66 79 67 72 68 73 69 77 70 80 71 74 72
REMARK SMILES IDX 75 73 78 74 76 75 11 76 12 77 13 78 14 79 15 80 16 81 17 82
REMARK SMILES IDX 18 83 19 84 23 85 20 86 22 87 21 88 24 89 25 90 43 91 26 92
REMARK SMILES IDX 27 93 28 94 29 95 30 96 41 97 31 98 33 99 42 100 32 101
REMARK SMILES IDX 34 102 35 103 36 104 40 105 37 106 39 107 38 108
REMARK H PARENT 100 28 68 39
REMARK Flexibility Score: inf
ROOT
ATOM      1  C   UNL     1       4.032   3.132  -1.862  1.00  0.00     0.188 C 
ENDROOT
BRANCH   1   2
ATOM      2  O   UNL     1       2.616   3.269  -1.874  1.00  0.00    -0.377 OA
BRANCH   2   3
ATOM      3  C   UNL     1       1.873   2.391  -1.033  1.00  0.00     0.188 C 
BRANCH   3   4
ATOM      4  C   UNL     1       2.231   0.912  -1.170  1.00  0.00     0.188 C 
BRANCH   4   5
ATOM      5  O   UNL     1       3.551   0.677  -0.672  1.00  0.00    -0.376 OA
BRANCH   5   6
ATOM      6  C   UNL     1       4.325  -0.261  -1.417  1.00  0.00     0.202 C 
BRANCH   6   7
ATOM      7  C   UNL     1       4.162  -1.700  -0.932  1.00  0.00     0.261 C 
BRANCH   7   8
ATOM      8  O   UNL     1       2.810  -1.982  -0.545  1.00  0.00    -0.460 OA
BRANCH   8   9
ATOM      9  C   UNL     1       2.247  -1.833   0.680  1.00  0.00     0.338 C 
ATOM     10  O   UNL     1       1.059  -2.128   0.808  1.00  0.00    -0.246 OA
BRANCH   9  11
ATOM     11  C   UNL     1       2.977  -1.368   1.905  1.00  0.00     0.060 A 
ATOM     12  C   UNL     1       4.132  -0.581   1.931  1.00  0.00     0.016 A 
ATOM     13  C   UNL     1       2.406  -1.721   3.142  1.00  0.00     0.016 A 
ATOM     14  C   UNL     1       4.744  -0.216   3.123  1.00  0.00     0.010 A 
ATOM     15  C   UNL     1       3.003  -1.347   4.350  1.00  0.00     0.010 A 
ATOM     16  C   UNL     1       4.197  -0.622   4.336  1.00  0.00    -0.014 A 
BRANCH  16  17
ATOM     17  C   UNL     1       5.016  -0.453   5.548  1.00  0.00     0.031 A 
ATOM     18  C   UNL     1       5.782  -1.645   6.035  1.00  0.00     0.074 A 
ATOM     19  C   UNL     1       5.176   0.763   6.096  1.00  0.00     0.049 A 
ATOM     20  N   UNL     1       6.535  -1.777   7.093  1.00  0.00    -0.248 NA
ATOM     21  C   UNL     1       5.702  -2.856   5.197  1.00  0.00     0.031 C 
ATOM     22  C   UNL     1       4.580   2.000   5.590  1.00  0.00     0.029 A 
ATOM     23  N   UNL     1       5.911   1.162   7.180  1.00  0.00    -0.354 N 
ATOM     24  C   UNL     1       6.989  -3.089   7.063  1.00  0.00     0.074 A 
ATOM     25  C   UNL     1       6.434  -3.715   5.887  1.00  0.00     0.031 C 
ATOM     26  C   UNL     1       4.982   3.025   6.361  1.00  0.00     0.029 A 
ATOM     27  C   UNL     1       5.808   2.505   7.446  1.00  0.00     0.049 A 
ATOM     28  H   UNL     1       6.460   0.546   7.717  1.00  0.00     0.167 HD
ATOM     29  C   UNL     1       7.794  -3.710   7.954  1.00  0.00     0.037 A 
ATOM     30  C   UNL     1       6.303   3.213   8.479  1.00  0.00     0.037 A 
ATOM     31  C   UNL     1       8.329  -3.056   9.116  1.00  0.00     0.049 A 
ATOM     32  C   UNL     1       7.114   2.475   9.513  1.00  0.00     0.074 A 
ATOM     33  C   UNL     1       9.094  -3.584  10.137  1.00  0.00     0.029 A 
ATOM     34  N   UNL     1       8.144  -1.708   9.402  1.00  0.00    -0.354 N 
ATOM     35  N   UNL     1       7.478   1.214   9.534  1.00  0.00    -0.248 NA
ATOM     36  C   UNL     1       7.566   3.249  10.675  1.00  0.00     0.031 C 
ATOM     37  C   UNL     1       9.335  -2.564  11.065  1.00  0.00     0.029 A 
ATOM     38  C   UNL     1       8.766  -1.389  10.595  1.00  0.00     0.049 A 
ATOM     39  H   UNL     1       7.643  -1.075   8.839  1.00  0.00     0.167 HD
ATOM     40  C   UNL     1       8.213   1.044  10.698  1.00  0.00     0.074 A 
ATOM     41  C   UNL     1       8.260   2.340  11.347  1.00  0.00     0.031 C 
ATOM     42  C   UNL     1       8.792  -0.078  11.195  1.00  0.00     0.037 A 
BRANCH  29  43
ATOM     43  C   UNL     1       8.055  -5.170   7.734  1.00  0.00     0.064 A 
ATOM     44  C   UNL     1       8.869  -5.635   6.690  1.00  0.00     0.173 A 
ATOM     45  C   UNL     1       7.433  -6.125   8.553  1.00  0.00     0.173 A 
ATOM     46  F   UNL     1       9.459  -4.765   5.856  1.00  0.00    -0.203 F 
ATOM     47  C   UNL     1       9.022  -7.000   6.454  1.00  0.00     0.198 A 
ATOM     48  C   UNL     1       7.610  -7.488   8.332  1.00  0.00     0.198 A 
ATOM     49  F   UNL     1       6.635  -5.735   9.559  1.00  0.00    -0.203 F 
ATOM     50  F   UNL     1       9.750  -7.420   5.410  1.00  0.00    -0.200 F 
ATOM     51  C   UNL     1       8.396  -7.924   7.276  1.00  0.00     0.200 A 
ATOM     52  F   UNL     1       7.004  -8.379   9.128  1.00  0.00    -0.200 F 
ATOM     53  F   UNL     1       8.534  -9.236   7.040  1.00  0.00    -0.200 F 
ENDBRANCH  29  43
BRANCH  30  54
ATOM     54  C   UNL     1       6.002   4.665   8.610  1.00  0.00     0.064 A 
ATOM     55  C   UNL     1       7.015   5.631   8.544  1.00  0.00     0.173 A 
ATOM     56  C   UNL     1       4.689   5.118   8.816  1.00  0.00     0.173 A 
ATOM     57  F   UNL     1       8.291   5.254   8.373  1.00  0.00    -0.203 F 
ATOM     58  C   UNL     1       6.730   6.989   8.692  1.00  0.00     0.198 A 
ATOM     59  C   UNL     1       4.400   6.476   8.932  1.00  0.00     0.198 A 
ATOM     60  F   UNL     1       3.679   4.239   8.895  1.00  0.00    -0.203 F 
ATOM     61  F   UNL     1       7.724   7.887   8.671  1.00  0.00    -0.200 F 
ATOM     62  C   UNL     1       5.422   7.410   8.879  1.00  0.00     0.200 A 
ATOM     63  F   UNL     1       3.133   6.878   9.099  1.00  0.00    -0.200 F 
ATOM     64  F   UNL     1       5.147   8.715   9.016  1.00  0.00    -0.200 F 
ENDBRANCH  30  54
BRANCH  42  65
ATOM     65  C   UNL     1       9.546   0.063  12.482  1.00  0.00     0.064 A 
ATOM     66  C   UNL     1       8.882   0.219  13.707  1.00  0.00     0.173 A 
ATOM     67  C   UNL     1      10.946  -0.019  12.492  1.00  0.00     0.173 A 
ATOM     68  F   UNL     1       7.545   0.317  13.743  1.00  0.00    -0.203 F 
ATOM     69  C   UNL     1       9.597   0.307  14.897  1.00  0.00     0.198 A 
ATOM     70  C   UNL     1      11.655   0.039  13.686  1.00  0.00     0.198 A 
ATOM     71  F   UNL     1      11.622  -0.177  11.344  1.00  0.00    -0.203 F 
ATOM     72  F   UNL     1       8.948   0.497  16.053  1.00  0.00    -0.200 F 
ATOM     73  C   UNL     1      10.981   0.208  14.886  1.00  0.00     0.200 A 
ATOM     74  F   UNL     1      12.991  -0.072  13.676  1.00  0.00    -0.200 F 
ATOM     75  F   UNL     1      11.667   0.281  16.035  1.00  0.00    -0.200 F 
ENDBRANCH  42  65
ENDBRANCH  16  17
ENDBRANCH   9  11
ENDBRANCH   8   9
ENDBRANCH   7   8
ENDBRANCH   6   7
ENDBRANCH   5   6
ENDBRANCH   4   5
ENDBRANCH   3   4
ENDBRANCH   2   3
ENDBRANCH   1   2
BRANCH   1  76
ATOM     76  C   UNL     1       4.797   3.316  -0.528  1.00  0.00     0.188 C 
BRANCH  76  77
ATOM     77  O   UNL     1       3.994   3.586   0.617  1.00  0.00    -0.376 OA
BRANCH  77  78
ATOM     78  C   UNL     1       4.025   4.938   1.074  1.00  0.00     0.202 C 
BRANCH  78  79
ATOM     79  C   UNL     1       3.295   5.919   0.164  1.00  0.00     0.261 C 
BRANCH  79  80
ATOM     80  O   UNL     1       3.826   5.945  -1.165  1.00  0.00    -0.460 OA
BRANCH  80  81
ATOM     81  C   UNL     1       5.026   6.511  -1.417  1.00  0.00     0.338 C 
ATOM     82  O   UNL     1       5.798   6.988  -0.606  1.00  0.00    -0.246 OA
BRANCH  81  83
ATOM     83  C   UNL     1       5.296   6.291  -2.863  1.00  0.00     0.071 A 
ATOM     84  C   UNL     1       6.478   5.609  -3.193  1.00  0.00     0.016 A 
ATOM     85  C   UNL     1       4.321   6.571  -3.846  1.00  0.00     0.032 A 
ATOM     86  C   UNL     1       6.674   5.157  -4.498  1.00  0.00     0.001 A 
ATOM     87  C   UNL     1       4.547   6.118  -5.154  1.00  0.00     0.013 A 
ATOM     88  C   UNL     1       5.709   5.407  -5.474  1.00  0.00     0.001 A 
BRANCH  85  89
ATOM     89  C   UNL     1       3.096   7.287  -3.506  1.00  0.00     0.135 A 
ATOM     90  C   UNL     1       2.816   8.259  -2.570  1.00  0.00     0.051 A 
ATOM     91  O   UNL     1       1.949   6.910  -4.143  1.00  0.00    -0.457 OA
ATOM     92  C   UNL     1       1.419   8.386  -2.545  1.00  0.00     0.051 A 
ATOM     93  C   UNL     1       0.915   7.627  -3.595  1.00  0.00     0.128 A 
BRANCH  93  94
ATOM     94  C   UNL     1      -0.416   7.667  -4.087  1.00  0.00     0.068 C 
ATOM     95  C   UNL     1      -0.846   8.816  -4.628  1.00  0.00     0.084 C 
ATOM     96  S   UNL     1      -2.485   9.311  -4.747  1.00  0.00    -0.054 SA
ATOM     97  C   UNL     1       0.031   9.968  -4.974  1.00  0.00     0.266 C 
ATOM     98  C   UNL     1      -2.027  11.026  -4.700  1.00  0.00     0.148 C 
ATOM     99  N   UNL     1      -0.659  11.148  -4.808  1.00  0.00    -0.288 N 
ATOM    100  O   UNL     1       1.176   9.864  -5.391  1.00  0.00    -0.268 OA
ATOM    101  S   UNL     1      -3.162  12.238  -4.553  1.00  0.00    -0.052 S 
BRANCH  99 102
ATOM    102  C   UNL     1       0.098  12.397  -4.868  1.00  0.00     0.163 C 
BRANCH 102 103
ATOM    103  C   UNL     1       0.725  12.789  -3.540  1.00  0.00    -0.028 A 
ATOM    104  C   UNL     1       0.335  13.968  -2.891  1.00  0.00     0.005 A 
ATOM    105  C   UNL     1       1.758  12.027  -2.966  1.00  0.00     0.005 A 
ATOM    106  C   UNL     1       0.960  14.373  -1.707  1.00  0.00     0.000 A 
ATOM    107  C   UNL     1       2.368  12.421  -1.772  1.00  0.00     0.000 A 
ATOM    108  C   UNL     1       1.973  13.598  -1.146  1.00  0.00     0.000 A 
ENDBRANCH 102 103
ENDBRANCH  99 102
ENDBRANCH  93  94
ENDBRANCH  85  89
ENDBRANCH  81  83
ENDBRANCH  80  81
ENDBRANCH  79  80
ENDBRANCH  78  79
ENDBRANCH  77  78
ENDBRANCH  76  77
ENDBRANCH   1  76
TORSDOF 24
