REMARK SMILES C#CC[N@H+](CC(=O)OCCOCCOCCOCCOC(=O)c1ccc(-c2c3nc(c(-c4c(F)c(F)c(F)c(F)c4F)c4ccc([nH]4)c(-c4c(F)c(F)c(F)c(F)c4F)c4nc(c(-c5c(F)c(F)c(F)c(F)c5F)c5ccc2[nH]5)C=C4)C=C3)cc1)[C@H](C)c1nc2ccccc2s1
REMARK SMILES IDX 13 1 12 2 11 3 10 4 9 5 8 6 6 7 7 8 5 9 4 10 3 12 2 13 1 14
REMARK SMILES IDX 86 15 87 16 88 17 89 18 96 19 90 20 95 21 91 22 94 23 92 24
REMARK SMILES IDX 93 25 14 26 15 27 16 28 17 29 18 30 19 31 20 32 21 33 22 34
REMARK SMILES IDX 23 35 24 36 85 37 25 38 84 39 26 40 27 41 28 42 78 43 29 44
REMARK SMILES IDX 83 45 77 46 79 47 30 48 82 49 76 50 75 51 31 53 63 54 43 55
REMARK SMILES IDX 62 56 44 57 47 58 61 59 80 60 45 61 46 62 60 64 81 65 48 66
REMARK SMILES IDX 32 67 33 68 41 69 34 70 35 71 39 72 42 73 36 74 37 75 40 76
REMARK SMILES IDX 38 77 64 78 65 79 73 80 66 81 67 82 71 83 74 84 68 85 69 86
REMARK SMILES IDX 72 87 70 88 49 89 50 90 58 91 51 92 52 93 56 94 59 95 53 96
REMARK SMILES IDX 54 97 57 98 55 99
REMARK H PARENT 4 11 79 52 47 63
REMARK Flexibility Score: inf
ROOT
ATOM      1  C   UNL     1      -2.661   0.392  -5.163  1.00  0.00     0.188 C 
ENDROOT
BRANCH   1   2
ATOM      2  C   UNL     1      -4.128   0.218  -5.584  1.00  0.00     0.188 C 
BRANCH   2   3
ATOM      3  O   UNL     1      -4.834   1.309  -6.145  1.00  0.00    -0.376 OA
BRANCH   3   4
ATOM      4  C   UNL     1      -5.144   2.475  -5.400  1.00  0.00     0.202 C 
BRANCH   4   5
ATOM      5  C   UNL     1      -5.172   2.575  -3.864  1.00  0.00     0.261 C 
BRANCH   5   6
ATOM      6  O   UNL     1      -4.274   1.731  -3.138  1.00  0.00    -0.459 OA
BRANCH   6   7
ATOM      7  C   UNL     1      -4.827   0.700  -2.467  1.00  0.00     0.361 C 
ATOM      8  O   UNL     1      -6.038   0.486  -2.431  1.00  0.00    -0.245 OA
BRANCH   7   9
ATOM      9  C   UNL     1      -3.860  -0.230  -1.740  1.00  0.00     0.387 C 
BRANCH   9  10
ATOM     10  N   UNL     1      -2.385  -0.117  -1.938  1.00  0.00    -0.308 N 
ATOM     11  H   UNL     1      -2.179  -0.081  -2.936  1.00  0.00     0.350 HD
BRANCH  10  12
ATOM     12  C   UNL     1      -1.844   1.154  -1.421  1.00  0.00     0.355 C 
BRANCH  12  13
ATOM     13  C   UNL     1      -0.564   1.540  -2.047  1.00  0.00    -0.047 C 
ATOM     14  C   UNL     1       0.506   1.832  -2.522  1.00  0.00     0.010 C 
ENDBRANCH  12  13
ENDBRANCH  10  12
BRANCH  10  15
ATOM     15  C   UNL     1      -1.709  -1.352  -1.387  1.00  0.00     0.242 C 
ATOM     16  C   UNL     1      -2.187  -1.754   0.025  1.00  0.00     0.083 C 
BRANCH  15  17
ATOM     17  C   UNL     1      -0.185  -1.316  -1.370  1.00  0.00     0.151 A 
ATOM     18  N   UNL     1       0.507  -0.838  -0.355  1.00  0.00    -0.235 NA
ATOM     19  S   UNL     1       0.758  -1.912  -2.681  1.00  0.00    -0.113 S 
ATOM     20  C   UNL     1       1.836  -0.729  -0.701  1.00  0.00     0.082 A 
ATOM     21  C   UNL     1       2.182  -1.265  -1.942  1.00  0.00     0.055 A 
ATOM     22  C   UNL     1       2.824  -0.087   0.071  1.00  0.00     0.030 A 
ATOM     23  C   UNL     1       3.499  -1.201  -2.428  1.00  0.00     0.021 A 
ATOM     24  C   UNL     1       4.124   0.027  -0.424  1.00  0.00     0.002 A 
ATOM     25  C   UNL     1       4.457  -0.530  -1.655  1.00  0.00     0.002 A 
ENDBRANCH  15  17
ENDBRANCH  10  15
ENDBRANCH   9  10
ENDBRANCH   7   9
ENDBRANCH   6   7
ENDBRANCH   5   6
ENDBRANCH   4   5
ENDBRANCH   3   4
ENDBRANCH   2   3
ENDBRANCH   1   2
BRANCH   1  26
ATOM     26  O   UNL     1      -2.288   1.699  -4.784  1.00  0.00    -0.377 OA
BRANCH  26  27
ATOM     27  C   UNL     1      -1.913   2.641  -5.773  1.00  0.00     0.188 C 
BRANCH  27  28
ATOM     28  C   UNL     1      -2.175   2.389  -7.274  1.00  0.00     0.188 C 
BRANCH  28  29
ATOM     29  O   UNL     1      -2.196   1.032  -7.673  1.00  0.00    -0.376 OA
BRANCH  29  30
ATOM     30  C   UNL     1      -1.032   0.446  -8.232  1.00  0.00     0.202 C 
BRANCH  30  31
ATOM     31  C   UNL     1       0.287   0.456  -7.438  1.00  0.00     0.261 C 
BRANCH  31  32
ATOM     32  O   UNL     1       0.689   1.705  -6.861  1.00  0.00    -0.460 OA
BRANCH  32  33
ATOM     33  C   UNL     1       1.030   2.693  -7.714  1.00  0.00     0.338 C 
ATOM     34  O   UNL     1       1.052   2.640  -8.929  1.00  0.00    -0.246 OA
BRANCH  33  35
ATOM     35  C   UNL     1       1.212   3.935  -6.933  1.00  0.00     0.060 A 
ATOM     36  C   UNL     1       0.369   5.025  -7.191  1.00  0.00     0.016 A 
ATOM     37  C   UNL     1       2.229   4.037  -5.981  1.00  0.00     0.016 A 
ATOM     38  C   UNL     1       0.586   6.243  -6.551  1.00  0.00     0.010 A 
ATOM     39  C   UNL     1       2.460   5.266  -5.356  1.00  0.00     0.010 A 
ATOM     40  C   UNL     1       1.674   6.388  -5.682  1.00  0.00    -0.014 A 
BRANCH  40  41
ATOM     41  C   UNL     1       2.136   7.751  -5.323  1.00  0.00     0.031 A 
ATOM     42  C   UNL     1       3.303   8.325  -6.083  1.00  0.00     0.074 A 
ATOM     43  C   UNL     1       1.515   8.486  -4.385  1.00  0.00     0.049 A 
ATOM     44  N   UNL     1       3.923   9.466  -5.927  1.00  0.00    -0.248 NA
ATOM     45  C   UNL     1       3.848   7.489  -7.167  1.00  0.00     0.031 C 
ATOM     46  C   UNL     1       0.342   8.067  -3.623  1.00  0.00     0.029 A 
ATOM     47  N   UNL     1       1.796   9.744  -3.912  1.00  0.00    -0.354 N 
ATOM     48  C   UNL     1       4.935   9.477  -6.879  1.00  0.00     0.074 A 
ATOM     49  C   UNL     1       4.873   8.216  -7.582  1.00  0.00     0.031 C 
ATOM     50  C   UNL     1       0.009   9.048  -2.766  1.00  0.00     0.029 A 
ATOM     51  C   UNL     1       0.968  10.145  -2.893  1.00  0.00     0.049 A 
ATOM     52  H   UNL     1       2.521  10.305  -4.270  1.00  0.00     0.167 HD
ATOM     53  C   UNL     1       5.830  10.457  -7.151  1.00  0.00     0.037 A 
ATOM     54  C   UNL     1       1.004  11.258  -2.134  1.00  0.00     0.037 A 
ATOM     55  C   UNL     1       5.887  11.711  -6.448  1.00  0.00     0.049 A 
ATOM     56  C   UNL     1       2.067  12.297  -2.396  1.00  0.00     0.074 A 
ATOM     57  C   UNL     1       6.747  12.775  -6.653  1.00  0.00     0.029 A 
ATOM     58  N   UNL     1       5.056  12.065  -5.395  1.00  0.00    -0.354 N 
ATOM     59  N   UNL     1       3.010  12.312  -3.308  1.00  0.00    -0.248 NA
ATOM     60  C   UNL     1       2.064  13.482  -1.525  1.00  0.00     0.031 C 
ATOM     61  C   UNL     1       6.487  13.741  -5.676  1.00  0.00     0.029 A 
ATOM     62  C   UNL     1       5.405  13.319  -4.919  1.00  0.00     0.049 A 
ATOM     63  H   UNL     1       4.327  11.508  -5.039  1.00  0.00     0.167 HD
ATOM     64  C   UNL     1       3.682  13.518  -3.148  1.00  0.00     0.074 A 
ATOM     65  C   UNL     1       3.031  14.214  -2.059  1.00  0.00     0.031 C 
ATOM     66  C   UNL     1       4.739  14.008  -3.843  1.00  0.00     0.037 A 
BRANCH  53  67
ATOM     67  C   UNL     1       6.845  10.194  -8.228  1.00  0.00     0.064 A 
ATOM     68  C   UNL     1       6.485  10.089  -9.580  1.00  0.00     0.173 A 
ATOM     69  C   UNL     1       8.205  10.075  -7.902  1.00  0.00     0.173 A 
ATOM     70  F   UNL     1       5.198  10.182  -9.947  1.00  0.00    -0.203 F 
ATOM     71  C   UNL     1       7.444   9.841 -10.560  1.00  0.00     0.198 A 
ATOM     72  C   UNL     1       9.165   9.866  -8.889  1.00  0.00     0.198 A 
ATOM     73  F   UNL     1       8.607  10.170  -6.626  1.00  0.00    -0.203 F 
ATOM     74  F   UNL     1       7.069   9.685 -11.838  1.00  0.00    -0.200 F 
ATOM     75  C   UNL     1       8.783   9.739 -10.215  1.00  0.00     0.200 A 
ATOM     76  F   UNL     1      10.460   9.786  -8.554  1.00  0.00    -0.200 F 
ATOM     77  F   UNL     1       9.705   9.511 -11.160  1.00  0.00    -0.200 F 
ENDBRANCH  53  67
BRANCH  54  78
ATOM     78  C   UNL     1       0.014  11.448  -1.038  1.00  0.00     0.064 A 
ATOM     79  C   UNL     1      -0.925  12.489  -1.080  1.00  0.00     0.173 A 
ATOM     80  C   UNL     1       0.011  10.617   0.092  1.00  0.00     0.173 A 
ATOM     81  F   UNL     1      -0.948  13.328  -2.126  1.00  0.00    -0.203 F 
ATOM     82  C   UNL     1      -1.806  12.709  -0.023  1.00  0.00     0.198 A 
ATOM     83  C   UNL     1      -0.895  10.815   1.132  1.00  0.00     0.198 A 
ATOM     84  F   UNL     1       0.890   9.608   0.188  1.00  0.00    -0.203 F 
ATOM     85  F   UNL     1      -2.648  13.750  -0.062  1.00  0.00    -0.200 F 
ATOM     86  C   UNL     1      -1.795  11.868   1.079  1.00  0.00     0.200 A 
ATOM     87  F   UNL     1      -0.890   9.990   2.188  1.00  0.00    -0.200 F 
ATOM     88  F   UNL     1      -2.642  12.079   2.095  1.00  0.00    -0.200 F 
ENDBRANCH  54  78
BRANCH  66  89
ATOM     89  C   UNL     1       5.222  15.391  -3.497  1.00  0.00     0.064 A 
ATOM     90  C   UNL     1       5.850  15.681  -2.277  1.00  0.00     0.173 A 
ATOM     91  C   UNL     1       5.088  16.436  -4.427  1.00  0.00     0.173 A 
ATOM     92  F   UNL     1       5.997  14.724  -1.348  1.00  0.00    -0.203 F 
ATOM     93  C   UNL     1       6.291  16.970  -1.986  1.00  0.00     0.198 A 
ATOM     94  C   UNL     1       5.568  17.713  -4.149  1.00  0.00     0.198 A 
ATOM     95  F   UNL     1       4.507  16.215  -5.615  1.00  0.00    -0.203 F 
ATOM     96  F   UNL     1       6.831  17.236  -0.788  1.00  0.00    -0.200 F 
ATOM     97  C   UNL     1       6.158  17.982  -2.925  1.00  0.00     0.200 A 
ATOM     98  F   UNL     1       5.459  18.682  -5.068  1.00  0.00    -0.200 F 
ATOM     99  F   UNL     1       6.592  19.219  -2.646  1.00  0.00    -0.200 F 
ENDBRANCH  66  89
ENDBRANCH  40  41
ENDBRANCH  33  35
ENDBRANCH  32  33
ENDBRANCH  31  32
ENDBRANCH  30  31
ENDBRANCH  29  30
ENDBRANCH  28  29
ENDBRANCH  27  28
ENDBRANCH  26  27
ENDBRANCH   1  26
TORSDOF 25
