REMARK SMILES Cc1sc2nc3c(S[C@H](C)C(=O)OCCOCCOCCOCCOC(=O)c4ccc(-c5c6nc(c(-c7c(F)c(F)c(F)c(F)c7F)c7ccc([nH]7)c(-c7c(F)c(F)c(F)c(F)c7F)c7nc(c(-c8c(F)c(F)c(F)c(F)c8F)c8ccc5[nH]8)C=C7)C=C6)cc4)cc(C(=O)c4ccccc4O)cn3c(=O)c2c1C
REMARK SMILES IDX 17 1 16 2 15 3 14 4 13 5 11 6 12 7 9 8 10 9 8 10 7 11 1 12
REMARK SMILES IDX 2 13 3 14 107 15 4 16 106 17 108 18 5 19 104 20 6 21 103 22
REMARK SMILES IDX 105 23 102 24 91 25 92 26 93 27 94 28 95 29 96 30 100 31
REMARK SMILES IDX 97 32 99 33 98 34 101 35 18 37 19 38 20 39 21 40 22 41 23 42
REMARK SMILES IDX 24 43 25 44 26 45 27 46 28 47 29 48 90 49 30 50 89 51 31 52
REMARK SMILES IDX 32 53 33 54 83 55 34 56 88 57 82 58 84 59 35 60 87 61 81 62
REMARK SMILES IDX 80 63 36 65 68 66 48 67 67 68 49 69 52 70 66 71 85 72 50 73
REMARK SMILES IDX 51 74 65 76 86 77 53 78 37 79 38 80 46 81 39 82 40 83 44 84
REMARK SMILES IDX 47 85 41 86 42 87 45 88 43 89 69 90 70 91 78 92 71 93 72 94
REMARK SMILES IDX 76 95 79 96 73 97 74 98 77 99 75 100 54 101 55 102 63 103
REMARK SMILES IDX 56 104 57 105 61 106 64 107 58 108 59 109 62 110 60 111
REMARK H PARENT 101 36 84 64 52 75
REMARK Flexibility Score: inf
ROOT
ATOM      1  C   UNL     1      -1.541  -8.386   7.632  1.00  0.00     0.188 C 
ENDROOT
BRANCH   1   2
ATOM      2  O   UNL     1      -0.764  -9.444   8.175  1.00  0.00    -0.376 OA
BRANCH   2   3
ATOM      3  C   UNL     1      -1.341 -10.753   8.078  1.00  0.00     0.202 C 
BRANCH   3   4
ATOM      4  C   UNL     1      -1.624 -11.419   6.705  1.00  0.00     0.261 C 
BRANCH   4   5
ATOM      5  O   UNL     1      -2.380 -10.715   5.703  1.00  0.00    -0.462 OA
BRANCH   5   6
ATOM      6  C   UNL     1      -3.470  -9.983   5.998  1.00  0.00     0.319 C 
ATOM      7  O   UNL     1      -4.067 -10.044   7.066  1.00  0.00    -0.251 OA
BRANCH   6   8
ATOM      8  C   UNL     1      -3.800  -8.962   4.912  1.00  0.00     0.158 C 
ATOM      9  C   UNL     1      -3.224  -7.554   4.981  1.00  0.00     0.032 C 
BRANCH   8  10
ATOM     10  S   UNL     1      -3.623  -9.494   3.237  1.00  0.00    -0.107 SA
BRANCH  10  11
ATOM     11  C   UNL     1      -2.135 -10.255   2.822  1.00  0.00     0.052 A 
ATOM     12  C   UNL     1       4.201  -9.343   7.062  1.00  0.00     0.057 C 
ATOM     13  C   UNL     1       3.166  -9.643   6.024  1.00  0.00     0.007 A 
ATOM     14  S   UNL     1       1.533  -9.703   6.436  1.00  0.00    -0.120 S 
ATOM     15  C   UNL     1       3.316 -10.039   4.708  1.00  0.00    -0.022 A 
ATOM     16  C   UNL     1       0.979  -9.716   4.818  1.00  0.00     0.131 A 
ATOM     17  C   UNL     1       2.036 -10.008   3.997  1.00  0.00     0.080 A 
ATOM     18  C   UNL     1       4.635 -10.461   4.175  1.00  0.00     0.046 C 
ATOM     19  N   UNL     1      -0.346  -9.611   4.477  1.00  0.00    -0.218 NA
ATOM     20  C   UNL     1       1.697 -10.290   2.609  1.00  0.00     0.266 A 
ATOM     21  C   UNL     1      -0.682 -10.043   3.296  1.00  0.00     0.155 A 
ATOM     22  N   UNL     1       0.300 -10.436   2.354  1.00  0.00    -0.266 N 
ATOM     23  O   UNL     1       2.549 -10.413   1.759  1.00  0.00    -0.268 OA
ATOM     24  C   UNL     1      -0.058 -11.043   1.145  1.00  0.00     0.108 A 
ATOM     25  C   UNL     1      -2.338 -11.052   1.765  1.00  0.00     0.032 A 
ATOM     26  C   UNL     1      -1.307 -11.440   0.866  1.00  0.00     0.041 A 
BRANCH  26  27
ATOM     27  C   UNL     1      -1.626 -12.227  -0.372  1.00  0.00     0.198 C 
ATOM     28  O   UNL     1      -0.770 -12.798  -1.028  1.00  0.00    -0.288 OA
BRANCH  27  29
ATOM     29  C   UNL     1      -3.033 -12.390  -0.788  1.00  0.00     0.064 A 
ATOM     30  C   UNL     1      -3.770 -11.264  -1.171  1.00  0.00     0.016 A 
ATOM     31  C   UNL     1      -3.624 -13.656  -0.838  1.00  0.00     0.126 A 
ATOM     32  C   UNL     1      -5.091 -11.414  -1.595  1.00  0.00     0.001 A 
ATOM     33  C   UNL     1      -4.932 -13.808  -1.284  1.00  0.00     0.047 A 
ATOM     34  C   UNL     1      -5.666 -12.685  -1.662  1.00  0.00     0.004 A 
BRANCH  31  35
ATOM     35  O   UNL     1      -2.956 -14.783  -0.469  1.00  0.00    -0.507 OA
ATOM     36  H   UNL     1      -2.073 -14.725  -0.163  1.00  0.00     0.293 HD
ENDBRANCH  31  35
ENDBRANCH  27  29
ENDBRANCH  26  27
ENDBRANCH  10  11
ENDBRANCH   8  10
ENDBRANCH   6   8
ENDBRANCH   5   6
ENDBRANCH   4   5
ENDBRANCH   3   4
ENDBRANCH   2   3
ENDBRANCH   1   2
BRANCH   1  37
ATOM     37  C   UNL     1      -0.782  -7.067   7.492  1.00  0.00     0.188 C 
BRANCH  37  38
ATOM     38  O   UNL     1      -0.010  -7.209   6.311  1.00  0.00    -0.377 OA
BRANCH  38  39
ATOM     39  C   UNL     1       1.059  -6.328   6.070  1.00  0.00     0.188 C 
BRANCH  39  40
ATOM     40  C   UNL     1       2.043  -6.130   7.232  1.00  0.00     0.188 C 
BRANCH  40  41
ATOM     41  O   UNL     1       1.735  -5.115   8.186  1.00  0.00    -0.376 OA
BRANCH  41  42
ATOM     42  C   UNL     1       0.990  -3.990   7.744  1.00  0.00     0.202 C 
BRANCH  42  43
ATOM     43  C   UNL     1       1.646  -3.046   6.715  1.00  0.00     0.261 C 
BRANCH  43  44
ATOM     44  O   UNL     1       1.978  -3.652   5.446  1.00  0.00    -0.460 OA
BRANCH  44  45
ATOM     45  C   UNL     1       3.285  -3.930   5.200  1.00  0.00     0.338 C 
ATOM     46  O   UNL     1       4.236  -3.675   5.917  1.00  0.00    -0.246 OA
BRANCH  45  47
ATOM     47  C   UNL     1       3.369  -4.790   3.991  1.00  0.00     0.060 A 
ATOM     48  C   UNL     1       2.821  -4.396   2.770  1.00  0.00     0.016 A 
ATOM     49  C   UNL     1       3.981  -6.043   4.096  1.00  0.00     0.016 A 
ATOM     50  C   UNL     1       2.873  -5.264   1.665  1.00  0.00     0.010 A 
ATOM     51  C   UNL     1       3.997  -6.913   2.999  1.00  0.00     0.010 A 
ATOM     52  C   UNL     1       3.449  -6.546   1.768  1.00  0.00    -0.014 A 
BRANCH  52  53
ATOM     53  C   UNL     1       3.615  -7.414   0.569  1.00  0.00     0.031 A 
ATOM     54  C   UNL     1       4.881  -8.251   0.475  1.00  0.00     0.074 A 
ATOM     55  C   UNL     1       2.599  -7.694  -0.280  1.00  0.00     0.049 A 
ATOM     56  N   UNL     1       4.994  -9.511   0.806  1.00  0.00    -0.248 NA
ATOM     57  C   UNL     1       6.175  -7.628   0.184  1.00  0.00     0.031 C 
ATOM     58  C   UNL     1       1.179  -7.805   0.084  1.00  0.00     0.029 A 
ATOM     59  N   UNL     1       2.623  -8.088  -1.596  1.00  0.00    -0.354 N 
ATOM     60  C   UNL     1       6.339  -9.846   0.806  1.00  0.00     0.074 A 
ATOM     61  C   UNL     1       7.032  -8.636   0.412  1.00  0.00     0.031 C 
ATOM     62  C   UNL     1       0.518  -8.428  -0.918  1.00  0.00     0.029 A 
ATOM     63  C   UNL     1       1.420  -8.616  -2.045  1.00  0.00     0.049 A 
ATOM     64  H   UNL     1       3.420  -8.005  -2.168  1.00  0.00     0.167 HD
ATOM     65  C   UNL     1       6.841 -11.079   1.108  1.00  0.00     0.037 A 
ATOM     66  C   UNL     1       1.240  -9.525  -3.045  1.00  0.00     0.037 A 
ATOM     67  C   UNL     1       5.934 -12.160   1.373  1.00  0.00     0.049 A 
ATOM     68  C   UNL     1       2.062 -10.720  -2.572  1.00  0.00     0.074 A 
ATOM     69  C   UNL     1       5.625 -13.059   2.377  1.00  0.00     0.029 A 
ATOM     70  N   UNL     1       5.329 -12.729   0.285  1.00  0.00    -0.354 N 
ATOM     71  N   UNL     1       1.693 -11.704  -1.787  1.00  0.00    -0.248 NA
ATOM     72  C   UNL     1       3.504 -10.606  -2.745  1.00  0.00     0.031 C 
ATOM     73  C   UNL     1       4.443 -13.740   1.933  1.00  0.00     0.029 A 
ATOM     74  C   UNL     1       4.128 -13.228   0.676  1.00  0.00     0.049 A 
ATOM     75  H   UNL     1       5.701 -12.770  -0.625  1.00  0.00     0.167 HD
ATOM     76  C   UNL     1       2.859 -12.200  -1.182  1.00  0.00     0.074 A 
ATOM     77  C   UNL     1       3.919 -11.406  -1.778  1.00  0.00     0.031 C 
ATOM     78  C   UNL     1       2.940 -13.111  -0.148  1.00  0.00     0.037 A 
BRANCH  65  79
ATOM     79  C   UNL     1       8.248 -11.506   0.940  1.00  0.00     0.064 A 
ATOM     80  C   UNL     1       8.517 -12.307  -0.185  1.00  0.00     0.173 A 
ATOM     81  C   UNL     1       9.156 -11.522   2.000  1.00  0.00     0.173 A 
ATOM     82  F   UNL     1       7.641 -12.345  -1.204  1.00  0.00    -0.203 F 
ATOM     83  C   UNL     1       9.604 -13.166  -0.210  1.00  0.00     0.198 A 
ATOM     84  C   UNL     1      10.273 -12.357   1.952  1.00  0.00     0.198 A 
ATOM     85  F   UNL     1       8.918 -10.808   3.110  1.00  0.00    -0.203 F 
ATOM     86  F   UNL     1       9.759 -14.009  -1.240  1.00  0.00    -0.200 F 
ATOM     87  C   UNL     1      10.478 -13.198   0.862  1.00  0.00     0.200 A 
ATOM     88  F   UNL     1      11.121 -12.401   2.989  1.00  0.00    -0.200 F 
ATOM     89  F   UNL     1      11.503 -14.062   0.860  1.00  0.00    -0.200 F 
ENDBRANCH  65  79
BRANCH  66  90
ATOM     90  C   UNL     1       1.398  -8.894  -4.415  1.00  0.00     0.064 A 
ATOM     91  C   UNL     1       0.588  -7.777  -4.732  1.00  0.00     0.173 A 
ATOM     92  C   UNL     1       2.322  -9.264  -5.407  1.00  0.00     0.173 A 
ATOM     93  F   UNL     1      -0.402  -7.408  -3.903  1.00  0.00    -0.203 F 
ATOM     94  C   UNL     1       0.789  -7.007  -5.882  1.00  0.00     0.198 A 
ATOM     95  C   UNL     1       2.541  -8.478  -6.546  1.00  0.00     0.198 A 
ATOM     96  F   UNL     1       3.055 -10.378  -5.294  1.00  0.00    -0.203 F 
ATOM     97  F   UNL     1       0.027  -5.927  -6.107  1.00  0.00    -0.200 F 
ATOM     98  C   UNL     1       1.792  -7.339  -6.772  1.00  0.00     0.200 A 
ATOM     99  F   UNL     1       3.510  -8.816  -7.410  1.00  0.00    -0.200 F 
ATOM    100  F   UNL     1       2.035  -6.566  -7.840  1.00  0.00    -0.200 F 
ENDBRANCH  66  90
BRANCH  78 101
ATOM    101  C   UNL     1       1.739 -13.893   0.308  1.00  0.00     0.064 A 
ATOM    102  C   UNL     1       1.148 -14.861  -0.511  1.00  0.00     0.173 A 
ATOM    103  C   UNL     1       1.238 -13.791   1.624  1.00  0.00     0.173 A 
ATOM    104  F   UNL     1       1.639 -15.102  -1.736  1.00  0.00    -0.203 F 
ATOM    105  C   UNL     1       0.066 -15.625  -0.058  1.00  0.00     0.198 A 
ATOM    106  C   UNL     1       0.141 -14.523   2.062  1.00  0.00     0.198 A 
ATOM    107  F   UNL     1       1.798 -12.968   2.522  1.00  0.00    -0.203 F 
ATOM    108  F   UNL     1      -0.480 -16.556  -0.852  1.00  0.00    -0.200 F 
ATOM    109  C   UNL     1      -0.452 -15.434   1.217  1.00  0.00     0.200 A 
ATOM    110  F   UNL     1      -0.347 -14.328   3.298  1.00  0.00    -0.200 F 
ATOM    111  F   UNL     1      -1.533 -16.114   1.629  1.00  0.00    -0.200 F 
ENDBRANCH  78 101
ENDBRANCH  52  53
ENDBRANCH  45  47
ENDBRANCH  44  45
ENDBRANCH  43  44
ENDBRANCH  42  43
ENDBRANCH  41  42
ENDBRANCH  40  41
ENDBRANCH  39  40
ENDBRANCH  38  39
ENDBRANCH  37  38
ENDBRANCH   1  37
TORSDOF 25
