REMARK SMILES Cc1cc(Cl)ccc1Oc1cc(C)c(N)c(C(=O)OCCOCCOCCOCCOC(=O)c2ccc(-c3c4nc(c(-c5c(F)c(F)c(F)c(F)c5F)c5ccc([nH]5)c(-c5c(F)c(F)c(F)c(F)c5F)c5nc(c(-c6c(F)c(F)c(F)c(F)c6F)c6ccc3[nH]6)C=C5)C=C4)cc2)c1
REMARK SMILES IDX 25 1 24 2 23 3 22 4 21 5 20 6 19 7 17 8 18 9 16 10 10 11
REMARK SMILES IDX 11 12 97 13 12 14 13 15 14 16 9 17 8 18 1 19 2 20 3 21 4 22
REMARK SMILES IDX 7 23 5 24 6 25 15 26 26 29 27 30 28 31 29 32 30 33 31 34
REMARK SMILES IDX 32 35 33 36 34 37 35 38 96 39 36 40 95 41 37 42 38 43 39 44
REMARK SMILES IDX 89 45 40 46 94 47 88 48 90 49 41 50 93 51 87 52 86 53 42 55
REMARK SMILES IDX 74 56 54 57 73 58 55 59 58 60 72 61 91 62 56 63 57 64 71 66
REMARK SMILES IDX 92 67 59 68 43 69 44 70 52 71 45 72 46 73 50 74 53 75 47 76
REMARK SMILES IDX 48 77 51 78 49 79 75 80 76 81 84 82 77 83 78 84 82 85 85 86
REMARK SMILES IDX 79 87 80 88 83 89 81 90 60 91 61 92 69 93 62 94 63 95 67 96
REMARK SMILES IDX 70 97 64 98 65 99 68 100 66 101
REMARK H PARENT 15 27 15 28 90 54 58 65
REMARK Flexibility Score: inf
ROOT
ATOM      1  O   UNL     1      -5.583   1.388   4.454  1.00  0.00    -0.377 OA
ENDROOT
BRANCH   1   2
ATOM      2  C   UNL     1      -6.057   2.142   3.344  1.00  0.00     0.188 C 
BRANCH   2   3
ATOM      3  C   UNL     1      -7.568   2.421   3.199  1.00  0.00     0.188 C 
BRANCH   3   4
ATOM      4  O   UNL     1      -8.355   1.934   4.275  1.00  0.00    -0.376 OA
BRANCH   4   5
ATOM      5  C   UNL     1      -9.198   0.825   4.025  1.00  0.00     0.202 C 
BRANCH   5   6
ATOM      6  C   UNL     1      -8.513  -0.505   3.680  1.00  0.00     0.261 C 
BRANCH   6   7
ATOM      7  O   UNL     1      -7.535  -0.449   2.631  1.00  0.00    -0.460 OA
BRANCH   7   8
ATOM      8  C   UNL     1      -7.986  -0.208   1.378  1.00  0.00     0.340 C 
ATOM      9  O   UNL     1      -9.154  -0.069   1.053  1.00  0.00    -0.246 OA
BRANCH   8  10
ATOM     10  C   UNL     1      -6.821   0.049   0.484  1.00  0.00     0.086 A 
ATOM     11  C   UNL     1      -4.528  -0.442  -0.137  1.00  0.00     0.128 A 
ATOM     12  C   UNL     1      -4.626   0.461  -1.189  1.00  0.00     0.052 A 
ATOM     13  C   UNL     1      -5.644  -0.695   0.658  1.00  0.00     0.065 A 
ATOM     14  C   UNL     1      -5.765   1.278  -1.324  1.00  0.00    -0.024 A 
ATOM     15  C   UNL     1      -5.725   2.396  -2.333  1.00  0.00     0.047 C 
ATOM     16  C   UNL     1      -6.877   1.087  -0.474  1.00  0.00     0.049 A 
BRANCH  11  17
ATOM     17  O   UNL     1      -3.410  -1.166   0.171  1.00  0.00    -0.457 OA
BRANCH  17  18
ATOM     18  C   UNL     1      -2.126  -0.672   0.075  1.00  0.00     0.130 A 
ATOM     19  C   UNL     1      -2.504   1.863   0.479  1.00  0.00     0.048 C 
ATOM     20  C   UNL     1      -1.657   0.647   0.223  1.00  0.00    -0.007 A 
ATOM     21  C   UNL     1      -0.266   0.883   0.120  1.00  0.00     0.027 A 
ATOM     22  C   UNL     1       0.639  -0.164  -0.043  1.00  0.00     0.041 A 
ATOM     23  C   UNL     1      -1.190  -1.715  -0.077  1.00  0.00     0.049 A 
ATOM     24  Cl  UNL     1       2.326   0.164  -0.110  1.00  0.00    -0.084 Cl
ATOM     25  C   UNL     1       0.182  -1.469  -0.129  1.00  0.00     0.024 A 
ENDBRANCH  17  18
ENDBRANCH  11  17
BRANCH  16  26
ATOM     26  N   UNL     1      -7.909   2.029  -0.454  1.00  0.00    -0.398 N 
ATOM     27  H   UNL     1      -7.935   2.746  -1.128  1.00  0.00     0.156 HD
ATOM     28  H   UNL     1      -8.611   1.976   0.234  1.00  0.00     0.156 HD
ENDBRANCH  16  26
ENDBRANCH   8  10
ENDBRANCH   7   8
ENDBRANCH   6   7
ENDBRANCH   5   6
ENDBRANCH   4   5
ENDBRANCH   3   4
ENDBRANCH   2   3
ENDBRANCH   1   2
BRANCH   1  29
ATOM     29  C   UNL     1      -6.117   1.621   5.753  1.00  0.00     0.188 C 
BRANCH  29  30
ATOM     30  C   UNL     1      -6.645   3.016   6.164  1.00  0.00     0.188 C 
BRANCH  30  31
ATOM     31  O   UNL     1      -6.438   4.037   5.203  1.00  0.00    -0.376 OA
BRANCH  31  32
ATOM     32  C   UNL     1      -5.448   5.011   5.478  1.00  0.00     0.202 C 
BRANCH  32  33
ATOM     33  C   UNL     1      -3.999   4.511   5.549  1.00  0.00     0.261 C 
BRANCH  33  34
ATOM     34  O   UNL     1      -3.750   3.449   6.482  1.00  0.00    -0.460 OA
BRANCH  34  35
ATOM     35  C   UNL     1      -3.928   3.738   7.791  1.00  0.00     0.338 C 
ATOM     36  O   UNL     1      -4.248   4.805   8.273  1.00  0.00    -0.246 OA
BRANCH  35  37
ATOM     37  C   UNL     1      -3.856   2.471   8.547  1.00  0.00     0.060 A 
ATOM     38  C   UNL     1      -4.955   2.094   9.329  1.00  0.00     0.016 A 
ATOM     39  C   UNL     1      -2.713   1.669   8.495  1.00  0.00     0.016 A 
ATOM     40  C   UNL     1      -4.891   0.941  10.107  1.00  0.00     0.010 A 
ATOM     41  C   UNL     1      -2.643   0.522   9.289  1.00  0.00     0.010 A 
ATOM     42  C   UNL     1      -3.715   0.181  10.133  1.00  0.00    -0.014 A 
BRANCH  42  43
ATOM     43  C   UNL     1      -3.552  -0.837  11.199  1.00  0.00     0.031 A 
ATOM     44  C   UNL     1      -2.779  -0.466  12.434  1.00  0.00     0.074 A 
ATOM     45  C   UNL     1      -4.139  -2.042  11.104  1.00  0.00     0.049 A 
ATOM     46  N   UNL     1      -2.565  -1.158  13.524  1.00  0.00    -0.248 NA
ATOM     47  C   UNL     1      -2.161   0.870  12.438  1.00  0.00     0.031 C 
ATOM     48  C   UNL     1      -4.926  -2.509   9.967  1.00  0.00     0.029 A 
ATOM     49  N   UNL     1      -4.162  -3.091  11.988  1.00  0.00    -0.354 N 
ATOM     50  C   UNL     1      -1.786  -0.345  14.338  1.00  0.00     0.074 A 
ATOM     51  C   UNL     1      -1.532   0.874  13.603  1.00  0.00     0.031 C 
ATOM     52  C   UNL     1      -5.355  -3.757  10.220  1.00  0.00     0.029 A 
ATOM     53  C   UNL     1      -4.853  -4.182  11.526  1.00  0.00     0.049 A 
ATOM     54  H   UNL     1      -3.724  -3.064  12.870  1.00  0.00     0.167 HD
ATOM     55  C   UNL     1      -1.333  -0.590  15.591  1.00  0.00     0.037 A 
ATOM     56  C   UNL     1      -5.048  -5.390  12.091  1.00  0.00     0.037 A 
ATOM     57  C   UNL     1      -1.589  -1.807  16.316  1.00  0.00     0.049 A 
ATOM     58  C   UNL     1      -4.505  -5.656  13.472  1.00  0.00     0.074 A 
ATOM     59  C   UNL     1      -1.210  -2.139  17.604  1.00  0.00     0.029 A 
ATOM     60  N   UNL     1      -2.275  -2.901  15.807  1.00  0.00    -0.354 N 
ATOM     61  N   UNL     1      -3.817  -4.864  14.259  1.00  0.00    -0.248 NA
ATOM     62  C   UNL     1      -4.783  -6.978  14.049  1.00  0.00     0.031 C 
ATOM     63  C   UNL     1      -1.603  -3.460  17.848  1.00  0.00     0.029 A 
ATOM     64  C   UNL     1      -2.298  -3.924  16.742  1.00  0.00     0.049 A 
ATOM     65  H   UNL     1      -2.685  -2.945  14.912  1.00  0.00     0.167 HD
ATOM     66  C   UNL     1      -3.605  -5.578  15.433  1.00  0.00     0.074 A 
ATOM     67  C   UNL     1      -4.251  -6.863  15.258  1.00  0.00     0.031 C 
ATOM     68  C   UNL     1      -2.942  -5.201  16.555  1.00  0.00     0.037 A 
BRANCH  55  69
ATOM     69  C   UNL     1      -0.476   0.463  16.234  1.00  0.00     0.064 A 
ATOM     70  C   UNL     1      -0.988   1.714  16.614  1.00  0.00     0.173 A 
ATOM     71  C   UNL     1       0.883   0.212  16.480  1.00  0.00     0.173 A 
ATOM     72  F   UNL     1      -2.277   2.014  16.390  1.00  0.00    -0.203 F 
ATOM     73  C   UNL     1      -0.164   2.686  17.177  1.00  0.00     0.198 A 
ATOM     74  C   UNL     1       1.695   1.172  17.077  1.00  0.00     0.198 A 
ATOM     75  F   UNL     1       1.425  -0.967  16.141  1.00  0.00    -0.203 F 
ATOM     76  F   UNL     1      -0.661   3.895  17.471  1.00  0.00    -0.200 F 
ATOM     77  C   UNL     1       1.174   2.412  17.414  1.00  0.00     0.200 A 
ATOM     78  F   UNL     1       2.984   0.899  17.319  1.00  0.00    -0.200 F 
ATOM     79  F   UNL     1       1.966   3.347  17.958  1.00  0.00    -0.200 F 
ENDBRANCH  55  69
BRANCH  56  80
ATOM     80  C   UNL     1      -5.793  -6.436  11.343  1.00  0.00     0.064 A 
ATOM     81  C   UNL     1      -7.062  -6.867  11.754  1.00  0.00     0.173 A 
ATOM     82  C   UNL     1      -5.250  -7.019  10.188  1.00  0.00     0.173 A 
ATOM     83  F   UNL     1      -7.615  -6.358  12.865  1.00  0.00    -0.203 F 
ATOM     84  C   UNL     1      -7.753  -7.848  11.045  1.00  0.00     0.198 A 
ATOM     85  C   UNL     1      -5.954  -7.977   9.463  1.00  0.00     0.198 A 
ATOM     86  F   UNL     1      -4.038  -6.643   9.753  1.00  0.00    -0.203 F 
ATOM     87  F   UNL     1      -8.948  -8.270  11.482  1.00  0.00    -0.200 F 
ATOM     88  C   UNL     1      -7.203  -8.395   9.896  1.00  0.00     0.200 A 
ATOM     89  F   UNL     1      -5.425  -8.492   8.345  1.00  0.00    -0.200 F 
ATOM     90  F   UNL     1      -7.875  -9.329   9.207  1.00  0.00    -0.200 F 
ENDBRANCH  56  80
BRANCH  68  91
ATOM     91  C   UNL     1      -2.915  -6.173  17.703  1.00  0.00     0.064 A 
ATOM     92  C   UNL     1      -2.193  -7.375  17.644  1.00  0.00     0.173 A 
ATOM     93  C   UNL     1      -3.599  -5.880  18.894  1.00  0.00     0.173 A 
ATOM     94  F   UNL     1      -1.529  -7.710  16.528  1.00  0.00    -0.203 F 
ATOM     95  C   UNL     1      -2.190  -8.262  18.718  1.00  0.00     0.198 A 
ATOM     96  C   UNL     1      -3.562  -6.751  19.979  1.00  0.00     0.198 A 
ATOM     97  F   UNL     1      -4.296  -4.739  19.010  1.00  0.00    -0.203 F 
ATOM     98  F   UNL     1      -1.544  -9.433  18.615  1.00  0.00    -0.200 F 
ATOM     99  C   UNL     1      -2.868  -7.947  19.886  1.00  0.00     0.200 A 
ATOM    100  F   UNL     1      -4.202  -6.434  21.113  1.00  0.00    -0.200 F 
ATOM    101  F   UNL     1      -2.860  -8.800  20.919  1.00  0.00    -0.200 F 
ENDBRANCH  68  91
ENDBRANCH  42  43
ENDBRANCH  35  37
ENDBRANCH  34  35
ENDBRANCH  33  34
ENDBRANCH  32  33
ENDBRANCH  31  32
ENDBRANCH  30  31
ENDBRANCH  29  30
ENDBRANCH   1  29
TORSDOF 23
