REMARK SMILES COC(=O)[C@H]1CCN(C(=O)N2CCC[C@@H]2C(=O)OCCOCCOCCOCCOC(=O)c2ccc(-c3c4nc(c(-c5c(F)c(F)c(F)c(F)c5F)c5ccc([nH]5)c(-c5c(F)c(F)c(F)c(F)c5F)c5nc(c(-c6c(F)c(F)c(F)c(F)c6F)c6ccc3[nH]6)C=C5)C=C4)cc2)C1
REMARK SMILES IDX 23 1 22 2 21 3 20 4 19 5 18 6 16 7 17 8 15 9 11 10 12 11
REMARK SMILES IDX 13 12 14 13 9 14 10 15 8 16 5 17 6 18 96 19 7 20 3 21 4 22
REMARK SMILES IDX 2 23 1 24 24 25 25 26 26 27 27 28 28 29 29 30 30 31 31 32
REMARK SMILES IDX 32 33 33 34 34 35 95 36 35 37 94 38 36 39 37 40 38 41 88 42
REMARK SMILES IDX 39 43 93 44 87 45 89 46 40 47 92 48 86 49 85 50 41 52 73 53
REMARK SMILES IDX 53 54 72 55 54 56 57 57 71 58 90 59 55 60 56 61 70 63 91 64
REMARK SMILES IDX 58 65 42 66 43 67 51 68 44 69 45 70 49 71 52 72 46 73 47 74
REMARK SMILES IDX 50 75 48 76 74 77 75 78 83 79 76 80 77 81 81 82 84 83 78 84
REMARK SMILES IDX 79 85 82 86 80 87 59 88 60 89 68 90 61 91 62 92 66 93 69 94
REMARK SMILES IDX 63 95 64 96 67 97 65 98
REMARK H PARENT 89 51 57 62
REMARK Flexibility Score: inf
ROOT
ATOM      1  C   UNL     1       4.777   9.747   1.895  1.00  0.00     0.188 C 
ENDROOT
BRANCH   1   2
ATOM      2  C   UNL     1       3.891   9.469   3.116  1.00  0.00     0.188 C 
BRANCH   2   3
ATOM      3  O   UNL     1       4.134   8.359   3.959  1.00  0.00    -0.376 OA
BRANCH   3   4
ATOM      4  C   UNL     1       4.309   7.035   3.483  1.00  0.00     0.202 C 
BRANCH   4   5
ATOM      5  C   UNL     1       3.597   6.415   2.265  1.00  0.00     0.261 C 
BRANCH   5   6
ATOM      6  O   UNL     1       3.405   7.238   1.110  1.00  0.00    -0.462 OA
BRANCH   6   7
ATOM      7  C   UNL     1       2.190   7.832   1.046  1.00  0.00     0.329 C 
ATOM      8  O   UNL     1       1.315   7.662   1.891  1.00  0.00    -0.250 OA
BRANCH   7   9
ATOM      9  C   UNL     1       1.962   8.671  -0.225  1.00  0.00     0.197 C 
ATOM     10  N   UNL     1       1.256   7.880  -1.204  1.00  0.00    -0.311 N 
ATOM     11  C   UNL     1       1.484   8.374  -2.535  1.00  0.00     0.122 C 
ATOM     12  C   UNL     1       2.952   8.728  -2.480  1.00  0.00     0.024 C 
ATOM     13  C   UNL     1       3.163   9.198  -1.035  1.00  0.00     0.039 C 
BRANCH  10  14
ATOM     14  C   UNL     1       0.212   7.075  -0.858  1.00  0.00     0.320 C 
ATOM     15  O   UNL     1      -0.824   7.497  -0.363  1.00  0.00    -0.248 OA
BRANCH  14  16
ATOM     16  N   UNL     1       0.522   5.743  -1.005  1.00  0.00    -0.324 N 
ATOM     17  C   UNL     1       0.136   3.443  -1.312  1.00  0.00     0.120 C 
ATOM     18  C   UNL     1       1.236   3.958  -2.255  1.00  0.00     0.039 C 
ATOM     19  C   UNL     1      -0.370   4.689  -0.578  1.00  0.00     0.136 C 
ATOM     20  C   UNL     1       1.748   5.183  -1.537  1.00  0.00     0.122 C 
BRANCH  17  21
ATOM     21  C   UNL     1      -1.039   2.765  -1.964  1.00  0.00     0.310 C 
ATOM     22  O   UNL     1      -1.940   2.237  -1.324  1.00  0.00    -0.252 OA
BRANCH  21  23
ATOM     23  O   UNL     1      -0.991   2.833  -3.319  1.00  0.00    -0.469 OA
ATOM     24  C   UNL     1      -2.131   2.285  -3.978  1.00  0.00     0.282 C 
ENDBRANCH  21  23
ENDBRANCH  17  21
ENDBRANCH  14  16
ENDBRANCH  10  14
ENDBRANCH   7   9
ENDBRANCH   6   7
ENDBRANCH   5   6
ENDBRANCH   4   5
ENDBRANCH   3   4
ENDBRANCH   2   3
ENDBRANCH   1   2
BRANCH   1  25
ATOM     25  O   UNL     1       5.540   8.645   1.448  1.00  0.00    -0.377 OA
BRANCH  25  26
ATOM     26  C   UNL     1       6.854   8.484   1.962  1.00  0.00     0.188 C 
BRANCH  26  27
ATOM     27  C   UNL     1       7.210   9.092   3.334  1.00  0.00     0.188 C 
BRANCH  27  28
ATOM     28  O   UNL     1       6.780  10.433   3.507  1.00  0.00    -0.376 OA
BRANCH  28  29
ATOM     29  C   UNL     1       7.685  11.488   3.223  1.00  0.00     0.202 C 
BRANCH  29  30
ATOM     30  C   UNL     1       8.207  11.630   1.783  1.00  0.00     0.261 C 
BRANCH  30  31
ATOM     31  O   UNL     1       8.933  10.514   1.240  1.00  0.00    -0.460 OA
BRANCH  31  32
ATOM     32  C   UNL     1      10.020  10.067   1.908  1.00  0.00     0.338 C 
ATOM     33  O   UNL     1      10.521  10.545   2.901  1.00  0.00    -0.246 OA
BRANCH  32  34
ATOM     34  C   UNL     1      10.388   8.753   1.327  1.00  0.00     0.060 A 
ATOM     35  C   UNL     1      10.361   7.618   2.148  1.00  0.00     0.016 A 
ATOM     36  C   UNL     1      10.746   8.642  -0.018  1.00  0.00     0.016 A 
ATOM     37  C   UNL     1      10.715   6.370   1.630  1.00  0.00     0.010 A 
ATOM     38  C   UNL     1      11.124   7.395  -0.528  1.00  0.00     0.010 A 
ATOM     39  C   UNL     1      11.135   6.257   0.298  1.00  0.00    -0.014 A 
BRANCH  39  40
ATOM     40  C   UNL     1      11.729   4.988  -0.191  1.00  0.00     0.031 A 
ATOM     41  C   UNL     1      13.227   4.869  -0.253  1.00  0.00     0.074 A 
ATOM     42  C   UNL     1      10.956   3.955  -0.569  1.00  0.00     0.049 A 
ATOM     43  N   UNL     1      13.967   3.893  -0.714  1.00  0.00    -0.248 NA
ATOM     44  C   UNL     1      13.992   6.008   0.277  1.00  0.00     0.031 C 
ATOM     45  C   UNL     1       9.497   3.928  -0.511  1.00  0.00     0.029 A 
ATOM     46  N   UNL     1      11.297   2.731  -1.091  1.00  0.00    -0.354 N 
ATOM     47  C   UNL     1      15.283   4.304  -0.539  1.00  0.00     0.074 A 
ATOM     48  C   UNL     1      15.240   5.627   0.043  1.00  0.00     0.031 C 
ATOM     49  C   UNL     1       9.065   2.751  -0.997  1.00  0.00     0.029 A 
ATOM     50  C   UNL     1      10.214   1.960  -1.437  1.00  0.00     0.049 A 
ATOM     51  H   UNL     1      12.229   2.434  -1.206  1.00  0.00     0.167 HD
ATOM     52  C   UNL     1      16.422   3.634  -0.833  1.00  0.00     0.037 A 
ATOM     53  C   UNL     1      10.159   0.770  -2.068  1.00  0.00     0.037 A 
ATOM     54  C   UNL     1      16.461   2.318  -1.417  1.00  0.00     0.049 A 
ATOM     55  C   UNL     1      11.442   0.086  -2.472  1.00  0.00     0.074 A 
ATOM     56  C   UNL     1      17.566   1.543  -1.725  1.00  0.00     0.029 A 
ATOM     57  N   UNL     1      15.344   1.588  -1.795  1.00  0.00    -0.354 N 
ATOM     58  N   UNL     1      12.682   0.462  -2.273  1.00  0.00    -0.248 NA
ATOM     59  C   UNL     1      11.315  -1.190  -3.193  1.00  0.00     0.031 C 
ATOM     60  C   UNL     1      17.120   0.376  -2.353  1.00  0.00     0.029 A 
ATOM     61  C   UNL     1      15.735   0.391  -2.375  1.00  0.00     0.049 A 
ATOM     62  H   UNL     1      14.411   1.877  -1.670  1.00  0.00     0.167 HD
ATOM     63  C   UNL     1      13.479  -0.535  -2.822  1.00  0.00     0.074 A 
ATOM     64  C   UNL     1      12.583  -1.546  -3.341  1.00  0.00     0.031 C 
ATOM     65  C   UNL     1      14.832  -0.607  -2.892  1.00  0.00     0.037 A 
BRANCH  52  66
ATOM     66  C   UNL     1      17.727   4.327  -0.562  1.00  0.00     0.064 A 
ATOM     67  C   UNL     1      18.183   4.565   0.743  1.00  0.00     0.173 A 
ATOM     68  C   UNL     1      18.551   4.725  -1.627  1.00  0.00     0.173 A 
ATOM     69  F   UNL     1      17.429   4.217   1.797  1.00  0.00    -0.203 F 
ATOM     70  C   UNL     1      19.402   5.201   0.971  1.00  0.00     0.198 A 
ATOM     71  C   UNL     1      19.783   5.329  -1.394  1.00  0.00     0.198 A 
ATOM     72  F   UNL     1      18.165   4.517  -2.895  1.00  0.00    -0.203 F 
ATOM     73  F   UNL     1      19.794   5.464   2.226  1.00  0.00    -0.200 F 
ATOM     74  C   UNL     1      20.204   5.574  -0.097  1.00  0.00     0.200 A 
ATOM     75  F   UNL     1      20.563   5.675  -2.428  1.00  0.00    -0.200 F 
ATOM     76  F   UNL     1      21.380   6.177   0.125  1.00  0.00    -0.200 F 
ENDBRANCH  52  66
BRANCH  53  77
ATOM     77  C   UNL     1       8.842   0.156  -2.388  1.00  0.00     0.064 A 
ATOM     78  C   UNL     1       8.437  -1.046  -1.790  1.00  0.00     0.173 A 
ATOM     79  C   UNL     1       7.972   0.744  -3.319  1.00  0.00     0.173 A 
ATOM     80  F   UNL     1       9.244  -1.663  -0.915  1.00  0.00    -0.203 F 
ATOM     81  C   UNL     1       7.224  -1.645  -2.126  1.00  0.00     0.198 A 
ATOM     82  C   UNL     1       6.744   0.162  -3.628  1.00  0.00     0.198 A 
ATOM     83  F   UNL     1       8.311   1.892  -3.925  1.00  0.00    -0.203 F 
ATOM     84  F   UNL     1       6.886  -2.820  -1.578  1.00  0.00    -0.200 F 
ATOM     85  C   UNL     1       6.375  -1.037  -3.038  1.00  0.00     0.200 A 
ATOM     86  F   UNL     1       5.921   0.762  -4.498  1.00  0.00    -0.200 F 
ATOM     87  F   UNL     1       5.206  -1.609  -3.356  1.00  0.00    -0.200 F 
ENDBRANCH  53  77
BRANCH  65  88
ATOM     88  C   UNL     1      15.431  -1.825  -3.539  1.00  0.00     0.064 A 
ATOM     89  C   UNL     1      15.331  -2.050  -4.920  1.00  0.00     0.173 A 
ATOM     90  C   UNL     1      16.153  -2.756  -2.776  1.00  0.00     0.173 A 
ATOM     91  F   UNL     1      14.639  -1.200  -5.694  1.00  0.00    -0.203 F 
ATOM     92  C   UNL     1      15.908  -3.174  -5.508  1.00  0.00     0.198 A 
ATOM     93  C   UNL     1      16.759  -3.859  -3.372  1.00  0.00     0.198 A 
ATOM     94  F   UNL     1      16.288  -2.586  -1.452  1.00  0.00    -0.203 F 
ATOM     95  F   UNL     1      15.754  -3.393  -6.821  1.00  0.00    -0.200 F 
ATOM     96  C   UNL     1      16.629  -4.072  -4.735  1.00  0.00     0.200 A 
ATOM     97  F   UNL     1      17.471  -4.715  -2.626  1.00  0.00    -0.200 F 
ATOM     98  F   UNL     1      17.193  -5.146  -5.305  1.00  0.00    -0.200 F 
ENDBRANCH  65  88
ENDBRANCH  39  40
ENDBRANCH  32  34
ENDBRANCH  31  32
ENDBRANCH  30  31
ENDBRANCH  29  30
ENDBRANCH  28  29
ENDBRANCH  27  28
ENDBRANCH  26  27
ENDBRANCH  25  26
ENDBRANCH   1  25
TORSDOF 24
