REMARK SMILES C[NH2+][C@@]1(C(=O)OCCOCCOCCOCCOC(=O)c2ccc(-c3c4nc(c(-c5c(F)c(F)c(F)c(F)c5F)c5ccc([nH]5)c(-c5c(F)c(F)c(F)c(F)c5F)c5nc(c(-c6c(F)c(F)c(F)c(F)c6F)c6ccc3[nH]6)C=C5)C=C4)cc2)CC[C@H](n2ccc(C)n2)C1
REMARK SMILES IDX 13 1 12 2 11 3 10 4 9 5 8 6 7 7 6 8 4 9 5 10 3 11 84 12
REMARK SMILES IDX 93 13 85 14 86 15 2 16 1 17 87 20 88 21 92 22 89 23 90 24
REMARK SMILES IDX 91 25 14 26 15 27 16 28 17 29 18 30 19 31 20 32 21 33 22 34
REMARK SMILES IDX 83 35 23 36 82 37 24 38 25 39 26 40 76 41 27 42 81 43 75 44
REMARK SMILES IDX 77 45 28 46 80 47 74 48 73 49 29 51 61 52 41 53 60 54 42 55
REMARK SMILES IDX 45 56 59 57 78 58 43 59 44 60 58 62 79 63 46 64 30 65 31 66
REMARK SMILES IDX 39 67 32 68 33 69 37 70 40 71 34 72 35 73 38 74 36 75 62 76
REMARK SMILES IDX 63 77 71 78 64 79 65 80 69 81 72 82 66 83 67 84 70 85 68 86
REMARK SMILES IDX 47 87 48 88 56 89 49 90 50 91 54 92 57 93 51 94 52 95 55 96
REMARK SMILES IDX 53 97
REMARK H PARENT 2 18 2 19 77 50 45 61
REMARK Flexibility Score: inf
ROOT
ATOM      1  C   UNL     1      -2.464  -4.404   3.416  1.00  0.00     0.188 C 
ENDROOT
BRANCH   1   2
ATOM      2  O   UNL     1      -1.818  -3.952   2.235  1.00  0.00    -0.377 OA
BRANCH   2   3
ATOM      3  C   UNL     1      -0.481  -3.486   2.304  1.00  0.00     0.188 C 
BRANCH   3   4
ATOM      4  C   UNL     1      -0.114  -2.410   3.334  1.00  0.00     0.188 C 
BRANCH   4   5
ATOM      5  O   UNL     1      -1.106  -2.145   4.322  1.00  0.00    -0.376 OA
BRANCH   5   6
ATOM      6  C   UNL     1      -1.715  -0.859   4.210  1.00  0.00     0.202 C 
BRANCH   6   7
ATOM      7  C   UNL     1      -2.797  -0.763   3.128  1.00  0.00     0.261 C 
BRANCH   7   8
ATOM      8  O   UNL     1      -2.330  -1.089   1.810  1.00  0.00    -0.459 OA
BRANCH   8   9
ATOM      9  C   UNL     1      -1.634  -0.137   1.148  1.00  0.00     0.368 C 
ATOM     10  O   UNL     1      -1.387   0.970   1.619  1.00  0.00    -0.245 OA
BRANCH   9  11
ATOM     11  C   UNL     1      -1.197  -0.598  -0.283  1.00  0.00     0.196 C 
ATOM     12  C   UNL     1      -1.704   0.444  -1.290  1.00  0.00     0.083 C 
ATOM     13  C   UNL     1      -1.904  -1.867  -0.805  1.00  0.00     0.108 C 
ATOM     14  C   UNL     1      -3.193   0.117  -1.403  1.00  0.00     0.034 C 
ATOM     15  C   UNL     1      -3.258  -1.417  -1.402  1.00  0.00     0.114 C 
BRANCH  11  16
ATOM     16  N   UNL     1       0.266  -0.855  -0.298  1.00  0.00    -0.334 N 
ATOM     17  C   UNL     1       1.108   0.325  -0.168  1.00  0.00     0.331 C 
ATOM     18  H   UNL     1       0.483  -1.484   0.475  1.00  0.00     0.347 HD
ATOM     19  H   UNL     1       0.473  -1.248  -1.217  1.00  0.00     0.347 HD
ENDBRANCH  11  16
BRANCH  15  20
ATOM     20  N   UNL     1      -4.426  -1.980  -0.749  1.00  0.00    -0.269 N 
ATOM     21  C   UNL     1      -5.710  -1.511  -0.760  1.00  0.00     0.109 A 
ATOM     22  N   UNL     1      -4.324  -3.171  -0.144  1.00  0.00    -0.178 NA
ATOM     23  C   UNL     1      -6.444  -2.389   0.004  1.00  0.00     0.045 A 
ATOM     24  C   UNL     1      -5.526  -3.387   0.387  1.00  0.00     0.059 A 
ATOM     25  C   UNL     1      -5.739  -4.568   1.242  1.00  0.00     0.069 C 
ENDBRANCH  15  20
ENDBRANCH   9  11
ENDBRANCH   8   9
ENDBRANCH   7   8
ENDBRANCH   6   7
ENDBRANCH   5   6
ENDBRANCH   4   5
ENDBRANCH   3   4
ENDBRANCH   2   3
ENDBRANCH   1   2
BRANCH   1  26
ATOM     26  C   UNL     1      -1.649  -5.192   4.452  1.00  0.00     0.188 C 
BRANCH  26  27
ATOM     27  O   UNL     1      -0.447  -5.760   3.955  1.00  0.00    -0.376 OA
BRANCH  27  28
ATOM     28  C   UNL     1      -0.512  -7.096   3.473  1.00  0.00     0.202 C 
BRANCH  28  29
ATOM     29  C   UNL     1      -1.399  -7.338   2.245  1.00  0.00     0.261 C 
BRANCH  29  30
ATOM     30  O   UNL     1      -2.820  -7.224   2.449  1.00  0.00    -0.460 OA
BRANCH  30  31
ATOM     31  C   UNL     1      -3.406  -7.935   3.432  1.00  0.00     0.338 C 
ATOM     32  O   UNL     1      -2.891  -8.718   4.207  1.00  0.00    -0.246 OA
BRANCH  31  33
ATOM     33  C   UNL     1      -4.819  -7.520   3.487  1.00  0.00     0.060 A 
ATOM     34  C   UNL     1      -5.298  -6.825   4.604  1.00  0.00     0.016 A 
ATOM     35  C   UNL     1      -5.668  -7.831   2.425  1.00  0.00     0.016 A 
ATOM     36  C   UNL     1      -6.646  -6.456   4.669  1.00  0.00     0.010 A 
ATOM     37  C   UNL     1      -7.014  -7.463   2.492  1.00  0.00     0.010 A 
ATOM     38  C   UNL     1      -7.519  -6.795   3.624  1.00  0.00    -0.014 A 
BRANCH  38  39
ATOM     39  C   UNL     1      -8.989  -6.636   3.777  1.00  0.00     0.031 A 
ATOM     40  C   UNL     1      -9.804  -7.864   4.079  1.00  0.00     0.074 A 
ATOM     41  C   UNL     1      -9.602  -5.446   3.635  1.00  0.00     0.049 A 
ATOM     42  N   UNL     1     -11.101  -7.999   4.191  1.00  0.00    -0.248 NA
ATOM     43  C   UNL     1      -9.050  -9.114   4.269  1.00  0.00     0.031 C 
ATOM     44  C   UNL     1      -8.942  -4.173   3.365  1.00  0.00     0.029 A 
ATOM     45  N   UNL     1     -10.939  -5.125   3.686  1.00  0.00    -0.354 N 
ATOM     46  C   UNL     1     -11.315  -9.345   4.458  1.00  0.00     0.074 A 
ATOM     47  C   UNL     1     -10.023  -9.994   4.441  1.00  0.00     0.031 C 
ATOM     48  C   UNL     1      -9.874  -3.209   3.255  1.00  0.00     0.029 A 
ATOM     49  C   UNL     1     -11.200  -3.800   3.432  1.00  0.00     0.049 A 
ATOM     50  H   UNL     1     -11.643  -5.783   3.887  1.00  0.00     0.167 HD
ATOM     51  C   UNL     1     -12.480  -9.983   4.716  1.00  0.00     0.037 A 
ATOM     52  C   UNL     1     -12.375  -3.145   3.342  1.00  0.00     0.037 A 
ATOM     53  C   UNL     1     -13.768  -9.348   4.744  1.00  0.00     0.049 A 
ATOM     54  C   UNL     1     -13.667  -3.892   3.571  1.00  0.00     0.074 A 
ATOM     55  C   UNL     1     -15.001  -9.909   5.026  1.00  0.00     0.029 A 
ATOM     56  N   UNL     1     -13.990  -8.007   4.471  1.00  0.00    -0.354 N 
ATOM     57  N   UNL     1     -13.856  -5.152   3.876  1.00  0.00    -0.248 NA
ATOM     58  C   UNL     1     -14.913  -3.117   3.451  1.00  0.00     0.031 C 
ATOM     59  C   UNL     1     -15.976  -8.918   4.876  1.00  0.00     0.029 A 
ATOM     60  C   UNL     1     -15.345  -7.727   4.554  1.00  0.00     0.049 A 
ATOM     61  H   UNL     1     -13.290  -7.351   4.251  1.00  0.00     0.167 HD
ATOM     62  C   UNL     1     -15.229  -5.312   4.021  1.00  0.00     0.074 A 
ATOM     63  C   UNL     1     -15.828  -4.017   3.779  1.00  0.00     0.031 C 
ATOM     64  C   UNL     1     -15.930  -6.430   4.331  1.00  0.00     0.037 A 
BRANCH  51  65
ATOM     65  C   UNL     1     -12.406 -11.458   4.980  1.00  0.00     0.064 A 
ATOM     66  C   UNL     1     -11.845 -11.966   6.162  1.00  0.00     0.173 A 
ATOM     67  C   UNL     1     -12.912 -12.373   4.045  1.00  0.00     0.173 A 
ATOM     68  F   UNL     1     -11.331 -11.131   7.078  1.00  0.00    -0.203 F 
ATOM     69  C   UNL     1     -11.764 -13.337   6.383  1.00  0.00     0.198 A 
ATOM     70  C   UNL     1     -12.858 -13.743   4.284  1.00  0.00     0.198 A 
ATOM     71  F   UNL     1     -13.461 -11.938   2.901  1.00  0.00    -0.203 F 
ATOM     72  F   UNL     1     -11.173 -13.801   7.492  1.00  0.00    -0.200 F 
ATOM     73  C   UNL     1     -12.275 -14.224   5.447  1.00  0.00     0.200 A 
ATOM     74  F   UNL     1     -13.363 -14.598   3.385  1.00  0.00    -0.200 F 
ATOM     75  F   UNL     1     -12.199 -15.544   5.663  1.00  0.00    -0.200 F 
ENDBRANCH  51  65
BRANCH  52  76
ATOM     76  C   UNL     1     -12.402  -1.691   3.027  1.00  0.00     0.064 A 
ATOM     77  C   UNL     1     -12.818  -0.752   3.983  1.00  0.00     0.173 A 
ATOM     78  C   UNL     1     -12.061  -1.215   1.753  1.00  0.00     0.173 A 
ATOM     79  F   UNL     1     -13.182  -1.161   5.207  1.00  0.00    -0.203 F 
ATOM     80  C   UNL     1     -12.918   0.602   3.668  1.00  0.00     0.198 A 
ATOM     81  C   UNL     1     -12.136   0.143   1.447  1.00  0.00     0.198 A 
ATOM     82  F   UNL     1     -11.660  -2.070   0.801  1.00  0.00    -0.203 F 
ATOM     83  F   UNL     1     -13.373   1.468   4.583  1.00  0.00    -0.200 F 
ATOM     84  C   UNL     1     -12.574   1.049   2.401  1.00  0.00     0.200 A 
ATOM     85  F   UNL     1     -11.794   0.572   0.224  1.00  0.00    -0.200 F 
ATOM     86  F   UNL     1     -12.676   2.350   2.097  1.00  0.00    -0.200 F 
ENDBRANCH  52  76
BRANCH  64  87
ATOM     87  C   UNL     1     -17.420  -6.305   4.476  1.00  0.00     0.064 A 
ATOM     88  C   UNL     1     -18.258  -6.114   3.368  1.00  0.00     0.173 A 
ATOM     89  C   UNL     1     -18.021  -6.439   5.738  1.00  0.00     0.173 A 
ATOM     90  F   UNL     1     -17.733  -5.967   2.142  1.00  0.00    -0.203 F 
ATOM     91  C   UNL     1     -19.641  -6.041   3.521  1.00  0.00     0.198 A 
ATOM     92  C   UNL     1     -19.405  -6.396   5.883  1.00  0.00     0.198 A 
ATOM     93  F   UNL     1     -17.266  -6.632   6.830  1.00  0.00    -0.203 F 
ATOM     94  F   UNL     1     -20.419  -5.816   2.453  1.00  0.00    -0.200 F 
ATOM     95  C   UNL     1     -20.213  -6.191   4.775  1.00  0.00     0.200 A 
ATOM     96  F   UNL     1     -19.957  -6.557   7.093  1.00  0.00    -0.200 F 
ATOM     97  F   UNL     1     -21.545  -6.132   4.917  1.00  0.00    -0.200 F 
ENDBRANCH  64  87
ENDBRANCH  38  39
ENDBRANCH  31  33
ENDBRANCH  30  31
ENDBRANCH  29  30
ENDBRANCH  28  29
ENDBRANCH  27  28
ENDBRANCH  26  27
ENDBRANCH   1  26
TORSDOF 22
