REMARK SMILES NS(=O)(=O)c1ccc(-n2nc(C(=O)OCCOCCOCCOCCOC(=O)c3ccc(-c4c5nc(c(-c6c(F)c(F)c(F)c(F)c6F)c6ccc([nH]6)c(-c6c(F)c(F)c(F)c(F)c6F)c6nc(c(-c7c(F)c(F)c(F)c(F)c7F)c7ccc4[nH]7)C=C6)C=C5)cc3)c(Cl)c2-c2ccc(Cl)cc2)cc1
REMARK SMILES IDX 19 1 18 2 17 3 16 4 15 5 14 6 12 7 13 8 11 9 9 10 10 11
REMARK SMILES IDX 94 12 92 13 93 14 8 15 5 16 6 17 103 18 7 19 102 20 2 21
REMARK SMILES IDX 3 22 4 23 1 24 95 27 96 28 101 29 97 30 100 31 98 32 99 33
REMARK SMILES IDX 20 34 21 35 22 36 23 37 24 38 25 39 26 40 27 41 28 42 29 43
REMARK SMILES IDX 30 44 91 45 31 46 90 47 32 48 33 49 34 50 84 51 35 52 89 53
REMARK SMILES IDX 83 54 85 55 36 56 88 57 82 58 81 59 37 61 69 62 49 63 68 64
REMARK SMILES IDX 50 65 53 66 67 67 86 68 51 69 52 70 66 72 87 73 54 74 38 75
REMARK SMILES IDX 39 76 47 77 40 78 41 79 45 80 48 81 42 82 43 83 46 84 44 85
REMARK SMILES IDX 70 86 71 87 79 88 72 89 73 90 77 91 80 92 74 93 75 94 78 95
REMARK SMILES IDX 76 96 55 97 56 98 64 99 57 100 58 101 62 102 65 103 59 104
REMARK SMILES IDX 60 105 63 106 61 107
REMARK H PARENT 1 25 1 26 85 60 53 71
REMARK Flexibility Score: inf
ROOT
ATOM      1  C   UNL     1       2.478 -10.012   4.857  1.00  0.00     0.188 C 
ENDROOT
BRANCH   1   2
ATOM      2  C   UNL     1       3.901  -9.851   4.273  1.00  0.00     0.188 C 
BRANCH   2   3
ATOM      3  O   UNL     1       5.008 -10.573   4.805  1.00  0.00    -0.376 OA
BRANCH   3   4
ATOM      4  C   UNL     1       5.203 -10.735   6.201  1.00  0.00     0.202 C 
BRANCH   4   5
ATOM      5  C   UNL     1       5.145  -9.537   7.156  1.00  0.00     0.261 C 
BRANCH   5   6
ATOM      6  O   UNL     1       4.096  -8.606   6.902  1.00  0.00    -0.458 OA
BRANCH   6   7
ATOM      7  C   UNL     1       4.434  -7.468   6.233  1.00  0.00     0.360 C 
ATOM      8  O   UNL     1       5.570  -7.197   5.863  1.00  0.00    -0.244 OA
BRANCH   7   9
ATOM      9  C   UNL     1       3.261  -6.630   5.957  1.00  0.00     0.190 A 
ATOM     10  N   UNL     1       2.055  -5.122   5.038  1.00  0.00    -0.231 N 
ATOM     11  N   UNL     1       3.164  -5.871   4.844  1.00  0.00    -0.159 NA
ATOM     12  C   UNL     1       1.382  -5.452   6.201  1.00  0.00     0.094 A 
ATOM     13  C   UNL     1       2.102  -6.491   6.756  1.00  0.00     0.102 A 
ATOM     14  Cl  UNL     1       1.722  -7.338   8.186  1.00  0.00    -0.079 Cl
BRANCH  10  15
ATOM     15  C   UNL     1       1.819  -3.998   4.219  1.00  0.00     0.065 A 
ATOM     16  C   UNL     1       1.124  -1.765   2.732  1.00  0.00     0.082 A 
ATOM     17  C   UNL     1       1.021  -3.039   2.155  1.00  0.00     0.024 A 
ATOM     18  C   UNL     1       1.616  -1.602   4.031  1.00  0.00     0.024 A 
ATOM     19  C   UNL     1       1.395  -4.167   2.895  1.00  0.00     0.030 A 
ATOM     20  C   UNL     1       1.949  -2.724   4.783  1.00  0.00     0.030 A 
BRANCH  16  21
ATOM     21  S   UNL     1       0.572  -0.336   1.847  1.00  0.00     0.238 S 
ATOM     22  O   UNL     1       1.085   0.847   2.481  1.00  0.00    -0.207 OA
ATOM     23  O   UNL     1      -0.836  -0.513   1.542  1.00  0.00    -0.207 OA
BRANCH  21  24
ATOM     24  N   UNL     1       1.383  -0.445   0.382  1.00  0.00    -0.225 NA
ATOM     25  H   UNL     1       1.127   0.347  -0.208  1.00  0.00     0.137 HD
ATOM     26  H   UNL     1       1.125  -1.314  -0.085  1.00  0.00     0.137 HD
ENDBRANCH  21  24
ENDBRANCH  16  21
ENDBRANCH  10  15
BRANCH  12  27
ATOM     27  C   UNL     1       0.204  -4.775   6.734  1.00  0.00     0.002 A 
ATOM     28  C   UNL     1       0.276  -4.233   8.026  1.00  0.00     0.012 A 
ATOM     29  C   UNL     1      -1.000  -4.701   6.025  1.00  0.00     0.012 A 
ATOM     30  C   UNL     1      -0.842  -3.652   8.617  1.00  0.00     0.021 A 
ATOM     31  C   UNL     1      -2.122  -4.110   6.616  1.00  0.00     0.021 A 
ATOM     32  C   UNL     1      -2.040  -3.598   7.912  1.00  0.00     0.041 A 
ATOM     33  Cl  UNL     1      -3.429  -2.910   8.654  1.00  0.00    -0.084 Cl
ENDBRANCH  12  27
ENDBRANCH   7   9
ENDBRANCH   6   7
ENDBRANCH   5   6
ENDBRANCH   4   5
ENDBRANCH   3   4
ENDBRANCH   2   3
ENDBRANCH   1   2
BRANCH   1  34
ATOM     34  O   UNL     1       2.420 -10.784   6.044  1.00  0.00    -0.377 OA
BRANCH  34  35
ATOM     35  C   UNL     1       2.136 -12.171   5.874  1.00  0.00     0.188 C 
BRANCH  35  36
ATOM     36  C   UNL     1       2.817 -12.953   4.723  1.00  0.00     0.188 C 
BRANCH  36  37
ATOM     37  O   UNL     1       2.856 -12.260   3.477  1.00  0.00    -0.376 OA
BRANCH  37  38
ATOM     38  C   UNL     1       2.139 -12.777   2.367  1.00  0.00     0.202 C 
BRANCH  38  39
ATOM     39  C   UNL     1       0.686 -12.308   2.337  1.00  0.00     0.261 C 
BRANCH  39  40
ATOM     40  O   UNL     1       0.012 -12.553   3.563  1.00  0.00    -0.460 OA
BRANCH  40  41
ATOM     41  C   UNL     1      -0.083 -13.851   3.912  1.00  0.00     0.338 C 
ATOM     42  O   UNL     1       0.376 -14.812   3.320  1.00  0.00    -0.246 OA
BRANCH  41  43
ATOM     43  C   UNL     1      -0.966 -13.954   5.077  1.00  0.00     0.060 A 
ATOM     44  C   UNL     1      -1.296 -15.257   5.444  1.00  0.00     0.016 A 
ATOM     45  C   UNL     1      -1.727 -12.839   5.465  1.00  0.00     0.016 A 
ATOM     46  C   UNL     1      -2.575 -15.473   5.880  1.00  0.00     0.010 A 
ATOM     47  C   UNL     1      -3.008 -13.057   5.896  1.00  0.00     0.010 A 
ATOM     48  C   UNL     1      -3.440 -14.376   5.961  1.00  0.00    -0.014 A 
BRANCH  48  49
ATOM     49  C   UNL     1      -4.847 -14.680   5.999  1.00  0.00     0.031 A 
ATOM     50  C   UNL     1      -5.337 -15.136   7.306  1.00  0.00     0.074 A 
ATOM     51  C   UNL     1      -5.623 -14.538   4.911  1.00  0.00     0.049 A 
ATOM     52  N   UNL     1      -5.850 -16.280   7.609  1.00  0.00    -0.248 NA
ATOM     53  C   UNL     1      -5.122 -14.231   8.443  1.00  0.00     0.031 C 
ATOM     54  C   UNL     1      -5.330 -13.840   3.656  1.00  0.00     0.029 A 
ATOM     55  N   UNL     1      -6.914 -14.927   4.758  1.00  0.00    -0.354 N 
ATOM     56  C   UNL     1      -6.170 -16.191   8.956  1.00  0.00     0.074 A 
ATOM     57  C   UNL     1      -5.585 -14.969   9.448  1.00  0.00     0.031 C 
ATOM     58  C   UNL     1      -6.484 -13.666   2.973  1.00  0.00     0.029 A 
ATOM     59  C   UNL     1      -7.557 -14.342   3.684  1.00  0.00     0.049 A 
ATOM     60  H   UNL     1      -7.354 -15.570   5.360  1.00  0.00     0.167 HD
ATOM     61  C   UNL     1      -7.078 -17.021   9.527  1.00  0.00     0.037 A 
ATOM     62  C   UNL     1      -8.896 -14.330   3.487  1.00  0.00     0.037 A 
ATOM     63  C   UNL     1      -7.257 -18.232   8.775  1.00  0.00     0.049 A 
ATOM     64  C   UNL     1      -9.482 -15.430   4.301  1.00  0.00     0.074 A 
ATOM     65  C   UNL     1      -6.416 -19.263   8.399  1.00  0.00     0.029 A 
ATOM     66  N   UNL     1      -8.375 -18.368   7.989  1.00  0.00    -0.354 N 
ATOM     67  N   UNL     1      -9.300 -16.700   4.059  1.00  0.00    -0.248 NA
ATOM     68  C   UNL     1      -9.925 -15.114   5.652  1.00  0.00     0.031 C 
ATOM     69  C   UNL     1      -6.860 -19.657   7.103  1.00  0.00     0.029 A 
ATOM     70  C   UNL     1      -7.952 -18.853   6.777  1.00  0.00     0.049 A 
ATOM     71  H   UNL     1      -9.302 -18.157   8.246  1.00  0.00     0.167 HD
ATOM     72  C   UNL     1      -9.219 -17.297   5.311  1.00  0.00     0.074 A 
ATOM     73  C   UNL     1      -9.705 -16.289   6.247  1.00  0.00     0.031 C 
ATOM     74  C   UNL     1      -8.507 -18.446   5.507  1.00  0.00     0.037 A 
BRANCH  61  75
ATOM     75  C   UNL     1      -8.015 -16.567  10.605  1.00  0.00     0.064 A 
ATOM     76  C   UNL     1      -8.739 -17.515  11.346  1.00  0.00     0.173 A 
ATOM     77  C   UNL     1      -8.424 -15.222  10.756  1.00  0.00     0.173 A 
ATOM     78  F   UNL     1      -8.459 -18.822  11.238  1.00  0.00    -0.203 F 
ATOM     79  C   UNL     1      -9.819 -17.145  12.149  1.00  0.00     0.198 A 
ATOM     80  C   UNL     1      -9.461 -14.850  11.605  1.00  0.00     0.198 A 
ATOM     81  F   UNL     1      -7.910 -14.236  10.009  1.00  0.00    -0.203 F 
ATOM     82  F   UNL     1     -10.553 -18.091  12.751  1.00  0.00    -0.200 F 
ATOM     83  C   UNL     1     -10.177 -15.814  12.281  1.00  0.00     0.200 A 
ATOM     84  F   UNL     1      -9.805 -13.558  11.699  1.00  0.00    -0.200 F 
ATOM     85  F   UNL     1     -11.242 -15.464  13.014  1.00  0.00    -0.200 F 
ENDBRANCH  61  75
BRANCH  62  86
ATOM     86  C   UNL     1      -9.694 -13.208   2.941  1.00  0.00     0.064 A 
ATOM     87  C   UNL     1     -11.013 -13.403   2.506  1.00  0.00     0.173 A 
ATOM     88  C   UNL     1      -9.266 -11.869   3.058  1.00  0.00     0.173 A 
ATOM     89  F   UNL     1     -11.518 -14.642   2.422  1.00  0.00    -0.203 F 
ATOM     90  C   UNL     1     -11.853 -12.324   2.211  1.00  0.00     0.198 A 
ATOM     91  C   UNL     1     -10.098 -10.795   2.748  1.00  0.00     0.198 A 
ATOM     92  F   UNL     1      -8.060 -11.569   3.563  1.00  0.00    -0.203 F 
ATOM     93  F   UNL     1     -13.125 -12.546   1.853  1.00  0.00    -0.200 F 
ATOM     94  C   UNL     1     -11.396 -11.022   2.335  1.00  0.00     0.200 A 
ATOM     95  F   UNL     1      -9.650  -9.541   2.908  1.00  0.00    -0.200 F 
ATOM     96  F   UNL     1     -12.214  -9.988   2.097  1.00  0.00    -0.200 F 
ENDBRANCH  62  86
BRANCH  74  97
ATOM     97  C   UNL     1      -8.018 -19.181   4.291  1.00  0.00     0.064 A 
ATOM     98  C   UNL     1      -7.072 -18.646   3.399  1.00  0.00     0.173 A 
ATOM     99  C   UNL     1      -8.389 -20.520   4.112  1.00  0.00     0.173 A 
ATOM    100  F   UNL     1      -6.584 -17.412   3.575  1.00  0.00    -0.203 F 
ATOM    101  C   UNL     1      -6.560 -19.404   2.348  1.00  0.00     0.198 A 
ATOM    102  C   UNL     1      -7.849 -21.286   3.081  1.00  0.00     0.198 A 
ATOM    103  F   UNL     1      -9.238 -21.104   4.972  1.00  0.00    -0.203 F 
ATOM    104  F   UNL     1      -5.664 -18.866   1.506  1.00  0.00    -0.200 F 
ATOM    105  C   UNL     1      -6.944 -20.725   2.194  1.00  0.00     0.200 A 
ATOM    106  F   UNL     1      -8.182 -22.579   2.966  1.00  0.00    -0.200 F 
ATOM    107  F   UNL     1      -6.418 -21.468   1.210  1.00  0.00    -0.200 F 
ENDBRANCH  74  97
ENDBRANCH  48  49
ENDBRANCH  41  43
ENDBRANCH  40  41
ENDBRANCH  39  40
ENDBRANCH  38  39
ENDBRANCH  37  38
ENDBRANCH  36  37
ENDBRANCH  35  36
ENDBRANCH  34  35
ENDBRANCH   1  34
TORSDOF 24
