REMARK SMILES Cc1oc2cc3c(cc2c1C)[C@H](C)[C@@H](CC(=O)N[C@H](CC1=c2ccccc2=NC1)C(=O)OCCOCCOCCOCCOC(=O)c1ccc(-c2c4nc(c(-c5c(F)c(F)c(F)c(F)c5F)c5ccc([nH]5)c(-c5c(F)c(F)c(F)c(F)c5F)c5nc(c(-c6c(F)c(F)c(F)c(F)c6F)c6ccc2[nH]6)C=C5)C=C4)cc1)C(=O)O3
REMARK SMILES IDX 37 1 36 2 35 3 34 4 33 5 32 6 30 7 31 8 19 9 18 10 16 11
REMARK SMILES IDX 17 12 15 14 14 15 1 16 2 17 3 18 10 19 4 20 9 21 11 22 5 23
REMARK SMILES IDX 8 24 6 25 7 26 112 27 12 28 110 29 13 30 111 31 20 32 21 33
REMARK SMILES IDX 22 34 29 35 23 36 27 37 28 38 24 39 26 40 25 41 38 42 39 43
REMARK SMILES IDX 40 44 41 45 42 46 43 47 44 48 45 49 46 50 47 51 48 52 109 53
REMARK SMILES IDX 49 54 108 55 50 56 51 57 52 58 102 59 53 60 107 61 101 62
REMARK SMILES IDX 103 63 54 64 106 65 100 66 99 67 55 69 87 70 67 71 86 72
REMARK SMILES IDX 68 73 71 74 85 75 104 76 69 77 70 78 84 80 105 81 72 82
REMARK SMILES IDX 56 83 57 84 65 85 58 86 59 87 63 88 66 89 60 90 61 91 64 92
REMARK SMILES IDX 62 93 88 94 89 95 97 96 90 97 91 98 95 99 98 100 92 101
REMARK SMILES IDX 93 102 96 103 94 104 73 105 74 106 82 107 75 108 76 109
REMARK SMILES IDX 80 110 83 111 77 112 78 113 81 114 79 115
REMARK H PARENT 18 13 103 68 71 79
REMARK Flexibility Score: inf
ROOT
ATOM      1  C   UNL     1       0.411  -1.181  13.184  1.00  0.00     0.188 C 
ENDROOT
BRANCH   1   2
ATOM      2  C   UNL     1       1.713  -0.427  13.264  1.00  0.00     0.188 C 
BRANCH   2   3
ATOM      3  O   UNL     1       1.758   0.951  13.586  1.00  0.00    -0.376 OA
BRANCH   3   4
ATOM      4  C   UNL     1       0.593   1.762  13.509  1.00  0.00     0.202 C 
BRANCH   4   5
ATOM      5  C   UNL     1      -0.045   2.073  12.136  1.00  0.00     0.261 C 
BRANCH   5   6
ATOM      6  O   UNL     1      -0.577   0.960  11.378  1.00  0.00    -0.462 OA
BRANCH   6   7
ATOM      7  C   UNL     1      -1.617   1.222  10.531  1.00  0.00     0.329 C 
ATOM      8  O   UNL     1      -2.260   2.271  10.539  1.00  0.00    -0.250 OA
BRANCH   7   9
ATOM      9  C   UNL     1      -1.801   0.145   9.411  1.00  0.00     0.196 C 
BRANCH   9  10
ATOM     10  N   UNL     1      -1.775   0.975   8.179  1.00  0.00    -0.342 N 
ATOM     11  C   UNL     1      -0.737   1.276   7.349  1.00  0.00     0.221 C 
ATOM     12  O   UNL     1      -0.804   2.311   6.684  1.00  0.00    -0.275 OA
ATOM     13  H   UNL     1      -2.640   1.368   7.924  1.00  0.00     0.164 HD
BRANCH  11  14
ATOM     14  C   UNL     1       0.460   0.348   7.198  1.00  0.00     0.116 C 
BRANCH  14  15
ATOM     15  C   UNL     1       1.677   0.805   8.015  1.00  0.00     0.116 C 
ATOM     16  C   UNL     1       8.361  -2.295  12.257  1.00  0.00     0.088 C 
ATOM     17  C   UNL     1       7.365  -1.715  11.331  1.00  0.00     0.105 A 
ATOM     18  O   UNL     1       6.346  -1.041  11.921  1.00  0.00    -0.461 OA
ATOM     19  C   UNL     1       7.237  -1.675   9.951  1.00  0.00    -0.002 A 
ATOM     20  C   UNL     1       5.543  -0.586  10.930  1.00  0.00     0.138 A 
ATOM     21  C   UNL     1       6.004  -0.996   9.687  1.00  0.00     0.024 A 
ATOM     22  C   UNL     1       8.187  -2.202   8.946  1.00  0.00     0.049 C 
ATOM     23  C   UNL     1       4.407   0.173  11.132  1.00  0.00     0.095 A 
ATOM     24  C   UNL     1       5.240  -0.674   8.537  1.00  0.00     0.020 A 
ATOM     25  C   UNL     1       3.643   0.418   9.993  1.00  0.00     0.138 A 
ATOM     26  C   UNL     1       4.028   0.026   8.693  1.00  0.00    -0.001 A 
ATOM     27  O   UNL     1       2.401   0.996  10.221  1.00  0.00    -0.426 OA
ATOM     28  C   UNL     1       3.051   0.250   7.524  1.00  0.00     0.035 C 
ATOM     29  C   UNL     1       1.605   0.245   9.402  1.00  0.00     0.315 C 
ATOM     30  C   UNL     1       3.667   1.173   6.475  1.00  0.00     0.014 C 
ATOM     31  O   UNL     1       1.132  -0.842   9.701  1.00  0.00    -0.251 OA
ENDBRANCH  14  15
ENDBRANCH  11  14
ENDBRANCH   9  10
BRANCH   9  32
ATOM     32  C   UNL     1      -3.107  -0.716   9.487  1.00  0.00     0.070 C 
BRANCH  32  33
ATOM     33  C   UNL     1      -3.012  -2.105  10.168  1.00  0.00    -0.037 C 
ATOM     34  C   UNL     1      -2.531  -3.221   9.558  1.00  0.00     0.001 A 
ATOM     35  C   UNL     1      -2.388  -2.019  11.525  1.00  0.00     0.174 C 
ATOM     36  C   UNL     1      -2.895  -4.620   9.912  1.00  0.00     0.010 A 
ATOM     37  C   UNL     1      -1.145  -3.097  10.112  1.00  0.00     0.065 A 
ATOM     38  N   UNL     1      -1.036  -2.517  11.261  1.00  0.00    -0.280 NA
ATOM     39  C   UNL     1      -1.928  -5.570   9.926  1.00  0.00     0.001 A 
ATOM     40  C   UNL     1      -0.134  -3.976   9.518  1.00  0.00     0.028 A 
ATOM     41  C   UNL     1      -0.562  -5.249   9.507  1.00  0.00     0.002 A 
ENDBRANCH  32  33
ENDBRANCH   9  32
ENDBRANCH   7   9
ENDBRANCH   6   7
ENDBRANCH   5   6
ENDBRANCH   4   5
ENDBRANCH   3   4
ENDBRANCH   2   3
ENDBRANCH   1   2
BRANCH   1  42
ATOM     42  O   UNL     1      -0.703  -0.700  13.891  1.00  0.00    -0.377 OA
BRANCH  42  43
ATOM     43  C   UNL     1      -0.836  -0.993  15.259  1.00  0.00     0.188 C 
BRANCH  43  44
ATOM     44  C   UNL     1      -0.015  -2.095  15.925  1.00  0.00     0.188 C 
BRANCH  44  45
ATOM     45  O   UNL     1      -0.057  -3.409  15.378  1.00  0.00    -0.376 OA
BRANCH  45  46
ATOM     46  C   UNL     1      -1.275  -3.885  14.809  1.00  0.00     0.202 C 
BRANCH  46  47
ATOM     47  C   UNL     1      -2.361  -4.272  15.817  1.00  0.00     0.261 C 
BRANCH  47  48
ATOM     48  O   UNL     1      -3.261  -3.165  16.015  1.00  0.00    -0.460 OA
BRANCH  48  49
ATOM     49  C   UNL     1      -3.251  -2.592  17.242  1.00  0.00     0.338 C 
ATOM     50  O   UNL     1      -2.710  -2.999  18.247  1.00  0.00    -0.246 OA
BRANCH  49  51
ATOM     51  C   UNL     1      -3.758  -1.211  17.084  1.00  0.00     0.060 A 
ATOM     52  C   UNL     1      -4.923  -0.900  16.378  1.00  0.00     0.016 A 
ATOM     53  C   UNL     1      -2.925  -0.194  17.554  1.00  0.00     0.016 A 
ATOM     54  C   UNL     1      -5.278   0.442  16.190  1.00  0.00     0.010 A 
ATOM     55  C   UNL     1      -3.237   1.131  17.289  1.00  0.00     0.010 A 
ATOM     56  C   UNL     1      -4.446   1.471  16.664  1.00  0.00    -0.014 A 
BRANCH  56  57
ATOM     57  C   UNL     1      -4.962   2.857  16.764  1.00  0.00     0.031 A 
ATOM     58  C   UNL     1      -4.399   3.650  17.912  1.00  0.00     0.074 A 
ATOM     59  C   UNL     1      -5.473   3.545  15.724  1.00  0.00     0.049 A 
ATOM     60  N   UNL     1      -3.325   4.387  17.855  1.00  0.00    -0.248 NA
ATOM     61  C   UNL     1      -4.852   3.365  19.276  1.00  0.00     0.031 C 
ATOM     62  C   UNL     1      -4.749   3.751  14.468  1.00  0.00     0.029 A 
ATOM     63  N   UNL     1      -6.469   4.500  15.716  1.00  0.00    -0.354 N 
ATOM     64  C   UNL     1      -2.918   4.606  19.163  1.00  0.00     0.074 A 
ATOM     65  C   UNL     1      -3.896   3.955  20.007  1.00  0.00     0.031 C 
ATOM     66  C   UNL     1      -5.222   4.872  13.884  1.00  0.00     0.029 A 
ATOM     67  C   UNL     1      -6.352   5.391  14.655  1.00  0.00     0.049 A 
ATOM     68  H   UNL     1      -7.185   4.547  16.390  1.00  0.00     0.167 HD
ATOM     69  C   UNL     1      -1.794   5.285  19.516  1.00  0.00     0.037 A 
ATOM     70  C   UNL     1      -6.762   6.689  14.696  1.00  0.00     0.037 A 
ATOM     71  C   UNL     1      -1.038   5.877  18.458  1.00  0.00     0.049 A 
ATOM     72  C   UNL     1      -5.586   7.338  15.380  1.00  0.00     0.074 A 
ATOM     73  C   UNL     1       0.106   5.614  17.737  1.00  0.00     0.029 A 
ATOM     74  N   UNL     1      -1.492   7.071  17.951  1.00  0.00    -0.354 N 
ATOM     75  N   UNL     1      -4.460   7.702  14.829  1.00  0.00    -0.248 NA
ATOM     76  C   UNL     1      -5.555   7.260  16.843  1.00  0.00     0.031 C 
ATOM     77  C   UNL     1      -0.003   6.404  16.547  1.00  0.00     0.029 A 
ATOM     78  C   UNL     1      -1.234   7.054  16.606  1.00  0.00     0.049 A 
ATOM     79  H   UNL     1      -1.921   7.798  18.457  1.00  0.00     0.167 HD
ATOM     80  C   UNL     1      -3.513   7.635  15.856  1.00  0.00     0.074 A 
ATOM     81  C   UNL     1      -4.260   7.410  17.074  1.00  0.00     0.031 C 
ATOM     82  C   UNL     1      -2.168   7.568  15.634  1.00  0.00     0.037 A 
BRANCH  69  83
ATOM     83  C   UNL     1      -1.454   5.624  20.910  1.00  0.00     0.064 A 
ATOM     84  C   UNL     1      -1.832   6.887  21.387  1.00  0.00     0.173 A 
ATOM     85  C   UNL     1      -0.621   4.833  21.705  1.00  0.00     0.173 A 
ATOM     86  F   UNL     1      -2.623   7.674  20.638  1.00  0.00    -0.203 F 
ATOM     87  C   UNL     1      -1.362   7.364  22.602  1.00  0.00     0.198 A 
ATOM     88  C   UNL     1      -0.157   5.311  22.931  1.00  0.00     0.198 A 
ATOM     89  F   UNL     1      -0.229   3.623  21.283  1.00  0.00    -0.203 F 
ATOM     90  F   UNL     1      -1.704   8.593  23.011  1.00  0.00    -0.200 F 
ATOM     91  C   UNL     1      -0.516   6.580  23.371  1.00  0.00     0.200 A 
ATOM     92  F   UNL     1       0.662   4.557  23.678  1.00  0.00    -0.200 F 
ATOM     93  F   UNL     1      -0.039   7.052  24.530  1.00  0.00    -0.200 F 
ENDBRANCH  69  83
BRANCH  70  94
ATOM     94  C   UNL     1      -8.190   6.928  15.090  1.00  0.00     0.064 A 
ATOM     95  C   UNL     1      -9.198   6.222  14.398  1.00  0.00     0.173 A 
ATOM     96  C   UNL     1      -8.636   7.800  16.095  1.00  0.00     0.173 A 
ATOM     97  F   UNL     1      -8.879   5.454  13.344  1.00  0.00    -0.203 F 
ATOM     98  C   UNL     1     -10.541   6.282  14.774  1.00  0.00     0.198 A 
ATOM     99  C   UNL     1      -9.976   7.839  16.492  1.00  0.00     0.198 A 
ATOM    100  F   UNL     1      -7.790   8.622  16.727  1.00  0.00    -0.203 F 
ATOM    101  F   UNL     1     -11.455   5.562  14.111  1.00  0.00    -0.200 F 
ATOM    102  C   UNL     1     -10.924   7.067  15.846  1.00  0.00     0.200 A 
ATOM    103  F   UNL     1     -10.340   8.614  17.524  1.00  0.00    -0.200 F 
ATOM    104  F   UNL     1     -12.201   7.083  16.251  1.00  0.00    -0.200 F 
ENDBRANCH  70  94
BRANCH  82 105
ATOM    105  C   UNL     1      -1.736   7.804  14.231  1.00  0.00     0.064 A 
ATOM    106  C   UNL     1      -1.833   9.088  13.679  1.00  0.00     0.173 A 
ATOM    107  C   UNL     1      -1.192   6.782  13.439  1.00  0.00     0.173 A 
ATOM    108  F   UNL     1      -2.333  10.101  14.404  1.00  0.00    -0.203 F 
ATOM    109  C   UNL     1      -1.385   9.344  12.387  1.00  0.00     0.198 A 
ATOM    110  C   UNL     1      -0.717   7.049  12.159  1.00  0.00     0.198 A 
ATOM    111  F   UNL     1      -1.093   5.527  13.906  1.00  0.00    -0.203 F 
ATOM    112  F   UNL     1      -1.481  10.581  11.880  1.00  0.00    -0.200 F 
ATOM    113  C   UNL     1      -0.815   8.328  11.634  1.00  0.00     0.200 A 
ATOM    114  F   UNL     1      -0.141   6.072  11.444  1.00  0.00    -0.200 F 
ATOM    115  F   UNL     1      -0.344   8.588  10.407  1.00  0.00    -0.200 F 
ENDBRANCH  82 105
ENDBRANCH  56  57
ENDBRANCH  49  51
ENDBRANCH  48  49
ENDBRANCH  47  48
ENDBRANCH  46  47
ENDBRANCH  45  46
ENDBRANCH  44  45
ENDBRANCH  43  44
ENDBRANCH  42  43
ENDBRANCH   1  42
TORSDOF 25
