REMARK SMILES COc1ccc(NS(=O)(=O)c2ccc(NC(=O)[C@H]3CCCC[C@@H]3C(=O)OCCOCCOCCOCCOC(=O)c3ccc(-c4c5nc(c(-c6c(F)c(F)c(F)c(F)c6F)c6ccc([nH]6)c(-c6c(F)c(F)c(F)c(F)c6F)c6nc(c(-c7c(F)c(F)c(F)c(F)c7F)c7ccc4[nH]7)C=C6)C=C5)cc3)cc2)cc1
REMARK SMILES IDX 30 1 29 2 28 3 27 4 26 5 24 6 25 7 23 8 18 9 19 10 20 11
REMARK SMILES IDX 22 12 21 13 16 14 15 15 17 17 14 18 11 19 12 20 105 21 13 22
REMARK SMILES IDX 104 23 8 24 9 25 10 26 7 27 6 29 3 30 4 31 107 32 5 33
REMARK SMILES IDX 106 34 2 35 1 36 31 37 32 38 33 39 34 40 35 41 36 42 37 43
REMARK SMILES IDX 38 44 39 45 40 46 41 47 42 48 103 49 43 50 102 51 44 52
REMARK SMILES IDX 45 53 46 54 96 55 47 56 101 57 95 58 97 59 48 60 100 61
REMARK SMILES IDX 94 62 93 63 49 65 81 66 61 67 80 68 62 69 65 70 79 71 98 72
REMARK SMILES IDX 63 73 64 74 78 76 99 77 66 78 50 79 51 80 59 81 52 82 53 83
REMARK SMILES IDX 57 84 60 85 54 86 55 87 58 88 56 89 82 90 83 91 91 92 84 93
REMARK SMILES IDX 85 94 89 95 92 96 86 97 87 98 90 99 88 100 67 101 68 102
REMARK SMILES IDX 76 103 69 104 70 105 74 106 77 107 71 108 72 109 75 110
REMARK SMILES IDX 73 111
REMARK H PARENT 15 16 7 28 97 64 65 75
REMARK Flexibility Score: inf
ROOT
ATOM      1  C   UNL     1      -4.255  -0.428   8.899  1.00  0.00     0.188 C 
ENDROOT
BRANCH   1   2
ATOM      2  O   UNL     1      -4.560   0.488   9.938  1.00  0.00    -0.376 OA
BRANCH   2   3
ATOM      3  C   UNL     1      -5.347   1.626   9.665  1.00  0.00     0.202 C 
BRANCH   3   4
ATOM      4  C   UNL     1      -4.965   2.577   8.516  1.00  0.00     0.261 C 
BRANCH   4   5
ATOM      5  O   UNL     1      -4.019   2.140   7.521  1.00  0.00    -0.463 OA
BRANCH   5   6
ATOM      6  C   UNL     1      -2.704   2.244   7.851  1.00  0.00     0.309 C 
ATOM      7  O   UNL     1      -2.317   2.593   8.958  1.00  0.00    -0.252 OA
BRANCH   6   8
ATOM      8  C   UNL     1      -1.778   2.045   6.633  1.00  0.00     0.111 C 
ATOM      9  C   UNL     1      -2.075   0.836   5.691  1.00  0.00     0.093 C 
ATOM     10  C   UNL     1      -1.527  -0.478   6.302  1.00  0.00     0.014 C 
ATOM     11  C   UNL     1      -0.075  -0.368   6.762  1.00  0.00     0.001 C 
ATOM     12  C   UNL     1      -0.311   2.103   7.051  1.00  0.00     0.016 C 
ATOM     13  C   UNL     1       0.141   0.810   7.700  1.00  0.00     0.001 C 
BRANCH   9  14
ATOM     14  C   UNL     1      -1.539   0.928   4.225  1.00  0.00     0.228 C 
ATOM     15  N   UNL     1      -1.626   2.046   3.446  1.00  0.00    -0.326 N 
ATOM     16  H   UNL     1      -1.155   1.992   2.584  1.00  0.00     0.169 HD
ATOM     17  O   UNL     1      -0.994  -0.045   3.687  1.00  0.00    -0.274 OA
BRANCH  15  18
ATOM     18  C   UNL     1      -2.279   3.250   3.688  1.00  0.00     0.041 A 
ATOM     19  C   UNL     1      -3.217   5.668   4.698  1.00  0.00     0.087 A 
ATOM     20  C   UNL     1      -3.858   4.471   5.003  1.00  0.00     0.024 A 
ATOM     21  C   UNL     1      -2.115   5.655   3.833  1.00  0.00     0.024 A 
ATOM     22  C   UNL     1      -3.468   3.285   4.399  1.00  0.00     0.027 A 
ATOM     23  C   UNL     1      -1.637   4.439   3.334  1.00  0.00     0.027 A 
BRANCH  19  24
ATOM     24  S   UNL     1      -3.786   7.245   5.304  1.00  0.00     0.261 S 
ATOM     25  O   UNL     1      -4.225   7.994   4.147  1.00  0.00    -0.201 OA
ATOM     26  O   UNL     1      -2.734   7.740   6.168  1.00  0.00    -0.201 OA
BRANCH  24  27
ATOM     27  N   UNL     1      -5.105   7.012   6.316  1.00  0.00    -0.280 N 
ATOM     28  H   UNL     1      -5.080   7.460   7.192  1.00  0.00     0.180 HD
BRANCH  27  29
ATOM     29  C   UNL     1      -6.256   6.225   6.024  1.00  0.00     0.049 A 
ATOM     30  C   UNL     1      -7.872   3.997   5.744  1.00  0.00     0.119 A 
ATOM     31  C   UNL     1      -7.324   4.592   4.612  1.00  0.00     0.048 A 
ATOM     32  C   UNL     1      -7.773   4.609   6.989  1.00  0.00     0.048 A 
ATOM     33  C   UNL     1      -6.564   5.757   4.743  1.00  0.00     0.030 A 
ATOM     34  C   UNL     1      -6.963   5.734   7.129  1.00  0.00     0.030 A 
BRANCH  30  35
ATOM     35  O   UNL     1      -8.312   2.706   5.680  1.00  0.00    -0.497 OA
ATOM     36  C   UNL     1      -9.670   2.654   5.279  1.00  0.00     0.278 C 
ENDBRANCH  30  35
ENDBRANCH  27  29
ENDBRANCH  24  27
ENDBRANCH  19  24
ENDBRANCH  15  18
ENDBRANCH   9  14
ENDBRANCH   6   8
ENDBRANCH   5   6
ENDBRANCH   4   5
ENDBRANCH   3   4
ENDBRANCH   2   3
ENDBRANCH   1   2
BRANCH   1  37
ATOM     37  C   UNL     1      -5.151  -0.543   7.647  1.00  0.00     0.188 C 
BRANCH  37  38
ATOM     38  O   UNL     1      -6.490  -0.123   7.864  1.00  0.00    -0.377 OA
BRANCH  38  39
ATOM     39  C   UNL     1      -7.415  -1.171   8.106  1.00  0.00     0.188 C 
BRANCH  39  40
ATOM     40  C   UNL     1      -7.045  -2.112   9.261  1.00  0.00     0.188 C 
BRANCH  40  41
ATOM     41  O   UNL     1      -5.875  -2.882   8.976  1.00  0.00    -0.376 OA
BRANCH  41  42
ATOM     42  C   UNL     1      -6.060  -4.244   8.611  1.00  0.00     0.202 C 
BRANCH  42  43
ATOM     43  C   UNL     1      -6.415  -4.448   7.132  1.00  0.00     0.261 C 
BRANCH  43  44
ATOM     44  O   UNL     1      -7.688  -3.913   6.731  1.00  0.00    -0.460 OA
BRANCH  44  45
ATOM     45  C   UNL     1      -8.777  -4.330   7.409  1.00  0.00     0.338 C 
ATOM     46  O   UNL     1      -8.834  -5.205   8.255  1.00  0.00    -0.246 OA
BRANCH  45  47
ATOM     47  C   UNL     1      -9.881  -3.396   7.113  1.00  0.00     0.060 A 
ATOM     48  C   UNL     1     -10.556  -2.802   8.187  1.00  0.00     0.016 A 
ATOM     49  C   UNL     1     -10.248  -3.110   5.796  1.00  0.00     0.016 A 
ATOM     50  C   UNL     1     -11.637  -1.956   7.949  1.00  0.00     0.010 A 
ATOM     51  C   UNL     1     -11.348  -2.284   5.558  1.00  0.00     0.010 A 
ATOM     52  C   UNL     1     -12.070  -1.740   6.635  1.00  0.00    -0.014 A 
BRANCH  52  53
ATOM     53  C   UNL     1     -13.414  -1.165   6.397  1.00  0.00     0.031 A 
ATOM     54  C   UNL     1     -14.568  -2.117   6.267  1.00  0.00     0.074 A 
ATOM     55  C   UNL     1     -13.615   0.159   6.302  1.00  0.00     0.049 A 
ATOM     56  N   UNL     1     -15.826  -1.865   6.020  1.00  0.00    -0.248 NA
ATOM     57  C   UNL     1     -14.262  -3.545   6.454  1.00  0.00     0.031 C 
ATOM     58  C   UNL     1     -12.591   1.179   6.486  1.00  0.00     0.029 A 
ATOM     59  N   UNL     1     -14.750   0.871   6.006  1.00  0.00    -0.354 N 
ATOM     60  C   UNL     1     -16.462  -3.097   6.044  1.00  0.00     0.074 A 
ATOM     61  C   UNL     1     -15.451  -4.101   6.284  1.00  0.00     0.031 C 
ATOM     62  C   UNL     1     -13.127   2.386   6.232  1.00  0.00     0.029 A 
ATOM     63  C   UNL     1     -14.529   2.217   5.862  1.00  0.00     0.049 A 
ATOM     64  H   UNL     1     -15.637   0.455   5.906  1.00  0.00     0.167 HD
ATOM     65  C   UNL     1     -17.780  -3.364   5.896  1.00  0.00     0.037 A 
ATOM     66  C   UNL     1     -15.358   3.197   5.455  1.00  0.00     0.037 A 
ATOM     67  C   UNL     1     -18.780  -2.364   5.642  1.00  0.00     0.049 A 
ATOM     68  C   UNL     1     -16.800   2.862   5.180  1.00  0.00     0.074 A 
ATOM     69  C   UNL     1     -20.146  -2.526   5.507  1.00  0.00     0.029 A 
ATOM     70  N   UNL     1     -18.514  -1.014   5.467  1.00  0.00    -0.354 N 
ATOM     71  N   UNL     1     -17.407   1.703   5.263  1.00  0.00    -0.248 NA
ATOM     72  C   UNL     1     -17.677   3.972   4.782  1.00  0.00     0.031 C 
ATOM     73  C   UNL     1     -20.702  -1.280   5.198  1.00  0.00     0.029 A 
ATOM     74  C   UNL     1     -19.688  -0.335   5.190  1.00  0.00     0.049 A 
ATOM     75  H   UNL     1     -17.623  -0.600   5.530  1.00  0.00     0.167 HD
ATOM     76  C   UNL     1     -18.742   1.950   4.973  1.00  0.00     0.074 A 
ATOM     77  C   UNL     1     -18.856   3.369   4.709  1.00  0.00     0.031 C 
ATOM     78  C   UNL     1     -19.782   1.081   4.941  1.00  0.00     0.037 A 
BRANCH  65  79
ATOM     79  C   UNL     1     -18.203  -4.797   5.984  1.00  0.00     0.064 A 
ATOM     80  C   UNL     1     -18.226  -5.481   7.209  1.00  0.00     0.173 A 
ATOM     81  C   UNL     1     -18.606  -5.489   4.834  1.00  0.00     0.173 A 
ATOM     82  F   UNL     1     -17.826  -4.867   8.333  1.00  0.00    -0.203 F 
ATOM     83  C   UNL     1     -18.620  -6.814   7.275  1.00  0.00     0.198 A 
ATOM     84  C   UNL     1     -19.022  -6.815   4.907  1.00  0.00     0.198 A 
ATOM     85  F   UNL     1     -18.594  -4.879   3.639  1.00  0.00    -0.203 F 
ATOM     86  F   UNL     1     -18.594  -7.462   8.448  1.00  0.00    -0.200 F 
ATOM     87  C   UNL     1     -19.024  -7.478   6.126  1.00  0.00     0.200 A 
ATOM     88  F   UNL     1     -19.417  -7.454   3.797  1.00  0.00    -0.200 F 
ATOM     89  F   UNL     1     -19.408  -8.760   6.191  1.00  0.00    -0.200 F 
ENDBRANCH  65  79
BRANCH  66  90
ATOM     90  C   UNL     1     -14.847   4.580   5.267  1.00  0.00     0.064 A 
ATOM     91  C   UNL     1     -15.238   5.626   6.114  1.00  0.00     0.173 A 
ATOM     92  C   UNL     1     -13.976   4.889   4.210  1.00  0.00     0.173 A 
ATOM     93  F   UNL     1     -16.084   5.385   7.126  1.00  0.00    -0.203 F 
ATOM     94  C   UNL     1     -14.797   6.931   5.897  1.00  0.00     0.198 A 
ATOM     95  C   UNL     1     -13.518   6.189   4.008  1.00  0.00     0.198 A 
ATOM     96  F   UNL     1     -13.566   3.924   3.374  1.00  0.00    -0.203 F 
ATOM     97  F   UNL     1     -15.223   7.919   6.696  1.00  0.00    -0.200 F 
ATOM     98  C   UNL     1     -13.936   7.211   4.847  1.00  0.00     0.200 A 
ATOM     99  F   UNL     1     -12.677   6.452   2.999  1.00  0.00    -0.200 F 
ATOM    100  F   UNL     1     -13.517   8.466   4.638  1.00  0.00    -0.200 F 
ENDBRANCH  66  90
BRANCH  78 101
ATOM    101  C   UNL     1     -21.141   1.645   4.653  1.00  0.00     0.064 A 
ATOM    102  C   UNL     1     -21.504   2.073   3.369  1.00  0.00     0.173 A 
ATOM    103  C   UNL     1     -22.108   1.711   5.669  1.00  0.00     0.173 A 
ATOM    104  F   UNL     1     -20.609   2.044   2.370  1.00  0.00    -0.203 F 
ATOM    105  C   UNL     1     -22.780   2.568   3.116  1.00  0.00     0.198 A 
ATOM    106  C   UNL     1     -23.391   2.178   5.405  1.00  0.00     0.198 A 
ATOM    107  F   UNL     1     -21.810   1.307   6.913  1.00  0.00    -0.203 F 
ATOM    108  F   UNL     1     -23.093   3.012   1.891  1.00  0.00    -0.200 F 
ATOM    109  C   UNL     1     -23.724   2.612   4.131  1.00  0.00     0.200 A 
ATOM    110  F   UNL     1     -24.306   2.208   6.384  1.00  0.00    -0.200 F 
ATOM    111  F   UNL     1     -24.956   3.079   3.883  1.00  0.00    -0.200 F 
ENDBRANCH  78 101
ENDBRANCH  52  53
ENDBRANCH  45  47
ENDBRANCH  44  45
ENDBRANCH  43  44
ENDBRANCH  42  43
ENDBRANCH  41  42
ENDBRANCH  40  41
ENDBRANCH  39  40
ENDBRANCH  38  39
ENDBRANCH  37  38
ENDBRANCH   1  37
TORSDOF 26
