REMARK SMILES CCc1ccccc1NC(=O)c1cc(S(=O)(=O)N2CCC[C@H](C(=O)OCCOCCOCCOCCOC(=O)c3ccc(-c4c5nc(c(-c6c(F)c(F)c(F)c(F)c6F)c6ccc([nH]6)c(-c6c(F)c(F)c(F)c(F)c6F)c6nc(c(-c7c(F)c(F)c(F)c(F)c7F)c7ccc4[nH]7)C=C6)C=C5)cc3)C2)ccc1F
REMARK SMILES IDX 29 1 28 2 27 3 26 4 25 5 23 6 24 7 22 8 18 9 19 10 103 11
REMARK SMILES IDX 20 12 21 13 15 14 16 15 17 16 14 17 12 18 13 19 106 20
REMARK SMILES IDX 105 21 107 22 104 23 10 24 9 25 11 27 8 28 3 29 4 30 5 31
REMARK SMILES IDX 7 32 6 33 2 34 1 35 30 36 31 37 32 38 33 39 34 40 35 41
REMARK SMILES IDX 36 42 37 43 38 44 39 45 40 46 41 47 102 48 42 49 101 50
REMARK SMILES IDX 43 51 44 52 45 53 95 54 46 55 100 56 94 57 96 58 47 59 99 60
REMARK SMILES IDX 93 61 92 62 48 64 80 65 60 66 79 67 61 68 64 69 78 70 97 71
REMARK SMILES IDX 62 72 63 73 77 75 98 76 65 77 49 78 50 79 58 80 51 81 52 82
REMARK SMILES IDX 56 83 59 84 53 85 54 86 57 87 55 88 81 89 82 90 90 91 83 92
REMARK SMILES IDX 84 93 88 94 91 95 85 96 86 97 89 98 87 99 66 100 67 101
REMARK SMILES IDX 75 102 68 103 69 104 73 105 76 106 70 107 71 108 74 109
REMARK SMILES IDX 72 110
REMARK H PARENT 9 26 96 63 64 74
REMARK Flexibility Score: inf
ROOT
ATOM      1  C   UNL     1       5.062   8.565  11.774  1.00  0.00     0.188 C 
ENDROOT
BRANCH   1   2
ATOM      2  O   UNL     1       4.275   9.747  11.765  1.00  0.00    -0.376 OA
BRANCH   2   3
ATOM      3  C   UNL     1       2.908   9.740  11.375  1.00  0.00     0.202 C 
BRANCH   3   4
ATOM      4  C   UNL     1       2.496   9.184  10.010  1.00  0.00     0.261 C 
BRANCH   4   5
ATOM      5  O   UNL     1       2.651   7.763   9.863  1.00  0.00    -0.463 OA
BRANCH   5   6
ATOM      6  C   UNL     1       3.678   7.362   9.085  1.00  0.00     0.310 C 
ATOM      7  O   UNL     1       4.518   8.109   8.592  1.00  0.00    -0.252 OA
BRANCH   6   8
ATOM      8  C   UNL     1       3.631   5.897   8.719  1.00  0.00     0.114 C 
ATOM      9  N   UNL     1       1.323   5.332   7.833  1.00  0.00    -0.197 NA
ATOM     10  C   UNL     1       1.054   4.434   8.976  1.00  0.00     0.102 C 
ATOM     11  C   UNL     1       2.700   5.810   7.528  1.00  0.00     0.117 C 
ATOM     12  C   UNL     1       1.927   4.728  10.176  1.00  0.00     0.018 C 
ATOM     13  C   UNL     1       3.378   4.812   9.760  1.00  0.00     0.018 C 
BRANCH   9  14
ATOM     14  S   UNL     1       0.349   5.056   6.464  1.00  0.00     0.243 S 
ATOM     15  O   UNL     1       0.410   6.266   5.658  1.00  0.00    -0.207 OA
ATOM     16  O   UNL     1      -0.899   4.480   6.883  1.00  0.00    -0.207 OA
BRANCH  14  17
ATOM     17  C   UNL     1       1.207   3.804   5.523  1.00  0.00     0.083 A 
ATOM     18  C   UNL     1       1.506   2.769   3.380  1.00  0.00     0.077 A 
ATOM     19  C   UNL     1       0.813   3.661   4.197  1.00  0.00     0.038 A 
ATOM     20  C   UNL     1       2.675   2.153   3.825  1.00  0.00     0.136 A 
ATOM     21  C   UNL     1       3.049   2.266   5.158  1.00  0.00     0.041 A 
ATOM     22  F   UNL     1       3.401   1.369   3.016  1.00  0.00    -0.206 F 
ATOM     23  C   UNL     1       2.277   3.046   6.023  1.00  0.00     0.025 A 
BRANCH  18  24
ATOM     24  C   UNL     1       0.863   2.405   2.119  1.00  0.00     0.258 C 
ATOM     25  N   UNL     1       0.490   1.105   1.859  1.00  0.00    -0.322 N 
ATOM     26  H   UNL     1       0.024   0.987   1.000  1.00  0.00     0.170 HD
ATOM     27  O   UNL     1       0.624   3.299   1.310  1.00  0.00    -0.269 OA
BRANCH  25  28
ATOM     28  C   UNL     1       0.651  -0.088   2.595  1.00  0.00     0.044 A 
ATOM     29  C   UNL     1       0.794  -1.304   1.898  1.00  0.00    -0.025 A 
ATOM     30  C   UNL     1       1.125  -2.464   2.631  1.00  0.00     0.006 A 
ATOM     31  C   UNL     1       1.270  -2.438   4.018  1.00  0.00     0.000 A 
ATOM     32  C   UNL     1       0.684  -0.108   3.998  1.00  0.00     0.026 A 
ATOM     33  C   UNL     1       1.021  -1.262   4.706  1.00  0.00     0.002 A 
BRANCH  29  34
ATOM     34  C   UNL     1       0.574  -1.463   0.406  1.00  0.00     0.034 C 
ATOM     35  C   UNL     1       1.448  -0.622  -0.516  1.00  0.00     0.009 C 
ENDBRANCH  29  34
ENDBRANCH  25  28
ENDBRANCH  18  24
ENDBRANCH  14  17
ENDBRANCH   9  14
ENDBRANCH   6   8
ENDBRANCH   5   6
ENDBRANCH   4   5
ENDBRANCH   3   4
ENDBRANCH   2   3
ENDBRANCH   1   2
BRANCH   1  36
ATOM     36  C   UNL     1       4.489   7.219  12.238  1.00  0.00     0.188 C 
BRANCH  36  37
ATOM     37  O   UNL     1       3.097   7.202  12.483  1.00  0.00    -0.377 OA
BRANCH  37  38
ATOM     38  C   UNL     1       2.687   7.311  13.843  1.00  0.00     0.188 C 
BRANCH  38  39
ATOM     39  C   UNL     1       3.494   8.260  14.744  1.00  0.00     0.188 C 
BRANCH  39  40
ATOM     40  O   UNL     1       4.839   7.823  14.937  1.00  0.00    -0.376 OA
BRANCH  40  41
ATOM     41  C   UNL     1       5.110   7.077  16.121  1.00  0.00     0.202 C 
BRANCH  41  42
ATOM     42  C   UNL     1       4.548   5.646  16.138  1.00  0.00     0.261 C 
BRANCH  42  43
ATOM     43  O   UNL     1       3.115   5.546  16.244  1.00  0.00    -0.460 OA
BRANCH  43  44
ATOM     44  C   UNL     1       2.515   6.173  17.276  1.00  0.00     0.338 C 
ATOM     45  O   UNL     1       3.049   6.724  18.219  1.00  0.00    -0.246 OA
BRANCH  44  46
ATOM     46  C   UNL     1       1.072   6.255  16.981  1.00  0.00     0.060 A 
ATOM     47  C   UNL     1       0.464   7.516  16.982  1.00  0.00     0.016 A 
ATOM     48  C   UNL     1       0.318   5.101  16.753  1.00  0.00     0.016 A 
ATOM     49  C   UNL     1      -0.916   7.623  16.813  1.00  0.00     0.010 A 
ATOM     50  C   UNL     1      -1.067   5.206  16.604  1.00  0.00     0.010 A 
ATOM     51  C   UNL     1      -1.692   6.463  16.679  1.00  0.00    -0.014 A 
BRANCH  51  52
ATOM     52  C   UNL     1      -3.160   6.548  16.857  1.00  0.00     0.031 A 
ATOM     53  C   UNL     1      -3.718   6.340  18.238  1.00  0.00     0.074 A 
ATOM     54  C   UNL     1      -3.978   6.825  15.829  1.00  0.00     0.049 A 
ATOM     55  N   UNL     1      -4.961   6.349  18.646  1.00  0.00    -0.248 NA
ATOM     56  C   UNL     1      -2.736   6.086  19.305  1.00  0.00     0.031 C 
ATOM     57  C   UNL     1      -3.553   7.084  14.456  1.00  0.00     0.029 A 
ATOM     58  N   UNL     1      -5.345   6.930  15.788  1.00  0.00    -0.354 N 
ATOM     59  C   UNL     1      -4.909   6.106  20.012  1.00  0.00     0.074 A 
ATOM     60  C   UNL     1      -3.518   5.921  20.361  1.00  0.00     0.031 C 
ATOM     61  C   UNL     1      -4.643   7.309  13.700  1.00  0.00     0.029 A 
ATOM     62  C   UNL     1      -5.839   7.186  14.533  1.00  0.00     0.049 A 
ATOM     63  H   UNL     1      -5.918   6.831  16.582  1.00  0.00     0.167 HD
ATOM     64  C   UNL     1      -5.929   6.050  20.899  1.00  0.00     0.037 A 
ATOM     65  C   UNL     1      -7.113   7.293  14.110  1.00  0.00     0.037 A 
ATOM     66  C   UNL     1      -7.313   6.221  20.551  1.00  0.00     0.049 A 
ATOM     67  C   UNL     1      -8.238   7.148  15.104  1.00  0.00     0.074 A 
ATOM     68  C   UNL     1      -8.422   6.195  21.378  1.00  0.00     0.029 A 
ATOM     69  N   UNL     1      -7.777   6.440  19.263  1.00  0.00    -0.354 N 
ATOM     70  N   UNL     1      -8.181   6.949  16.398  1.00  0.00    -0.248 NA
ATOM     71  C   UNL     1      -9.607   7.246  14.574  1.00  0.00     0.031 C 
ATOM     72  C   UNL     1      -9.562   6.351  20.582  1.00  0.00     0.029 A 
ATOM     73  C   UNL     1      -9.160   6.524  19.267  1.00  0.00     0.049 A 
ATOM     74  H   UNL     1      -7.209   6.524  18.463  1.00  0.00     0.167 HD
ATOM     75  C   UNL     1      -9.498   6.923  16.841  1.00  0.00     0.074 A 
ATOM     76  C   UNL     1     -10.333   7.137  15.678  1.00  0.00     0.031 C 
ATOM     77  C   UNL     1      -9.973   6.742  18.098  1.00  0.00     0.037 A 
BRANCH  64  78
ATOM     78  C   UNL     1      -5.578   5.762  22.328  1.00  0.00     0.064 A 
ATOM     79  C   UNL     1      -4.942   6.717  23.136  1.00  0.00     0.173 A 
ATOM     80  C   UNL     1      -5.885   4.518  22.897  1.00  0.00     0.173 A 
ATOM     81  F   UNL     1      -4.609   7.915  22.631  1.00  0.00    -0.203 F 
ATOM     82  C   UNL     1      -4.599   6.425  24.453  1.00  0.00     0.198 A 
ATOM     83  C   UNL     1      -5.565   4.238  24.223  1.00  0.00     0.198 A 
ATOM     84  F   UNL     1      -6.491   3.571  22.166  1.00  0.00    -0.203 F 
ATOM     85  F   UNL     1      -3.945   7.332  25.191  1.00  0.00    -0.200 F 
ATOM     86  C   UNL     1      -4.915   5.188  24.997  1.00  0.00     0.200 A 
ATOM     87  F   UNL     1      -5.876   3.046  24.748  1.00  0.00    -0.200 F 
ATOM     88  F   UNL     1      -4.584   4.908  26.265  1.00  0.00    -0.200 F 
ENDBRANCH  64  78
BRANCH  65  89
ATOM     89  C   UNL     1      -7.399   7.546  12.675  1.00  0.00     0.064 A 
ATOM     90  C   UNL     1      -7.920   8.775  12.248  1.00  0.00     0.173 A 
ATOM     91  C   UNL     1      -7.172   6.560  11.704  1.00  0.00     0.173 A 
ATOM     92  F   UNL     1      -8.181   9.738  13.144  1.00  0.00    -0.203 F 
ATOM     93  C   UNL     1      -8.215   9.004  10.905  1.00  0.00     0.198 A 
ATOM     94  C   UNL     1      -7.445   6.797  10.359  1.00  0.00     0.198 A 
ATOM     95  F   UNL     1      -6.681   5.364  12.064  1.00  0.00    -0.203 F 
ATOM     96  F   UNL     1      -8.752  10.172  10.530  1.00  0.00    -0.200 F 
ATOM     97  C   UNL     1      -7.972   8.017   9.961  1.00  0.00     0.200 A 
ATOM     98  F   UNL     1      -7.206   5.842   9.450  1.00  0.00    -0.200 F 
ATOM     99  F   UNL     1      -8.257   8.238   8.671  1.00  0.00    -0.200 F 
ENDBRANCH  65  89
BRANCH  77 100
ATOM    100  C   UNL     1     -11.461   6.798  18.290  1.00  0.00     0.064 A 
ATOM    101  C   UNL     1     -12.296   5.753  17.869  1.00  0.00     0.173 A 
ATOM    102  C   UNL     1     -12.051   7.886  18.951  1.00  0.00     0.173 A 
ATOM    103  F   UNL     1     -11.781   4.697  17.221  1.00  0.00    -0.203 F 
ATOM    104  C   UNL     1     -13.670   5.805  18.085  1.00  0.00     0.198 A 
ATOM    105  C   UNL     1     -13.422   7.922  19.189  1.00  0.00     0.198 A 
ATOM    106  F   UNL     1     -11.294   8.907  19.380  1.00  0.00    -0.203 F 
ATOM    107  F   UNL     1     -14.455   4.813  17.640  1.00  0.00    -0.200 F 
ATOM    108  C   UNL     1     -14.231   6.885  18.751  1.00  0.00     0.200 A 
ATOM    109  F   UNL     1     -13.959   8.960  19.845  1.00  0.00    -0.200 F 
ATOM    110  F   UNL     1     -15.553   6.928  18.967  1.00  0.00    -0.200 F 
ENDBRANCH  77 100
ENDBRANCH  51  52
ENDBRANCH  44  46
ENDBRANCH  43  44
ENDBRANCH  42  43
ENDBRANCH  41  42
ENDBRANCH  40  41
ENDBRANCH  39  40
ENDBRANCH  38  39
ENDBRANCH  37  38
ENDBRANCH  36  37
ENDBRANCH   1  36
TORSDOF 25
