REMARK SMILES O=C(OCCOCCOCCOCCOC(=O)[C@H]1CSCN1C(=O)Nc1ccc(F)cc1F)c1ccc(-c2c3nc(c(-c4c(F)c(F)c(F)c(F)c4F)c4ccc([nH]4)c(-c4c(F)c(F)c(F)c(F)c4F)c4nc(c(-c5c(F)c(F)c(F)c(F)c5F)c5ccc2[nH]5)C=C4)C=C3)cc1
REMARK SMILES IDX 9 1 8 2 7 3 6 4 5 5 4 6 3 7 2 8 1 9 34 10 35 11 96 12 36 13
REMARK SMILES IDX 95 14 37 15 38 16 39 17 89 18 40 19 94 20 88 21 90 22 41 23
REMARK SMILES IDX 93 24 87 25 86 26 42 28 74 29 54 30 73 31 55 32 58 33 72 34
REMARK SMILES IDX 91 35 56 36 57 37 71 39 92 40 59 41 43 42 44 43 52 44 45 45
REMARK SMILES IDX 46 46 50 47 53 48 47 49 48 50 51 51 49 52 75 53 76 54 84 55
REMARK SMILES IDX 77 56 78 57 82 58 85 59 79 60 80 61 83 62 81 63 60 64 61 65
REMARK SMILES IDX 69 66 62 67 63 68 67 69 70 70 64 71 65 72 68 73 66 74 10 75
REMARK SMILES IDX 11 76 12 77 13 78 14 79 15 80 16 81 17 82 18 83 19 84 22 85
REMARK SMILES IDX 20 86 21 87 23 88 24 89 25 90 26 92 27 93 32 94 28 95 31 96
REMARK SMILES IDX 33 97 29 98 30 99
REMARK H PARENT 90 27 58 38 25 91
REMARK Flexibility Score: inf
ROOT
ATOM      1  O   UNL     1       3.410  -3.802  -0.122  1.00  0.00    -0.377 OA
ENDROOT
BRANCH   1   2
ATOM      2  C   UNL     1       2.407  -2.803  -0.308  1.00  0.00     0.188 C 
BRANCH   2   3
ATOM      3  C   UNL     1       2.665  -1.515   0.457  1.00  0.00     0.188 C 
BRANCH   3   4
ATOM      4  O   UNL     1       3.877  -0.917   0.008  1.00  0.00    -0.376 OA
BRANCH   4   5
ATOM      5  C   UNL     1       4.769  -0.506   1.042  1.00  0.00     0.202 C 
BRANCH   5   6
ATOM      6  C   UNL     1       4.392   0.822   1.686  1.00  0.00     0.261 C 
BRANCH   6   7
ATOM      7  O   UNL     1       3.002   1.146   1.552  1.00  0.00    -0.460 OA
BRANCH   7   8
ATOM      8  C   UNL     1       2.350   1.735   0.519  1.00  0.00     0.338 C 
ATOM      9  O   UNL     1       1.150   1.937   0.636  1.00  0.00    -0.246 OA
BRANCH   8  10
ATOM     10  C   UNL     1       2.995   2.183  -0.759  1.00  0.00     0.060 A 
ATOM     11  C   UNL     1       4.095   1.593  -1.384  1.00  0.00     0.016 A 
ATOM     12  C   UNL     1       2.349   3.232  -1.435  1.00  0.00     0.016 A 
ATOM     13  C   UNL     1       4.557   2.022  -2.622  1.00  0.00     0.010 A 
ATOM     14  C   UNL     1       2.813   3.689  -2.670  1.00  0.00     0.010 A 
ATOM     15  C   UNL     1       3.935   3.091  -3.251  1.00  0.00    -0.014 A 
BRANCH  15  16
ATOM     16  C   UNL     1       4.630   3.723  -4.381  1.00  0.00     0.031 A 
ATOM     17  C   UNL     1       5.437   4.945  -4.072  1.00  0.00     0.074 A 
ATOM     18  C   UNL     1       4.640   3.147  -5.593  1.00  0.00     0.049 A 
ATOM     19  N   UNL     1       5.983   5.807  -4.881  1.00  0.00    -0.248 NA
ATOM     20  C   UNL     1       5.671   5.228  -2.642  1.00  0.00     0.031 C 
ATOM     21  C   UNL     1       4.042   1.851  -5.920  1.00  0.00     0.029 A 
ATOM     22  N   UNL     1       5.191   3.570  -6.772  1.00  0.00    -0.354 N 
ATOM     23  C   UNL     1       6.586   6.752  -4.061  1.00  0.00     0.074 A 
ATOM     24  C   UNL     1       6.358   6.358  -2.692  1.00  0.00     0.031 C 
ATOM     25  C   UNL     1       4.257   1.587  -7.221  1.00  0.00     0.029 A 
ATOM     26  C   UNL     1       4.930   2.731  -7.827  1.00  0.00     0.049 A 
ATOM     27  H   UNL     1       5.722   4.394  -6.855  1.00  0.00     0.167 HD
ATOM     28  C   UNL     1       7.256   7.861  -4.442  1.00  0.00     0.037 A 
ATOM     29  C   UNL     1       5.165   2.918  -9.140  1.00  0.00     0.037 A 
ATOM     30  C   UNL     1       7.454   8.205  -5.821  1.00  0.00     0.049 A 
ATOM     31  C   UNL     1       5.798   4.226  -9.548  1.00  0.00     0.074 A 
ATOM     32  C   UNL     1       8.001   9.350  -6.364  1.00  0.00     0.029 A 
ATOM     33  N   UNL     1       7.111   7.374  -6.881  1.00  0.00    -0.354 N 
ATOM     34  N   UNL     1       6.238   5.205  -8.791  1.00  0.00    -0.248 NA
ATOM     35  C   UNL     1       5.940   4.471 -10.987  1.00  0.00     0.031 C 
ATOM     36  C   UNL     1       7.963   9.222  -7.757  1.00  0.00     0.029 A 
ATOM     37  C   UNL     1       7.437   7.978  -8.079  1.00  0.00     0.049 A 
ATOM     38  H   UNL     1       6.697   6.485  -6.791  1.00  0.00     0.167 HD
ATOM     39  C   UNL     1       6.722   6.174  -9.656  1.00  0.00     0.074 A 
ATOM     40  C   UNL     1       6.546   5.650 -10.998  1.00  0.00     0.031 C 
ATOM     41  C   UNL     1       7.251   7.394  -9.383  1.00  0.00     0.037 A 
BRANCH  28  42
ATOM     42  C   UNL     1       7.746   8.782  -3.369  1.00  0.00     0.064 A 
ATOM     43  C   UNL     1       7.099  10.005  -3.138  1.00  0.00     0.173 A 
ATOM     44  C   UNL     1       8.852   8.463  -2.567  1.00  0.00     0.173 A 
ATOM     45  F   UNL     1       6.023  10.347  -3.862  1.00  0.00    -0.203 F 
ATOM     46  C   UNL     1       7.553  10.884  -2.158  1.00  0.00     0.198 A 
ATOM     47  C   UNL     1       9.290   9.335  -1.573  1.00  0.00     0.198 A 
ATOM     48  F   UNL     1       9.480   7.288  -2.720  1.00  0.00    -0.203 F 
ATOM     49  F   UNL     1       6.927  12.054  -1.968  1.00  0.00    -0.200 F 
ATOM     50  C   UNL     1       8.647  10.548  -1.376  1.00  0.00     0.200 A 
ATOM     51  F   UNL     1      10.327   8.995  -0.794  1.00  0.00    -0.200 F 
ATOM     52  F   UNL     1       9.075  11.389  -0.424  1.00  0.00    -0.200 F 
ENDBRANCH  28  42
BRANCH  29  53
ATOM     53  C   UNL     1       4.741   1.908 -10.149  1.00  0.00     0.064 A 
ATOM     54  C   UNL     1       3.387   1.584 -10.339  1.00  0.00     0.173 A 
ATOM     55  C   UNL     1       5.677   1.266 -10.971  1.00  0.00     0.173 A 
ATOM     56  F   UNL     1       2.442   2.171  -9.590  1.00  0.00    -0.203 F 
ATOM     57  C   UNL     1       2.991   0.653 -11.299  1.00  0.00     0.198 A 
ATOM     58  C   UNL     1       5.277   0.360 -11.955  1.00  0.00     0.198 A 
ATOM     59  F   UNL     1       6.982   1.553 -10.851  1.00  0.00    -0.203 F 
ATOM     60  F   UNL     1       1.694   0.347 -11.437  1.00  0.00    -0.200 F 
ATOM     61  C   UNL     1       3.935   0.050 -12.113  1.00  0.00     0.200 A 
ATOM     62  F   UNL     1       6.191  -0.195 -12.763  1.00  0.00    -0.200 F 
ATOM     63  F   UNL     1       3.552  -0.820 -13.058  1.00  0.00    -0.200 F 
ENDBRANCH  29  53
BRANCH  41  64
ATOM     64  C   UNL     1       7.706   8.207 -10.555  1.00  0.00     0.064 A 
ATOM     65  C   UNL     1       9.075   8.410 -10.781  1.00  0.00     0.173 A 
ATOM     66  C   UNL     1       6.790   8.825 -11.416  1.00  0.00     0.173 A 
ATOM     67  F   UNL     1       9.986   7.847  -9.973  1.00  0.00    -0.203 F 
ATOM     68  C   UNL     1       9.511   9.211 -11.829  1.00  0.00     0.198 A 
ATOM     69  C   UNL     1       7.231   9.598 -12.484  1.00  0.00     0.198 A 
ATOM     70  F   UNL     1       5.471   8.646 -11.242  1.00  0.00    -0.203 F 
ATOM     71  F   UNL     1      10.822   9.418 -12.011  1.00  0.00    -0.200 F 
ATOM     72  C   UNL     1       8.589   9.797 -12.684  1.00  0.00     0.200 A 
ATOM     73  F   UNL     1       6.341  10.141 -13.326  1.00  0.00    -0.200 F 
ATOM     74  F   UNL     1       9.011  10.552 -13.708  1.00  0.00    -0.200 F 
ENDBRANCH  41  64
ENDBRANCH  15  16
ENDBRANCH   8  10
ENDBRANCH   7   8
ENDBRANCH   6   7
ENDBRANCH   5   6
ENDBRANCH   4   5
ENDBRANCH   3   4
ENDBRANCH   2   3
ENDBRANCH   1   2
BRANCH   1  75
ATOM     75  C   UNL     1       4.753  -3.500  -0.498  1.00  0.00     0.188 C 
BRANCH  75  76
ATOM     76  C   UNL     1       5.062  -3.262  -1.986  1.00  0.00     0.188 C 
BRANCH  76  77
ATOM     77  O   UNL     1       4.023  -2.575  -2.673  1.00  0.00    -0.376 OA
BRANCH  77  78
ATOM     78  C   UNL     1       3.530  -3.242  -3.836  1.00  0.00     0.202 C 
BRANCH  78  79
ATOM     79  C   UNL     1       2.777  -4.578  -3.624  1.00  0.00     0.261 C 
BRANCH  79  80
ATOM     80  O   UNL     1       3.164  -5.229  -2.407  1.00  0.00    -0.462 OA
BRANCH  80  81
ATOM     81  C   UNL     1       3.575  -6.525  -2.434  1.00  0.00     0.329 C 
ATOM     82  O   UNL     1       3.451  -7.269  -3.391  1.00  0.00    -0.250 OA
BRANCH  81  83
ATOM     83  C   UNL     1       4.317  -6.838  -1.113  1.00  0.00     0.207 C 
ATOM     84  C   UNL     1       3.373  -6.729   0.095  1.00  0.00     0.108 C 
ATOM     85  N   UNL     1       4.949  -8.146  -1.062  1.00  0.00    -0.301 N 
ATOM     86  S   UNL     1       3.751  -8.105   1.216  1.00  0.00    -0.138 SA
ATOM     87  C   UNL     1       5.233  -8.539   0.303  1.00  0.00     0.192 C 
BRANCH  85  88
ATOM     88  C   UNL     1       5.792  -8.526  -2.078  1.00  0.00     0.323 C 
ATOM     89  O   UNL     1       6.431  -7.704  -2.733  1.00  0.00    -0.248 OA
ATOM     90  N   UNL     1       5.926  -9.868  -2.309  1.00  0.00    -0.305 N 
ATOM     91  H   UNL     1       6.604 -10.129  -2.973  1.00  0.00     0.171 HD
BRANCH  90  92
ATOM     92  C   UNL     1       5.207 -10.919  -1.707  1.00  0.00     0.079 A 
ATOM     93  C   UNL     1       3.865 -10.801  -1.321  1.00  0.00     0.032 A 
ATOM     94  C   UNL     1       5.943 -12.034  -1.302  1.00  0.00     0.149 A 
ATOM     95  C   UNL     1       3.335 -11.690  -0.386  1.00  0.00     0.041 A 
ATOM     96  C   UNL     1       5.424 -12.918  -0.368  1.00  0.00     0.080 A 
ATOM     97  F   UNL     1       7.221 -12.162  -1.688  1.00  0.00    -0.205 F 
ATOM     98  C   UNL     1       4.135 -12.714   0.110  1.00  0.00     0.126 A 
ATOM     99  F   UNL     1       3.666 -13.498   1.089  1.00  0.00    -0.207 F 
ENDBRANCH  90  92
ENDBRANCH  85  88
ENDBRANCH  81  83
ENDBRANCH  80  81
ENDBRANCH  79  80
ENDBRANCH  78  79
ENDBRANCH  77  78
ENDBRANCH  76  77
ENDBRANCH  75  76
ENDBRANCH   1  75
TORSDOF 22
