REMARK SMILES CN1C(=O)C[C@H](C(=O)OCCOCCOCCOCCOC(=O)c2ccc(-c3c4nc(c(-c5c(F)c(F)c(F)c(F)c5F)c5ccc([nH]5)c(-c5c(F)c(F)c(F)c(F)c5F)c5nc(c(-c6c(F)c(F)c(F)c(F)c6F)c6ccc3[nH]6)C=C5)C=C4)cc2)C12CC[NH+](Cc1ccc(Cl)c(F)c1)CC2
REMARK SMILES IDX 15 1 14 2 13 3 12 4 11 5 10 6 9 7 7 8 8 9 6 10 1 11 2 12
REMARK SMILES IDX 3 13 87 14 4 15 5 16 88 17 101 18 89 19 100 20 90 21 91 23
REMARK SMILES IDX 92 24 93 25 99 26 94 27 97 28 95 29 98 30 96 31 16 32 17 33
REMARK SMILES IDX 18 34 19 35 20 36 21 37 22 38 23 39 24 40 25 41 86 42 26 43
REMARK SMILES IDX 85 44 27 45 28 46 29 47 79 48 30 49 84 50 78 51 80 52 31 53
REMARK SMILES IDX 83 54 77 55 76 56 32 58 64 59 44 60 63 61 45 62 48 63 62 64
REMARK SMILES IDX 81 65 46 66 47 67 61 69 82 70 49 71 33 72 34 73 42 74 35 75
REMARK SMILES IDX 36 76 40 77 43 78 37 79 38 80 41 81 39 82 65 83 66 84 74 85
REMARK SMILES IDX 67 86 68 87 72 88 75 89 69 90 70 91 73 92 71 93 50 94 51 95
REMARK SMILES IDX 59 96 52 97 53 98 57 99 60 100 54 101 55 102 58 103 56 104
REMARK H PARENT 90 22 80 57 48 68
REMARK Flexibility Score: inf
ROOT
ATOM      1  O   UNL     1      -3.556  -1.407  -2.401  1.00  0.00    -0.377 OA
ENDROOT
BRANCH   1   2
ATOM      2  C   UNL     1      -3.816  -0.326  -3.279  1.00  0.00     0.188 C 
BRANCH   2   3
ATOM      3  C   UNL     1      -3.834  -0.712  -4.756  1.00  0.00     0.188 C 
BRANCH   3   4
ATOM      4  O   UNL     1      -4.568  -1.881  -5.091  1.00  0.00    -0.376 OA
BRANCH   4   5
ATOM      5  C   UNL     1      -3.949  -3.150  -4.868  1.00  0.00     0.202 C 
BRANCH   5   6
ATOM      6  C   UNL     1      -2.476  -3.328  -5.262  1.00  0.00     0.261 C 
BRANCH   6   7
ATOM      7  O   UNL     1      -1.592  -2.549  -4.423  1.00  0.00    -0.463 OA
BRANCH   7   8
ATOM      8  C   UNL     1      -0.548  -1.948  -5.026  1.00  0.00     0.311 C 
ATOM      9  O   UNL     1      -0.361  -1.966  -6.239  1.00  0.00    -0.252 OA
BRANCH   8  10
ATOM     10  C   UNL     1       0.329  -1.115  -4.116  1.00  0.00     0.134 C 
ATOM     11  C   UNL     1       1.521   0.316  -0.858  1.00  0.00     0.147 C 
ATOM     12  N   UNL     1       0.930  -0.012  -2.146  1.00  0.00    -0.339 N 
ATOM     13  C   UNL     1       0.437   0.982  -2.975  1.00  0.00     0.223 C 
ATOM     14  C   UNL     1       0.607  -1.395  -2.609  1.00  0.00     0.067 C 
ATOM     15  O   UNL     1       0.424   2.183  -2.755  1.00  0.00    -0.275 OA
ATOM     16  C   UNL     1      -0.112   0.346  -4.211  1.00  0.00     0.118 C 
ATOM     17  C   UNL     1       1.812  -2.343  -2.454  1.00  0.00     0.091 C 
ATOM     18  C   UNL     1      -0.531  -1.922  -1.715  1.00  0.00     0.091 C 
ATOM     19  C   UNL     1       1.423  -3.809  -2.648  1.00  0.00     0.265 C 
ATOM     20  C   UNL     1      -0.827  -3.425  -1.758  1.00  0.00     0.265 C 
ATOM     21  N   UNL     1       0.355  -4.277  -1.774  1.00  0.00    -0.331 N 
ATOM     22  H   UNL     1       0.036  -5.117  -2.255  1.00  0.00     0.348 HD
BRANCH  21  23
ATOM     23  C   UNL     1       0.745  -4.880  -0.496  1.00  0.00     0.299 C 
BRANCH  23  24
ATOM     24  C   UNL     1       0.994  -3.918   0.644  1.00  0.00     0.009 A 
ATOM     25  C   UNL     1       2.283  -3.431   0.904  1.00  0.00     0.011 A 
ATOM     26  C   UNL     1      -0.077  -3.439   1.416  1.00  0.00     0.050 A 
ATOM     27  C   UNL     1       2.481  -2.417   1.846  1.00  0.00     0.024 A 
ATOM     28  C   UNL     1       0.120  -2.413   2.333  1.00  0.00     0.142 A 
ATOM     29  C   UNL     1       1.392  -1.888   2.539  1.00  0.00     0.076 A 
ATOM     30  F   UNL     1      -0.947  -1.912   2.973  1.00  0.00    -0.205 F 
ATOM     31  Cl  UNL     1       1.631  -0.563   3.610  1.00  0.00    -0.081 Cl
ENDBRANCH  23  24
ENDBRANCH  21  23
ENDBRANCH   8  10
ENDBRANCH   7   8
ENDBRANCH   6   7
ENDBRANCH   5   6
ENDBRANCH   4   5
ENDBRANCH   3   4
ENDBRANCH   2   3
ENDBRANCH   1   2
BRANCH   1  32
ATOM     32  C   UNL     1      -4.608  -1.914  -1.587  1.00  0.00     0.188 C 
BRANCH  32  33
ATOM     33  C   UNL     1      -5.948  -1.175  -1.551  1.00  0.00     0.188 C 
BRANCH  33  34
ATOM     34  O   UNL     1      -5.994   0.182  -1.105  1.00  0.00    -0.376 OA
BRANCH  34  35
ATOM     35  C   UNL     1      -4.931   0.725  -0.325  1.00  0.00     0.202 C 
BRANCH  35  36
ATOM     36  C   UNL     1      -5.146   0.621   1.181  1.00  0.00     0.261 C 
BRANCH  36  37
ATOM     37  O   UNL     1      -4.952  -0.728   1.621  1.00  0.00    -0.460 OA
BRANCH  37  38
ATOM     38  C   UNL     1      -6.076  -1.463   1.708  1.00  0.00     0.338 C 
ATOM     39  O   UNL     1      -7.232  -1.102   1.517  1.00  0.00    -0.246 OA
BRANCH  38  40
ATOM     40  C   UNL     1      -5.713  -2.862   1.958  1.00  0.00     0.060 A 
ATOM     41  C   UNL     1      -6.385  -3.857   1.238  1.00  0.00     0.016 A 
ATOM     42  C   UNL     1      -4.790  -3.190   2.956  1.00  0.00     0.016 A 
ATOM     43  C   UNL     1      -6.201  -5.191   1.574  1.00  0.00     0.010 A 
ATOM     44  C   UNL     1      -4.614  -4.527   3.298  1.00  0.00     0.010 A 
ATOM     45  C   UNL     1      -5.364  -5.520   2.647  1.00  0.00    -0.014 A 
BRANCH  45  46
ATOM     46  C   UNL     1      -5.454  -6.866   3.244  1.00  0.00     0.031 A 
ATOM     47  C   UNL     1      -6.323  -7.045   4.456  1.00  0.00     0.074 A 
ATOM     48  C   UNL     1      -4.792  -7.898   2.701  1.00  0.00     0.049 A 
ATOM     49  N   UNL     1      -6.512  -8.106   5.195  1.00  0.00    -0.248 NA
ATOM     50  C   UNL     1      -7.078  -5.860   4.898  1.00  0.00     0.031 C 
ATOM     51  C   UNL     1      -3.971  -7.833   1.494  1.00  0.00     0.029 A 
ATOM     52  N   UNL     1      -4.705  -9.203   3.105  1.00  0.00    -0.354 N 
ATOM     53  C   UNL     1      -7.400  -7.716   6.190  1.00  0.00     0.074 A 
ATOM     54  C   UNL     1      -7.683  -6.313   5.985  1.00  0.00     0.031 C 
ATOM     55  C   UNL     1      -3.452  -9.050   1.259  1.00  0.00     0.029 A 
ATOM     56  C   UNL     1      -3.875  -9.962   2.320  1.00  0.00     0.049 A 
ATOM     57  H   UNL     1      -5.190  -9.562   3.883  1.00  0.00     0.167 HD
ATOM     58  C   UNL     1      -7.937  -8.468   7.178  1.00  0.00     0.037 A 
ATOM     59  C   UNL     1      -3.490 -11.243   2.467  1.00  0.00     0.037 A 
ATOM     60  C   UNL     1      -7.635  -9.861   7.372  1.00  0.00     0.049 A 
ATOM     61  C   UNL     1      -4.029 -12.034   3.631  1.00  0.00     0.074 A 
ATOM     62  C   UNL     1      -8.116 -10.725   8.338  1.00  0.00     0.029 A 
ATOM     63  N   UNL     1      -6.758 -10.591   6.580  1.00  0.00    -0.354 N 
ATOM     64  N   UNL     1      -4.878 -11.669   4.562  1.00  0.00    -0.248 NA
ATOM     65  C   UNL     1      -3.557 -13.419   3.760  1.00  0.00     0.031 C 
ATOM     66  C   UNL     1      -7.487 -11.963   8.166  1.00  0.00     0.029 A 
ATOM     67  C   UNL     1      -6.664 -11.889   7.052  1.00  0.00     0.049 A 
ATOM     68  H   UNL     1      -6.274 -10.237   5.799  1.00  0.00     0.167 HD
ATOM     69  C   UNL     1      -5.071 -12.786   5.365  1.00  0.00     0.074 A 
ATOM     70  C   UNL     1      -4.257 -13.844   4.803  1.00  0.00     0.031 C 
ATOM     71  C   UNL     1      -5.853 -12.927   6.465  1.00  0.00     0.037 A 
BRANCH  58  72
ATOM     72  C   UNL     1      -8.871  -7.787   8.137  1.00  0.00     0.064 A 
ATOM     73  C   UNL     1     -10.138  -7.331   7.740  1.00  0.00     0.173 A 
ATOM     74  C   UNL     1      -8.496  -7.591   9.476  1.00  0.00     0.173 A 
ATOM     75  F   UNL     1     -10.540  -7.477   6.469  1.00  0.00    -0.203 F 
ATOM     76  C   UNL     1     -10.979  -6.676   8.637  1.00  0.00     0.198 A 
ATOM     77  C   UNL     1      -9.354  -6.967  10.378  1.00  0.00     0.198 A 
ATOM     78  F   UNL     1      -7.297  -8.007   9.910  1.00  0.00    -0.203 F 
ATOM     79  F   UNL     1     -12.160  -6.198   8.219  1.00  0.00    -0.200 F 
ATOM     80  C   UNL     1     -10.589  -6.501   9.956  1.00  0.00     0.200 A 
ATOM     81  F   UNL     1      -8.980  -6.809  11.655  1.00  0.00    -0.200 F 
ATOM     82  F   UNL     1     -11.401  -5.874  10.819  1.00  0.00    -0.200 F 
ENDBRANCH  58  72
BRANCH  59  83
ATOM     83  C   UNL     1      -2.551 -11.853   1.491  1.00  0.00     0.064 A 
ATOM     84  C   UNL     1      -2.970 -12.881   0.636  1.00  0.00     0.173 A 
ATOM     85  C   UNL     1      -1.218 -11.428   1.396  1.00  0.00     0.173 A 
ATOM     86  F   UNL     1      -4.231 -13.334   0.701  1.00  0.00    -0.203 F 
ATOM     87  C   UNL     1      -2.086 -13.476  -0.262  1.00  0.00     0.198 A 
ATOM     88  C   UNL     1      -0.343 -12.002   0.476  1.00  0.00     0.198 A 
ATOM     89  F   UNL     1      -0.767 -10.443   2.187  1.00  0.00    -0.203 F 
ATOM     90  F   UNL     1      -2.501 -14.489  -1.035  1.00  0.00    -0.200 F 
ATOM     91  C   UNL     1      -0.775 -13.032  -0.345  1.00  0.00     0.200 A 
ATOM     92  F   UNL     1       0.918 -11.558   0.388  1.00  0.00    -0.200 F 
ATOM     93  F   UNL     1       0.074 -13.601  -1.212  1.00  0.00    -0.200 F 
ENDBRANCH  59  83
BRANCH  71  94
ATOM     94  C   UNL     1      -5.906 -14.288   7.100  1.00  0.00     0.064 A 
ATOM     95  C   UNL     1      -4.814 -14.822   7.799  1.00  0.00     0.173 A 
ATOM     96  C   UNL     1      -7.084 -15.049   7.040  1.00  0.00     0.173 A 
ATOM     97  F   UNL     1      -3.660 -14.140   7.873  1.00  0.00    -0.203 F 
ATOM     98  C   UNL     1      -4.889 -16.081   8.389  1.00  0.00     0.198 A 
ATOM     99  C   UNL     1      -7.167 -16.291   7.661  1.00  0.00     0.198 A 
ATOM    100  F   UNL     1      -8.160 -14.580   6.391  1.00  0.00    -0.203 F 
ATOM    101  F   UNL     1      -3.816 -16.596   9.004  1.00  0.00    -0.200 F 
ATOM    102  C   UNL     1      -6.067 -16.810   8.326  1.00  0.00     0.200 A 
ATOM    103  F   UNL     1      -8.312 -16.986   7.615  1.00  0.00    -0.200 F 
ATOM    104  F   UNL     1      -6.141 -18.018   8.902  1.00  0.00    -0.200 F 
ENDBRANCH  71  94
ENDBRANCH  45  46
ENDBRANCH  38  40
ENDBRANCH  37  38
ENDBRANCH  36  37
ENDBRANCH  35  36
ENDBRANCH  34  35
ENDBRANCH  33  34
ENDBRANCH  32  33
ENDBRANCH   1  32
TORSDOF 22
