REMARK SMILES O=C(C[C@H]([NH2+]Cc1ccccc1C1CC1)c1cccs1)OCCOCCOCCOCCOC(=O)c1ccc(-c2c3nc(c(-c4c(F)c(F)c(F)c(F)c4F)c4ccc([nH]4)c(-c4c(F)c(F)c(F)c(F)c4F)c4nc(c(-c5c(F)c(F)c(F)c(F)c5F)c5ccc2[nH]5)C=C4)C=C3)cc1
REMARK SMILES IDX 25 1 24 2 23 3 22 4 21 5 2 6 1 7 3 8 4 9 16 10 17 11 20 12
REMARK SMILES IDX 18 13 19 14 5 15 6 18 7 19 8 20 12 21 9 22 11 23 10 24 13 25
REMARK SMILES IDX 14 26 15 27 26 28 27 29 28 30 29 31 30 32 31 33 32 34 33 35
REMARK SMILES IDX 34 36 35 37 36 38 37 39 98 40 38 41 97 42 39 43 40 44 41 45
REMARK SMILES IDX 91 46 42 47 96 48 90 49 92 50 43 51 95 52 89 53 88 54 44 56
REMARK SMILES IDX 76 57 56 58 75 59 57 60 60 61 74 62 93 63 58 64 59 65 73 67
REMARK SMILES IDX 94 68 61 69 45 70 46 71 54 72 47 73 48 74 52 75 55 76 49 77
REMARK SMILES IDX 50 78 53 79 51 80 77 81 78 82 86 83 79 84 80 85 84 86 87 87
REMARK SMILES IDX 81 88 82 89 85 90 83 91 62 92 63 93 71 94 64 95 65 96 69 97
REMARK SMILES IDX 72 98 66 99 67 100 70 101 68 102
REMARK H PARENT 5 16 5 17 92 55 60 66
REMARK Flexibility Score: inf
ROOT
ATOM      1  C   UNL     1       6.066   1.490   2.128  1.00  0.00     0.188 C 
ENDROOT
BRANCH   1   2
ATOM      2  O   UNL     1       5.724   2.716   1.501  1.00  0.00    -0.376 OA
BRANCH   2   3
ATOM      3  C   UNL     1       4.446   3.162   1.118  1.00  0.00     0.202 C 
BRANCH   3   4
ATOM      4  C   UNL     1       3.201   2.352   1.413  1.00  0.00     0.261 C 
BRANCH   4   5
ATOM      5  O   UNL     1       3.324   0.922   1.337  1.00  0.00    -0.463 OA
BRANCH   5   6
ATOM      6  C   UNL     1       3.898   0.120   0.418  1.00  0.00     0.312 C 
ATOM      7  O   UNL     1       3.932  -1.089   0.645  1.00  0.00    -0.252 OA
BRANCH   6   8
ATOM      8  C   UNL     1       4.588   0.679  -0.794  1.00  0.00     0.193 C 
BRANCH   8   9
ATOM      9  C   UNL     1       3.683   1.458  -1.738  1.00  0.00     0.235 C 
BRANCH   9  10
ATOM     10  C   UNL     1       4.500   2.344  -2.659  1.00  0.00     0.062 A 
ATOM     11  C   UNL     1       4.475   3.727  -2.737  1.00  0.00     0.021 A 
ATOM     12  S   UNL     1       5.688   1.692  -3.717  1.00  0.00    -0.143 S 
ATOM     13  C   UNL     1       5.442   4.245  -3.644  1.00  0.00     0.012 A 
ATOM     14  C   UNL     1       6.171   3.244  -4.243  1.00  0.00     0.065 A 
ENDBRANCH   9  10
BRANCH   9  15
ATOM     15  N   UNL     1       2.800   0.555  -2.474  1.00  0.00    -0.335 N 
ATOM     16  H   UNL     1       2.721  -0.322  -1.960  1.00  0.00     0.347 HD
ATOM     17  H   UNL     1       3.201   0.400  -3.399  1.00  0.00     0.347 HD
BRANCH  15  18
ATOM     18  C   UNL     1       1.470   1.127  -2.643  1.00  0.00     0.298 C 
BRANCH  18  19
ATOM     19  C   UNL     1       0.487   0.073  -3.086  1.00  0.00     0.010 A 
ATOM     20  C   UNL     1       0.308  -0.021  -4.486  1.00  0.00     0.010 A 
ATOM     21  C   UNL     1      -0.202  -0.816  -2.220  1.00  0.00    -0.036 A 
ATOM     22  C   UNL     1      -0.587  -0.922  -5.046  1.00  0.00     0.001 A 
ATOM     23  C   UNL     1      -1.151  -1.668  -2.833  1.00  0.00     0.004 A 
ATOM     24  C   UNL     1      -1.342  -1.728  -4.214  1.00  0.00     0.000 A 
BRANCH  21  25
ATOM     25  C   UNL     1       0.025  -1.095  -0.739  1.00  0.00     0.020 C 
ATOM     26  C   UNL     1       0.842  -0.308   0.229  1.00  0.00     0.009 C 
ATOM     27  C   UNL     1      -0.643  -0.265   0.338  1.00  0.00     0.009 C 
ENDBRANCH  21  25
ENDBRANCH  18  19
ENDBRANCH  15  18
ENDBRANCH   9  15
ENDBRANCH   8   9
ENDBRANCH   6   8
ENDBRANCH   5   6
ENDBRANCH   4   5
ENDBRANCH   3   4
ENDBRANCH   2   3
ENDBRANCH   1   2
BRANCH   1  28
ATOM     28  C   UNL     1       5.632   1.226   3.573  1.00  0.00     0.188 C 
BRANCH  28  29
ATOM     29  O   UNL     1       5.928   2.213   4.550  1.00  0.00    -0.377 OA
BRANCH  29  30
ATOM     30  C   UNL     1       5.557   3.536   4.210  1.00  0.00     0.188 C 
BRANCH  30  31
ATOM     31  C   UNL     1       6.701   4.358   3.584  1.00  0.00     0.188 C 
BRANCH  31  32
ATOM     32  O   UNL     1       7.761   3.654   2.978  1.00  0.00    -0.376 OA
BRANCH  32  33
ATOM     33  C   UNL     1       8.749   2.942   3.703  1.00  0.00     0.202 C 
BRANCH  33  34
ATOM     34  C   UNL     1       8.803   2.684   5.221  1.00  0.00     0.261 C 
BRANCH  34  35
ATOM     35  O   UNL     1       7.847   3.316   6.065  1.00  0.00    -0.460 OA
BRANCH  35  36
ATOM     36  C   UNL     1       8.097   4.590   6.412  1.00  0.00     0.338 C 
ATOM     37  O   UNL     1       9.072   5.263   6.115  1.00  0.00    -0.246 OA
BRANCH  36  38
ATOM     38  C   UNL     1       6.859   5.129   7.011  1.00  0.00     0.060 A 
ATOM     39  C   UNL     1       6.314   6.290   6.446  1.00  0.00     0.016 A 
ATOM     40  C   UNL     1       6.211   4.482   8.068  1.00  0.00     0.016 A 
ATOM     41  C   UNL     1       5.146   6.833   6.961  1.00  0.00     0.010 A 
ATOM     42  C   UNL     1       5.063   5.056   8.620  1.00  0.00     0.010 A 
ATOM     43  C   UNL     1       4.559   6.258   8.094  1.00  0.00    -0.014 A 
BRANCH  43  44
ATOM     44  C   UNL     1       3.611   7.093   8.861  1.00  0.00     0.031 A 
ATOM     45  C   UNL     1       4.172   7.935   9.975  1.00  0.00     0.074 A 
ATOM     46  C   UNL     1       2.322   7.200   8.501  1.00  0.00     0.049 A 
ATOM     47  N   UNL     1       3.572   8.804  10.746  1.00  0.00    -0.248 NA
ATOM     48  C   UNL     1       5.612   7.781  10.247  1.00  0.00     0.031 C 
ATOM     49  C   UNL     1       1.687   6.473   7.404  1.00  0.00     0.029 A 
ATOM     50  N   UNL     1       1.318   7.976   9.021  1.00  0.00    -0.354 N 
ATOM     51  C   UNL     1       4.562   9.307  11.580  1.00  0.00     0.074 A 
ATOM     52  C   UNL     1       5.789   8.615  11.259  1.00  0.00     0.031 C 
ATOM     53  C   UNL     1       0.392   6.831   7.340  1.00  0.00     0.029 A 
ATOM     54  C   UNL     1       0.107   7.793   8.403  1.00  0.00     0.049 A 
ATOM     55  H   UNL     1       1.454   8.605   9.766  1.00  0.00     0.167 HD
ATOM     56  C   UNL     1       4.460  10.276  12.519  1.00  0.00     0.037 A 
ATOM     57  C   UNL     1      -1.095   8.332   8.685  1.00  0.00     0.037 A 
ATOM     58  C   UNL     1       3.233  10.949  12.847  1.00  0.00     0.049 A 
ATOM     59  C   UNL     1      -1.199   9.347   9.797  1.00  0.00     0.074 A 
ATOM     60  C   UNL     1       3.012  11.929  13.798  1.00  0.00     0.029 A 
ATOM     61  N   UNL     1       2.012  10.701  12.235  1.00  0.00    -0.354 N 
ATOM     62  N   UNL     1      -0.259   9.828  10.575  1.00  0.00    -0.248 NA
ATOM     63  C   UNL     1      -2.533   9.904  10.059  1.00  0.00     0.031 C 
ATOM     64  C   UNL     1       1.647  12.235  13.799  1.00  0.00     0.029 A 
ATOM     65  C   UNL     1       1.029  11.496  12.802  1.00  0.00     0.049 A 
ATOM     66  H   UNL     1       1.866  10.057  11.505  1.00  0.00     0.167 HD
ATOM     67  C   UNL     1      -0.880  10.760  11.397  1.00  0.00     0.074 A 
ATOM     68  C   UNL     1      -2.273  10.797  11.001  1.00  0.00     0.031 C 
ATOM     69  C   UNL     1      -0.352  11.516  12.393  1.00  0.00     0.037 A 
BRANCH  56  70
ATOM     70  C   UNL     1       5.707  10.643  13.271  1.00  0.00     0.064 A 
ATOM     71  C   UNL     1       6.770  11.318  12.652  1.00  0.00     0.173 A 
ATOM     72  C   UNL     1       5.831  10.336  14.634  1.00  0.00     0.173 A 
ATOM     73  F   UNL     1       6.712  11.616  11.345  1.00  0.00    -0.203 F 
ATOM     74  C   UNL     1       7.919  11.653  13.364  1.00  0.00     0.198 A 
ATOM     75  C   UNL     1       6.967  10.701  15.351  1.00  0.00     0.198 A 
ATOM     76  F   UNL     1       4.846   9.687  15.274  1.00  0.00    -0.203 F 
ATOM     77  F   UNL     1       8.941  12.254  12.740  1.00  0.00    -0.200 F 
ATOM     78  C   UNL     1       8.012  11.353  14.715  1.00  0.00     0.200 A 
ATOM     79  F   UNL     1       7.050  10.421  16.659  1.00  0.00    -0.200 F 
ATOM     80  F   UNL     1       9.113  11.686  15.402  1.00  0.00    -0.200 F 
ENDBRANCH  56  70
BRANCH  57  81
ATOM     81  C   UNL     1      -2.301   7.908   7.924  1.00  0.00     0.064 A 
ATOM     82  C   UNL     1      -3.007   8.804   7.109  1.00  0.00     0.173 A 
ATOM     83  C   UNL     1      -2.796   6.599   8.032  1.00  0.00     0.173 A 
ATOM     84  F   UNL     1      -2.589  10.072   6.988  1.00  0.00    -0.203 F 
ATOM     85  C   UNL     1      -4.177   8.416   6.457  1.00  0.00     0.198 A 
ATOM     86  C   UNL     1      -3.945   6.203   7.352  1.00  0.00     0.198 A 
ATOM     87  F   UNL     1      -2.160   5.701   8.798  1.00  0.00    -0.203 F 
ATOM     88  F   UNL     1      -4.866   9.310   5.735  1.00  0.00    -0.200 F 
ATOM     89  C   UNL     1      -4.642   7.115   6.575  1.00  0.00     0.200 A 
ATOM     90  F   UNL     1      -4.380   4.940   7.456  1.00  0.00    -0.200 F 
ATOM     91  F   UNL     1      -5.767   6.743   5.948  1.00  0.00    -0.200 F 
ENDBRANCH  57  81
BRANCH  69  92
ATOM     92  C   UNL     1      -1.279  12.471  13.095  1.00  0.00     0.064 A 
ATOM     93  C   UNL     1      -2.322  12.020  13.918  1.00  0.00     0.173 A 
ATOM     94  C   UNL     1      -1.114  13.857  12.948  1.00  0.00     0.173 A 
ATOM     95  F   UNL     1      -2.531  10.705  14.085  1.00  0.00    -0.203 F 
ATOM     96  C   UNL     1      -3.194  12.919  14.527  1.00  0.00     0.198 A 
ATOM     97  C   UNL     1      -1.962  14.754  13.591  1.00  0.00     0.198 A 
ATOM     98  F   UNL     1      -0.125  14.345  12.184  1.00  0.00    -0.203 F 
ATOM     99  F   UNL     1      -4.228  12.462  15.247  1.00  0.00    -0.200 F 
ATOM    100  C   UNL     1      -3.011  14.284  14.367  1.00  0.00     0.200 A 
ATOM    101  F   UNL     1      -1.771  16.073  13.452  1.00  0.00    -0.200 F 
ATOM    102  F   UNL     1      -3.852  15.148  14.952  1.00  0.00    -0.200 F 
ENDBRANCH  69  92
ENDBRANCH  43  44
ENDBRANCH  36  38
ENDBRANCH  35  36
ENDBRANCH  34  35
ENDBRANCH  33  34
ENDBRANCH  32  33
ENDBRANCH  31  32
ENDBRANCH  30  31
ENDBRANCH  29  30
ENDBRANCH  28  29
ENDBRANCH   1  28
TORSDOF 26
