REMARK SMILES Cc1cccc(NC(=O)[C@H]2CCCCC[C@@H]2[NH3+])c1C(=O)OCCOCCOCCOCCOC(=O)c1ccc(-c2c3nc(c(-c4c(F)c(F)c(F)c(F)c4F)c4ccc([nH]4)c(-c4c(F)c(F)c(F)c(F)c4F)c4nc(c(-c5c(F)c(F)c(F)c(F)c5F)c5ccc2[nH]5)C=C4)C=C3)cc1
REMARK SMILES IDX 25 1 24 2 23 3 22 4 21 5 19 6 20 7 18 8 1 9 2 10 3 11 4 12
REMARK SMILES IDX 6 13 5 14 7 15 8 16 9 18 10 19 11 20 12 21 13 22 14 23 16 25
REMARK SMILES IDX 15 26 17 28 26 32 27 33 28 34 29 35 30 36 31 37 32 38 33 39
REMARK SMILES IDX 34 40 35 41 36 42 37 43 98 44 38 45 97 46 39 47 40 48 41 49
REMARK SMILES IDX 91 50 42 51 96 52 90 53 92 54 43 55 95 56 89 57 88 58 44 60
REMARK SMILES IDX 76 61 56 62 75 63 57 64 60 65 74 66 93 67 58 68 59 69 73 71
REMARK SMILES IDX 94 72 61 73 45 74 46 75 54 76 47 77 48 78 52 79 55 80 49 81
REMARK SMILES IDX 50 82 53 83 51 84 77 85 78 86 86 87 79 88 80 89 84 90 87 91
REMARK SMILES IDX 81 92 82 93 85 94 83 95 62 96 63 97 71 98 64 99 65 100
REMARK SMILES IDX 69 101 72 102 66 103 67 104 70 105 68 106
REMARK H PARENT 7 17 17 29 17 30 17 31 92 59 60 70
REMARK Flexibility Score: 90.00
ROOT
ATOM      1  C   UNL     1      -7.346   2.921   1.248  1.00  0.00     0.188 C 
ENDROOT
BRANCH   1   2
ATOM      2  O   UNL     1      -7.851   2.360   2.449  1.00  0.00    -0.376 OA
BRANCH   2   3
ATOM      3  C   UNL     1      -7.342   2.887   3.673  1.00  0.00     0.202 C 
BRANCH   3   4
ATOM      4  C   UNL     1      -5.837   3.053   3.812  1.00  0.00     0.261 C 
BRANCH   4   5
ATOM      5  O   UNL     1      -5.468   4.221   3.061  1.00  0.00    -0.460 OA
BRANCH   5   6
ATOM      6  C   UNL     1      -4.159   4.391   2.810  1.00  0.00     0.340 C 
ATOM      7  O   UNL     1      -3.214   3.943   3.428  1.00  0.00    -0.246 OA
BRANCH   6   8
ATOM      8  C   UNL     1      -4.066   4.664   1.368  1.00  0.00     0.086 A 
ATOM      9  C   UNL     1      -5.120   6.981   1.575  1.00  0.00     0.045 C 
ATOM     10  C   UNL     1      -4.413   5.902   0.809  1.00  0.00    -0.034 A 
ATOM     11  C   UNL     1      -4.144   6.095  -0.545  1.00  0.00     0.004 A 
ATOM     12  C   UNL     1      -3.664   5.042  -1.325  1.00  0.00     0.002 A 
ATOM     13  C   UNL     1      -3.725   3.540   0.565  1.00  0.00     0.056 A 
ATOM     14  C   UNL     1      -3.505   3.760  -0.786  1.00  0.00     0.027 A 
BRANCH  13  15
ATOM     15  N   UNL     1      -3.806   2.275   1.197  1.00  0.00    -0.325 N 
ATOM     16  C   UNL     1      -3.962   0.979   0.852  1.00  0.00     0.233 C 
ATOM     17  H   UNL     1      -3.725   2.368   2.174  1.00  0.00     0.169 HD
ATOM     18  O   UNL     1      -4.399   0.245   1.745  1.00  0.00    -0.274 OA
BRANCH  16  19
ATOM     19  C   UNL     1      -3.628   0.456  -0.519  1.00  0.00     0.137 C 
BRANCH  19  20
ATOM     20  C   UNL     1      -3.014  -0.955  -0.415  1.00  0.00     0.020 C 
BRANCH  20  21
ATOM     21  C   UNL     1      -3.924  -2.113  -0.003  1.00  0.00     0.001 C 
BRANCH  21  22
ATOM     22  C   UNL     1      -4.762  -2.724  -1.115  1.00  0.00     0.000 C 
BRANCH  22  23
ATOM     23  C   UNL     1      -5.364  -1.763  -2.128  1.00  0.00     0.006 CG0
ATOM     24  G   UNL     1      -5.858  -0.442  -1.543  1.00  0.00     0.000 G0
ENDBRANCH  22  23
ENDBRANCH  21  22
ENDBRANCH  20  21
ENDBRANCH  19  20
BRANCH  19  25
ATOM     25  C   UNL     1      -4.803   0.676  -1.487  1.00  0.00     0.193 C 
BRANCH  25  26
ATOM     26  C   UNL     1      -5.858  -0.442  -1.543  1.00  0.00     0.066 CG0
ATOM     27  G   UNL     1      -5.364  -1.763  -2.128  1.00  0.00     0.000 G0
ENDBRANCH  25  26
BRANCH  25  28
ATOM     28  N   UNL     1      -4.270   0.965  -2.832  1.00  0.00    -0.354 N 
ATOM     29  H   UNL     1      -3.759   0.153  -3.178  1.00  0.00     0.344 HD
ATOM     30  H   UNL     1      -3.641   1.767  -2.784  1.00  0.00     0.344 HD
ATOM     31  H   UNL     1      -5.041   1.176  -3.466  1.00  0.00     0.344 HD
ENDBRANCH  25  28
ENDBRANCH  19  25
ENDBRANCH  16  19
ENDBRANCH  13  15
ENDBRANCH   6   8
ENDBRANCH   5   6
ENDBRANCH   4   5
ENDBRANCH   3   4
ENDBRANCH   2   3
ENDBRANCH   1   2
BRANCH   1  32
ATOM     32  C   UNL     1      -8.021   4.150   0.622  1.00  0.00     0.188 C 
BRANCH  32  33
ATOM     33  O   UNL     1      -8.079   5.362   1.359  1.00  0.00    -0.377 OA
BRANCH  33  34
ATOM     34  C   UNL     1      -9.226   5.599   2.171  1.00  0.00     0.188 C 
BRANCH  34  35
ATOM     35  C   UNL     1     -10.569   5.039   1.712  1.00  0.00     0.188 C 
BRANCH  35  36
ATOM     36  O   UNL     1     -10.582   3.644   2.008  1.00  0.00    -0.376 OA
BRANCH  36  37
ATOM     37  C   UNL     1     -11.434   2.843   1.197  1.00  0.00     0.202 C 
BRANCH  37  38
ATOM     38  C   UNL     1     -12.917   3.214   1.306  1.00  0.00     0.261 C 
BRANCH  38  39
ATOM     39  O   UNL     1     -13.383   2.944   2.643  1.00  0.00    -0.460 OA
BRANCH  39  40
ATOM     40  C   UNL     1     -13.558   4.042   3.426  1.00  0.00     0.338 C 
ATOM     41  O   UNL     1     -14.221   5.020   3.129  1.00  0.00    -0.246 OA
BRANCH  40  42
ATOM     42  C   UNL     1     -12.603   4.000   4.570  1.00  0.00     0.060 A 
ATOM     43  C   UNL     1     -12.416   5.135   5.377  1.00  0.00     0.016 A 
ATOM     44  C   UNL     1     -11.684   2.961   4.630  1.00  0.00     0.016 A 
ATOM     45  C   UNL     1     -11.229   5.294   6.110  1.00  0.00     0.010 A 
ATOM     46  C   UNL     1     -10.478   3.176   5.260  1.00  0.00     0.010 A 
ATOM     47  C   UNL     1     -10.210   4.354   5.976  1.00  0.00    -0.014 A 
BRANCH  47  48
ATOM     48  C   UNL     1      -8.801   4.542   6.376  1.00  0.00     0.031 A 
ATOM     49  C   UNL     1      -8.076   3.402   7.033  1.00  0.00     0.074 A 
ATOM     50  C   UNL     1      -8.098   5.553   5.801  1.00  0.00     0.049 A 
ATOM     51  N   UNL     1      -6.800   3.334   7.182  1.00  0.00    -0.248 NA
ATOM     52  C   UNL     1      -8.731   2.195   7.535  1.00  0.00     0.031 C 
ATOM     53  C   UNL     1      -6.662   5.572   5.536  1.00  0.00     0.029 A 
ATOM     54  N   UNL     1      -8.515   6.749   5.226  1.00  0.00    -0.354 N 
ATOM     55  C   UNL     1      -6.438   2.042   7.490  1.00  0.00     0.074 A 
ATOM     56  C   UNL     1      -7.689   1.385   7.768  1.00  0.00     0.031 C 
ATOM     57  C   UNL     1      -6.292   6.688   4.898  1.00  0.00     0.029 A 
ATOM     58  C   UNL     1      -7.405   7.586   5.013  1.00  0.00     0.049 A 
ATOM     59  H   UNL     1      -9.447   6.975   5.001  1.00  0.00     0.167 HD
ATOM     60  C   UNL     1      -5.121   1.688   7.368  1.00  0.00     0.037 A 
ATOM     61  C   UNL     1      -7.277   8.740   5.736  1.00  0.00     0.037 A 
ATOM     62  C   UNL     1      -4.268   2.881   7.182  1.00  0.00     0.049 A 
ATOM     63  C   UNL     1      -6.167   8.572   6.775  1.00  0.00     0.074 A 
ATOM     64  C   UNL     1      -3.289   3.250   6.279  1.00  0.00     0.029 A 
ATOM     65  N   UNL     1      -4.501   4.027   7.960  1.00  0.00    -0.354 N 
ATOM     66  N   UNL     1      -5.898   7.431   7.379  1.00  0.00    -0.248 NA
ATOM     67  C   UNL     1      -5.094   9.553   6.943  1.00  0.00     0.031 C 
ATOM     68  C   UNL     1      -3.089   4.661   6.396  1.00  0.00     0.029 A 
ATOM     69  C   UNL     1      -3.859   5.138   7.449  1.00  0.00     0.049 A 
ATOM     70  H   UNL     1      -5.056   4.036   8.773  1.00  0.00     0.167 HD
ATOM     71  C   UNL     1      -4.600   7.458   7.831  1.00  0.00     0.074 A 
ATOM     72  C   UNL     1      -4.162   8.827   7.589  1.00  0.00     0.031 C 
ATOM     73  C   UNL     1      -3.818   6.390   8.191  1.00  0.00     0.037 A 
BRANCH  60  74
ATOM     74  C   UNL     1      -4.580   0.256   7.260  1.00  0.00     0.064 A 
ATOM     75  C   UNL     1      -3.185   0.006   7.265  1.00  0.00     0.173 A 
ATOM     76  C   UNL     1      -5.363  -0.901   7.044  1.00  0.00     0.173 A 
ATOM     77  F   UNL     1      -2.304   0.991   7.482  1.00  0.00    -0.203 F 
ATOM     78  C   UNL     1      -2.633  -1.268   7.052  1.00  0.00     0.198 A 
ATOM     79  C   UNL     1      -4.811  -2.184   6.895  1.00  0.00     0.198 A 
ATOM     80  F   UNL     1      -6.692  -0.843   6.921  1.00  0.00    -0.203 F 
ATOM     81  F   UNL     1      -1.301  -1.421   7.014  1.00  0.00    -0.200 F 
ATOM     82  C   UNL     1      -3.446  -2.367   6.881  1.00  0.00     0.200 A 
ATOM     83  F   UNL     1      -5.623  -3.244   6.750  1.00  0.00    -0.200 F 
ATOM     84  F   UNL     1      -2.922  -3.588   6.704  1.00  0.00    -0.200 F 
ENDBRANCH  60  74
BRANCH  61  85
ATOM     85  C   UNL     1      -8.561   9.509   5.683  1.00  0.00     0.064 A 
ATOM     86  C   UNL     1      -8.871   9.957   4.373  1.00  0.00     0.173 A 
ATOM     87  C   UNL     1      -9.646   9.137   6.494  1.00  0.00     0.173 A 
ATOM     88  F   UNL     1      -7.880  10.364   3.561  1.00  0.00    -0.203 F 
ATOM     89  C   UNL     1     -10.129   9.738   3.811  1.00  0.00     0.198 A 
ATOM     90  C   UNL     1     -10.923   8.968   5.934  1.00  0.00     0.198 A 
ATOM     91  F   UNL     1      -9.439   8.722   7.751  1.00  0.00    -0.203 F 
ATOM     92  F   UNL     1     -10.315   9.916   2.494  1.00  0.00    -0.200 F 
ATOM     93  C   UNL     1     -11.139   9.190   4.580  1.00  0.00     0.200 A 
ATOM     94  F   UNL     1     -11.913   8.441   6.671  1.00  0.00    -0.200 F 
ATOM     95  F   UNL     1     -12.286   8.800   4.003  1.00  0.00    -0.200 F 
ENDBRANCH  61  85
BRANCH  73  96
ATOM     96  C   UNL     1      -2.865   6.460   9.365  1.00  0.00     0.064 A 
ATOM     97  C   UNL     1      -2.936   7.476  10.330  1.00  0.00     0.173 A 
ATOM     98  C   UNL     1      -2.014   5.369   9.688  1.00  0.00     0.173 A 
ATOM     99  F   UNL     1      -3.766   8.519  10.191  1.00  0.00    -0.203 F 
ATOM    100  C   UNL     1      -2.195   7.423  11.509  1.00  0.00     0.198 A 
ATOM    101  C   UNL     1      -1.318   5.296  10.890  1.00  0.00     0.198 A 
ATOM    102  F   UNL     1      -1.862   4.310   8.882  1.00  0.00    -0.203 F 
ATOM    103  F   UNL     1      -2.288   8.429  12.388  1.00  0.00    -0.200 F 
ATOM    104  C   UNL     1      -1.401   6.329  11.796  1.00  0.00     0.200 A 
ATOM    105  F   UNL     1      -0.597   4.203  11.175  1.00  0.00    -0.200 F 
ATOM    106  F   UNL     1      -0.735   6.261  12.955  1.00  0.00    -0.200 F 
ENDBRANCH  73  96
ENDBRANCH  47  48
ENDBRANCH  40  42
ENDBRANCH  39  40
ENDBRANCH  38  39
ENDBRANCH  37  38
ENDBRANCH  36  37
ENDBRANCH  35  36
ENDBRANCH  34  35
ENDBRANCH  33  34
ENDBRANCH  32  33
ENDBRANCH   1  32
TORSDOF 23
