REMARK SMILES C[C@H](C(=O)OCCOCCOCCOCCOC(=O)c1ccc(-c2c3nc(c(-c4c(F)c(F)c(F)c(F)c4F)c4ccc([nH]4)c(-c4c(F)c(F)c(F)c(F)c4F)c4nc(c(-c5c(F)c(F)c(F)c(F)c5F)c5ccc2[nH]5)C=C4)C=C3)cc1)N1C(=O)/C(=C/c2ccccc2F)SC1=S
REMARK SMILES IDX 11 1 10 2 9 3 8 4 7 5 6 6 5 7 3 8 4 9 2 10 1 11 83 12 84 13
REMARK SMILES IDX 96 14 85 15 86 16 95 17 97 18 87 19 88 20 89 21 93 22 90 23
REMARK SMILES IDX 92 24 94 25 91 26 12 27 13 28 14 29 15 30 16 31 17 32 18 33
REMARK SMILES IDX 19 34 20 35 21 36 82 37 22 38 81 39 23 40 24 41 25 42 75 43
REMARK SMILES IDX 26 44 80 45 74 46 76 47 27 48 79 49 73 50 72 51 28 53 60 54
REMARK SMILES IDX 40 55 59 56 41 57 44 58 58 59 77 60 42 61 43 62 57 64 78 65
REMARK SMILES IDX 45 66 29 67 30 68 38 69 31 70 32 71 36 72 39 73 33 74 34 75
REMARK SMILES IDX 37 76 35 77 61 78 62 79 70 80 63 81 64 82 68 83 71 84 65 85
REMARK SMILES IDX 66 86 69 87 67 88 46 89 47 90 55 91 48 92 49 93 53 94 56 95
REMARK SMILES IDX 50 96 51 97 54 98 52 99
REMARK H PARENT 76 52 44 63
REMARK Flexibility Score: inf
ROOT
ATOM      1  O   UNL     1       0.033  -0.609  -2.857  1.00  0.00    -0.377 OA
ENDROOT
BRANCH   1   2
ATOM      2  C   UNL     1       0.870   0.367  -2.248  1.00  0.00     0.188 C 
BRANCH   2   3
ATOM      3  C   UNL     1       2.295   0.021  -1.745  1.00  0.00     0.188 C 
BRANCH   3   4
ATOM      4  O   UNL     1       2.598  -1.364  -1.754  1.00  0.00    -0.376 OA
BRANCH   4   5
ATOM      5  C   UNL     1       2.635  -2.030  -0.504  1.00  0.00     0.202 C 
BRANCH   5   6
ATOM      6  C   UNL     1       1.349  -2.008   0.326  1.00  0.00     0.261 C 
BRANCH   6   7
ATOM      7  O   UNL     1       0.729  -0.717   0.435  1.00  0.00    -0.462 OA
BRANCH   7   8
ATOM      8  C   UNL     1       1.148   0.110   1.423  1.00  0.00     0.329 C 
ATOM      9  O   UNL     1       2.148  -0.101   2.102  1.00  0.00    -0.250 OA
BRANCH   8  10
ATOM     10  C   UNL     1       0.369   1.457   1.455  1.00  0.00     0.199 C 
ATOM     11  C   UNL     1       1.303   2.447   0.716  1.00  0.00     0.044 C 
BRANCH  10  12
ATOM     12  N   UNL     1      -1.038   1.489   0.937  1.00  0.00    -0.279 N 
ATOM     13  C   UNL     1      -1.826   0.349   1.060  1.00  0.00     0.266 C 
ATOM     14  C   UNL     1      -1.792   2.642   0.761  1.00  0.00     0.149 C 
ATOM     15  O   UNL     1      -1.528  -0.677   1.659  1.00  0.00    -0.268 OA
ATOM     16  C   UNL     1      -3.206   0.581   0.549  1.00  0.00     0.081 C 
ATOM     17  S   UNL     1      -3.434   2.248   0.266  1.00  0.00    -0.054 SA
ATOM     18  S   UNL     1      -1.397   4.244   1.022  1.00  0.00    -0.052 S 
ATOM     19  C   UNL     1      -4.114  -0.404   0.492  1.00  0.00     0.032 C 
BRANCH  19  20
ATOM     20  C   UNL     1      -5.561  -0.238   0.283  1.00  0.00     0.012 A 
ATOM     21  C   UNL     1      -6.413  -0.719   1.289  1.00  0.00     0.011 A 
ATOM     22  C   UNL     1      -6.135   0.384  -0.831  1.00  0.00     0.130 A 
ATOM     23  C   UNL     1      -7.795  -0.537   1.202  1.00  0.00     0.001 A 
ATOM     24  C   UNL     1      -7.514   0.578  -0.918  1.00  0.00     0.040 A 
ATOM     25  F   UNL     1      -5.367   0.814  -1.844  1.00  0.00    -0.206 F 
ATOM     26  C   UNL     1      -8.345   0.123   0.105  1.00  0.00     0.003 A 
ENDBRANCH  19  20
ENDBRANCH  10  12
ENDBRANCH   8  10
ENDBRANCH   7   8
ENDBRANCH   6   7
ENDBRANCH   5   6
ENDBRANCH   4   5
ENDBRANCH   3   4
ENDBRANCH   2   3
ENDBRANCH   1   2
BRANCH   1  27
ATOM     27  C   UNL     1       0.617  -1.712  -3.533  1.00  0.00     0.188 C 
BRANCH  27  28
ATOM     28  C   UNL     1       1.802  -1.458  -4.489  1.00  0.00     0.188 C 
BRANCH  28  29
ATOM     29  O   UNL     1       2.262  -0.117  -4.492  1.00  0.00    -0.376 OA
BRANCH  29  30
ATOM     30  C   UNL     1       1.985   0.689  -5.621  1.00  0.00     0.202 C 
BRANCH  30  31
ATOM     31  C   UNL     1       0.516   0.984  -5.952  1.00  0.00     0.261 C 
BRANCH  31  32
ATOM     32  O   UNL     1      -0.364  -0.146  -5.997  1.00  0.00    -0.460 OA
BRANCH  32  33
ATOM     33  C   UNL     1      -0.181  -1.032  -7.001  1.00  0.00     0.338 C 
ATOM     34  O   UNL     1       0.655  -0.996  -7.878  1.00  0.00    -0.246 OA
BRANCH  33  35
ATOM     35  C   UNL     1      -1.077  -2.175  -6.729  1.00  0.00     0.060 A 
ATOM     36  C   UNL     1      -0.520  -3.442  -6.513  1.00  0.00     0.016 A 
ATOM     37  C   UNL     1      -2.458  -1.981  -6.659  1.00  0.00     0.016 A 
ATOM     38  C   UNL     1      -1.350  -4.528  -6.242  1.00  0.00     0.010 A 
ATOM     39  C   UNL     1      -3.291  -3.075  -6.420  1.00  0.00     0.010 A 
ATOM     40  C   UNL     1      -2.740  -4.356  -6.241  1.00  0.00    -0.014 A 
BRANCH  40  41
ATOM     41  C   UNL     1      -3.622  -5.545  -6.283  1.00  0.00     0.031 A 
ATOM     42  C   UNL     1      -4.088  -6.023  -7.628  1.00  0.00     0.074 A 
ATOM     43  C   UNL     1      -3.985  -6.191  -5.163  1.00  0.00     0.049 A 
ATOM     44  N   UNL     1      -4.907  -6.997  -7.930  1.00  0.00    -0.248 NA
ATOM     45  C   UNL     1      -3.558  -5.297  -8.795  1.00  0.00     0.031 C 
ATOM     46  C   UNL     1      -3.559  -5.844  -3.810  1.00  0.00     0.029 A 
ATOM     47  N   UNL     1      -4.810  -7.274  -4.992  1.00  0.00    -0.354 N 
ATOM     48  C   UNL     1      -4.990  -6.999  -9.316  1.00  0.00     0.074 A 
ATOM     49  C   UNL     1      -4.170  -5.909  -9.796  1.00  0.00     0.031 C 
ATOM     50  C   UNL     1      -4.143  -6.689  -2.941  1.00  0.00     0.029 A 
ATOM     51  C   UNL     1      -5.008  -7.611  -3.677  1.00  0.00     0.049 A 
ATOM     52  H   UNL     1      -5.221  -7.763  -5.742  1.00  0.00     0.167 HD
ATOM     53  C   UNL     1      -5.683  -7.842 -10.116  1.00  0.00     0.037 A 
ATOM     54  C   UNL     1      -5.821  -8.539  -3.135  1.00  0.00     0.037 A 
ATOM     55  C   UNL     1      -6.508  -8.914  -9.631  1.00  0.00     0.049 A 
ATOM     56  C   UNL     1      -6.651  -9.412  -4.045  1.00  0.00     0.074 A 
ATOM     57  C   UNL     1      -7.250  -9.828 -10.356  1.00  0.00     0.029 A 
ATOM     58  N   UNL     1      -6.708  -9.208  -8.289  1.00  0.00    -0.354 N 
ATOM     59  N   UNL     1      -6.710  -9.427  -5.355  1.00  0.00    -0.248 NA
ATOM     60  C   UNL     1      -7.525 -10.401  -3.398  1.00  0.00     0.031 C 
ATOM     61  C   UNL     1      -7.946 -10.638  -9.453  1.00  0.00     0.029 A 
ATOM     62  C   UNL     1      -7.584 -10.274  -8.165  1.00  0.00     0.049 A 
ATOM     63  H   UNL     1      -6.289  -8.730  -7.537  1.00  0.00     0.167 HD
ATOM     64  C   UNL     1      -7.598 -10.442  -5.689  1.00  0.00     0.074 A 
ATOM     65  C   UNL     1      -8.043 -11.031  -4.443  1.00  0.00     0.031 C 
ATOM     66  C   UNL     1      -8.008 -10.853  -6.915  1.00  0.00     0.037 A 
BRANCH  53  67
ATOM     67  C   UNL     1      -5.600  -7.612 -11.597  1.00  0.00     0.064 A 
ATOM     68  C   UNL     1      -4.420  -7.856 -12.318  1.00  0.00     0.173 A 
ATOM     69  C   UNL     1      -6.722  -7.162 -12.309  1.00  0.00     0.173 A 
ATOM     70  F   UNL     1      -3.313  -8.269 -11.682  1.00  0.00    -0.203 F 
ATOM     71  C   UNL     1      -4.360  -7.631 -13.691  1.00  0.00     0.198 A 
ATOM     72  C   UNL     1      -6.668  -6.971 -13.687  1.00  0.00     0.198 A 
ATOM     73  F   UNL     1      -7.874  -6.913 -11.669  1.00  0.00    -0.203 F 
ATOM     74  F   UNL     1      -3.208  -7.820 -14.349  1.00  0.00    -0.200 F 
ATOM     75  C   UNL     1      -5.486  -7.197 -14.375  1.00  0.00     0.200 A 
ATOM     76  F   UNL     1      -7.760  -6.564 -14.348  1.00  0.00    -0.200 F 
ATOM     77  F   UNL     1      -5.429  -6.990 -15.698  1.00  0.00    -0.200 F 
ENDBRANCH  53  67
BRANCH  54  78
ATOM     78  C   UNL     1      -5.909  -8.683  -1.657  1.00  0.00     0.064 A 
ATOM     79  C   UNL     1      -5.459  -9.842  -1.011  1.00  0.00     0.173 A 
ATOM     80  C   UNL     1      -6.474  -7.673  -0.862  1.00  0.00     0.173 A 
ATOM     81  F   UNL     1      -4.936 -10.848  -1.728  1.00  0.00    -0.203 F 
ATOM     82  C   UNL     1      -5.592  -9.997   0.368  1.00  0.00     0.198 A 
ATOM     83  C   UNL     1      -6.576  -7.815   0.520  1.00  0.00     0.198 A 
ATOM     84  F   UNL     1      -6.924  -6.544  -1.429  1.00  0.00    -0.203 F 
ATOM     85  F   UNL     1      -5.205 -11.139   0.952  1.00  0.00    -0.200 F 
ATOM     86  C   UNL     1      -6.144  -8.981   1.133  1.00  0.00     0.200 A 
ATOM     87  F   UNL     1      -7.099  -6.825   1.256  1.00  0.00    -0.200 F 
ATOM     88  F   UNL     1      -6.271  -9.130   2.459  1.00  0.00    -0.200 F 
ENDBRANCH  54  78
BRANCH  66  89
ATOM     89  C   UNL     1      -8.950 -12.023  -6.977  1.00  0.00     0.064 A 
ATOM     90  C   UNL     1     -10.284 -11.923  -6.558  1.00  0.00     0.173 A 
ATOM     91  C   UNL     1      -8.520 -13.249  -7.509  1.00  0.00     0.173 A 
ATOM     92  F   UNL     1     -10.743 -10.777  -6.031  1.00  0.00    -0.203 F 
ATOM     93  C   UNL     1     -11.145 -13.014  -6.643  1.00  0.00     0.198 A 
ATOM     94  C   UNL     1      -9.393 -14.327  -7.626  1.00  0.00     0.198 A 
ATOM     95  F   UNL     1      -7.256 -13.397  -7.934  1.00  0.00    -0.203 F 
ATOM     96  F   UNL     1     -12.402 -12.911  -6.188  1.00  0.00    -0.200 F 
ATOM     97  C   UNL     1     -10.702 -14.212  -7.184  1.00  0.00     0.200 A 
ATOM     98  F   UNL     1      -8.967 -15.477  -8.166  1.00  0.00    -0.200 F 
ATOM     99  F   UNL     1     -11.535 -15.258  -7.275  1.00  0.00    -0.200 F 
ENDBRANCH  66  89
ENDBRANCH  40  41
ENDBRANCH  33  35
ENDBRANCH  32  33
ENDBRANCH  31  32
ENDBRANCH  30  31
ENDBRANCH  29  30
ENDBRANCH  28  29
ENDBRANCH  27  28
ENDBRANCH   1  27
TORSDOF 22
