REMARK SMILES O=C(OCCOCCOCCOCCOC(=O)c1cc(-c2ccc(C(F)(F)F)cc2)cc([N+](=O)[O-])c1)c1ccc(-c2c3nc(c(-c4c(F)c(F)c(F)c(F)c4F)c4ccc([nH]4)c(-c4c(F)c(F)c(F)c(F)c4F)c4nc(c(-c5c(F)c(F)c(F)c(F)c5F)c5ccc2[nH]5)C=C4)C=C3)cc1
REMARK SMILES IDX 9 1 8 2 7 3 6 4 5 5 4 6 3 7 2 8 1 9 37 10 38 11 99 12 39 13
REMARK SMILES IDX 98 14 40 15 41 16 42 17 92 18 43 19 97 20 91 21 93 22 44 23
REMARK SMILES IDX 96 24 90 25 89 26 45 28 77 29 57 30 76 31 58 32 61 33 75 34
REMARK SMILES IDX 94 35 59 36 60 37 74 39 95 40 62 41 46 42 47 43 55 44 48 45
REMARK SMILES IDX 49 46 53 47 56 48 50 49 51 50 54 51 52 52 78 53 79 54 87 55
REMARK SMILES IDX 80 56 81 57 85 58 88 59 82 60 83 61 86 62 84 63 63 64 64 65
REMARK SMILES IDX 72 66 65 67 66 68 70 69 73 70 67 71 68 72 71 73 69 74 10 75
REMARK SMILES IDX 11 76 12 77 13 78 14 79 15 80 16 81 17 82 18 83 19 84 36 85
REMARK SMILES IDX 20 86 32 87 31 88 21 89 22 90 30 91 23 92 29 93 24 94 25 95
REMARK SMILES IDX 26 96 27 97 28 98 33 99 34 100 35 101
REMARK H PARENT 93 27 61 38
REMARK Flexibility Score: inf
ROOT
ATOM      1  O   UNL     1       2.451  -0.949  -3.853  1.00  0.00    -0.377 OA
ENDROOT
BRANCH   1   2
ATOM      2  C   UNL     1       1.765  -0.308  -2.783  1.00  0.00     0.188 C 
BRANCH   2   3
ATOM      3  C   UNL     1       2.207  -0.722  -1.381  1.00  0.00     0.188 C 
BRANCH   3   4
ATOM      4  O   UNL     1       3.552  -0.316  -1.113  1.00  0.00    -0.376 OA
BRANCH   4   5
ATOM      5  C   UNL     1       4.364  -1.288  -0.451  1.00  0.00     0.202 C 
BRANCH   5   6
ATOM      6  C   UNL     1       4.164  -1.354   1.064  1.00  0.00     0.261 C 
BRANCH   6   7
ATOM      7  O   UNL     1       2.806  -1.107   1.452  1.00  0.00    -0.460 OA
BRANCH   7   8
ATOM      8  C   UNL     1       2.219   0.084   1.730  1.00  0.00     0.338 C 
ATOM      9  O   UNL     1       1.037   0.077   2.071  1.00  0.00    -0.246 OA
BRANCH   8  10
ATOM     10  C   UNL     1       2.909   1.414   1.659  1.00  0.00     0.060 A 
ATOM     11  C   UNL     1       4.073   1.700   0.942  1.00  0.00     0.016 A 
ATOM     12  C   UNL     1       2.294   2.476   2.346  1.00  0.00     0.016 A 
ATOM     13  C   UNL     1       4.655   2.958   0.959  1.00  0.00     0.010 A 
ATOM     14  C   UNL     1       2.865   3.752   2.368  1.00  0.00     0.010 A 
ATOM     15  C   UNL     1       4.076   3.975   1.707  1.00  0.00    -0.014 A 
BRANCH  15  16
ATOM     16  C   UNL     1       4.912   5.153   1.987  1.00  0.00     0.031 A 
ATOM     17  C   UNL     1       5.631   5.179   3.301  1.00  0.00     0.074 A 
ATOM     18  C   UNL     1       5.157   6.054   1.023  1.00  0.00     0.049 A 
ATOM     19  N   UNL     1       6.411   6.094   3.809  1.00  0.00    -0.248 NA
ATOM     20  C   UNL     1       5.462   3.991   4.157  1.00  0.00     0.031 C 
ATOM     21  C   UNL     1       4.629   5.993  -0.341  1.00  0.00     0.029 A 
ATOM     22  N   UNL     1       5.944   7.172   1.030  1.00  0.00    -0.354 N 
ATOM     23  C   UNL     1       6.788   5.609   5.055  1.00  0.00     0.074 A 
ATOM     24  C   UNL     1       6.157   4.323   5.230  1.00  0.00     0.031 C 
ATOM     25  C   UNL     1       5.125   7.023  -1.046  1.00  0.00     0.029 A 
ATOM     26  C   UNL     1       5.944   7.847  -0.164  1.00  0.00     0.049 A 
ATOM     27  H   UNL     1       6.460   7.464   1.816  1.00  0.00     0.167 HD
ATOM     28  C   UNL     1       7.583   6.205   5.972  1.00  0.00     0.037 A 
ATOM     29  C   UNL     1       6.523   9.020  -0.479  1.00  0.00     0.037 A 
ATOM     30  C   UNL     1       8.193   7.487   5.755  1.00  0.00     0.049 A 
ATOM     31  C   UNL     1       7.310   9.722   0.597  1.00  0.00     0.074 A 
ATOM     32  C   UNL     1       8.960   8.244   6.617  1.00  0.00     0.029 A 
ATOM     33  N   UNL     1       8.093   8.202   4.566  1.00  0.00    -0.354 N 
ATOM     34  N   UNL     1       7.593   9.315   1.813  1.00  0.00    -0.248 NA
ATOM     35  C   UNL     1       7.843  11.048   0.267  1.00  0.00     0.031 C 
ATOM     36  C   UNL     1       9.278   9.443   5.968  1.00  0.00     0.029 A 
ATOM     37  C   UNL     1       8.766   9.404   4.678  1.00  0.00     0.049 A 
ATOM     38  H   UNL     1       7.614   7.897   3.762  1.00  0.00     0.167 HD
ATOM     39  C   UNL     1       8.357  10.320   2.388  1.00  0.00     0.074 A 
ATOM     40  C   UNL     1       8.501  11.352   1.377  1.00  0.00     0.031 C 
ATOM     41  C   UNL     1       8.891  10.393   3.633  1.00  0.00     0.037 A 
BRANCH  28  42
ATOM     42  C   UNL     1       7.725   5.513   7.297  1.00  0.00     0.064 A 
ATOM     43  C   UNL     1       8.414   4.298   7.442  1.00  0.00     0.173 A 
ATOM     44  C   UNL     1       7.079   6.035   8.428  1.00  0.00     0.173 A 
ATOM     45  F   UNL     1       9.019   3.734   6.386  1.00  0.00    -0.203 F 
ATOM     46  C   UNL     1       8.408   3.610   8.655  1.00  0.00     0.198 A 
ATOM     47  C   UNL     1       7.103   5.362   9.647  1.00  0.00     0.198 A 
ATOM     48  F   UNL     1       6.397   7.187   8.345  1.00  0.00    -0.203 F 
ATOM     49  F   UNL     1       8.998   2.410   8.746  1.00  0.00    -0.200 F 
ATOM     50  C   UNL     1       7.753   4.143   9.756  1.00  0.00     0.200 A 
ATOM     51  F   UNL     1       6.471   5.880  10.709  1.00  0.00    -0.200 F 
ATOM     52  F   UNL     1       7.731   3.470  10.915  1.00  0.00    -0.200 F 
ENDBRANCH  28  42
BRANCH  29  53
ATOM     53  C   UNL     1       6.344   9.607  -1.835  1.00  0.00     0.064 A 
ATOM     54  C   UNL     1       7.430   9.775  -2.705  1.00  0.00     0.173 A 
ATOM     55  C   UNL     1       5.079  10.008  -2.293  1.00  0.00     0.173 A 
ATOM     56  F   UNL     1       8.664   9.430  -2.311  1.00  0.00    -0.203 F 
ATOM     57  C   UNL     1       7.258  10.330  -3.974  1.00  0.00     0.198 A 
ATOM     58  C   UNL     1       4.904  10.533  -3.572  1.00  0.00     0.198 A 
ATOM     59  F   UNL     1       4.004   9.875  -1.502  1.00  0.00    -0.203 F 
ATOM     60  F   UNL     1       8.320  10.515  -4.771  1.00  0.00    -0.200 F 
ATOM     61  C   UNL     1       5.995  10.700  -4.410  1.00  0.00     0.200 A 
ATOM     62  F   UNL     1       3.678  10.876  -3.992  1.00  0.00    -0.200 F 
ATOM     63  F   UNL     1       5.830  11.224  -5.632  1.00  0.00    -0.200 F 
ENDBRANCH  29  53
BRANCH  41  64
ATOM     64  C   UNL     1       9.721  11.602   3.943  1.00  0.00     0.064 A 
ATOM     65  C   UNL     1       9.143  12.864   4.138  1.00  0.00     0.173 A 
ATOM     66  C   UNL     1      11.109  11.476   4.100  1.00  0.00     0.173 A 
ATOM     67  F   UNL     1       7.821  13.033   3.985  1.00  0.00    -0.203 F 
ATOM     68  C   UNL     1       9.932  13.965   4.454  1.00  0.00     0.198 A 
ATOM     69  C   UNL     1      11.890  12.572   4.450  1.00  0.00     0.198 A 
ATOM     70  F   UNL     1      11.705  10.286   3.933  1.00  0.00    -0.203 F 
ATOM     71  F   UNL     1       9.369  15.174   4.588  1.00  0.00    -0.200 F 
ATOM     72  C   UNL     1      11.302  13.817   4.619  1.00  0.00     0.200 A 
ATOM     73  F   UNL     1      13.210  12.423   4.626  1.00  0.00    -0.200 F 
ATOM     74  F   UNL     1      12.058  14.877   4.935  1.00  0.00    -0.200 F 
ENDBRANCH  41  64
ENDBRANCH  15  16
ENDBRANCH   8  10
ENDBRANCH   7   8
ENDBRANCH   6   7
ENDBRANCH   5   6
ENDBRANCH   4   5
ENDBRANCH   3   4
ENDBRANCH   2   3
ENDBRANCH   1   2
BRANCH   1  75
ATOM     75  C   UNL     1       3.871  -0.948  -3.801  1.00  0.00     0.188 C 
BRANCH  75  76
ATOM     76  C   UNL     1       4.622   0.400  -3.698  1.00  0.00     0.188 C 
BRANCH  76  77
ATOM     77  O   UNL     1       3.793   1.551  -3.665  1.00  0.00    -0.376 OA
BRANCH  77  78
ATOM     78  C   UNL     1       3.714   2.285  -4.884  1.00  0.00     0.202 C 
BRANCH  78  79
ATOM     79  C   UNL     1       2.953   1.588  -6.021  1.00  0.00     0.261 C 
BRANCH  79  80
ATOM     80  O   UNL     1       3.513   0.340  -6.479  1.00  0.00    -0.460 OA
BRANCH  80  81
ATOM     81  C   UNL     1       4.769   0.331  -6.979  1.00  0.00     0.338 C 
ATOM     82  O   UNL     1       5.502   1.285  -7.159  1.00  0.00    -0.246 OA
BRANCH  81  83
ATOM     83  C   UNL     1       5.199  -1.089  -7.031  1.00  0.00     0.067 A 
ATOM     84  C   UNL     1       6.344  -1.474  -6.308  1.00  0.00     0.025 A 
ATOM     85  C   UNL     1       4.410  -2.048  -7.668  1.00  0.00     0.101 A 
ATOM     86  C   UNL     1       6.680  -2.830  -6.160  1.00  0.00    -0.011 A 
ATOM     87  C   UNL     1       4.779  -3.395  -7.573  1.00  0.00     0.270 A 
ATOM     88  C   UNL     1       5.888  -3.790  -6.807  1.00  0.00     0.094 A 
BRANCH  86  89
ATOM     89  C   UNL     1       7.869  -3.236  -5.402  1.00  0.00    -0.018 A 
ATOM     90  C   UNL     1       7.836  -3.474  -4.019  1.00  0.00     0.009 A 
ATOM     91  C   UNL     1       9.085  -3.401  -6.077  1.00  0.00     0.009 A 
ATOM     92  C   UNL     1       8.999  -3.853  -3.331  1.00  0.00     0.014 A 
ATOM     93  C   UNL     1      10.244  -3.778  -5.395  1.00  0.00     0.014 A 
ATOM     94  C   UNL     1      10.218  -4.002  -4.013  1.00  0.00     0.056 A 
BRANCH  94  95
ATOM     95  C   UNL     1      11.476  -4.386  -3.270  1.00  0.00     0.416 C 
ATOM     96  F   UNL     1      11.814  -3.474  -2.317  1.00  0.00    -0.166 F 
ATOM     97  F   UNL     1      11.359  -5.578  -2.623  1.00  0.00    -0.166 F 
ATOM     98  F   UNL     1      12.569  -4.504  -4.076  1.00  0.00    -0.166 F 
ENDBRANCH  94  95
ENDBRANCH  86  89
BRANCH  87  99
ATOM     99  N   UNL     1       4.010  -4.409  -8.304  1.00  0.00     0.062 N 
ATOM    100  O   UNL     1       4.463  -5.561  -8.334  1.00  0.00    -0.258 OA
ATOM    101  O   UNL     1       2.967  -4.045  -8.864  1.00  0.00    -0.258 OA
ENDBRANCH  87  99
ENDBRANCH  81  83
ENDBRANCH  80  81
ENDBRANCH  79  80
ENDBRANCH  78  79
ENDBRANCH  77  78
ENDBRANCH  76  77
ENDBRANCH  75  76
ENDBRANCH   1  75
TORSDOF 23
