REMARK SMILES CCCC[C@@H](C(=O)OCCOCCOCCOCCOC(=O)c1ccc(-c2c3nc(c(-c4c(F)c(F)c(F)c(F)c4F)c4ccc([nH]4)c(-c4c(F)c(F)c(F)c(F)c4F)c4nc(c(-c5c(F)c(F)c(F)c(F)c5F)c5ccc2[nH]5)C=C4)C=C3)cc1)C1(O)Cc2ccccc2C1
REMARK SMILES IDX 13 1 12 2 11 3 10 4 9 5 8 6 6 7 7 8 5 9 4 10 3 11 2 12 1 13
REMARK SMILES IDX 86 14 88 15 95 16 89 17 94 18 90 19 93 20 91 21 92 22 87 23
REMARK SMILES IDX 14 25 15 26 16 27 17 28 18 29 19 30 20 31 21 32 22 33 23 34
REMARK SMILES IDX 24 35 85 36 25 37 84 38 26 39 27 40 28 41 78 42 29 43 83 44
REMARK SMILES IDX 77 45 79 46 30 47 82 48 76 49 75 50 31 52 63 53 43 54 62 55
REMARK SMILES IDX 44 56 47 57 61 58 80 59 45 60 46 61 60 63 81 64 48 65 32 66
REMARK SMILES IDX 33 67 41 68 34 69 35 70 39 71 42 72 36 73 37 74 40 75 38 76
REMARK SMILES IDX 64 77 65 78 73 79 66 80 67 81 71 82 74 83 68 84 69 85 72 86
REMARK SMILES IDX 70 87 49 88 50 89 58 90 51 91 52 92 56 93 59 94 53 95 54 96
REMARK SMILES IDX 57 97 55 98
REMARK H PARENT 87 24 79 51 47 62
REMARK Flexibility Score: inf
ROOT
ATOM      1  C   UNL     1       0.985  -5.009   1.789  1.00  0.00     0.188 C 
ENDROOT
BRANCH   1   2
ATOM      2  C   UNL     1      -0.386  -4.739   1.206  1.00  0.00     0.188 C 
BRANCH   2   3
ATOM      3  O   UNL     1      -1.322  -5.803   1.193  1.00  0.00    -0.376 OA
BRANCH   3   4
ATOM      4  C   UNL     1      -2.523  -5.561   0.448  1.00  0.00     0.202 C 
BRANCH   4   5
ATOM      5  C   UNL     1      -2.693  -4.271  -0.395  1.00  0.00     0.261 C 
BRANCH   5   6
ATOM      6  O   UNL     1      -2.085  -3.090   0.169  1.00  0.00    -0.463 OA
BRANCH   6   7
ATOM      7  C   UNL     1      -2.686  -2.504   1.222  1.00  0.00     0.311 C 
ATOM      8  O   UNL     1      -3.874  -2.676   1.460  1.00  0.00    -0.252 OA
BRANCH   7   9
ATOM      9  C   UNL     1      -1.748  -1.552   2.017  1.00  0.00     0.131 C 
BRANCH   9  10
ATOM     10  C   UNL     1      -0.227  -1.383   1.643  1.00  0.00     0.018 C 
BRANCH  10  11
ATOM     11  C   UNL     1       0.358  -1.593   0.239  1.00  0.00     0.001 C 
BRANCH  11  12
ATOM     12  C   UNL     1       0.092  -0.525  -0.804  1.00  0.00    -0.003 C 
ATOM     13  C   UNL     1       0.830   0.766  -0.501  1.00  0.00     0.004 C 
ENDBRANCH  11  12
ENDBRANCH  10  11
ENDBRANCH   9  10
BRANCH   9  14
ATOM     14  C   UNL     1      -1.880  -1.683   3.610  1.00  0.00     0.086 C 
ATOM     15  C   UNL     1      -3.304  -2.032   4.142  1.00  0.00     0.072 C 
ATOM     16  C   UNL     1      -0.994  -2.758   4.342  1.00  0.00     0.072 C 
ATOM     17  C   UNL     1      -3.231  -3.528   4.252  1.00  0.00    -0.042 A 
ATOM     18  C   UNL     1      -1.908  -3.936   4.419  1.00  0.00    -0.042 A 
ATOM     19  C   UNL     1      -4.250  -4.461   4.176  1.00  0.00     0.004 A 
ATOM     20  C   UNL     1      -1.576  -5.272   4.583  1.00  0.00     0.004 A 
ATOM     21  C   UNL     1      -3.921  -5.817   4.271  1.00  0.00     0.000 A 
ATOM     22  C   UNL     1      -2.594  -6.219   4.488  1.00  0.00     0.000 A 
BRANCH  14  23
ATOM     23  O   UNL     1      -1.488  -0.405   4.159  1.00  0.00    -0.388 OA
ATOM     24  H   UNL     1      -2.007   0.300   3.740  1.00  0.00     0.211 HD
ENDBRANCH  14  23
ENDBRANCH   9  14
ENDBRANCH   7   9
ENDBRANCH   6   7
ENDBRANCH   5   6
ENDBRANCH   4   5
ENDBRANCH   3   4
ENDBRANCH   2   3
ENDBRANCH   1   2
BRANCH   1  25
ATOM     25  O   UNL     1       1.775  -5.844   0.953  1.00  0.00    -0.377 OA
BRANCH  25  26
ATOM     26  C   UNL     1       1.107  -7.021   0.522  1.00  0.00     0.188 C 
BRANCH  26  27
ATOM     27  C   UNL     1       0.752  -8.048   1.613  1.00  0.00     0.188 C 
BRANCH  27  28
ATOM     28  O   UNL     1       0.750  -7.548   2.947  1.00  0.00    -0.376 OA
BRANCH  28  29
ATOM     29  C   UNL     1       1.868  -7.916   3.756  1.00  0.00     0.202 C 
BRANCH  29  30
ATOM     30  C   UNL     1       3.187  -7.165   3.494  1.00  0.00     0.261 C 
BRANCH  30  31
ATOM     31  O   UNL     1       3.741  -7.303   2.177  1.00  0.00    -0.460 OA
BRANCH  31  32
ATOM     32  C   UNL     1       4.009  -8.541   1.719  1.00  0.00     0.338 C 
ATOM     33  O   UNL     1       3.952  -9.587   2.341  1.00  0.00    -0.246 OA
BRANCH  32  34
ATOM     34  C   UNL     1       4.150  -8.448   0.248  1.00  0.00     0.060 A 
ATOM     35  C   UNL     1       3.395  -9.326  -0.545  1.00  0.00     0.016 A 
ATOM     36  C   UNL     1       4.925  -7.447  -0.348  1.00  0.00     0.016 A 
ATOM     37  C   UNL     1       3.398  -9.192  -1.934  1.00  0.00     0.010 A 
ATOM     38  C   UNL     1       4.972  -7.349  -1.741  1.00  0.00     0.010 A 
ATOM     39  C   UNL     1       4.226  -8.235  -2.537  1.00  0.00    -0.014 A 
BRANCH  39  40
ATOM     40  C   UNL     1       4.544  -8.372  -3.977  1.00  0.00     0.031 A 
ATOM     41  C   UNL     1       5.672  -9.300  -4.332  1.00  0.00     0.074 A 
ATOM     42  C   UNL     1       3.861  -7.722  -4.934  1.00  0.00     0.049 A 
ATOM     43  N   UNL     1       6.175  -9.595  -5.502  1.00  0.00    -0.248 NA
ATOM     44  C   UNL     1       6.319  -9.993  -3.204  1.00  0.00     0.031 C 
ATOM     45  C   UNL     1       2.724  -6.833  -4.714  1.00  0.00     0.029 A 
ATOM     46  N   UNL     1       4.039  -7.712  -6.296  1.00  0.00    -0.354 N 
ATOM     47  C   UNL     1       7.186 -10.513  -5.248  1.00  0.00     0.074 A 
ATOM     48  C   UNL     1       7.251 -10.702  -3.817  1.00  0.00     0.031 C 
ATOM     49  C   UNL     1       2.311  -6.353  -5.902  1.00  0.00     0.029 A 
ATOM     50  C   UNL     1       3.174  -6.879  -6.960  1.00  0.00     0.049 A 
ATOM     51  H   UNL     1       4.724  -8.253  -6.753  1.00  0.00     0.167 HD
ATOM     52  C   UNL     1       7.988 -11.149  -6.131  1.00  0.00     0.037 A 
ATOM     53  C   UNL     1       3.109  -6.569  -8.271  1.00  0.00     0.037 A 
ATOM     54  C   UNL     1       7.947 -10.930  -7.549  1.00  0.00     0.049 A 
ATOM     55  C   UNL     1       4.088  -7.210  -9.227  1.00  0.00     0.074 A 
ATOM     56  C   UNL     1       8.724 -11.509  -8.535  1.00  0.00     0.029 A 
ATOM     57  N   UNL     1       7.090 -10.040  -8.180  1.00  0.00    -0.354 N 
ATOM     58  N   UNL     1       5.021  -8.100  -8.988  1.00  0.00    -0.248 NA
ATOM     59  C   UNL     1       4.003  -6.801 -10.637  1.00  0.00     0.031 C 
ATOM     60  C   UNL     1       8.372 -10.931  -9.758  1.00  0.00     0.029 A 
ATOM     61  C   UNL     1       7.335 -10.035  -9.542  1.00  0.00     0.049 A 
ATOM     62  H   UNL     1       6.407  -9.494  -7.727  1.00  0.00     0.167 HD
ATOM     63  C   UNL     1       5.610  -8.381 -10.216  1.00  0.00     0.074 A 
ATOM     64  C   UNL     1       4.921  -7.573 -11.201  1.00  0.00     0.031 C 
ATOM     65  C   UNL     1       6.626  -9.231 -10.505  1.00  0.00     0.037 A 
BRANCH  52  66
ATOM     66  C   UNL     1       8.996 -12.106  -5.570  1.00  0.00     0.064 A 
ATOM     67  C   UNL     1       8.611 -13.329  -4.999  1.00  0.00     0.173 A 
ATOM     68  C   UNL     1      10.362 -11.791  -5.591  1.00  0.00     0.173 A 
ATOM     69  F   UNL     1       7.314 -13.664  -4.929  1.00  0.00    -0.203 F 
ATOM     70  C   UNL     1       9.556 -14.188  -4.444  1.00  0.00     0.198 A 
ATOM     71  C   UNL     1      11.307 -12.667  -5.064  1.00  0.00     0.198 A 
ATOM     72  F   UNL     1      10.781 -10.631  -6.119  1.00  0.00    -0.203 F 
ATOM     73  F   UNL     1       9.160 -15.324  -3.852  1.00  0.00    -0.200 F 
ATOM     74  C   UNL     1      10.903 -13.860  -4.483  1.00  0.00     0.200 A 
ATOM     75  F   UNL     1      12.608 -12.351  -5.108  1.00  0.00    -0.200 F 
ATOM     76  F   UNL     1      11.811 -14.688  -3.950  1.00  0.00    -0.200 F 
ENDBRANCH  52  66
BRANCH  53  77
ATOM     77  C   UNL     1       2.095  -5.599  -8.767  1.00  0.00     0.064 A 
ATOM     78  C   UNL     1       1.056  -6.008  -9.616  1.00  0.00     0.173 A 
ATOM     79  C   UNL     1       2.162  -4.238  -8.433  1.00  0.00     0.173 A 
ATOM     80  F   UNL     1       0.965  -7.293  -9.991  1.00  0.00    -0.203 F 
ATOM     81  C   UNL     1       0.136  -5.092 -10.125  1.00  0.00     0.198 A 
ATOM     82  C   UNL     1       1.225  -3.328  -8.919  1.00  0.00     0.198 A 
ATOM     83  F   UNL     1       3.139  -3.790  -7.632  1.00  0.00    -0.203 F 
ATOM     84  F   UNL     1      -0.816  -5.503 -10.974  1.00  0.00    -0.200 F 
ATOM     85  C   UNL     1       0.218  -3.754  -9.772  1.00  0.00     0.200 A 
ATOM     86  F   UNL     1       1.303  -2.037  -8.569  1.00  0.00    -0.200 F 
ATOM     87  F   UNL     1      -0.667  -2.874 -10.261  1.00  0.00    -0.200 F 
ENDBRANCH  53  77
BRANCH  65  88
ATOM     88  C   UNL     1       7.029  -9.369 -11.945  1.00  0.00     0.064 A 
ATOM     89  C   UNL     1       7.717  -8.352 -12.621  1.00  0.00     0.173 A 
ATOM     90  C   UNL     1       6.776 -10.564 -12.637  1.00  0.00     0.173 A 
ATOM     91  F   UNL     1       7.972  -7.186 -12.007  1.00  0.00    -0.203 F 
ATOM     92  C   UNL     1       8.117  -8.517 -13.944  1.00  0.00     0.198 A 
ATOM     93  C   UNL     1       7.207 -10.738 -13.949  1.00  0.00     0.198 A 
ATOM     94  F   UNL     1       6.131 -11.573 -12.032  1.00  0.00    -0.203 F 
ATOM     95  F   UNL     1       8.735  -7.515 -14.585  1.00  0.00    -0.200 F 
ATOM     96  C   UNL     1       7.870  -9.712 -14.604  1.00  0.00     0.200 A 
ATOM     97  F   UNL     1       6.983 -11.900 -14.578  1.00  0.00    -0.200 F 
ATOM     98  F   UNL     1       8.268  -9.873 -15.873  1.00  0.00    -0.200 F 
ENDBRANCH  65  88
ENDBRANCH  39  40
ENDBRANCH  32  34
ENDBRANCH  31  32
ENDBRANCH  30  31
ENDBRANCH  29  30
ENDBRANCH  28  29
ENDBRANCH  27  28
ENDBRANCH  26  27
ENDBRANCH  25  26
ENDBRANCH   1  25
TORSDOF 25
