REMARK SMILES Cc1ccc(NC(=O)c2ccccc2NC(=O)[C@H]2CCCC[C@H]2C(=O)OCCOCCOCCOCCOC(=O)c2ccc(-c3c4nc(c(-c5c(F)c(F)c(F)c(F)c5F)c5ccc([nH]5)c(-c5c(F)c(F)c(F)c(F)c5F)c5nc(c(-c6c(F)c(F)c(F)c(F)c6F)c6ccc3[nH]6)C=C5)C=C4)cc2)cc1
REMARK SMILES IDX 31 1 30 2 29 3 28 4 27 5 26 6 24 7 25 8 23 9 18 10 19 11
REMARK SMILES IDX 20 12 22 13 21 14 16 15 15 16 17 18 14 19 9 20 10 21 11 22
REMARK SMILES IDX 13 23 12 24 7 25 6 26 8 28 5 29 1 30 2 31 3 32 105 33 4 34
REMARK SMILES IDX 104 35 32 36 33 37 34 38 35 39 36 40 37 41 38 42 39 43 40 44
REMARK SMILES IDX 41 45 42 46 103 47 43 48 102 49 44 50 45 51 46 52 96 53
REMARK SMILES IDX 47 54 101 55 95 56 97 57 48 58 100 59 94 60 93 61 49 63
REMARK SMILES IDX 81 64 61 65 80 66 62 67 65 68 79 69 98 70 63 71 64 72 78 74
REMARK SMILES IDX 99 75 66 76 50 77 51 78 59 79 52 80 53 81 57 82 60 83 54 84
REMARK SMILES IDX 55 85 58 86 56 87 82 88 83 89 91 90 84 91 85 92 89 93 92 94
REMARK SMILES IDX 86 95 87 96 90 97 88 98 67 99 68 100 76 101 69 102 70 103
REMARK SMILES IDX 74 104 77 105 71 106 72 107 75 108 73 109
REMARK H PARENT 15 17 6 27 97 62 65 73
REMARK Flexibility Score: inf
ROOT
ATOM      1  C   UNL     1      -1.823   0.599   2.740  1.00  0.00     0.188 C 
ENDROOT
BRANCH   1   2
ATOM      2  C   UNL     1      -3.203   0.910   3.319  1.00  0.00     0.188 C 
BRANCH   2   3
ATOM      3  O   UNL     1      -3.295   1.795   4.411  1.00  0.00    -0.376 OA
BRANCH   3   4
ATOM      4  C   UNL     1      -2.836   1.312   5.663  1.00  0.00     0.202 C 
BRANCH   4   5
ATOM      5  C   UNL     1      -3.160  -0.104   6.103  1.00  0.00     0.261 C 
BRANCH   5   6
ATOM      6  O   UNL     1      -2.159  -1.028   5.631  1.00  0.00    -0.463 OA
BRANCH   6   7
ATOM      7  C   UNL     1      -2.628  -2.021   4.862  1.00  0.00     0.309 C 
ATOM      8  O   UNL     1      -3.815  -2.168   4.575  1.00  0.00    -0.252 OA
BRANCH   7   9
ATOM      9  C   UNL     1      -1.599  -3.030   4.425  1.00  0.00     0.111 C 
ATOM     10  C   UNL     1      -0.469  -2.709   3.408  1.00  0.00     0.093 C 
ATOM     11  C   UNL     1      -0.112  -4.067   2.752  1.00  0.00     0.014 C 
ATOM     12  C   UNL     1       0.127  -5.198   3.776  1.00  0.00     0.001 C 
ATOM     13  C   UNL     1      -1.256  -4.032   5.516  1.00  0.00     0.016 C 
ATOM     14  C   UNL     1      -0.971  -5.362   4.828  1.00  0.00     0.001 C 
BRANCH  10  15
ATOM     15  C   UNL     1       0.865  -2.059   3.845  1.00  0.00     0.228 C 
ATOM     16  N   UNL     1       1.699  -1.309   3.024  1.00  0.00    -0.325 N 
ATOM     17  H   UNL     1       2.578  -1.169   3.445  1.00  0.00     0.169 HD
ATOM     18  O   UNL     1       1.299  -2.273   4.986  1.00  0.00    -0.274 OA
BRANCH  16  19
ATOM     19  C   UNL     1       1.637  -0.681   1.734  1.00  0.00     0.054 A 
ATOM     20  C   UNL     1       2.616   0.273   1.301  1.00  0.00     0.063 A 
ATOM     21  C   UNL     1       2.396   1.054   0.135  1.00  0.00     0.016 A 
ATOM     22  C   UNL     1       1.242   0.916  -0.616  1.00  0.00     0.001 A 
ATOM     23  C   UNL     1       0.558  -0.878   0.867  1.00  0.00     0.027 A 
ATOM     24  C   UNL     1       0.336  -0.067  -0.259  1.00  0.00     0.002 A 
BRANCH  20  25
ATOM     25  C   UNL     1       3.835   0.746   2.012  1.00  0.00     0.257 C 
ATOM     26  N   UNL     1       4.808  -0.072   2.520  1.00  0.00    -0.322 N 
ATOM     27  H   UNL     1       5.588   0.395   2.897  1.00  0.00     0.170 HD
ATOM     28  O   UNL     1       3.972   1.965   2.155  1.00  0.00    -0.269 OA
BRANCH  26  29
ATOM     29  C   UNL     1       4.868  -1.460   2.589  1.00  0.00     0.041 A 
ATOM     30  C   UNL     1       3.931  -5.496   3.581  1.00  0.00     0.044 C 
ATOM     31  C   UNL     1       4.370  -4.119   3.200  1.00  0.00    -0.051 A 
ATOM     32  C   UNL     1       4.049  -3.616   1.933  1.00  0.00     0.005 A 
ATOM     33  C   UNL     1       5.076  -3.317   4.101  1.00  0.00     0.005 A 
ATOM     34  C   UNL     1       4.321  -2.290   1.619  1.00  0.00     0.026 A 
ATOM     35  C   UNL     1       5.354  -1.994   3.782  1.00  0.00     0.026 A 
ENDBRANCH  26  29
ENDBRANCH  20  25
ENDBRANCH  16  19
ENDBRANCH  10  15
ENDBRANCH   7   9
ENDBRANCH   6   7
ENDBRANCH   5   6
ENDBRANCH   4   5
ENDBRANCH   3   4
ENDBRANCH   2   3
ENDBRANCH   1   2
BRANCH   1  36
ATOM     36  O   UNL     1      -0.763   0.320   3.637  1.00  0.00    -0.377 OA
BRANCH  36  37
ATOM     37  C   UNL     1       0.175   1.346   3.959  1.00  0.00     0.188 C 
BRANCH  37  38
ATOM     38  C   UNL     1       0.472   2.430   2.947  1.00  0.00     0.188 C 
BRANCH  38  39
ATOM     39  O   UNL     1      -0.689   3.228   2.761  1.00  0.00    -0.376 OA
BRANCH  39  40
ATOM     40  C   UNL     1      -0.731   3.889   1.500  1.00  0.00     0.202 C 
BRANCH  40  41
ATOM     41  C   UNL     1       0.404   4.903   1.325  1.00  0.00     0.261 C 
BRANCH  41  42
ATOM     42  O   UNL     1       0.276   5.908   2.352  1.00  0.00    -0.460 OA
BRANCH  42  43
ATOM     43  C   UNL     1       1.282   5.937   3.259  1.00  0.00     0.338 C 
ATOM     44  O   UNL     1       2.478   6.040   2.976  1.00  0.00    -0.246 OA
BRANCH  43  45
ATOM     45  C   UNL     1       0.779   5.584   4.615  1.00  0.00     0.060 A 
ATOM     46  C   UNL     1       1.676   5.326   5.663  1.00  0.00     0.016 A 
ATOM     47  C   UNL     1      -0.552   5.211   4.762  1.00  0.00     0.016 A 
ATOM     48  C   UNL     1       1.278   4.542   6.760  1.00  0.00     0.010 A 
ATOM     49  C   UNL     1      -0.894   4.336   5.777  1.00  0.00     0.010 A 
ATOM     50  C   UNL     1       0.022   3.946   6.766  1.00  0.00    -0.014 A 
BRANCH  50  51
ATOM     51  C   UNL     1      -0.396   2.832   7.646  1.00  0.00     0.031 A 
ATOM     52  C   UNL     1      -1.729   2.924   8.328  1.00  0.00     0.074 A 
ATOM     53  C   UNL     1       0.222   1.621   7.540  1.00  0.00     0.049 A 
ATOM     54  N   UNL     1      -2.279   1.957   8.977  1.00  0.00    -0.248 NA
ATOM     55  C   UNL     1      -2.610   4.093   8.276  1.00  0.00     0.031 C 
ATOM     56  C   UNL     1      -0.339   0.298   7.845  1.00  0.00     0.029 A 
ATOM     57  N   UNL     1       1.517   1.297   7.097  1.00  0.00    -0.354 N 
ATOM     58  C   UNL     1      -3.626   2.211   9.114  1.00  0.00     0.074 A 
ATOM     59  C   UNL     1      -3.767   3.593   8.735  1.00  0.00     0.031 C 
ATOM     60  C   UNL     1       0.598  -0.656   7.774  1.00  0.00     0.029 A 
ATOM     61  C   UNL     1       1.849   0.047   7.684  1.00  0.00     0.049 A 
ATOM     62  H   UNL     1       2.084   1.834   6.497  1.00  0.00     0.167 HD
ATOM     63  C   UNL     1      -4.448   1.159   9.415  1.00  0.00     0.037 A 
ATOM     64  C   UNL     1       2.815  -0.024   8.648  1.00  0.00     0.037 A 
ATOM     65  C   UNL     1      -3.662  -0.017   9.833  1.00  0.00     0.049 A 
ATOM     66  C   UNL     1       2.189  -0.379   9.976  1.00  0.00     0.074 A 
ATOM     67  C   UNL     1      -3.556  -1.340   9.438  1.00  0.00     0.029 A 
ATOM     68  N   UNL     1      -2.631   0.184  10.752  1.00  0.00    -0.354 N 
ATOM     69  N   UNL     1       0.960  -0.052  10.297  1.00  0.00    -0.248 NA
ATOM     70  C   UNL     1       2.793  -1.299  10.935  1.00  0.00     0.031 C 
ATOM     71  C   UNL     1      -2.363  -1.875  10.020  1.00  0.00     0.029 A 
ATOM     72  C   UNL     1      -1.797  -0.905  10.836  1.00  0.00     0.049 A 
ATOM     73  H   UNL     1      -2.515   1.009  11.277  1.00  0.00     0.167 HD
ATOM     74  C   UNL     1       0.567  -0.804  11.364  1.00  0.00     0.074 A 
ATOM     75  C   UNL     1       1.762  -1.523  11.770  1.00  0.00     0.031 C 
ATOM     76  C   UNL     1      -0.717  -0.908  11.810  1.00  0.00     0.037 A 
BRANCH  63  77
ATOM     77  C   UNL     1      -5.960   1.117   9.243  1.00  0.00     0.064 A 
ATOM     78  C   UNL     1      -6.710   0.038   9.769  1.00  0.00     0.173 A 
ATOM     79  C   UNL     1      -6.723   2.042   8.496  1.00  0.00     0.173 A 
ATOM     80  F   UNL     1      -6.124  -0.927  10.490  1.00  0.00    -0.203 F 
ATOM     81  C   UNL     1      -8.091  -0.097   9.572  1.00  0.00     0.198 A 
ATOM     82  C   UNL     1      -8.114   1.934   8.347  1.00  0.00     0.198 A 
ATOM     83  F   UNL     1      -6.153   3.056   7.837  1.00  0.00    -0.203 F 
ATOM     84  F   UNL     1      -8.732  -1.169  10.061  1.00  0.00    -0.200 F 
ATOM     85  C   UNL     1      -8.797   0.861   8.877  1.00  0.00     0.200 A 
ATOM     86  F   UNL     1      -8.785   2.876   7.666  1.00  0.00    -0.200 F 
ATOM     87  F   UNL     1     -10.122   0.745   8.707  1.00  0.00    -0.200 F 
ENDBRANCH  63  77
BRANCH  64  88
ATOM     88  C   UNL     1       3.959   0.862   8.282  1.00  0.00     0.064 A 
ATOM     89  C   UNL     1       4.526   0.524   7.031  1.00  0.00     0.173 A 
ATOM     90  C   UNL     1       3.991   2.213   8.650  1.00  0.00     0.173 A 
ATOM     91  F   UNL     1       4.573  -0.762   6.648  1.00  0.00    -0.203 F 
ATOM     92  C   UNL     1       4.766   1.504   6.074  1.00  0.00     0.198 A 
ATOM     93  C   UNL     1       4.342   3.191   7.710  1.00  0.00     0.198 A 
ATOM     94  F   UNL     1       3.518   2.604   9.841  1.00  0.00    -0.203 F 
ATOM     95  F   UNL     1       5.012   1.145   4.810  1.00  0.00    -0.200 F 
ATOM     96  C   UNL     1       4.626   2.837   6.398  1.00  0.00     0.200 A 
ATOM     97  F   UNL     1       4.264   4.491   8.030  1.00  0.00    -0.200 F 
ATOM     98  F   UNL     1       4.701   3.772   5.440  1.00  0.00    -0.200 F 
ENDBRANCH  64  88
BRANCH  76  99
ATOM     99  C   UNL     1      -1.058  -0.940  13.282  1.00  0.00     0.064 A 
ATOM    100  C   UNL     1      -0.127  -0.637  14.291  1.00  0.00     0.173 A 
ATOM    101  C   UNL     1      -2.405  -1.047  13.710  1.00  0.00     0.173 A 
ATOM    102  F   UNL     1       1.162  -0.400  14.015  1.00  0.00    -0.203 F 
ATOM    103  C   UNL     1      -0.502  -0.502  15.626  1.00  0.00     0.198 A 
ATOM    104  C   UNL     1      -2.784  -0.841  15.034  1.00  0.00     0.198 A 
ATOM    105  F   UNL     1      -3.406  -1.302  12.856  1.00  0.00    -0.203 F 
ATOM    106  F   UNL     1       0.435  -0.249  16.549  1.00  0.00    -0.200 F 
ATOM    107  C   UNL     1      -1.830  -0.587  15.995  1.00  0.00     0.200 A 
ATOM    108  F   UNL     1      -4.083  -0.859  15.363  1.00  0.00    -0.200 F 
ATOM    109  F   UNL     1      -2.190  -0.404  17.271  1.00  0.00    -0.200 F 
ENDBRANCH  76  99
ENDBRANCH  50  51
ENDBRANCH  43  45
ENDBRANCH  42  43
ENDBRANCH  41  42
ENDBRANCH  40  41
ENDBRANCH  39  40
ENDBRANCH  38  39
ENDBRANCH  37  38
ENDBRANCH  36  37
ENDBRANCH   1  36
TORSDOF 24
