REMARK SMILES Cc1c(CC(=O)N[C@H](CO)C(=O)OCCOCCOCCOCCOC(=O)c2ccc(-c3c4nc(c(-c5c(F)c(F)c(F)c(F)c5F)c5ccc([nH]5)c(-c5c(F)c(F)c(F)c(F)c5F)c5nc(c(-c6c(F)c(F)c(F)c(F)c6F)c6ccc3[nH]6)C=C5)C=C4)cc2)cc(-c2ccc(S(C)(=O)=O)cc2)n1-c1cccc(F)c1
REMARK SMILES IDX 17 1 16 2 15 3 14 4 13 5 11 6 12 7 8 8 7 9 5 10 6 11 4 13
REMARK SMILES IDX 3 14 1 15 2 16 103 17 91 18 92 19 104 20 105 21 110 22
REMARK SMILES IDX 106 23 108 24 107 25 109 26 93 27 94 28 102 29 95 30 101 31
REMARK SMILES IDX 96 32 97 33 98 34 99 35 100 36 9 37 10 38 18 40 19 41 20 42
REMARK SMILES IDX 21 43 22 44 23 45 24 46 25 47 26 48 27 49 28 50 29 51 90 52
REMARK SMILES IDX 30 53 89 54 31 55 32 56 33 57 83 58 34 59 88 60 82 61 84 62
REMARK SMILES IDX 35 63 87 64 81 65 80 66 36 68 68 69 48 70 67 71 49 72 52 73
REMARK SMILES IDX 66 74 85 75 50 76 51 77 65 79 86 80 53 81 37 82 38 83 46 84
REMARK SMILES IDX 39 85 40 86 44 87 47 88 41 89 42 90 45 91 43 92 69 93 70 94
REMARK SMILES IDX 78 95 71 96 72 97 76 98 79 99 73 100 74 101 77 102 75 103
REMARK SMILES IDX 54 104 55 105 63 106 56 107 57 108 61 109 64 110 58 111
REMARK SMILES IDX 59 112 62 113 60 114
REMARK H PARENT 7 12 10 39 84 67 52 78
REMARK Flexibility Score: inf
ROOT
ATOM      1  C   UNL     1       3.829  -6.691  -0.691  1.00  0.00     0.188 C 
ENDROOT
BRANCH   1   2
ATOM      2  O   UNL     1       4.896  -7.518  -1.101  1.00  0.00    -0.376 OA
BRANCH   2   3
ATOM      3  C   UNL     1       5.746  -7.188  -2.184  1.00  0.00     0.202 C 
BRANCH   3   4
ATOM      4  C   UNL     1       5.617  -5.900  -2.993  1.00  0.00     0.261 C 
BRANCH   4   5
ATOM      5  O   UNL     1       5.028  -4.773  -2.323  1.00  0.00    -0.462 OA
BRANCH   5   6
ATOM      6  C   UNL     1       3.865  -4.293  -2.841  1.00  0.00     0.331 C 
ATOM      7  O   UNL     1       3.254  -4.856  -3.747  1.00  0.00    -0.250 OA
BRANCH   6   8
ATOM      8  C   UNL     1       3.485  -2.874  -2.365  1.00  0.00     0.218 C 
BRANCH   8   9
ATOM      9  N   UNL     1       3.906  -1.972  -3.424  1.00  0.00    -0.341 N 
ATOM     10  C   UNL     1       5.178  -1.676  -3.817  1.00  0.00     0.225 C 
ATOM     11  O   UNL     1       5.284  -0.768  -4.649  1.00  0.00    -0.275 OA
ATOM     12  H   UNL     1       3.185  -1.518  -3.917  1.00  0.00     0.164 HD
BRANCH  10  13
ATOM     13  C   UNL     1       6.417  -2.487  -3.355  1.00  0.00     0.137 C 
BRANCH  13  14
ATOM     14  C   UNL     1       6.904  -2.287  -1.909  1.00  0.00    -0.017 A 
ATOM     15  C   UNL     1       7.264   0.226  -2.219  1.00  0.00     0.065 C 
ATOM     16  C   UNL     1       7.263  -1.047  -1.432  1.00  0.00     0.024 A 
ATOM     17  N   UNL     1       7.759  -1.196  -0.151  1.00  0.00    -0.313 N 
ATOM     18  C   UNL     1       7.245  -3.195  -0.796  1.00  0.00     0.033 A 
ATOM     19  C   UNL     1       7.597  -2.473   0.379  1.00  0.00     0.053 A 
BRANCH  17  20
ATOM     20  C   UNL     1       8.450  -0.219   0.539  1.00  0.00     0.049 A 
ATOM     21  C   UNL     1       9.765  -0.503   0.908  1.00  0.00     0.027 A 
ATOM     22  C   UNL     1       7.725   0.867   1.000  1.00  0.00     0.065 A 
ATOM     23  C   UNL     1      10.368   0.330   1.823  1.00  0.00     0.005 A 
ATOM     24  C   UNL     1       8.331   1.647   1.954  1.00  0.00     0.125 A 
ATOM     25  C   UNL     1       9.631   1.379   2.382  1.00  0.00     0.039 A 
ATOM     26  F   UNL     1       7.635   2.642   2.514  1.00  0.00    -0.207 F 
ENDBRANCH  17  20
BRANCH  19  27
ATOM     27  C   UNL     1       7.915  -2.773   1.938  1.00  0.00    -0.001 A 
ATOM     28  C   UNL     1       6.710  -2.372   3.239  1.00  0.00     0.011 A 
ATOM     29  C   UNL     1       9.315  -3.808   2.370  1.00  0.00     0.011 A 
ATOM     30  C   UNL     1       6.778  -3.214   4.901  1.00  0.00     0.021 A 
ATOM     31  C   UNL     1       9.544  -4.503   4.048  1.00  0.00     0.021 A 
ATOM     32  C   UNL     1       8.237  -4.270   5.298  1.00  0.00     0.067 A 
BRANCH  32  33
ATOM     33  S   UNL     1       8.174  -5.483   6.582  1.00  0.00     0.175 S 
ATOM     34  C   UNL     1       9.158  -4.684   7.808  1.00  0.00     0.163 C 
ATOM     35  O   UNL     1       6.802  -5.554   7.039  1.00  0.00    -0.224 OA
ATOM     36  O   UNL     1       8.890  -6.661   6.132  1.00  0.00    -0.224 OA
ENDBRANCH  32  33
ENDBRANCH  19  27
ENDBRANCH  13  14
ENDBRANCH  10  13
ENDBRANCH   8   9
BRANCH   8  37
ATOM     37  C   UNL     1       3.796  -2.272  -0.985  1.00  0.00     0.193 C 
BRANCH  37  38
ATOM     38  O   UNL     1       2.674  -2.398  -0.099  1.00  0.00    -0.394 OA
ATOM     39  H   UNL     1       1.915  -1.920  -0.469  1.00  0.00     0.210 HD
ENDBRANCH  37  38
ENDBRANCH   8  37
ENDBRANCH   6   8
ENDBRANCH   5   6
ENDBRANCH   4   5
ENDBRANCH   3   4
ENDBRANCH   2   3
ENDBRANCH   1   2
BRANCH   1  40
ATOM     40  C   UNL     1       4.109  -5.460   0.182  1.00  0.00     0.188 C 
BRANCH  40  41
ATOM     41  O   UNL     1       5.360  -5.130   0.734  1.00  0.00    -0.377 OA
BRANCH  41  42
ATOM     42  C   UNL     1       6.425  -6.052   0.757  1.00  0.00     0.188 C 
BRANCH  42  43
ATOM     43  C   UNL     1       6.297  -7.317   1.590  1.00  0.00     0.188 C 
BRANCH  43  44
ATOM     44  O   UNL     1       5.029  -7.574   2.142  1.00  0.00    -0.376 OA
BRANCH  44  45
ATOM     45  C   UNL     1       4.481  -6.625   3.040  1.00  0.00     0.202 C 
BRANCH  45  46
ATOM     46  C   UNL     1       5.268  -5.510   3.787  1.00  0.00     0.261 C 
BRANCH  46  47
ATOM     47  O   UNL     1       6.029  -4.415   3.144  1.00  0.00    -0.460 OA
BRANCH  47  48
ATOM     48  C   UNL     1       7.564  -4.256   3.402  1.00  0.00     0.338 C 
ATOM     49  O   UNL     1       7.885  -5.454   3.195  1.00  0.00    -0.246 OA
BRANCH  48  50
ATOM     50  C   UNL     1       8.630  -2.514   4.150  1.00  0.00     0.060 A 
ATOM     51  C   UNL     1       9.966  -1.917   4.006  1.00  0.00     0.016 A 
ATOM     52  C   UNL     1       8.384  -1.538   5.439  1.00  0.00     0.016 A 
ATOM     53  C   UNL     1      10.696  -0.643   4.782  1.00  0.00     0.010 A 
ATOM     54  C   UNL     1       9.114  -0.282   6.224  1.00  0.00     0.010 A 
ATOM     55  C   UNL     1      10.311   0.308   5.862  1.00  0.00    -0.014 A 
BRANCH  55  56
ATOM     56  C   UNL     1      11.388   1.599   6.573  1.00  0.00     0.031 A 
ATOM     57  C   UNL     1      12.660   0.929   6.192  1.00  0.00     0.074 A 
ATOM     58  C   UNL     1      11.669   2.805   7.449  1.00  0.00     0.049 A 
ATOM     59  N   UNL     1      12.877  -0.218   6.778  1.00  0.00    -0.248 NA
ATOM     60  C   UNL     1      13.393   1.109   4.939  1.00  0.00     0.031 C 
ATOM     61  C   UNL     1      10.793   3.532   8.441  1.00  0.00     0.029 A 
ATOM     62  N   UNL     1      12.903   3.721   7.727  1.00  0.00    -0.354 N 
ATOM     63  C   UNL     1      13.952  -0.806   6.161  1.00  0.00     0.074 A 
ATOM     64  C   UNL     1      14.119  -0.024   4.934  1.00  0.00     0.031 C 
ATOM     65  C   UNL     1      11.312   4.701   8.981  1.00  0.00     0.029 A 
ATOM     66  C   UNL     1      12.684   5.021   8.551  1.00  0.00     0.049 A 
ATOM     67  H   UNL     1      13.796   3.482   7.389  1.00  0.00     0.167 HD
ATOM     68  C   UNL     1      14.901  -1.189   7.062  1.00  0.00     0.037 A 
ATOM     69  C   UNL     1      13.541   6.133   8.975  1.00  0.00     0.037 A 
ATOM     70  C   UNL     1      15.733  -0.062   7.389  1.00  0.00     0.049 A 
ATOM     71  C   UNL     1      14.858   5.546   9.197  1.00  0.00     0.074 A 
ATOM     72  C   UNL     1      16.265   0.933   6.584  1.00  0.00     0.029 A 
ATOM     73  N   UNL     1      15.633   0.466   8.654  1.00  0.00    -0.354 N 
ATOM     74  N   UNL     1      15.170   4.822  10.222  1.00  0.00    -0.248 NA
ATOM     75  C   UNL     1      15.871   5.720   8.178  1.00  0.00     0.031 C 
ATOM     76  C   UNL     1      15.861   2.111   7.228  1.00  0.00     0.029 A 
ATOM     77  C   UNL     1      15.785   1.826   8.580  1.00  0.00     0.049 A 
ATOM     78  H   UNL     1      15.477  -0.049   9.479  1.00  0.00     0.167 HD
ATOM     79  C   UNL     1      15.998   3.931   9.616  1.00  0.00     0.074 A 
ATOM     80  C   UNL     1      16.559   4.617   8.452  1.00  0.00     0.031 C 
ATOM     81  C   UNL     1      15.661   2.626   9.754  1.00  0.00     0.037 A 
BRANCH  68  82
ATOM     82  C   UNL     1      14.328  -2.159   8.070  1.00  0.00     0.064 A 
ATOM     83  C   UNL     1      14.675  -3.507   7.949  1.00  0.00     0.173 A 
ATOM     84  C   UNL     1      13.315  -1.837   9.006  1.00  0.00     0.173 A 
ATOM     85  F   UNL     1      15.647  -3.872   7.101  1.00  0.00    -0.203 F 
ATOM     86  C   UNL     1      14.005  -4.491   8.677  1.00  0.00     0.198 A 
ATOM     87  C   UNL     1      12.601  -2.827   9.675  1.00  0.00     0.198 A 
ATOM     88  F   UNL     1      12.996  -0.561   9.277  1.00  0.00    -0.203 F 
ATOM     89  F   UNL     1      14.362  -5.775   8.543  1.00  0.00    -0.200 F 
ATOM     90  C   UNL     1      12.948  -4.154   9.510  1.00  0.00     0.200 A 
ATOM     91  F   UNL     1      11.564  -2.493  10.457  1.00  0.00    -0.200 F 
ATOM     92  F   UNL     1      12.261  -5.109  10.152  1.00  0.00    -0.200 F 
ENDBRANCH  68  82
BRANCH  69  93
ATOM     93  C   UNL     1      13.772   7.716   9.495  1.00  0.00     0.064 A 
ATOM     94  C   UNL     1      15.004   8.207  10.141  1.00  0.00     0.173 A 
ATOM     95  C   UNL     1      13.073   8.780   8.902  1.00  0.00     0.173 A 
ATOM     96  F   UNL     1      15.829   7.377  10.798  1.00  0.00    -0.203 F 
ATOM     97  C   UNL     1      15.490   9.553  10.084  1.00  0.00     0.198 A 
ATOM     98  C   UNL     1      13.563  10.132   8.856  1.00  0.00     0.198 A 
ATOM     99  F   UNL     1      11.923   8.527   8.272  1.00  0.00    -0.203 F 
ATOM    100  F   UNL     1      16.681   9.888  10.617  1.00  0.00    -0.200 F 
ATOM    101  C   UNL     1      14.777  10.510   9.409  1.00  0.00     0.200 A 
ATOM    102  F   UNL     1      12.863  11.066   8.194  1.00  0.00    -0.200 F 
ATOM    103  F   UNL     1      15.259  11.758   9.262  1.00  0.00    -0.200 F 
ENDBRANCH  69  93
BRANCH  81 104
ATOM    104  C   UNL     1      15.117   2.173  11.085  1.00  0.00     0.064 A 
ATOM    105  C   UNL     1      13.982   2.688  11.747  1.00  0.00     0.173 A 
ATOM    106  C   UNL     1      15.850   1.200  11.775  1.00  0.00     0.173 A 
ATOM    107  F   UNL     1      13.130   3.521  11.133  1.00  0.00    -0.203 F 
ATOM    108  C   UNL     1      13.679   2.330  13.064  1.00  0.00     0.198 A 
ATOM    109  C   UNL     1      15.517   0.804  13.066  1.00  0.00     0.198 A 
ATOM    110  F   UNL     1      16.894   0.604  11.178  1.00  0.00    -0.203 F 
ATOM    111  F   UNL     1      12.626   2.880  13.688  1.00  0.00    -0.200 F 
ATOM    112  C   UNL     1      14.456   1.396  13.727  1.00  0.00     0.200 A 
ATOM    113  F   UNL     1      16.224  -0.165  13.662  1.00  0.00    -0.200 F 
ATOM    114  F   UNL     1      14.169   1.046  14.988  1.00  0.00    -0.200 F 
ENDBRANCH  81 104
ENDBRANCH  55  56
ENDBRANCH  48  50
ENDBRANCH  47  48
ENDBRANCH  46  47
ENDBRANCH  45  46
ENDBRANCH  44  45
ENDBRANCH  43  44
ENDBRANCH  42  43
ENDBRANCH  41  42
ENDBRANCH  40  41
ENDBRANCH   1  40
TORSDOF 28
