REMARK SMILES CC(C)CN(c1ccccc1/C=C/C(=O)OCCOCCOCCOCCOC(=O)c1ccc(-c2c3nc(c(-c4c(F)c(F)c(F)c(F)c4F)c4ccc([nH]4)c(-c4c(F)c(F)c(F)c(F)c4F)c4nc(c(-c5c(F)c(F)c(F)c(F)c5F)c5ccc2[nH]5)C=C4)C=C3)cc1)C1CCCC1
REMARK SMILES IDX 21 1 20 2 19 3 18 4 17 5 16 6 14 7 15 8 13 9 12 10 11 11
REMARK SMILES IDX 6 12 7 13 8 14 10 15 9 16 5 17 4 18 2 19 1 20 3 21 94 22
REMARK SMILES IDX 95 23 98 24 96 25 97 26 22 27 23 28 24 29 25 30 26 31 27 32
REMARK SMILES IDX 28 33 29 34 30 35 31 36 32 37 93 38 33 39 92 40 34 41 35 42
REMARK SMILES IDX 36 43 86 44 37 45 91 46 85 47 87 48 38 49 90 50 84 51 83 52
REMARK SMILES IDX 39 54 71 55 51 56 70 57 52 58 55 59 69 60 88 61 53 62 54 63
REMARK SMILES IDX 68 65 89 66 56 67 40 68 41 69 49 70 42 71 43 72 47 73 50 74
REMARK SMILES IDX 44 75 45 76 48 77 46 78 72 79 73 80 81 81 74 82 75 83 79 84
REMARK SMILES IDX 82 85 76 86 77 87 80 88 78 89 57 90 58 91 66 92 59 93 60 94
REMARK SMILES IDX 64 95 67 96 61 97 62 98 65 99 63 100
REMARK H PARENT 87 53 55 64
REMARK Flexibility Score: inf
ROOT
ATOM      1  C   UNL     1      -5.885   1.510   2.370  1.00  0.00     0.188 C 
ENDROOT
BRANCH   1   2
ATOM      2  C   UNL     1      -6.273   1.664   3.852  1.00  0.00     0.188 C 
BRANCH   2   3
ATOM      3  O   UNL     1      -5.973   2.949   4.372  1.00  0.00    -0.376 OA
BRANCH   3   4
ATOM      4  C   UNL     1      -4.870   3.116   5.242  1.00  0.00     0.202 C 
BRANCH   4   5
ATOM      5  C   UNL     1      -3.470   2.619   4.848  1.00  0.00     0.261 C 
BRANCH   5   6
ATOM      6  O   UNL     1      -3.409   1.366   4.164  1.00  0.00    -0.460 OA
BRANCH   6   7
ATOM      7  C   UNL     1      -3.538   0.253   4.910  1.00  0.00     0.330 C 
ATOM      8  O   UNL     1      -3.697   0.210   6.120  1.00  0.00    -0.247 OA
BRANCH   7   9
ATOM      9  C   UNL     1      -3.524  -0.958   4.061  1.00  0.00     0.094 C 
ATOM     10  C   UNL     1      -3.434  -0.966   2.717  1.00  0.00     0.018 C 
BRANCH  10  11
ATOM     11  C   UNL     1      -3.326  -2.227   1.961  1.00  0.00    -0.002 A 
ATOM     12  C   UNL     1      -2.301  -2.501   1.015  1.00  0.00     0.044 A 
ATOM     13  C   UNL     1      -2.203  -3.842   0.589  1.00  0.00     0.026 A 
ATOM     14  C   UNL     1      -3.158  -4.814   0.905  1.00  0.00     0.002 A 
ATOM     15  C   UNL     1      -4.315  -3.200   2.235  1.00  0.00     0.010 A 
ATOM     16  C   UNL     1      -4.243  -4.479   1.695  1.00  0.00     0.001 A 
BRANCH  12  17
ATOM     17  N   UNL     1      -1.408  -1.565   0.468  1.00  0.00    -0.368 N 
BRANCH  17  18
ATOM     18  C   UNL     1      -0.815  -0.521   1.331  1.00  0.00     0.120 C 
BRANCH  18  19
ATOM     19  C   UNL     1       0.726  -0.428   1.357  1.00  0.00     0.002 C 
ATOM     20  C   UNL     1       1.383   0.141   0.100  1.00  0.00     0.009 C 
ATOM     21  C   UNL     1       1.119   0.489   2.532  1.00  0.00     0.009 C 
ENDBRANCH  18  19
ENDBRANCH  17  18
BRANCH  17  22
ATOM     22  C   UNL     1      -1.315  -1.402  -1.009  1.00  0.00     0.082 C 
ATOM     23  C   UNL     1      -2.166  -2.298  -1.921  1.00  0.00     0.025 C 
ATOM     24  C   UNL     1      -1.786  -0.018  -1.484  1.00  0.00     0.025 C 
ATOM     25  C   UNL     1      -2.047  -1.634  -3.288  1.00  0.00     0.002 C 
ATOM     26  C   UNL     1      -1.952  -0.142  -2.999  1.00  0.00     0.002 C 
ENDBRANCH  17  22
ENDBRANCH  12  17
ENDBRANCH  10  11
ENDBRANCH   7   9
ENDBRANCH   6   7
ENDBRANCH   5   6
ENDBRANCH   4   5
ENDBRANCH   3   4
ENDBRANCH   2   3
ENDBRANCH   1   2
BRANCH   1  27
ATOM     27  O   UNL     1      -4.883   2.394   1.892  1.00  0.00    -0.377 OA
BRANCH  27  28
ATOM     28  C   UNL     1      -5.172   3.792   1.806  1.00  0.00     0.188 C 
BRANCH  28  29
ATOM     29  C   UNL     1      -6.565   4.396   2.124  1.00  0.00     0.188 C 
BRANCH  29  30
ATOM     30  O   UNL     1      -7.647   3.483   2.076  1.00  0.00    -0.376 OA
BRANCH  30  31
ATOM     31  C   UNL     1      -8.540   3.551   0.980  1.00  0.00     0.202 C 
BRANCH  31  32
ATOM     32  C   UNL     1      -7.963   3.234  -0.406  1.00  0.00     0.261 C 
BRANCH  32  33
ATOM     33  O   UNL     1      -6.806   3.991  -0.792  1.00  0.00    -0.460 OA
BRANCH  33  34
ATOM     34  C   UNL     1      -6.966   5.318  -0.970  1.00  0.00     0.338 C 
ATOM     35  O   UNL     1      -7.994   5.965  -0.845  1.00  0.00    -0.246 OA
BRANCH  34  36
ATOM     36  C   UNL     1      -5.628   5.904  -1.178  1.00  0.00     0.060 A 
ATOM     37  C   UNL     1      -5.146   6.858  -0.272  1.00  0.00     0.016 A 
ATOM     38  C   UNL     1      -4.851   5.501  -2.265  1.00  0.00     0.016 A 
ATOM     39  C   UNL     1      -3.895   7.443  -0.475  1.00  0.00     0.010 A 
ATOM     40  C   UNL     1      -3.609   6.102  -2.480  1.00  0.00     0.010 A 
ATOM     41  C   UNL     1      -3.142   7.101  -1.607  1.00  0.00    -0.014 A 
BRANCH  41  42
ATOM     42  C   UNL     1      -1.980   7.931  -2.007  1.00  0.00     0.031 A 
ATOM     43  C   UNL     1      -2.196   8.981  -3.063  1.00  0.00     0.074 A 
ATOM     44  C   UNL     1      -0.767   7.765  -1.453  1.00  0.00     0.049 A 
ATOM     45  N   UNL     1      -1.328   9.756  -3.660  1.00  0.00    -0.248 NA
ATOM     46  C   UNL     1      -3.585   9.177  -3.511  1.00  0.00     0.031 C 
ATOM     47  C   UNL     1      -0.445   6.824  -0.384  1.00  0.00     0.029 A 
ATOM     48  N   UNL     1       0.428   8.384  -1.730  1.00  0.00    -0.354 N 
ATOM     49  C   UNL     1      -2.064  10.524  -4.553  1.00  0.00     0.074 A 
ATOM     50  C   UNL     1      -3.442  10.099  -4.449  1.00  0.00     0.031 C 
ATOM     51  C   UNL     1       0.869   6.915  -0.106  1.00  0.00     0.029 A 
ATOM     52  C   UNL     1       1.485   7.890  -1.006  1.00  0.00     0.049 A 
ATOM     53  H   UNL     1       0.518   9.112  -2.387  1.00  0.00     0.167 HD
ATOM     54  C   UNL     1      -1.630  11.505  -5.379  1.00  0.00     0.037 A 
ATOM     55  C   UNL     1       2.800   8.174  -1.087  1.00  0.00     0.037 A 
ATOM     56  C   UNL     1      -0.257  11.921  -5.484  1.00  0.00     0.049 A 
ATOM     57  C   UNL     1       3.272   9.199  -2.092  1.00  0.00     0.074 A 
ATOM     58  C   UNL     1       0.288  12.900  -6.296  1.00  0.00     0.029 A 
ATOM     59  N   UNL     1       0.789  11.376  -4.755  1.00  0.00    -0.354 N 
ATOM     60  N   UNL     1       2.573   9.930  -2.927  1.00  0.00    -0.248 NA
ATOM     61  C   UNL     1       4.721   9.440  -2.164  1.00  0.00     0.031 C 
ATOM     62  C   UNL     1       1.672  12.909  -6.099  1.00  0.00     0.029 A 
ATOM     63  C   UNL     1       1.980  11.985  -5.114  1.00  0.00     0.049 A 
ATOM     64  H   UNL     1       0.699  10.663  -4.082  1.00  0.00     0.167 HD
ATOM     65  C   UNL     1       3.487  10.745  -3.584  1.00  0.00     0.074 A 
ATOM     66  C   UNL     1       4.792  10.425  -3.047  1.00  0.00     0.031 C 
ATOM     67  C   UNL     1       3.267  11.677  -4.544  1.00  0.00     0.037 A 
BRANCH  54  68
ATOM     68  C   UNL     1      -2.647  12.183  -6.250  1.00  0.00     0.064 A 
ATOM     69  C   UNL     1      -3.618  13.043  -5.715  1.00  0.00     0.173 A 
ATOM     70  C   UNL     1      -2.622  12.005  -7.641  1.00  0.00     0.173 A 
ATOM     71  F   UNL     1      -3.696  13.235  -4.390  1.00  0.00    -0.203 F 
ATOM     72  C   UNL     1      -4.540  13.683  -6.540  1.00  0.00     0.198 A 
ATOM     73  C   UNL     1      -3.524  12.672  -8.466  1.00  0.00     0.198 A 
ATOM     74  F   UNL     1      -1.713  11.195  -8.204  1.00  0.00    -0.203 F 
ATOM     75  F   UNL     1      -5.487  14.464  -6.003  1.00  0.00    -0.200 F 
ATOM     76  C   UNL     1      -4.486  13.505  -7.914  1.00  0.00     0.200 A 
ATOM     77  F   UNL     1      -3.460  12.511  -9.794  1.00  0.00    -0.200 F 
ATOM     78  F   UNL     1      -5.364  14.133  -8.708  1.00  0.00    -0.200 F 
ENDBRANCH  54  68
BRANCH  55  79
ATOM     79  C   UNL     1       3.782   7.472  -0.215  1.00  0.00     0.064 A 
ATOM     80  C   UNL     1       4.534   8.175   0.737  1.00  0.00     0.173 A 
ATOM     81  C   UNL     1       4.034   6.099  -0.356  1.00  0.00     0.173 A 
ATOM     82  F   UNL     1       4.352   9.494   0.894  1.00  0.00    -0.203 F 
ATOM     83  C   UNL     1       5.524   7.540   1.487  1.00  0.00     0.198 A 
ATOM     84  C   UNL     1       4.998   5.458   0.420  1.00  0.00     0.198 A 
ATOM     85  F   UNL     1       3.347   5.377  -1.254  1.00  0.00    -0.203 F 
ATOM     86  F   UNL     1       6.275   8.252   2.338  1.00  0.00    -0.200 F 
ATOM     87  C   UNL     1       5.752   6.182   1.331  1.00  0.00     0.200 A 
ATOM     88  F   UNL     1       5.206   4.143   0.274  1.00  0.00    -0.200 F 
ATOM     89  F   UNL     1       6.708   5.574   2.046  1.00  0.00    -0.200 F 
ENDBRANCH  55  79
BRANCH  67  90
ATOM     90  C   UNL     1       4.446  12.476  -5.028  1.00  0.00     0.064 A 
ATOM     91  C   UNL     1       5.455  11.909  -5.819  1.00  0.00     0.173 A 
ATOM     92  C   UNL     1       4.530  13.848  -4.740  1.00  0.00     0.173 A 
ATOM     93  F   UNL     1       5.429  10.601  -6.113  1.00  0.00    -0.203 F 
ATOM     94  C   UNL     1       6.519  12.681  -6.281  1.00  0.00     0.198 A 
ATOM     95  C   UNL     1       5.575  14.623  -5.235  1.00  0.00     0.198 A 
ATOM     96  F   UNL     1       3.585  14.443  -3.997  1.00  0.00    -0.203 F 
ATOM     97  F   UNL     1       7.499  12.108  -6.995  1.00  0.00    -0.200 F 
ATOM     98  C   UNL     1       6.573  14.038  -5.998  1.00  0.00     0.200 A 
ATOM     99  F   UNL     1       5.613  15.937  -4.976  1.00  0.00    -0.200 F 
ATOM    100  F   UNL     1       7.590  14.780  -6.457  1.00  0.00    -0.200 F 
ENDBRANCH  67  90
ENDBRANCH  41  42
ENDBRANCH  34  36
ENDBRANCH  33  34
ENDBRANCH  32  33
ENDBRANCH  31  32
ENDBRANCH  30  31
ENDBRANCH  29  30
ENDBRANCH  28  29
ENDBRANCH  27  28
ENDBRANCH   1  27
TORSDOF 25
