REMARK SMILES O=C(CC[NH+]1CCC([N@H+]2CCC[C@H](C(=O)NCc3cccnc3)C2)CC1)OCCOCCOCCOCCOC(=O)c1ccc(-c2c3nc(c(-c4c(F)c(F)c(F)c(F)c4F)c4ccc([nH]4)c(-c4c(F)c(F)c(F)c(F)c4F)c4nc(c(-c5c(F)c(F)c(F)c(F)c5F)c5ccc2[nH]5)C=C4)C=C3)cc1
REMARK SMILES IDX 31 1 30 2 29 3 28 4 27 5 2 6 1 7 3 8 4 9 5 10 6 11 26 12
REMARK SMILES IDX 7 14 25 15 8 16 9 17 10 18 24 19 11 21 13 22 12 23 14 24
REMARK SMILES IDX 15 25 16 26 17 28 18 29 19 30 23 31 20 32 22 33 21 34 32 35
REMARK SMILES IDX 33 36 34 37 35 38 36 39 37 40 38 41 39 42 40 43 41 44 42 45
REMARK SMILES IDX 43 46 104 47 44 48 103 49 45 50 46 51 47 52 97 53 48 54
REMARK SMILES IDX 102 55 96 56 98 57 49 58 101 59 95 60 94 61 50 63 82 64
REMARK SMILES IDX 62 65 81 66 63 67 66 68 80 69 99 70 64 71 65 72 79 74 100 75
REMARK SMILES IDX 67 76 51 77 52 78 60 79 53 80 54 81 58 82 61 83 55 84 56 85
REMARK SMILES IDX 59 86 57 87 83 88 84 89 92 90 85 91 86 92 90 93 93 94 87 95
REMARK SMILES IDX 88 96 91 97 89 98 68 99 69 100 77 101 70 102 71 103 75 104
REMARK SMILES IDX 78 105 72 106 73 107 76 108 74 109
REMARK H PARENT 5 13 9 20 16 27 98 62 66 73
REMARK Flexibility Score: inf
ROOT
ATOM      1  C   UNL     1       2.206   2.239  -0.856  1.00  0.00     0.188 C 
ENDROOT
BRANCH   1   2
ATOM      2  O   UNL     1       3.587   1.973  -0.683  1.00  0.00    -0.376 OA
BRANCH   2   3
ATOM      3  C   UNL     1       4.096   0.658  -0.543  1.00  0.00     0.202 C 
BRANCH   3   4
ATOM      4  C   UNL     1       3.171  -0.551  -0.580  1.00  0.00     0.261 C 
BRANCH   4   5
ATOM      5  O   UNL     1       1.942  -0.447   0.152  1.00  0.00    -0.463 OA
BRANCH   5   6
ATOM      6  C   UNL     1       1.881  -0.592   1.495  1.00  0.00     0.311 C 
ATOM      7  O   UNL     1       0.951  -1.210   2.009  1.00  0.00    -0.252 OA
BRANCH   6   8
ATOM      8  C   UNL     1       2.894   0.138   2.336  1.00  0.00     0.184 C 
BRANCH   8   9
ATOM      9  C   UNL     1       3.920  -0.803   2.952  1.00  0.00     0.274 C 
BRANCH   9  10
ATOM     10  N   UNL     1       4.730  -1.463   1.923  1.00  0.00    -0.334 N 
ATOM     11  C   UNL     1       4.543  -2.917   1.896  1.00  0.00     0.268 C 
ATOM     12  C   UNL     1       6.126  -1.049   1.871  1.00  0.00     0.268 C 
ATOM     13  H   UNL     1       4.351  -1.112   1.043  1.00  0.00     0.348 HD
ATOM     14  C   UNL     1       5.669  -3.669   1.177  1.00  0.00     0.126 C 
ATOM     15  C   UNL     1       6.770  -1.483   0.541  1.00  0.00     0.126 C 
ATOM     16  C   UNL     1       6.246  -2.842   0.019  1.00  0.00     0.195 C 
BRANCH  16  17
ATOM     17  N   UNL     1       7.244  -3.521  -0.840  1.00  0.00    -0.331 N 
ATOM     18  C   UNL     1       8.379  -4.075  -0.094  1.00  0.00     0.262 C 
ATOM     19  C   UNL     1       6.614  -4.504  -1.741  1.00  0.00     0.275 C 
ATOM     20  H   UNL     1       7.649  -2.794  -1.431  1.00  0.00     0.348 HD
ATOM     21  C   UNL     1       9.427  -4.673  -1.024  1.00  0.00     0.062 C 
ATOM     22  C   UNL     1       7.566  -5.338  -2.603  1.00  0.00     0.133 C 
ATOM     23  C   UNL     1       8.839  -5.774  -1.884  1.00  0.00     0.025 C 
BRANCH  22  24
ATOM     24  C   UNL     1       7.817  -4.910  -4.047  1.00  0.00     0.229 C 
ATOM     25  O   UNL     1       7.703  -5.771  -4.931  1.00  0.00    -0.275 OA
ATOM     26  N   UNL     1       8.211  -3.686  -4.460  1.00  0.00    -0.352 N 
ATOM     27  H   UNL     1       8.413  -3.643  -5.422  1.00  0.00     0.163 HD
BRANCH  26  28
ATOM     28  C   UNL     1       8.396  -2.424  -3.777  1.00  0.00     0.153 C 
BRANCH  28  29
ATOM     29  C   UNL     1       9.820  -1.950  -3.684  1.00  0.00    -0.010 A 
ATOM     30  C   UNL     1      10.088  -0.626  -3.308  1.00  0.00     0.009 A 
ATOM     31  C   UNL     1      10.919  -2.784  -3.862  1.00  0.00     0.116 A 
ATOM     32  C   UNL     1      11.402  -0.204  -3.120  1.00  0.00     0.020 A 
ATOM     33  N   UNL     1      12.206  -2.402  -3.680  1.00  0.00    -0.264 NA
ATOM     34  C   UNL     1      12.418  -1.123  -3.308  1.00  0.00     0.111 A 
ENDBRANCH  28  29
ENDBRANCH  26  28
ENDBRANCH  22  24
ENDBRANCH  16  17
ENDBRANCH   9  10
ENDBRANCH   8   9
ENDBRANCH   6   8
ENDBRANCH   5   6
ENDBRANCH   4   5
ENDBRANCH   3   4
ENDBRANCH   2   3
ENDBRANCH   1   2
BRANCH   1  35
ATOM     35  C   UNL     1       1.583   1.715  -2.150  1.00  0.00     0.188 C 
BRANCH  35  36
ATOM     36  O   UNL     1       2.191   2.216  -3.334  1.00  0.00    -0.377 OA
BRANCH  36  37
ATOM     37  C   UNL     1       3.514   1.773  -3.588  1.00  0.00     0.188 C 
BRANCH  37  38
ATOM     38  C   UNL     1       4.665   2.743  -3.220  1.00  0.00     0.188 C 
BRANCH  38  39
ATOM     39  O   UNL     1       4.462   4.125  -2.966  1.00  0.00    -0.376 OA
BRANCH  39  40
ATOM     40  C   UNL     1       3.325   4.781  -3.492  1.00  0.00     0.202 C 
BRANCH  40  41
ATOM     41  C   UNL     1       3.223   4.919  -5.018  1.00  0.00     0.261 C 
BRANCH  41  42
ATOM     42  O   UNL     1       3.554   3.738  -5.767  1.00  0.00    -0.460 OA
BRANCH  42  43
ATOM     43  C   UNL     1       4.814   3.681  -6.266  1.00  0.00     0.338 C 
ATOM     44  O   UNL     1       5.671   4.547  -6.209  1.00  0.00    -0.246 OA
BRANCH  43  45
ATOM     45  C   UNL     1       5.094   2.301  -6.738  1.00  0.00     0.060 A 
ATOM     46  C   UNL     1       6.272   1.673  -6.300  1.00  0.00     0.016 A 
ATOM     47  C   UNL     1       4.209   1.615  -7.572  1.00  0.00     0.016 A 
ATOM     48  C   UNL     1       6.571   0.368  -6.698  1.00  0.00     0.010 A 
ATOM     49  C   UNL     1       4.527   0.321  -8.000  1.00  0.00     0.010 A 
ATOM     50  C   UNL     1       5.718  -0.302  -7.583  1.00  0.00    -0.014 A 
BRANCH  50  51
ATOM     51  C   UNL     1       6.158  -1.558  -8.240  1.00  0.00     0.031 A 
ATOM     52  C   UNL     1       6.885  -1.452  -9.551  1.00  0.00     0.074 A 
ATOM     53  C   UNL     1       5.892  -2.768  -7.715  1.00  0.00     0.049 A 
ATOM     54  N   UNL     1       7.242  -2.395 -10.384  1.00  0.00    -0.248 NA
ATOM     55  C   UNL     1       7.251  -0.093  -9.986  1.00  0.00     0.031 C 
ATOM     56  C   UNL     1       5.237  -3.008  -6.433  1.00  0.00     0.029 A 
ATOM     57  N   UNL     1       6.132  -4.026  -8.214  1.00  0.00    -0.354 N 
ATOM     58  C   UNL     1       7.841  -1.743 -11.453  1.00  0.00     0.074 A 
ATOM     59  C   UNL     1       7.812  -0.327 -11.162  1.00  0.00     0.031 C 
ATOM     60  C   UNL     1       5.106  -4.335  -6.256  1.00  0.00     0.029 A 
ATOM     61  C   UNL     1       5.633  -5.038  -7.427  1.00  0.00     0.049 A 
ATOM     62  H   UNL     1       6.615  -4.188  -9.056  1.00  0.00     0.167 HD
ATOM     63  C   UNL     1       8.354  -2.279 -12.584  1.00  0.00     0.037 A 
ATOM     64  C   UNL     1       5.578  -6.369  -7.647  1.00  0.00     0.037 A 
ATOM     65  C   UNL     1       8.392  -3.686 -12.874  1.00  0.00     0.049 A 
ATOM     66  C   UNL     1       6.111  -6.929  -8.946  1.00  0.00     0.074 A 
ATOM     67  C   UNL     1       8.930  -4.321 -13.980  1.00  0.00     0.029 A 
ATOM     68  N   UNL     1       7.861  -4.675 -12.062  1.00  0.00    -0.354 N 
ATOM     69  N   UNL     1       6.698  -6.310  -9.942  1.00  0.00    -0.248 NA
ATOM     70  C   UNL     1       5.946  -8.376  -9.165  1.00  0.00     0.031 C 
ATOM     71  C   UNL     1       8.665  -5.688 -13.869  1.00  0.00     0.029 A 
ATOM     72  C   UNL     1       8.018  -5.911 -12.665  1.00  0.00     0.049 A 
ATOM     73  H   UNL     1       7.437  -4.521 -11.187  1.00  0.00     0.167 HD
ATOM     74  C   UNL     1       6.987  -7.289 -10.887  1.00  0.00     0.074 A 
ATOM     75  C   UNL     1       6.535  -8.548 -10.340  1.00  0.00     0.031 C 
ATOM     76  C   UNL     1       7.563  -7.157 -12.107  1.00  0.00     0.037 A 
BRANCH  63  77
ATOM     77  C   UNL     1       8.875  -1.340 -13.629  1.00  0.00     0.064 A 
ATOM     78  C   UNL     1      10.093  -0.663 -13.477  1.00  0.00     0.173 A 
ATOM     79  C   UNL     1       8.175  -1.177 -14.834  1.00  0.00     0.173 A 
ATOM     80  F   UNL     1      10.789  -0.772 -12.336  1.00  0.00    -0.203 F 
ATOM     81  C   UNL     1      10.588   0.149 -14.494  1.00  0.00     0.198 A 
ATOM     82  C   UNL     1       8.686  -0.387 -15.858  1.00  0.00     0.198 A 
ATOM     83  F   UNL     1       7.004  -1.804 -15.026  1.00  0.00    -0.203 F 
ATOM     84  F   UNL     1      11.741   0.810 -14.320  1.00  0.00    -0.200 F 
ATOM     85  C   UNL     1       9.891   0.277 -15.687  1.00  0.00     0.200 A 
ATOM     86  F   UNL     1       8.016  -0.275 -17.014  1.00  0.00    -0.200 F 
ATOM     87  F   UNL     1      10.380   1.042 -16.672  1.00  0.00    -0.200 F 
ENDBRANCH  63  77
BRANCH  64  88
ATOM     88  C   UNL     1       4.942  -7.280  -6.652  1.00  0.00     0.064 A 
ATOM     89  C   UNL     1       5.673  -8.301  -6.024  1.00  0.00     0.173 A 
ATOM     90  C   UNL     1       3.569  -7.202  -6.369  1.00  0.00     0.173 A 
ATOM     91  F   UNL     1       6.973  -8.469  -6.304  1.00  0.00    -0.203 F 
ATOM     92  C   UNL     1       5.053  -9.215  -5.172  1.00  0.00     0.198 A 
ATOM     93  C   UNL     1       2.958  -8.096  -5.492  1.00  0.00     0.198 A 
ATOM     94  F   UNL     1       2.813  -6.261  -6.954  1.00  0.00    -0.203 F 
ATOM     95  F   UNL     1       5.760 -10.224  -4.643  1.00  0.00    -0.200 F 
ATOM     96  C   UNL     1       3.698  -9.109  -4.903  1.00  0.00     0.200 A 
ATOM     97  F   UNL     1       1.648  -7.986  -5.232  1.00  0.00    -0.200 F 
ATOM     98  F   UNL     1       3.100  -9.994  -4.094  1.00  0.00    -0.200 F 
ENDBRANCH  64  88
BRANCH  76  99
ATOM     99  C   UNL     1       7.748  -8.399 -12.932  1.00  0.00     0.064 A 
ATOM    100  C   UNL     1       6.659  -9.048 -13.531  1.00  0.00     0.173 A 
ATOM    101  C   UNL     1       9.033  -8.905 -13.182  1.00  0.00     0.173 A 
ATOM    102  F   UNL     1       5.410  -8.611 -13.315  1.00  0.00    -0.203 F 
ATOM    103  C   UNL     1       6.848 -10.169 -14.336  1.00  0.00     0.198 A 
ATOM    104  C   UNL     1       9.221 -10.007 -14.012  1.00  0.00     0.198 A 
ATOM    105  F   UNL     1      10.110  -8.315 -12.643  1.00  0.00    -0.203 F 
ATOM    106  F   UNL     1       5.789 -10.796 -14.867  1.00  0.00    -0.200 F 
ATOM    107  C   UNL     1       8.128 -10.642 -14.583  1.00  0.00     0.200 A 
ATOM    108  F   UNL     1      10.460 -10.451 -14.265  1.00  0.00    -0.200 F 
ATOM    109  F   UNL     1       8.309 -11.711 -15.371  1.00  0.00    -0.200 F 
ENDBRANCH  76  99
ENDBRANCH  50  51
ENDBRANCH  43  45
ENDBRANCH  42  43
ENDBRANCH  41  42
ENDBRANCH  40  41
ENDBRANCH  39  40
ENDBRANCH  38  39
ENDBRANCH  37  38
ENDBRANCH  36  37
ENDBRANCH  35  36
ENDBRANCH   1  35
TORSDOF 26
