REMARK SMILES O=C(N/N=C/c1ccc(C(=O)OCCOCCOCCOCCOC(=O)c2ccc(-c3c4nc(c(-c5c(F)c(F)c(F)c(F)c5F)c5ccc([nH]5)c(-c5c(F)c(F)c(F)c(F)c5F)c5nc(c(-c6c(F)c(F)c(F)c(F)c6F)c6ccc3[nH]6)C=C5)C=C4)cc2)cc1)C(=O)Nc1ccc2c(c1)OCO2
REMARK SMILES IDX 17 1 16 2 15 3 14 4 13 5 12 6 10 7 11 8 9 9 6 10 7 11 91 12
REMARK SMILES IDX 8 13 90 14 5 15 4 16 3 17 1 18 2 19 92 21 93 22 94 23 95 25
REMARK SMILES IDX 96 26 100 27 97 28 99 29 98 30 101 31 103 32 102 33 18 34
REMARK SMILES IDX 19 35 20 36 21 37 22 38 23 39 24 40 25 41 26 42 27 43 28 44
REMARK SMILES IDX 89 45 29 46 88 47 30 48 31 49 32 50 82 51 33 52 87 53 81 54
REMARK SMILES IDX 83 55 34 56 86 57 80 58 79 59 35 61 67 62 47 63 66 64 48 65
REMARK SMILES IDX 51 66 65 67 84 68 49 69 50 70 64 72 85 73 52 74 36 75 37 76
REMARK SMILES IDX 45 77 38 78 39 79 43 80 46 81 40 82 41 83 44 84 42 85 68 86
REMARK SMILES IDX 69 87 77 88 70 89 71 90 75 91 78 92 72 93 73 94 76 95 74 96
REMARK SMILES IDX 53 97 54 98 62 99 55 100 56 101 60 102 63 103 57 104 58 105
REMARK SMILES IDX 61 106 59 107
REMARK H PARENT 3 20 94 24 83 60 51 71
REMARK Flexibility Score: inf
ROOT
ATOM      1  C   UNL     1      10.935   0.109   2.624  1.00  0.00     0.188 C 
ENDROOT
BRANCH   1   2
ATOM      2  C   UNL     1      11.912  -0.792   1.843  1.00  0.00     0.188 C 
BRANCH   2   3
ATOM      3  O   UNL     1      13.243  -0.296   1.847  1.00  0.00    -0.376 OA
BRANCH   3   4
ATOM      4  C   UNL     1      13.820   0.130   0.627  1.00  0.00     0.202 C 
BRANCH   4   5
ATOM      5  C   UNL     1      13.232   1.367  -0.070  1.00  0.00     0.261 C 
BRANCH   5   6
ATOM      6  O   UNL     1      11.807   1.466  -0.063  1.00  0.00    -0.460 OA
BRANCH   6   7
ATOM      7  C   UNL     1      11.136   0.637  -0.888  1.00  0.00     0.338 C 
ATOM      8  O   UNL     1      11.617  -0.149  -1.685  1.00  0.00    -0.246 OA
BRANCH   7   9
ATOM      9  C   UNL     1       9.700   0.691  -0.537  1.00  0.00     0.060 A 
ATOM     10  C   UNL     1       6.651   0.772  -0.184  1.00  0.00    -0.005 A 
ATOM     11  C   UNL     1       7.558  -0.431  -0.257  1.00  0.00     0.010 A 
ATOM     12  C   UNL     1       7.672   1.860   0.088  1.00  0.00     0.010 A 
ATOM     13  C   UNL     1       8.959  -0.471  -0.501  1.00  0.00     0.016 A 
ATOM     14  C   UNL     1       9.079   1.840  -0.113  1.00  0.00     0.016 A 
BRANCH  10  15
ATOM     15  C   UNL     1       4.548   0.900  -0.583  1.00  0.00     0.141 C 
ATOM     16  N   UNL     1       3.414   1.323   0.075  1.00  0.00    -0.180 NA
BRANCH  16  17
ATOM     17  N   UNL     1       2.291   0.703  -0.355  1.00  0.00    -0.239 N 
ATOM     18  O   UNL     1       0.986  -1.146  -0.528  1.00  0.00    -0.262 OA
ATOM     19  C   UNL     1       1.988  -0.617  -0.050  1.00  0.00     0.329 C 
ATOM     20  H   UNL     1       1.659   1.212  -0.911  1.00  0.00     0.194 HD
BRANCH  19  21
ATOM     21  C   UNL     1       2.833  -1.420   0.980  1.00  0.00     0.315 C 
ATOM     22  O   UNL     1       2.248  -1.939   1.932  1.00  0.00    -0.263 OA
ATOM     23  N   UNL     1       4.191  -1.705   0.797  1.00  0.00    -0.318 N 
ATOM     24  H   UNL     1       4.506  -2.625   0.952  1.00  0.00     0.170 HD
BRANCH  23  25
ATOM     25  C   UNL     1       5.123  -0.728   0.398  1.00  0.00     0.045 A 
ATOM     26  C   UNL     1       5.506  -0.673  -1.407  1.00  0.00     0.030 A 
ATOM     27  C   UNL     1       5.164   0.801   1.404  1.00  0.00     0.076 A 
ATOM     28  C   UNL     1       5.845   0.948  -2.203  1.00  0.00     0.053 A 
ATOM     29  C   UNL     1       5.358   2.386   0.547  1.00  0.00     0.167 A 
ATOM     30  C   UNL     1       5.670   2.447  -1.223  1.00  0.00     0.165 A 
ATOM     31  O   UNL     1       5.109   3.663   0.934  1.00  0.00    -0.454 OA
ATOM     32  O   UNL     1       5.606   3.752  -1.574  1.00  0.00    -0.454 OA
ATOM     33  C   UNL     1       4.993   4.352  -0.368  1.00  0.00     0.468 C 
ENDBRANCH  23  25
ENDBRANCH  19  21
ENDBRANCH  16  17
ENDBRANCH  10  15
ENDBRANCH   7   9
ENDBRANCH   6   7
ENDBRANCH   5   6
ENDBRANCH   4   5
ENDBRANCH   3   4
ENDBRANCH   2   3
ENDBRANCH   1   2
BRANCH   1  34
ATOM     34  O   UNL     1      11.364   1.439   2.870  1.00  0.00    -0.377 OA
BRANCH  34  35
ATOM     35  C   UNL     1      12.531   1.653   3.666  1.00  0.00     0.188 C 
BRANCH  35  36
ATOM     36  C   UNL     1      13.239   0.515   4.449  1.00  0.00     0.188 C 
BRANCH  36  37
ATOM     37  O   UNL     1      12.445  -0.632   4.703  1.00  0.00    -0.376 OA
BRANCH  37  38
ATOM     38  C   UNL     1      12.043  -0.861   6.043  1.00  0.00     0.202 C 
BRANCH  38  39
ATOM     39  C   UNL     1      11.002   0.126   6.585  1.00  0.00     0.261 C 
BRANCH  39  40
ATOM     40  O   UNL     1      11.400   1.506   6.573  1.00  0.00    -0.460 OA
BRANCH  40  41
ATOM     41  C   UNL     1      12.468   1.846   7.327  1.00  0.00     0.338 C 
ATOM     42  O   UNL     1      13.130   1.122   8.047  1.00  0.00    -0.246 OA
BRANCH  41  43
ATOM     43  C   UNL     1      12.821   3.237   6.986  1.00  0.00     0.060 A 
ATOM     44  C   UNL     1      14.089   3.513   6.456  1.00  0.00     0.016 A 
ATOM     45  C   UNL     1      11.892   4.260   7.178  1.00  0.00     0.016 A 
ATOM     46  C   UNL     1      14.441   4.826   6.144  1.00  0.00     0.010 A 
ATOM     47  C   UNL     1      12.253   5.576   6.888  1.00  0.00     0.010 A 
ATOM     48  C   UNL     1      13.540   5.867   6.400  1.00  0.00    -0.014 A 
BRANCH  48  49
ATOM     49  C   UNL     1      14.003   7.274   6.372  1.00  0.00     0.031 A 
ATOM     50  C   UNL     1      14.417   7.905   7.672  1.00  0.00     0.074 A 
ATOM     51  C   UNL     1      14.057   7.976   5.227  1.00  0.00     0.049 A 
ATOM     52  N   UNL     1      14.772   9.138   7.927  1.00  0.00    -0.248 NA
ATOM     53  C   UNL     1      14.428   7.019   8.849  1.00  0.00     0.031 C 
ATOM     54  C   UNL     1      13.732   7.461   3.900  1.00  0.00     0.029 A 
ATOM     55  N   UNL     1      14.399   9.288   5.007  1.00  0.00    -0.354 N 
ATOM     56  C   UNL     1      15.047   9.174   9.287  1.00  0.00     0.074 A 
ATOM     57  C   UNL     1      14.783   7.853   9.813  1.00  0.00     0.031 C 
ATOM     58  C   UNL     1      13.876   8.452   3.002  1.00  0.00     0.029 A 
ATOM     59  C   UNL     1      14.265   9.678   3.697  1.00  0.00     0.049 A 
ATOM     60  H   UNL     1      14.709   9.891   5.720  1.00  0.00     0.167 HD
ATOM     61  C   UNL     1      15.492  10.215  10.030  1.00  0.00     0.037 A 
ATOM     62  C   UNL     1      14.415  10.895   3.137  1.00  0.00     0.037 A 
ATOM     63  C   UNL     1      15.740  11.531   9.507  1.00  0.00     0.049 A 
ATOM     64  C   UNL     1      14.808  12.065   4.008  1.00  0.00     0.074 A 
ATOM     65  C   UNL     1      16.181  12.658  10.177  1.00  0.00     0.029 A 
ATOM     66  N   UNL     1      15.559  11.897   8.182  1.00  0.00    -0.354 N 
ATOM     67  N   UNL     1      15.082  12.092   5.291  1.00  0.00    -0.248 NA
ATOM     68  C   UNL     1      14.912  13.376   3.350  1.00  0.00     0.031 C 
ATOM     69  C   UNL     1      16.218  13.719   9.268  1.00  0.00     0.029 A 
ATOM     70  C   UNL     1      15.859  13.240   8.018  1.00  0.00     0.049 A 
ATOM     71  H   UNL     1      15.261  11.293   7.463  1.00  0.00     0.167 HD
ATOM     72  C   UNL     1      15.428  13.406   5.582  1.00  0.00     0.074 A 
ATOM     73  C   UNL     1      15.339  14.145   4.341  1.00  0.00     0.031 C 
ATOM     74  C   UNL     1      15.789  13.954   6.769  1.00  0.00     0.037 A 
BRANCH  61  75
ATOM     75  C   UNL     1      15.716   9.973  11.494  1.00  0.00     0.064 A 
ATOM     76  C   UNL     1      16.772   9.171  11.954  1.00  0.00     0.173 A 
ATOM     77  C   UNL     1      14.882  10.570  12.450  1.00  0.00     0.173 A 
ATOM     78  F   UNL     1      17.587   8.562  11.080  1.00  0.00    -0.203 F 
ATOM     79  C   UNL     1      16.969   8.958  13.316  1.00  0.00     0.198 A 
ATOM     80  C   UNL     1      15.101  10.381  13.812  1.00  0.00     0.198 A 
ATOM     81  F   UNL     1      13.858  11.346  12.064  1.00  0.00    -0.203 F 
ATOM     82  F   UNL     1      17.955   8.149  13.729  1.00  0.00    -0.200 F 
ATOM     83  C   UNL     1      16.140   9.569  14.243  1.00  0.00     0.200 A 
ATOM     84  F   UNL     1      14.306  10.982  14.707  1.00  0.00    -0.200 F 
ATOM     85  F   UNL     1      16.336   9.370  15.554  1.00  0.00    -0.200 F 
ENDBRANCH  61  75
BRANCH  62  86
ATOM     86  C   UNL     1      14.181  11.089   1.681  1.00  0.00     0.064 A 
ATOM     87  C   UNL     1      15.228  11.456   0.823  1.00  0.00     0.173 A 
ATOM     88  C   UNL     1      12.899  10.966   1.125  1.00  0.00     0.173 A 
ATOM     89  F   UNL     1      16.467  11.615   1.310  1.00  0.00    -0.203 F 
ATOM     90  C   UNL     1      14.997  11.719  -0.526  1.00  0.00     0.198 A 
ATOM     91  C   UNL     1      12.675  11.197  -0.231  1.00  0.00     0.198 A 
ATOM     92  F   UNL     1      11.859  10.623   1.900  1.00  0.00    -0.203 F 
ATOM     93  F   UNL     1      16.005  12.129  -1.308  1.00  0.00    -0.200 F 
ATOM     94  C   UNL     1      13.722  11.585  -1.053  1.00  0.00     0.200 A 
ATOM     95  F   UNL     1      11.442  11.056  -0.738  1.00  0.00    -0.200 F 
ATOM     96  F   UNL     1      13.499  11.843  -2.349  1.00  0.00    -0.200 F 
ENDBRANCH  62  86
BRANCH  74  97
ATOM     97  C   UNL     1      16.176  15.405   6.778  1.00  0.00     0.064 A 
ATOM     98  C   UNL     1      15.229  16.426   6.607  1.00  0.00     0.173 A 
ATOM     99  C   UNL     1      17.508  15.779   7.014  1.00  0.00     0.173 A 
ATOM    100  F   UNL     1      13.945  16.123   6.365  1.00  0.00    -0.203 F 
ATOM    101  C   UNL     1      15.607  17.766   6.646  1.00  0.00     0.198 A 
ATOM    102  C   UNL     1      17.876  17.120   7.087  1.00  0.00     0.198 A 
ATOM    103  F   UNL     1      18.452  14.843   7.194  1.00  0.00    -0.203 F 
ATOM    104  F   UNL     1      14.695  18.724   6.432  1.00  0.00    -0.200 F 
ATOM    105  C   UNL     1      16.927  18.112   6.895  1.00  0.00     0.200 A 
ATOM    106  F   UNL     1      19.149  17.451   7.345  1.00  0.00    -0.200 F 
ATOM    107  F   UNL     1      17.286  19.402   6.945  1.00  0.00    -0.200 F 
ENDBRANCH  74  97
ENDBRANCH  48  49
ENDBRANCH  41  43
ENDBRANCH  40  41
ENDBRANCH  39  40
ENDBRANCH  38  39
ENDBRANCH  37  38
ENDBRANCH  36  37
ENDBRANCH  35  36
ENDBRANCH  34  35
ENDBRANCH   1  34
TORSDOF 24
