REMARK SMILES O=C(OCCOCCOCCOCCOC(=O)c1cc(-c2ccccn2)nc2ccc(F)cc12)c1ccc(-c2c3nc(c(-c4c(F)c(F)c(F)c(F)c4F)c4ccc([nH]4)c(-c4c(F)c(F)c(F)c(F)c4F)c4nc(c(-c5c(F)c(F)c(F)c(F)c5F)c5ccc2[nH]5)C=C4)C=C3)cc1
REMARK SMILES IDX 8 1 7 2 6 3 5 4 4 5 3 6 2 7 1 8 35 9 36 10 97 11 37 12 96 13
REMARK SMILES IDX 38 14 39 15 40 16 90 17 41 18 95 19 89 20 91 21 42 22 94 23
REMARK SMILES IDX 88 24 87 25 43 27 75 28 55 29 74 30 56 31 59 32 73 33 92 34
REMARK SMILES IDX 57 35 58 36 72 38 93 39 60 40 44 41 45 42 53 43 46 44 47 45
REMARK SMILES IDX 51 46 54 47 48 48 49 49 52 50 50 51 76 52 77 53 85 54 78 55
REMARK SMILES IDX 79 56 83 57 86 58 80 59 81 60 84 61 82 62 61 63 62 64 70 65
REMARK SMILES IDX 63 66 64 67 68 68 71 69 65 70 66 71 69 72 67 73 9 74 10 75
REMARK SMILES IDX 11 76 12 77 13 78 14 79 15 80 16 81 17 82 18 83 19 84 34 85
REMARK SMILES IDX 20 86 28 87 33 88 27 89 29 90 31 91 30 92 32 93 21 94 22 95
REMARK SMILES IDX 26 96 23 97 25 98 24 99
REMARK H PARENT 91 26 59 37
REMARK Flexibility Score: inf
ROOT
ATOM      1  C   UNL     1       1.544  -1.567   1.668  1.00  0.00     0.188 C 
ENDROOT
BRANCH   1   2
ATOM      2  C   UNL     1       2.046  -0.225   1.143  1.00  0.00     0.188 C 
BRANCH   2   3
ATOM      3  O   UNL     1       3.386  -0.367   0.658  1.00  0.00    -0.376 OA
BRANCH   3   4
ATOM      4  C   UNL     1       4.266   0.692   1.016  1.00  0.00     0.202 C 
BRANCH   4   5
ATOM      5  C   UNL     1       4.338   1.799  -0.030  1.00  0.00     0.261 C 
BRANCH   5   6
ATOM      6  O   UNL     1       3.085   2.044  -0.682  1.00  0.00    -0.460 OA
BRANCH   6   7
ATOM      7  C   UNL     1       2.498   1.383  -1.709  1.00  0.00     0.338 C 
ATOM      8  O   UNL     1       1.430   1.834  -2.125  1.00  0.00    -0.246 OA
BRANCH   7   9
ATOM      9  C   UNL     1       3.011   0.125  -2.366  1.00  0.00     0.060 A 
ATOM     10  C   UNL     1       2.168  -0.452  -3.342  1.00  0.00     0.016 A 
ATOM     11  C   UNL     1       4.228  -0.518  -2.121  1.00  0.00     0.016 A 
ATOM     12  C   UNL     1       2.549  -1.585  -4.073  1.00  0.00     0.010 A 
ATOM     13  C   UNL     1       4.606  -1.663  -2.825  1.00  0.00     0.010 A 
ATOM     14  C   UNL     1       3.790  -2.176  -3.834  1.00  0.00    -0.014 A 
BRANCH  14  15
ATOM     15  C   UNL     1       4.382  -3.145  -4.778  1.00  0.00     0.031 A 
ATOM     16  C   UNL     1       4.346  -4.618  -4.535  1.00  0.00     0.074 A 
ATOM     17  C   UNL     1       5.070  -2.622  -5.811  1.00  0.00     0.049 A 
ATOM     18  N   UNL     1       4.873  -5.577  -5.252  1.00  0.00    -0.248 NA
ATOM     19  C   UNL     1       3.637  -5.081  -3.333  1.00  0.00     0.031 C 
ATOM     20  C   UNL     1       5.195  -1.186  -6.088  1.00  0.00     0.029 A 
ATOM     21  N   UNL     1       5.822  -3.215  -6.788  1.00  0.00    -0.354 N 
ATOM     22  C   UNL     1       4.529  -6.761  -4.616  1.00  0.00     0.074 A 
ATOM     23  C   UNL     1       3.791  -6.398  -3.422  1.00  0.00     0.031 C 
ATOM     24  C   UNL     1       5.998  -1.011  -7.146  1.00  0.00     0.029 A 
ATOM     25  C   UNL     1       6.442  -2.316  -7.618  1.00  0.00     0.049 A 
ATOM     26  H   UNL     1       5.909  -4.191  -6.885  1.00  0.00     0.167 HD
ATOM     27  C   UNL     1       4.797  -8.027  -5.016  1.00  0.00     0.037 A 
ATOM     28  C   UNL     1       7.276  -2.523  -8.652  1.00  0.00     0.037 A 
ATOM     29  C   UNL     1       5.578  -8.355  -6.186  1.00  0.00     0.049 A 
ATOM     30  C   UNL     1       7.581  -3.936  -9.049  1.00  0.00     0.074 A 
ATOM     31  C   UNL     1       5.907  -9.603  -6.686  1.00  0.00     0.029 A 
ATOM     32  N   UNL     1       6.163  -7.421  -7.032  1.00  0.00    -0.354 N 
ATOM     33  N   UNL     1       7.190  -5.052  -8.484  1.00  0.00    -0.248 NA
ATOM     34  C   UNL     1       8.413  -4.120 -10.242  1.00  0.00     0.031 C 
ATOM     35  C   UNL     1       6.718  -9.425  -7.813  1.00  0.00     0.029 A 
ATOM     36  C   UNL     1       6.853  -8.066  -8.046  1.00  0.00     0.049 A 
ATOM     37  H   UNL     1       6.097  -6.444  -6.926  1.00  0.00     0.167 HD
ATOM     38  C   UNL     1       7.688  -6.073  -9.276  1.00  0.00     0.074 A 
ATOM     39  C   UNL     1       8.408  -5.440 -10.364  1.00  0.00     0.031 C 
ATOM     40  C   UNL     1       7.554  -7.413  -9.122  1.00  0.00     0.037 A 
BRANCH  27  41
ATOM     41  C   UNL     1       4.221  -9.162  -4.218  1.00  0.00     0.064 A 
ATOM     42  C   UNL     1       2.848  -9.450  -4.263  1.00  0.00     0.173 A 
ATOM     43  C   UNL     1       5.049 -10.043  -3.506  1.00  0.00     0.173 A 
ATOM     44  F   UNL     1       2.010  -8.639  -4.928  1.00  0.00    -0.203 F 
ATOM     45  C   UNL     1       2.326 -10.574  -3.627  1.00  0.00     0.198 A 
ATOM     46  C   UNL     1       4.528 -11.179  -2.889  1.00  0.00     0.198 A 
ATOM     47  F   UNL     1       6.370  -9.822  -3.437  1.00  0.00    -0.203 F 
ATOM     48  F   UNL     1       1.010 -10.820  -3.676  1.00  0.00    -0.200 F 
ATOM     49  C   UNL     1       3.168 -11.444  -2.951  1.00  0.00     0.200 A 
ATOM     50  F   UNL     1       5.345 -12.029  -2.251  1.00  0.00    -0.200 F 
ATOM     51  F   UNL     1       2.669 -12.541  -2.364  1.00  0.00    -0.200 F 
ENDBRANCH  27  41
BRANCH  28  52
ATOM     52  C   UNL     1       7.790  -1.363  -9.420  1.00  0.00     0.064 A 
ATOM     53  C   UNL     1       7.296  -1.086 -10.702  1.00  0.00     0.173 A 
ATOM     54  C   UNL     1       8.733  -0.480  -8.876  1.00  0.00     0.173 A 
ATOM     55  F   UNL     1       6.397  -1.907 -11.264  1.00  0.00    -0.203 F 
ATOM     56  C   UNL     1       7.738   0.023 -11.418  1.00  0.00     0.198 A 
ATOM     57  C   UNL     1       9.156   0.643  -9.584  1.00  0.00     0.198 A 
ATOM     58  F   UNL     1       9.222  -0.692  -7.645  1.00  0.00    -0.203 F 
ATOM     59  F   UNL     1       7.270   0.248 -12.653  1.00  0.00    -0.200 F 
ATOM     60  C   UNL     1       8.662   0.891 -10.856  1.00  0.00     0.200 A 
ATOM     61  F   UNL     1      10.034   1.491  -9.030  1.00  0.00    -0.200 F 
ATOM     62  F   UNL     1       9.076   1.966 -11.540  1.00  0.00    -0.200 F 
ENDBRANCH  28  52
BRANCH  40  63
ATOM     63  C   UNL     1       8.162  -8.277 -10.186  1.00  0.00     0.064 A 
ATOM     64  C   UNL     1       9.550  -8.437 -10.302  1.00  0.00     0.173 A 
ATOM     65  C   UNL     1       7.339  -8.967 -11.089  1.00  0.00     0.173 A 
ATOM     66  F   UNL     1      10.376  -7.784  -9.471  1.00  0.00    -0.203 F 
ATOM     67  C   UNL     1      10.094  -9.231 -11.306  1.00  0.00     0.198 A 
ATOM     68  C   UNL     1       7.886  -9.784 -12.073  1.00  0.00     0.198 A 
ATOM     69  F   UNL     1       6.005  -8.851 -11.014  1.00  0.00    -0.203 F 
ATOM     70  F   UNL     1      11.425  -9.326 -11.435  1.00  0.00    -0.200 F 
ATOM     71  C   UNL     1       9.263  -9.908 -12.187  1.00  0.00     0.200 A 
ATOM     72  F   UNL     1       7.082 -10.447 -12.916  1.00  0.00    -0.200 F 
ATOM     73  F   UNL     1       9.790 -10.673 -13.153  1.00  0.00    -0.200 F 
ENDBRANCH  40  63
ENDBRANCH  14  15
ENDBRANCH   7   9
ENDBRANCH   6   7
ENDBRANCH   5   6
ENDBRANCH   4   5
ENDBRANCH   3   4
ENDBRANCH   2   3
ENDBRANCH   1   2
BRANCH   1  74
ATOM     74  O   UNL     1       2.136  -1.962   2.901  1.00  0.00    -0.377 OA
BRANCH  74  75
ATOM     75  C   UNL     1       3.552  -2.102   2.919  1.00  0.00     0.188 C 
BRANCH  75  76
ATOM     76  C   UNL     1       4.202  -2.985   1.834  1.00  0.00     0.188 C 
BRANCH  76  77
ATOM     77  O   UNL     1       3.344  -3.998   1.321  1.00  0.00    -0.376 OA
BRANCH  77  78
ATOM     78  C   UNL     1       3.620  -5.316   1.782  1.00  0.00     0.202 C 
BRANCH  78  79
ATOM     79  C   UNL     1       3.091  -5.584   3.190  1.00  0.00     0.261 C 
BRANCH  79  80
ATOM     80  O   UNL     1       3.727  -4.846   4.249  1.00  0.00    -0.460 OA
BRANCH  80  81
ATOM     81  C   UNL     1       5.066  -4.913   4.433  1.00  0.00     0.338 C 
ATOM     82  O   UNL     1       5.870  -5.573   3.805  1.00  0.00    -0.246 OA
BRANCH  81  83
ATOM     83  C   UNL     1       5.385  -3.919   5.487  1.00  0.00     0.071 A 
ATOM     84  C   UNL     1       4.649  -4.016   6.666  1.00  0.00     0.047 A 
ATOM     85  C   UNL     1       6.274  -2.839   5.277  1.00  0.00     0.018 A 
ATOM     86  C   UNL     1       4.807  -3.043   7.636  1.00  0.00     0.090 A 
ATOM     87  C   UNL     1       6.311  -1.864   6.297  1.00  0.00     0.072 A 
ATOM     88  C   UNL     1       7.071  -2.643   4.121  1.00  0.00     0.050 A 
ATOM     89  N   UNL     1       5.619  -1.975   7.440  1.00  0.00    -0.246 NA
ATOM     90  C   UNL     1       7.082  -0.721   6.112  1.00  0.00     0.032 A 
ATOM     91  C   UNL     1       7.824  -1.485   3.968  1.00  0.00     0.123 A 
ATOM     92  C   UNL     1       7.830  -0.513   4.952  1.00  0.00     0.041 A 
ATOM     93  F   UNL     1       8.534  -1.299   2.849  1.00  0.00    -0.207 F 
BRANCH  86  94
ATOM     94  C   UNL     1       4.121  -3.164   8.935  1.00  0.00     0.089 A 
ATOM     95  C   UNL     1       4.112  -4.380   9.625  1.00  0.00     0.030 A 
ATOM     96  N   UNL     1       3.467  -2.072   9.404  1.00  0.00    -0.255 NA
ATOM     97  C   UNL     1       3.409  -4.486  10.820  1.00  0.00     0.004 A 
ATOM     98  C   UNL     1       2.798  -2.200  10.572  1.00  0.00     0.112 A 
ATOM     99  C   UNL     1       2.736  -3.374  11.305  1.00  0.00     0.020 A 
ENDBRANCH  86  94
ENDBRANCH  81  83
ENDBRANCH  80  81
ENDBRANCH  79  80
ENDBRANCH  78  79
ENDBRANCH  77  78
ENDBRANCH  76  77
ENDBRANCH  75  76
ENDBRANCH  74  75
ENDBRANCH   1  74
TORSDOF 21
