REMARK SMILES Cc1cc(F)cc(N[C@@](C)(C(=O)OCCOCCOCCOCCOC(=O)c2ccc(-c3c4nc(c(-c5c(F)c(F)c(F)c(F)c5F)c5ccc([nH]5)c(-c5c(F)c(F)c(F)c(F)c5F)c5nc(c(-c6c(F)c(F)c(F)c(F)c6F)c6ccc3[nH]6)C=C5)C=C4)cc2)c2cccc(F)c2)c1
REMARK SMILES IDX 19 1 18 2 17 3 16 4 15 5 14 6 13 7 11 8 12 9 9 10 10 11 8 12
REMARK SMILES IDX 7 14 1 15 2 16 3 17 98 18 4 19 5 20 6 21 91 22 92 23 97 24
REMARK SMILES IDX 93 25 95 26 94 27 96 28 20 29 21 30 22 31 23 32 24 33 25 34
REMARK SMILES IDX 26 35 27 36 28 37 29 38 90 39 30 40 89 41 31 42 32 43 33 44
REMARK SMILES IDX 83 45 34 46 88 47 82 48 84 49 35 50 87 51 81 52 80 53 36 55
REMARK SMILES IDX 68 56 48 57 67 58 49 59 52 60 66 61 85 62 50 63 51 64 65 66
REMARK SMILES IDX 86 67 53 68 37 69 38 70 46 71 39 72 40 73 44 74 47 75 41 76
REMARK SMILES IDX 42 77 45 78 43 79 69 80 70 81 78 82 71 83 72 84 76 85 79 86
REMARK SMILES IDX 73 87 74 88 77 89 75 90 54 91 55 92 63 93 56 94 57 95 61 96
REMARK SMILES IDX 64 97 58 98 59 99 62 100 60 101
REMARK H PARENT 8 13 84 54 52 65
REMARK Flexibility Score: inf
ROOT
ATOM      1  O   UNL     1      -1.187  -5.573   3.202  1.00  0.00    -0.377 OA
ENDROOT
BRANCH   1   2
ATOM      2  C   UNL     1      -0.296  -4.488   2.989  1.00  0.00     0.188 C 
BRANCH   2   3
ATOM      3  C   UNL     1      -0.719  -3.080   3.422  1.00  0.00     0.188 C 
BRANCH   3   4
ATOM      4  O   UNL     1      -1.889  -3.063   4.212  1.00  0.00    -0.376 OA
BRANCH   4   5
ATOM      5  C   UNL     1      -3.112  -2.718   3.583  1.00  0.00     0.202 C 
BRANCH   5   6
ATOM      6  C   UNL     1      -3.508  -3.230   2.178  1.00  0.00     0.261 C 
BRANCH   6   7
ATOM      7  O   UNL     1      -2.462  -3.800   1.376  1.00  0.00    -0.461 OA
BRANCH   7   8
ATOM      8  C   UNL     1      -2.341  -3.381   0.089  1.00  0.00     0.336 C 
ATOM      9  O   UNL     1      -3.006  -2.454  -0.377  1.00  0.00    -0.249 OA
BRANCH   8  10
ATOM     10  C   UNL     1      -1.180  -4.070  -0.724  1.00  0.00     0.159 C 
ATOM     11  C   UNL     1       0.004  -3.065  -0.577  1.00  0.00     0.053 C 
BRANCH  10  12
ATOM     12  N   UNL     1      -1.545  -4.017  -2.180  1.00  0.00    -0.366 N 
ATOM     13  H   UNL     1      -1.121  -3.323  -2.735  1.00  0.00     0.162 HD
BRANCH  12  14
ATOM     14  C   UNL     1      -2.444  -4.883  -2.797  1.00  0.00     0.038 A 
ATOM     15  C   UNL     1      -5.752  -4.631  -4.704  1.00  0.00     0.044 C 
ATOM     16  C   UNL     1      -4.563  -5.201  -3.992  1.00  0.00    -0.046 A 
ATOM     17  C   UNL     1      -4.380  -6.585  -3.953  1.00  0.00     0.042 A 
ATOM     18  C   UNL     1      -3.609  -4.366  -3.384  1.00  0.00     0.029 A 
ATOM     19  C   UNL     1      -3.223  -7.101  -3.393  1.00  0.00     0.125 A 
ATOM     20  F   UNL     1      -3.030  -8.427  -3.378  1.00  0.00    -0.207 F 
ATOM     21  C   UNL     1      -2.251  -6.263  -2.862  1.00  0.00     0.065 A 
ENDBRANCH  12  14
ENDBRANCH  10  12
BRANCH  10  22
ATOM     22  C   UNL     1      -0.741  -5.493  -0.315  1.00  0.00    -0.009 A 
ATOM     23  C   UNL     1       0.584  -5.941  -0.544  1.00  0.00     0.007 A 
ATOM     24  C   UNL     1      -1.654  -6.441   0.189  1.00  0.00     0.046 A 
ATOM     25  C   UNL     1       0.975  -7.261  -0.289  1.00  0.00     0.003 A 
ATOM     26  C   UNL     1      -1.258  -7.759   0.420  1.00  0.00     0.123 A 
ATOM     27  C   UNL     1       0.044  -8.177   0.180  1.00  0.00     0.039 A 
ATOM     28  F   UNL     1      -2.164  -8.654   0.839  1.00  0.00    -0.207 F 
ENDBRANCH  10  22
ENDBRANCH   8  10
ENDBRANCH   7   8
ENDBRANCH   6   7
ENDBRANCH   5   6
ENDBRANCH   4   5
ENDBRANCH   3   4
ENDBRANCH   2   3
ENDBRANCH   1   2
BRANCH   1  29
ATOM     29  C   UNL     1      -1.715  -5.759   4.503  1.00  0.00     0.188 C 
BRANCH  29  30
ATOM     30  C   UNL     1      -0.767  -5.710   5.717  1.00  0.00     0.188 C 
BRANCH  30  31
ATOM     31  O   UNL     1       0.548  -5.219   5.472  1.00  0.00    -0.376 OA
BRANCH  31  32
ATOM     32  C   UNL     1       1.595  -6.192   5.524  1.00  0.00     0.202 C 
BRANCH  32  33
ATOM     33  C   UNL     1       1.775  -7.039   4.249  1.00  0.00     0.261 C 
BRANCH  33  34
ATOM     34  O   UNL     1       0.582  -7.705   3.837  1.00  0.00    -0.460 OA
BRANCH  34  35
ATOM     35  C   UNL     1       0.147  -8.600   4.726  1.00  0.00     0.338 C 
ATOM     36  O   UNL     1       0.709  -8.982   5.752  1.00  0.00    -0.246 OA
BRANCH  35  37
ATOM     37  C   UNL     1      -1.157  -9.127   4.332  1.00  0.00     0.060 A 
ATOM     38  C   UNL     1      -2.086  -9.200   5.388  1.00  0.00     0.016 A 
ATOM     39  C   UNL     1      -1.048 -10.108   3.353  1.00  0.00     0.016 A 
ATOM     40  C   UNL     1      -2.615 -10.425   5.699  1.00  0.00     0.010 A 
ATOM     41  C   UNL     1      -1.562 -11.335   3.669  1.00  0.00     0.010 A 
ATOM     42  C   UNL     1      -2.193 -11.487   4.914  1.00  0.00    -0.014 A 
BRANCH  42  43
ATOM     43  C   UNL     1      -2.069 -12.806   5.482  1.00  0.00     0.031 A 
ATOM     44  C   UNL     1      -3.126 -13.774   5.242  1.00  0.00     0.074 A 
ATOM     45  C   UNL     1      -0.922 -13.094   6.132  1.00  0.00     0.049 A 
ATOM     46  N   UNL     1      -3.305 -14.828   5.951  1.00  0.00    -0.248 NA
ATOM     47  C   UNL     1      -4.139 -13.565   4.217  1.00  0.00     0.031 C 
ATOM     48  C   UNL     1      -0.374 -14.406   6.438  1.00  0.00     0.029 A 
ATOM     49  N   UNL     1      -0.090 -12.193   6.810  1.00  0.00    -0.354 N 
ATOM     50  C   UNL     1      -4.231 -15.594   5.289  1.00  0.00     0.074 A 
ATOM     51  C   UNL     1      -4.815 -14.712   4.304  1.00  0.00     0.031 C 
ATOM     52  C   UNL     1       0.566 -14.270   7.388  1.00  0.00     0.029 A 
ATOM     53  C   UNL     1       0.496 -12.900   7.874  1.00  0.00     0.049 A 
ATOM     54  H   UNL     1       0.056 -11.246   6.584  1.00  0.00     0.167 HD
ATOM     55  C   UNL     1      -4.248 -16.933   5.538  1.00  0.00     0.037 A 
ATOM     56  C   UNL     1       0.187 -12.565   9.163  1.00  0.00     0.037 A 
ATOM     57  C   UNL     1      -3.300 -17.279   6.602  1.00  0.00     0.049 A 
ATOM     58  C   UNL     1      -0.550 -13.642   9.940  1.00  0.00     0.074 A 
ATOM     59  C   UNL     1      -2.008 -17.782   6.616  1.00  0.00     0.029 A 
ATOM     60  N   UNL     1      -3.514 -16.771   7.872  1.00  0.00    -0.354 N 
ATOM     61  N   UNL     1      -1.065 -14.719   9.415  1.00  0.00    -0.248 NA
ATOM     62  C   UNL     1      -0.866 -13.511  11.361  1.00  0.00     0.031 C 
ATOM     63  C   UNL     1      -1.469 -17.600   7.923  1.00  0.00     0.029 A 
ATOM     64  C   UNL     1      -2.433 -16.991   8.703  1.00  0.00     0.049 A 
ATOM     65  H   UNL     1      -4.337 -16.308   8.149  1.00  0.00     0.167 HD
ATOM     66  C   UNL     1      -1.799 -15.385  10.363  1.00  0.00     0.074 A 
ATOM     67  C   UNL     1      -1.657 -14.578  11.561  1.00  0.00     0.031 C 
ATOM     68  C   UNL     1      -2.501 -16.522  10.078  1.00  0.00     0.037 A 
BRANCH  55  69
ATOM     69  C   UNL     1      -4.866 -17.936   4.594  1.00  0.00     0.064 A 
ATOM     70  C   UNL     1      -4.343 -19.241   4.502  1.00  0.00     0.173 A 
ATOM     71  C   UNL     1      -5.917 -17.660   3.699  1.00  0.00     0.173 A 
ATOM     72  F   UNL     1      -3.437 -19.697   5.376  1.00  0.00    -0.203 F 
ATOM     73  C   UNL     1      -4.732 -20.136   3.503  1.00  0.00     0.198 A 
ATOM     74  C   UNL     1      -6.266 -18.529   2.662  1.00  0.00     0.198 A 
ATOM     75  F   UNL     1      -6.684 -16.573   3.834  1.00  0.00    -0.203 F 
ATOM     76  F   UNL     1      -4.185 -21.358   3.459  1.00  0.00    -0.200 F 
ATOM     77  C   UNL     1      -5.661 -19.763   2.555  1.00  0.00     0.200 A 
ATOM     78  F   UNL     1      -7.198 -18.161   1.771  1.00  0.00    -0.200 F 
ATOM     79  F   UNL     1      -5.998 -20.602   1.567  1.00  0.00    -0.200 F 
ENDBRANCH  55  69
BRANCH  56  80
ATOM     80  C   UNL     1      -0.082 -11.112   9.356  1.00  0.00     0.064 A 
ATOM     81  C   UNL     1       0.948 -10.173   9.158  1.00  0.00     0.173 A 
ATOM     82  C   UNL     1      -1.393 -10.625   9.440  1.00  0.00     0.173 A 
ATOM     83  F   UNL     1       2.224 -10.584   9.071  1.00  0.00    -0.203 F 
ATOM     84  C   UNL     1       0.669  -8.818   8.985  1.00  0.00     0.198 A 
ATOM     85  C   UNL     1      -1.669  -9.271   9.261  1.00  0.00     0.198 A 
ATOM     86  F   UNL     1      -2.422 -11.466   9.619  1.00  0.00    -0.203 F 
ATOM     87  F   UNL     1       1.663  -7.950   8.746  1.00  0.00    -0.200 F 
ATOM     88  C   UNL     1      -0.642  -8.373   9.012  1.00  0.00     0.200 A 
ATOM     89  F   UNL     1      -2.939  -8.843   9.269  1.00  0.00    -0.200 F 
ATOM     90  F   UNL     1      -0.925  -7.084   8.772  1.00  0.00    -0.200 F 
ENDBRANCH  56  80
BRANCH  68  91
ATOM     91  C   UNL     1      -3.333 -17.290  11.074  1.00  0.00     0.064 A 
ATOM     92  C   UNL     1      -2.940 -17.490  12.407  1.00  0.00     0.173 A 
ATOM     93  C   UNL     1      -4.519 -17.955  10.684  1.00  0.00     0.173 A 
ATOM     94  F   UNL     1      -1.779 -17.002  12.866  1.00  0.00    -0.203 F 
ATOM     95  C   UNL     1      -3.719 -18.232  13.301  1.00  0.00     0.198 A 
ATOM     96  C   UNL     1      -5.259 -18.746  11.559  1.00  0.00     0.198 A 
ATOM     97  F   UNL     1      -5.020 -17.846   9.446  1.00  0.00    -0.203 F 
ATOM     98  F   UNL     1      -3.338 -18.337  14.582  1.00  0.00    -0.200 F 
ATOM     99  C   UNL     1      -4.872 -18.866  12.875  1.00  0.00     0.200 A 
ATOM    100  F   UNL     1      -6.354 -19.380  11.116  1.00  0.00    -0.200 F 
ATOM    101  F   UNL     1      -5.604 -19.594  13.728  1.00  0.00    -0.200 F 
ENDBRANCH  68  91
ENDBRANCH  42  43
ENDBRANCH  35  37
ENDBRANCH  34  35
ENDBRANCH  33  34
ENDBRANCH  32  33
ENDBRANCH  31  32
ENDBRANCH  30  31
ENDBRANCH  29  30
ENDBRANCH   1  29
TORSDOF 23
