REMARK SMILES CCCCCCNC(=O)Oc1cccc(-c2ccc([C@@H](C)C(=O)OCCOCCOCCOCCOC(=O)c3ccc(-c4c5nc(c(-c6c(F)c(F)c(F)c(F)c6F)c6ccc([nH]6)c(-c6c(F)c(F)c(F)c(F)c6F)c6nc(c(-c7c(F)c(F)c(F)c(F)c7F)c7ccc4[nH]7)C=C6)C=C5)cc3)cc2C)c1
REMARK SMILES IDX 26 1 25 2 24 3 22 4 23 5 20 6 21 7 19 8 16 9 17 10 103 11
REMARK SMILES IDX 18 12 102 13 104 14 15 15 11 16 12 17 105 18 13 19 14 20
REMARK SMILES IDX 10 21 8 22 7 23 9 25 6 26 5 27 4 28 3 29 2 30 1 31 27 32
REMARK SMILES IDX 28 33 29 34 30 35 31 36 32 37 33 38 34 39 35 40 36 41 37 42
REMARK SMILES IDX 38 43 39 44 40 45 101 46 41 47 100 48 42 49 43 50 44 51
REMARK SMILES IDX 94 52 45 53 99 54 93 55 95 56 46 57 98 58 92 59 91 60 47 62
REMARK SMILES IDX 79 63 59 64 78 65 60 66 63 67 77 68 96 69 61 70 62 71 76 73
REMARK SMILES IDX 97 74 64 75 48 76 49 77 57 78 50 79 51 80 55 81 58 82 52 83
REMARK SMILES IDX 53 84 56 85 54 86 80 87 81 88 89 89 82 90 83 91 87 92 90 93
REMARK SMILES IDX 84 94 85 95 88 96 86 97 65 98 66 99 74 100 67 101 68 102
REMARK SMILES IDX 72 103 75 104 69 105 70 106 73 107 71 108
REMARK H PARENT 7 24 95 61 63 72
REMARK Flexibility Score: inf
ROOT
ATOM      1  C   UNL     1      -1.721   7.430  14.293  1.00  0.00     0.202 C 
ENDROOT
BRANCH   1   2
ATOM      2  C   UNL     1      -3.236   7.480  14.567  1.00  0.00     0.261 C 
BRANCH   2   3
ATOM      3  O   UNL     1      -4.114   7.102  13.484  1.00  0.00    -0.463 OA
BRANCH   3   4
ATOM      4  C   UNL     1      -4.759   8.112  12.856  1.00  0.00     0.313 C 
ATOM      5  O   UNL     1      -4.647   9.292  13.187  1.00  0.00    -0.252 OA
BRANCH   4   6
ATOM      6  C   UNL     1      -5.687   7.711  11.710  1.00  0.00     0.126 C 
ATOM      7  C   UNL     1      -7.128   7.908  12.169  1.00  0.00     0.025 C 
BRANCH   6   8
ATOM      8  C   UNL     1      -5.519   6.380  10.974  1.00  0.00    -0.034 A 
ATOM      9  C   UNL     1      -5.197   3.951   9.459  1.00  0.00    -0.015 A 
ATOM     10  C   UNL     1      -5.439   3.949  10.852  1.00  0.00     0.009 A 
ATOM     11  C   UNL     1      -5.097   5.207   8.825  1.00  0.00    -0.043 A 
ATOM     12  C   UNL     1      -5.603   5.134  11.595  1.00  0.00     0.005 A 
ATOM     13  C   UNL     1      -5.264   6.390   9.585  1.00  0.00     0.008 A 
ATOM     14  C   UNL     1      -4.787   5.378   7.359  1.00  0.00     0.045 C 
BRANCH   9  15
ATOM     15  C   UNL     1      -5.173   2.659   8.724  1.00  0.00    -0.014 A 
ATOM     16  C   UNL     1      -4.197   1.082   7.148  1.00  0.00     0.133 A 
ATOM     17  C   UNL     1      -5.329   0.271   7.208  1.00  0.00     0.047 A 
ATOM     18  C   UNL     1      -4.101   2.257   7.905  1.00  0.00     0.056 A 
ATOM     19  C   UNL     1      -6.379   0.632   8.043  1.00  0.00     0.004 A 
ATOM     20  C   UNL     1      -6.303   1.816   8.784  1.00  0.00     0.009 A 
BRANCH  16  21
ATOM     21  O   UNL     1      -3.253   0.734   6.158  1.00  0.00    -0.410 OA
BRANCH  21  22
ATOM     22  C   UNL     1      -1.897   0.710   6.444  1.00  0.00     0.412 C 
ATOM     23  N   UNL     1      -1.125   0.385   5.360  1.00  0.00    -0.321 N 
ATOM     24  H   UNL     1      -0.152   0.360   5.508  1.00  0.00     0.167 HD
ATOM     25  O   UNL     1      -1.392   0.933   7.538  1.00  0.00    -0.224 OA
BRANCH  23  26
ATOM     26  C   UNL     1      -1.580   0.074   4.016  1.00  0.00     0.119 C 
BRANCH  26  27
ATOM     27  C   UNL     1      -0.986   1.019   2.969  1.00  0.00     0.021 C 
BRANCH  27  28
ATOM     28  C   UNL     1       0.542   0.963   2.837  1.00  0.00     0.002 C 
BRANCH  28  29
ATOM     29  C   UNL     1       1.122  -0.393   2.420  1.00  0.00    -0.000 C 
BRANCH  29  30
ATOM     30  C   UNL     1       0.655  -0.920   1.060  1.00  0.00    -0.003 C 
ATOM     31  C   UNL     1       1.061  -0.031  -0.105  1.00  0.00     0.004 C 
ENDBRANCH  29  30
ENDBRANCH  28  29
ENDBRANCH  27  28
ENDBRANCH  26  27
ENDBRANCH  23  26
ENDBRANCH  21  22
ENDBRANCH  16  21
ENDBRANCH   9  15
ENDBRANCH   6   8
ENDBRANCH   4   6
ENDBRANCH   3   4
ENDBRANCH   2   3
ENDBRANCH   1   2
BRANCH   1  32
ATOM     32  O   UNL     1      -1.167   8.059  13.147  1.00  0.00    -0.376 OA
BRANCH  32  33
ATOM     33  C   UNL     1      -1.666   7.769  11.848  1.00  0.00     0.188 C 
BRANCH  33  34
ATOM     34  C   UNL     1      -2.171   6.364  11.486  1.00  0.00     0.188 C 
BRANCH  34  35
ATOM     35  O   UNL     1      -2.201   5.439  12.553  1.00  0.00    -0.377 OA
BRANCH  35  36
ATOM     36  C   UNL     1      -1.154   4.484  12.588  1.00  0.00     0.188 C 
BRANCH  36  37
ATOM     37  C   UNL     1       0.257   4.989  12.240  1.00  0.00     0.188 C 
BRANCH  37  38
ATOM     38  O   UNL     1       0.343   5.652  10.984  1.00  0.00    -0.376 OA
BRANCH  38  39
ATOM     39  C   UNL     1       0.735   4.904   9.840  1.00  0.00     0.202 C 
BRANCH  39  40
ATOM     40  C   UNL     1      -0.205   3.795   9.335  1.00  0.00     0.261 C 
BRANCH  40  41
ATOM     41  O   UNL     1      -0.510   2.743  10.262  1.00  0.00    -0.460 OA
BRANCH  41  42
ATOM     42  C   UNL     1       0.520   2.035  10.772  1.00  0.00     0.338 C 
ATOM     43  O   UNL     1       1.696   2.144  10.499  1.00  0.00    -0.246 OA
BRANCH  42  44
ATOM     44  C   UNL     1       0.004   1.246  11.915  1.00  0.00     0.060 A 
ATOM     45  C   UNL     1       0.593   1.439  13.172  1.00  0.00     0.016 A 
ATOM     46  C   UNL     1      -1.022   0.312  11.754  1.00  0.00     0.016 A 
ATOM     47  C   UNL     1       0.204   0.654  14.256  1.00  0.00     0.010 A 
ATOM     48  C   UNL     1      -1.395  -0.494  12.837  1.00  0.00     0.010 A 
ATOM     49  C   UNL     1      -0.747  -0.359  14.080  1.00  0.00    -0.014 A 
BRANCH  49  50
ATOM     50  C   UNL     1      -0.863  -1.413  15.121  1.00  0.00     0.031 A 
ATOM     51  C   UNL     1      -0.098  -2.695  14.918  1.00  0.00     0.074 A 
ATOM     52  C   UNL     1      -1.549  -1.211  16.260  1.00  0.00     0.049 A 
ATOM     53  N   UNL     1      -0.019  -3.752  15.686  1.00  0.00    -0.248 NA
ATOM     54  C   UNL     1       0.694  -2.795  13.680  1.00  0.00     0.031 C 
ATOM     55  C   UNL     1      -2.276   0.008  16.605  1.00  0.00     0.029 A 
ATOM     56  N   UNL     1      -1.736  -2.034  17.344  1.00  0.00    -0.354 N 
ATOM     57  C   UNL     1       0.832  -4.633  15.029  1.00  0.00     0.074 A 
ATOM     58  C   UNL     1       1.209  -4.010  13.780  1.00  0.00     0.031 C 
ATOM     59  C   UNL     1      -2.834  -0.148  17.820  1.00  0.00     0.029 A 
ATOM     60  C   UNL     1      -2.530  -1.487  18.322  1.00  0.00     0.049 A 
ATOM     61  H   UNL     1      -1.339  -2.932  17.413  1.00  0.00     0.167 HD
ATOM     62  C   UNL     1       1.275  -5.846  15.437  1.00  0.00     0.037 A 
ATOM     63  C   UNL     1      -2.971  -2.018  19.480  1.00  0.00     0.037 A 
ATOM     64  C   UNL     1       0.897  -6.470  16.676  1.00  0.00     0.049 A 
ATOM     65  C   UNL     1      -2.549  -3.419  19.858  1.00  0.00     0.074 A 
ATOM     66  C   UNL     1       1.281  -7.702  17.174  1.00  0.00     0.029 A 
ATOM     67  N   UNL     1       0.041  -5.909  17.612  1.00  0.00    -0.354 N 
ATOM     68  N   UNL     1      -1.734  -4.238  19.239  1.00  0.00    -0.248 NA
ATOM     69  C   UNL     1      -3.110  -3.966  21.103  1.00  0.00     0.031 C 
ATOM     70  C   UNL     1       0.615  -7.911  18.386  1.00  0.00     0.029 A 
ATOM     71  C   UNL     1      -0.134  -6.781  18.674  1.00  0.00     0.049 A 
ATOM     72  H   UNL     1      -0.379  -5.022  17.534  1.00  0.00     0.167 HD
ATOM     73  C   UNL     1      -1.653  -5.375  20.036  1.00  0.00     0.074 A 
ATOM     74  C   UNL     1      -2.488  -5.133  21.192  1.00  0.00     0.031 C 
ATOM     75  C   UNL     1      -0.952  -6.517  19.830  1.00  0.00     0.037 A 
BRANCH  62  76
ATOM     76  C   UNL     1       2.207  -6.589  14.524  1.00  0.00     0.064 A 
ATOM     77  C   UNL     1       3.529  -6.167  14.319  1.00  0.00     0.173 A 
ATOM     78  C   UNL     1       1.786  -7.762  13.880  1.00  0.00     0.173 A 
ATOM     79  F   UNL     1       3.977  -5.042  14.899  1.00  0.00    -0.203 F 
ATOM     80  C   UNL     1       4.389  -6.880  13.487  1.00  0.00     0.198 A 
ATOM     81  C   UNL     1       2.657  -8.490  13.075  1.00  0.00     0.198 A 
ATOM     82  F   UNL     1       0.532  -8.211  14.043  1.00  0.00    -0.203 F 
ATOM     83  F   UNL     1       5.634  -6.434  13.272  1.00  0.00    -0.200 F 
ATOM     84  C   UNL     1       3.955  -8.046  12.874  1.00  0.00     0.200 A 
ATOM     85  F   UNL     1       2.241  -9.625  12.494  1.00  0.00    -0.200 F 
ATOM     86  F   UNL     1       4.788  -8.739  12.085  1.00  0.00    -0.200 F 
ENDBRANCH  62  76
BRANCH  63  87
ATOM     87  C   UNL     1      -3.881  -1.245  20.371  1.00  0.00     0.064 A 
ATOM     88  C   UNL     1      -3.488  -0.874  21.666  1.00  0.00     0.173 A 
ATOM     89  C   UNL     1      -5.187  -0.922  19.972  1.00  0.00     0.173 A 
ATOM     90  F   UNL     1      -2.260  -1.184  22.108  1.00  0.00    -0.203 F 
ATOM     91  C   UNL     1      -4.376  -0.245  22.537  1.00  0.00     0.198 A 
ATOM     92  C   UNL     1      -6.062  -0.261  20.832  1.00  0.00     0.198 A 
ATOM     93  F   UNL     1      -5.619  -1.258  18.748  1.00  0.00    -0.203 F 
ATOM     94  F   UNL     1      -3.997   0.031  23.792  1.00  0.00    -0.200 F 
ATOM     95  C   UNL     1      -5.661   0.064  22.118  1.00  0.00     0.200 A 
ATOM     96  F   UNL     1      -7.300   0.045  20.419  1.00  0.00    -0.200 F 
ATOM     97  F   UNL     1      -6.518   0.660  22.959  1.00  0.00    -0.200 F 
ENDBRANCH  63  87
BRANCH  75  98
ATOM     98  C   UNL     1      -1.011  -7.572  20.899  1.00  0.00     0.064 A 
ATOM     99  C   UNL     1      -2.176  -8.312  21.147  1.00  0.00     0.173 A 
ATOM    100  C   UNL     1       0.130  -7.875  21.659  1.00  0.00     0.173 A 
ATOM    101  F   UNL     1      -3.298  -8.057  20.457  1.00  0.00    -0.203 F 
ATOM    102  C   UNL     1      -2.207  -9.291  22.138  1.00  0.00     0.198 A 
ATOM    103  C   UNL     1       0.107  -8.879  22.623  1.00  0.00     0.198 A 
ATOM    104  F   UNL     1       1.276  -7.206  21.456  1.00  0.00    -0.203 F 
ATOM    105  F   UNL     1      -3.348  -9.945  22.395  1.00  0.00    -0.200 F 
ATOM    106  C   UNL     1      -1.064  -9.579  22.869  1.00  0.00     0.200 A 
ATOM    107  F   UNL     1       1.218  -9.168  23.314  1.00  0.00    -0.200 F 
ATOM    108  F   UNL     1      -1.093 -10.527  23.815  1.00  0.00    -0.200 F 
ENDBRANCH  75  98
ENDBRANCH  49  50
ENDBRANCH  42  44
ENDBRANCH  41  42
ENDBRANCH  40  41
ENDBRANCH  39  40
ENDBRANCH  38  39
ENDBRANCH  37  38
ENDBRANCH  36  37
ENDBRANCH  35  36
ENDBRANCH  34  35
ENDBRANCH  33  34
ENDBRANCH  32  33
ENDBRANCH   1  32
TORSDOF 29
