REMARK SMILES CC(C)c1cc(C2CC[NH+](Cc3c[nH]nc3C(=O)OCCOCCOCCOCCOC(=O)c3ccc(-c4c5nc(c(-c6c(F)c(F)c(F)c(F)c6F)c6ccc([nH]6)c(-c6c(F)c(F)c(F)c(F)c6F)c6nc(c(-c7c(F)c(F)c(F)c(F)c7F)c7ccc4[nH]7)C=C6)C=C5)cc3)CC2)n[nH]1
REMARK SMILES IDX 24 1 23 2 22 3 21 4 20 5 19 6 17 7 18 8 16 9 12 10 13 11
REMARK SMILES IDX 14 12 15 13 11 15 10 16 7 17 8 18 98 19 9 20 97 21 6 23 4 24
REMARK SMILES IDX 5 25 100 26 99 27 2 29 1 30 3 31 25 32 26 33 27 34 28 35
REMARK SMILES IDX 29 36 30 37 31 38 32 39 33 40 34 41 35 42 96 43 36 44 95 45
REMARK SMILES IDX 37 46 38 47 39 48 89 49 40 50 94 51 88 52 90 53 41 54 93 55
REMARK SMILES IDX 87 56 86 57 42 59 74 60 54 61 73 62 55 63 58 64 72 65 91 66
REMARK SMILES IDX 56 67 57 68 71 70 92 71 59 72 43 73 44 74 52 75 45 76 46 77
REMARK SMILES IDX 50 78 53 79 47 80 48 81 51 82 49 83 75 84 76 85 84 86 77 87
REMARK SMILES IDX 78 88 82 89 85 90 79 91 80 92 83 93 81 94 60 95 61 96 69 97
REMARK SMILES IDX 62 98 63 99 67 100 70 101 64 102 65 103 68 104 66 105
REMARK H PARENT 14 14 10 22 100 28 90 58 58 69
REMARK Flexibility Score: inf
ROOT
ATOM      1  C   UNL     1       0.531  -4.441   0.737  1.00  0.00     0.188 C 
ENDROOT
BRANCH   1   2
ATOM      2  C   UNL     1       1.926  -5.077   0.771  1.00  0.00     0.188 C 
BRANCH   2   3
ATOM      3  O   UNL     1       1.914  -6.492   0.574  1.00  0.00    -0.376 OA
BRANCH   3   4
ATOM      4  C   UNL     1       2.141  -7.273   1.743  1.00  0.00     0.202 C 
BRANCH   4   5
ATOM      5  C   UNL     1       0.910  -7.447   2.649  1.00  0.00     0.261 C 
BRANCH   5   6
ATOM      6  O   UNL     1       0.401  -6.233   3.225  1.00  0.00    -0.458 OA
BRANCH   6   7
ATOM      7  C   UNL     1       1.235  -5.592   4.085  1.00  0.00     0.359 C 
ATOM      8  O   UNL     1       2.299  -6.069   4.470  1.00  0.00    -0.244 OA
BRANCH   7   9
ATOM      9  C   UNL     1       0.784  -4.230   4.419  1.00  0.00     0.178 A 
ATOM     10  C   UNL     1      -0.543  -3.705   4.668  1.00  0.00     0.059 A 
ATOM     11  C   UNL     1      -0.278  -2.420   5.118  1.00  0.00     0.115 A 
ATOM     12  N   UNL     1       1.048  -2.188   4.944  1.00  0.00    -0.284 N 
ATOM     13  N   UNL     1       1.719  -3.261   4.536  1.00  0.00    -0.168 NA
ATOM     14  H   UNL     1       1.471  -1.313   5.104  1.00  0.00     0.189 HD
BRANCH  10  15
ATOM     15  C   UNL     1      -1.872  -4.434   4.662  1.00  0.00     0.303 C 
BRANCH  15  16
ATOM     16  N   UNL     1      -2.986  -3.803   3.914  1.00  0.00    -0.331 N 
ATOM     17  C   UNL     1      -4.162  -1.806   2.066  1.00  0.00     0.051 C 
ATOM     18  C   UNL     1      -4.486  -1.797   3.562  1.00  0.00     0.071 C 
ATOM     19  C   UNL     1      -3.984  -3.271   1.647  1.00  0.00     0.071 C 
ATOM     20  C   UNL     1      -3.399  -2.485   4.388  1.00  0.00     0.263 C 
ATOM     21  C   UNL     1      -2.919  -4.011   2.469  1.00  0.00     0.263 C 
ATOM     22  H   UNL     1      -3.814  -4.340   4.173  1.00  0.00     0.348 HD
BRANCH  17  23
ATOM     23  C   UNL     1      -2.992  -0.927   1.675  1.00  0.00     0.066 A 
ATOM     24  C   UNL     1      -0.948  -0.110   1.294  1.00  0.00     0.038 A 
ATOM     25  C   UNL     1      -1.619  -1.116   1.941  1.00  0.00     0.049 A 
ATOM     26  N   UNL     1      -1.929   0.665   0.743  1.00  0.00    -0.282 N 
ATOM     27  N   UNL     1      -3.175   0.186   0.948  1.00  0.00    -0.180 NA
ATOM     28  H   UNL     1      -1.746   1.494   0.244  1.00  0.00     0.190 HD
BRANCH  24  29
ATOM     29  C   UNL     1       0.527   0.109   1.190  1.00  0.00     0.031 C 
ATOM     30  C   UNL     1       0.969   0.468  -0.224  1.00  0.00     0.014 C 
ATOM     31  C   UNL     1       1.008   1.132   2.215  1.00  0.00     0.014 C 
ENDBRANCH  24  29
ENDBRANCH  17  23
ENDBRANCH  15  16
ENDBRANCH  10  15
ENDBRANCH   7   9
ENDBRANCH   6   7
ENDBRANCH   5   6
ENDBRANCH   4   5
ENDBRANCH   3   4
ENDBRANCH   2   3
ENDBRANCH   1   2
BRANCH   1  32
ATOM     32  O   UNL     1      -0.542  -5.366   0.733  1.00  0.00    -0.377 OA
BRANCH  32  33
ATOM     33  C   UNL     1      -0.825  -6.104  -0.450  1.00  0.00     0.188 C 
BRANCH  33  34
ATOM     34  C   UNL     1       0.060  -6.015  -1.708  1.00  0.00     0.188 C 
BRANCH  34  35
ATOM     35  O   UNL     1       0.482  -4.696  -2.039  1.00  0.00    -0.376 OA
BRANCH  35  36
ATOM     36  C   UNL     1      -0.167  -4.088  -3.149  1.00  0.00     0.202 C 
BRANCH  36  37
ATOM     37  C   UNL     1      -1.543  -3.506  -2.805  1.00  0.00     0.261 C 
BRANCH  37  38
ATOM     38  O   UNL     1      -2.546  -4.482  -2.479  1.00  0.00    -0.460 OA
BRANCH  38  39
ATOM     39  C   UNL     1      -2.845  -5.399  -3.422  1.00  0.00     0.338 C 
ATOM     40  O   UNL     1      -2.398  -5.479  -4.552  1.00  0.00    -0.246 OA
BRANCH  39  41
ATOM     41  C   UNL     1      -3.710  -6.420  -2.805  1.00  0.00     0.060 A 
ATOM     42  C   UNL     1      -3.315  -7.762  -2.855  1.00  0.00     0.016 A 
ATOM     43  C   UNL     1      -4.917  -6.052  -2.204  1.00  0.00     0.016 A 
ATOM     44  C   UNL     1      -4.155  -8.751  -2.342  1.00  0.00     0.010 A 
ATOM     45  C   UNL     1      -5.762  -7.044  -1.705  1.00  0.00     0.010 A 
ATOM     46  C   UNL     1      -5.401  -8.398  -1.805  1.00  0.00    -0.014 A 
BRANCH  46  47
ATOM     47  C   UNL     1      -6.412  -9.445  -1.527  1.00  0.00     0.031 A 
ATOM     48  C   UNL     1      -7.416  -9.768  -2.598  1.00  0.00     0.074 A 
ATOM     49  C   UNL     1      -6.445 -10.091  -0.349  1.00  0.00     0.049 A 
ATOM     50  N   UNL     1      -8.424 -10.601  -2.571  1.00  0.00    -0.248 NA
ATOM     51  C   UNL     1      -7.264  -9.047  -3.874  1.00  0.00     0.031 C 
ATOM     52  C   UNL     1      -5.513  -9.885   0.755  1.00  0.00     0.029 A 
ATOM     53  N   UNL     1      -7.316 -11.046   0.114  1.00  0.00    -0.354 N 
ATOM     54  C   UNL     1      -9.023 -10.507  -3.821  1.00  0.00     0.074 A 
ATOM     55  C   UNL     1      -8.286  -9.515  -4.574  1.00  0.00     0.031 C 
ATOM     56  C   UNL     1      -5.870 -10.682   1.779  1.00  0.00     0.029 A 
ATOM     57  C   UNL     1      -7.070 -11.431   1.408  1.00  0.00     0.049 A 
ATOM     58  H   UNL     1      -8.046 -11.419  -0.430  1.00  0.00     0.167 HD
ATOM     59  C   UNL     1     -10.086 -11.192  -4.301  1.00  0.00     0.037 A 
ATOM     60  C   UNL     1      -7.753 -12.277   2.204  1.00  0.00     0.037 A 
ATOM     61  C   UNL     1     -10.827 -12.169  -3.551  1.00  0.00     0.049 A 
ATOM     62  C   UNL     1      -8.978 -12.975   1.669  1.00  0.00     0.074 A 
ATOM     63  C   UNL     1     -11.914 -12.925  -3.954  1.00  0.00     0.029 A 
ATOM     64  N   UNL     1     -10.559 -12.519  -2.237  1.00  0.00    -0.354 N 
ATOM     65  N   UNL     1      -9.517 -12.907   0.475  1.00  0.00    -0.248 NA
ATOM     66  C   UNL     1      -9.689 -13.870   2.594  1.00  0.00     0.031 C 
ATOM     67  C   UNL     1     -12.331 -13.702  -2.869  1.00  0.00     0.029 A 
ATOM     68  C   UNL     1     -11.475 -13.465  -1.805  1.00  0.00     0.049 A 
ATOM     69  H   UNL     1      -9.828 -12.151  -1.691  1.00  0.00     0.167 HD
ATOM     70  C   UNL     1     -10.606 -13.769   0.497  1.00  0.00     0.074 A 
ATOM     71  C   UNL     1     -10.648 -14.357   1.819  1.00  0.00     0.031 C 
ATOM     72  C   UNL     1     -11.492 -14.050  -0.490  1.00  0.00     0.037 A 
BRANCH  59  73
ATOM     73  C   UNL     1     -10.523 -10.890  -5.702  1.00  0.00     0.064 A 
ATOM     74  C   UNL     1      -9.780 -11.324  -6.810  1.00  0.00     0.173 A 
ATOM     75  C   UNL     1     -11.711 -10.184  -5.941  1.00  0.00     0.173 A 
ATOM     76  F   UNL     1      -8.627 -11.987  -6.633  1.00  0.00    -0.203 F 
ATOM     77  C   UNL     1     -10.202 -11.044  -8.107  1.00  0.00     0.198 A 
ATOM     78  C   UNL     1     -12.142  -9.928  -7.239  1.00  0.00     0.198 A 
ATOM     79  F   UNL     1     -12.456  -9.748  -4.914  1.00  0.00    -0.203 F 
ATOM     80  F   UNL     1      -9.456 -11.433  -9.151  1.00  0.00    -0.200 F 
ATOM     81  C   UNL     1     -11.385 -10.353  -8.321  1.00  0.00     0.200 A 
ATOM     82  F   UNL     1     -13.290  -9.267  -7.444  1.00  0.00    -0.200 F 
ATOM     83  F   UNL     1     -11.793 -10.090  -9.570  1.00  0.00    -0.200 F 
ENDBRANCH  59  73
BRANCH  60  84
ATOM     84  C   UNL     1      -7.306 -12.510   3.602  1.00  0.00     0.064 A 
ATOM     85  C   UNL     1      -6.782 -13.749   3.996  1.00  0.00     0.173 A 
ATOM     86  C   UNL     1      -7.428 -11.512   4.580  1.00  0.00     0.173 A 
ATOM     87  F   UNL     1      -6.675 -14.743   3.103  1.00  0.00    -0.203 F 
ATOM     88  C   UNL     1      -6.417 -13.988   5.319  1.00  0.00     0.198 A 
ATOM     89  C   UNL     1      -7.037 -11.743   5.897  1.00  0.00     0.198 A 
ATOM     90  F   UNL     1      -7.929 -10.311   4.256  1.00  0.00    -0.203 F 
ATOM     91  F   UNL     1      -5.966 -15.197   5.679  1.00  0.00    -0.200 F 
ATOM     92  C   UNL     1      -6.540 -12.984   6.267  1.00  0.00     0.200 A 
ATOM     93  F   UNL     1      -7.152 -10.768   6.809  1.00  0.00    -0.200 F 
ATOM     94  F   UNL     1      -6.192 -13.215   7.540  1.00  0.00    -0.200 F 
ENDBRANCH  60  84
BRANCH  72  95
ATOM     95  C   UNL     1     -12.557 -15.065  -0.196  1.00  0.00     0.064 A 
ATOM     96  C   UNL     1     -13.646 -14.769   0.637  1.00  0.00     0.173 A 
ATOM     97  C   UNL     1     -12.514 -16.332  -0.798  1.00  0.00     0.173 A 
ATOM     98  F   UNL     1     -13.725 -13.577   1.246  1.00  0.00    -0.203 F 
ATOM     99  C   UNL     1     -14.642 -15.713   0.873  1.00  0.00     0.198 A 
ATOM    100  C   UNL     1     -13.526 -17.263  -0.581  1.00  0.00     0.198 A 
ATOM    101  F   UNL     1     -11.498 -16.661  -1.609  1.00  0.00    -0.203 F 
ATOM    102  F   UNL     1     -15.653 -15.424   1.704  1.00  0.00    -0.200 F 
ATOM    103  C   UNL     1     -14.585 -16.955   0.259  1.00  0.00     0.200 A 
ATOM    104  F   UNL     1     -13.476 -18.458  -1.186  1.00  0.00    -0.200 F 
ATOM    105  F   UNL     1     -15.550 -17.859   0.480  1.00  0.00    -0.200 F 
ENDBRANCH  72  95
ENDBRANCH  46  47
ENDBRANCH  39  41
ENDBRANCH  38  39
ENDBRANCH  37  38
ENDBRANCH  36  37
ENDBRANCH  35  36
ENDBRANCH  34  35
ENDBRANCH  33  34
ENDBRANCH  32  33
ENDBRANCH   1  32
TORSDOF 24
