REMARK SMILES COc1cc(F)ccc1-c1ccc(=O)n(CC(=O)NCc2ccc(C(=O)OCCOCCOCCOCCOC(=O)c3ccc(-c4c5nc(c(-c6c(F)c(F)c(F)c(F)c6F)c6ccc([nH]6)c(-c6c(F)c(F)c(F)c(F)c6F)c6nc(c(-c7c(F)c(F)c(F)c(F)c7F)c7ccc4[nH]7)C=C6)C=C5)cc3)cc2)n1
REMARK SMILES IDX 31 1 30 2 29 3 28 4 27 5 25 6 26 7 24 8 21 9 22 10 106 11
REMARK SMILES IDX 23 12 105 13 20 14 19 15 17 16 18 17 16 19 15 20 10 21 11 22
REMARK SMILES IDX 107 23 12 24 13 25 14 26 9 27 3 28 4 29 5 30 8 31 6 32 7 33
REMARK SMILES IDX 2 34 1 35 32 36 33 37 34 38 35 39 36 40 37 41 38 42 39 43
REMARK SMILES IDX 40 44 41 45 42 46 43 47 104 48 44 49 103 50 45 51 46 52
REMARK SMILES IDX 47 53 97 54 48 55 102 56 96 57 98 58 49 59 101 60 95 61
REMARK SMILES IDX 94 62 50 64 82 65 62 66 81 67 63 68 66 69 80 70 99 71 64 72
REMARK SMILES IDX 65 73 79 75 100 76 67 77 51 78 52 79 60 80 53 81 54 82 58 83
REMARK SMILES IDX 61 84 55 85 56 86 59 87 57 88 83 89 84 90 92 91 85 92 86 93
REMARK SMILES IDX 90 94 93 95 87 96 88 97 91 98 89 99 68 100 69 101 77 102
REMARK SMILES IDX 70 103 71 104 75 105 78 106 72 107 73 108 76 109 74 110
REMARK H PARENT 19 18 98 63 66 74
REMARK Flexibility Score: inf
ROOT
ATOM      1  C   UNL     1      -5.158  10.173  -1.318  1.00  0.00     0.188 C 
ENDROOT
BRANCH   1   2
ATOM      2  O   UNL     1      -5.210  11.018  -2.461  1.00  0.00    -0.376 OA
BRANCH   2   3
ATOM      3  C   UNL     1      -4.056  11.103  -3.280  1.00  0.00     0.202 C 
BRANCH   3   4
ATOM      4  C   UNL     1      -3.587   9.839  -4.017  1.00  0.00     0.261 C 
BRANCH   4   5
ATOM      5  O   UNL     1      -3.540   8.642  -3.232  1.00  0.00    -0.460 OA
BRANCH   5   6
ATOM      6  C   UNL     1      -2.526   8.494  -2.353  1.00  0.00     0.338 C 
ATOM      7  O   UNL     1      -1.578   9.242  -2.200  1.00  0.00    -0.246 OA
BRANCH   6   8
ATOM      8  C   UNL     1      -2.875   7.367  -1.448  1.00  0.00     0.060 A 
ATOM      9  C   UNL     1      -3.726   5.385   0.373  1.00  0.00    -0.029 A 
ATOM     10  C   UNL     1      -2.982   6.493   0.811  1.00  0.00     0.006 A 
ATOM     11  C   UNL     1      -4.047   5.297  -0.988  1.00  0.00     0.006 A 
ATOM     12  C   UNL     1      -2.564   7.480  -0.088  1.00  0.00     0.016 A 
ATOM     13  C   UNL     1      -3.613   6.267  -1.897  1.00  0.00     0.016 A 
BRANCH   9  14
ATOM     14  C   UNL     1      -4.083   4.294   1.359  1.00  0.00     0.151 C 
BRANCH  14  15
ATOM     15  N   UNL     1      -5.303   3.582   1.043  1.00  0.00    -0.350 N 
ATOM     16  C   UNL     1      -5.472   2.273   0.693  1.00  0.00     0.242 C 
ATOM     17  O   UNL     1      -6.614   1.812   0.797  1.00  0.00    -0.273 OA
ATOM     18  H   UNL     1      -6.128   4.118   1.087  1.00  0.00     0.163 HD
BRANCH  16  19
ATOM     19  C   UNL     1      -4.283   1.367   0.355  1.00  0.00     0.248 C 
BRANCH  19  20
ATOM     20  N   UNL     1      -3.422   1.906  -0.690  1.00  0.00    -0.220 N 
ATOM     21  C   UNL     1      -1.383   2.769  -1.250  1.00  0.00     0.095 A 
ATOM     22  C   UNL     1      -1.769   2.957  -2.660  1.00  0.00     0.037 A 
ATOM     23  N   UNL     1      -2.147   2.286  -0.321  1.00  0.00    -0.169 NA
ATOM     24  C   UNL     1      -2.979   2.515  -3.005  1.00  0.00     0.075 A 
ATOM     25  C   UNL     1      -3.881   1.911  -2.002  1.00  0.00     0.267 A 
ATOM     26  O   UNL     1      -4.984   1.510  -2.362  1.00  0.00    -0.268 OA
BRANCH  21  27
ATOM     27  C   UNL     1      -0.011   3.188  -0.915  1.00  0.00     0.044 A 
ATOM     28  C   UNL     1       0.990   2.223  -0.738  1.00  0.00     0.131 A 
ATOM     29  C   UNL     1       2.286   2.635  -0.424  1.00  0.00     0.086 A 
ATOM     30  C   UNL     1       2.554   3.992  -0.267  1.00  0.00     0.126 A 
ATOM     31  C   UNL     1       0.264   4.551  -0.752  1.00  0.00     0.017 A 
ATOM     32  F   UNL     1       3.800   4.383   0.030  1.00  0.00    -0.207 F 
ATOM     33  C   UNL     1       1.558   4.952  -0.425  1.00  0.00     0.040 A 
BRANCH  28  34
ATOM     34  O   UNL     1       0.685   0.911  -0.985  1.00  0.00    -0.496 OA
ATOM     35  C   UNL     1       1.078   0.035   0.070  1.00  0.00     0.278 C 
ENDBRANCH  28  34
ENDBRANCH  21  27
ENDBRANCH  19  20
ENDBRANCH  16  19
ENDBRANCH  14  15
ENDBRANCH   9  14
ENDBRANCH   6   8
ENDBRANCH   5   6
ENDBRANCH   4   5
ENDBRANCH   3   4
ENDBRANCH   2   3
ENDBRANCH   1   2
BRANCH   1  36
ATOM     36  C   UNL     1      -6.041   8.921  -1.461  1.00  0.00     0.188 C 
BRANCH  36  37
ATOM     37  O   UNL     1      -6.444   8.603  -2.783  1.00  0.00    -0.377 OA
BRANCH  37  38
ATOM     38  C   UNL     1      -7.325   9.493  -3.468  1.00  0.00     0.188 C 
BRANCH  38  39
ATOM     39  C   UNL     1      -7.955  10.746  -2.806  1.00  0.00     0.188 C 
BRANCH  39  40
ATOM     40  O   UNL     1      -8.044  10.699  -1.391  1.00  0.00    -0.376 OA
BRANCH  40  41
ATOM     41  C   UNL     1      -9.335  10.576  -0.820  1.00  0.00     0.202 C 
BRANCH  41  42
ATOM     42  C   UNL     1      -9.998   9.206  -0.993  1.00  0.00     0.261 C 
BRANCH  42  43
ATOM     43  O   UNL     1     -10.144   8.754  -2.346  1.00  0.00    -0.460 OA
BRANCH  43  44
ATOM     44  C   UNL     1     -10.951   9.470  -3.169  1.00  0.00     0.338 C 
ATOM     45  O   UNL     1     -11.578  10.463  -2.908  1.00  0.00    -0.246 OA
BRANCH  44  46
ATOM     46  C   UNL     1     -10.760   8.899  -4.525  1.00  0.00     0.060 A 
ATOM     47  C   UNL     1     -10.937   7.530  -4.734  1.00  0.00     0.016 A 
ATOM     48  C   UNL     1     -10.326   9.727  -5.568  1.00  0.00     0.016 A 
ATOM     49  C   UNL     1     -10.689   6.988  -5.994  1.00  0.00     0.010 A 
ATOM     50  C   UNL     1     -10.069   9.180  -6.830  1.00  0.00     0.010 A 
ATOM     51  C   UNL     1     -10.265   7.809  -7.054  1.00  0.00    -0.014 A 
BRANCH  51  52
ATOM     52  C   UNL     1     -10.206   7.246  -8.425  1.00  0.00     0.031 A 
ATOM     53  C   UNL     1      -8.918   6.843  -9.071  1.00  0.00     0.074 A 
ATOM     54  C   UNL     1     -11.371   7.082  -9.079  1.00  0.00     0.049 A 
ATOM     55  N   UNL     1      -8.731   6.240 -10.220  1.00  0.00    -0.248 NA
ATOM     56  C   UNL     1      -7.679   7.158  -8.348  1.00  0.00     0.031 C 
ATOM     57  C   UNL     1     -12.682   7.465  -8.552  1.00  0.00     0.029 A 
ATOM     58  N   UNL     1     -11.647   6.545 -10.309  1.00  0.00    -0.354 N 
ATOM     59  C   UNL     1      -7.359   6.081 -10.350  1.00  0.00     0.074 A 
ATOM     60  C   UNL     1      -6.755   6.695  -9.184  1.00  0.00     0.031 C 
ATOM     61  C   UNL     1     -13.626   7.124  -9.440  1.00  0.00     0.029 A 
ATOM     62  C   UNL     1     -12.987   6.523 -10.607  1.00  0.00     0.049 A 
ATOM     63  H   UNL     1     -10.953   6.207 -10.920  1.00  0.00     0.167 HD
ATOM     64  C   UNL     1      -6.677   5.463 -11.345  1.00  0.00     0.037 A 
ATOM     65  C   UNL     1     -13.634   6.064 -11.695  1.00  0.00     0.037 A 
ATOM     66  C   UNL     1      -7.291   4.866 -12.508  1.00  0.00     0.049 A 
ATOM     67  C   UNL     1     -12.848   5.418 -12.800  1.00  0.00     0.074 A 
ATOM     68  C   UNL     1      -6.682   4.178 -13.544  1.00  0.00     0.029 A 
ATOM     69  N   UNL     1      -8.648   4.898 -12.797  1.00  0.00    -0.354 N 
ATOM     70  N   UNL     1     -11.557   5.202 -12.876  1.00  0.00    -0.248 NA
ATOM     71  C   UNL     1     -13.606   4.944 -13.965  1.00  0.00     0.031 C 
ATOM     72  C   UNL     1      -7.658   3.850 -14.489  1.00  0.00     0.029 A 
ATOM     73  C   UNL     1      -8.888   4.273 -14.013  1.00  0.00     0.049 A 
ATOM     74  H   UNL     1      -9.338   5.303 -12.224  1.00  0.00     0.167 HD
ATOM     75  C   UNL     1     -11.351   4.548 -14.082  1.00  0.00     0.074 A 
ATOM     76  C   UNL     1     -12.651   4.389 -14.699  1.00  0.00     0.031 C 
ATOM     77  C   UNL     1     -10.185   4.120 -14.625  1.00  0.00     0.037 A 
BRANCH  64  78
ATOM     78  C   UNL     1      -5.181   5.381 -11.236  1.00  0.00     0.064 A 
ATOM     79  C   UNL     1      -4.359   6.063 -12.148  1.00  0.00     0.173 A 
ATOM     80  C   UNL     1      -4.562   4.534 -10.304  1.00  0.00     0.173 A 
ATOM     81  F   UNL     1      -4.898   6.875 -13.069  1.00  0.00    -0.203 F 
ATOM     82  C   UNL     1      -2.977   5.886 -12.141  1.00  0.00     0.198 A 
ATOM     83  C   UNL     1      -3.177   4.382 -10.282  1.00  0.00     0.198 A 
ATOM     84  F   UNL     1      -5.300   3.860  -9.410  1.00  0.00    -0.203 F 
ATOM     85  F   UNL     1      -2.217   6.515 -13.048  1.00  0.00    -0.200 F 
ATOM     86  C   UNL     1      -2.388   5.047 -11.208  1.00  0.00     0.200 A 
ATOM     87  F   UNL     1      -2.607   3.587  -9.366  1.00  0.00    -0.200 F 
ATOM     88  F   UNL     1      -1.058   4.880 -11.200  1.00  0.00    -0.200 F 
ENDBRANCH  64  78
BRANCH  65  89
ATOM     89  C   UNL     1     -15.113   6.173 -11.758  1.00  0.00     0.064 A 
ATOM     90  C   UNL     1     -15.746   7.420 -11.864  1.00  0.00     0.173 A 
ATOM     91  C   UNL     1     -15.924   5.034 -11.664  1.00  0.00     0.173 A 
ATOM     92  F   UNL     1     -15.013   8.540 -11.948  1.00  0.00    -0.203 F 
ATOM     93  C   UNL     1     -17.134   7.526 -11.850  1.00  0.00     0.198 A 
ATOM     94  C   UNL     1     -17.313   5.138 -11.680  1.00  0.00     0.198 A 
ATOM     95  F   UNL     1     -15.364   3.818 -11.576  1.00  0.00    -0.203 F 
ATOM     96  F   UNL     1     -17.713   8.732 -11.911  1.00  0.00    -0.200 F 
ATOM     97  C   UNL     1     -17.917   6.384 -11.763  1.00  0.00     0.200 A 
ATOM     98  F   UNL     1     -18.066   4.032 -11.619  1.00  0.00    -0.200 F 
ATOM     99  F   UNL     1     -19.253   6.485 -11.761  1.00  0.00    -0.200 F 
ENDBRANCH  65  89
BRANCH  77 100
ATOM    100  C   UNL     1     -10.249   3.421 -15.953  1.00  0.00     0.064 A 
ATOM    101  C   UNL     1      -9.948   2.053 -16.053  1.00  0.00     0.173 A 
ATOM    102  C   UNL     1     -10.529   4.118 -17.137  1.00  0.00     0.173 A 
ATOM    103  F   UNL     1      -9.666   1.340 -14.952  1.00  0.00    -0.203 F 
ATOM    104  C   UNL     1      -9.908   1.415 -17.290  1.00  0.00     0.198 A 
ATOM    105  C   UNL     1     -10.518   3.470 -18.370  1.00  0.00     0.198 A 
ATOM    106  F   UNL     1     -10.836   5.423 -17.096  1.00  0.00    -0.203 F 
ATOM    107  F   UNL     1      -9.579   0.118 -17.364  1.00  0.00    -0.200 F 
ATOM    108  C   UNL     1     -10.196   2.123 -18.447  1.00  0.00     0.200 A 
ATOM    109  F   UNL     1     -10.822   4.149 -19.485  1.00  0.00    -0.200 F 
ATOM    110  F   UNL     1     -10.165   1.507 -19.637  1.00  0.00    -0.200 F 
ENDBRANCH  77 100
ENDBRANCH  51  52
ENDBRANCH  44  46
ENDBRANCH  43  44
ENDBRANCH  42  43
ENDBRANCH  41  42
ENDBRANCH  40  41
ENDBRANCH  39  40
ENDBRANCH  38  39
ENDBRANCH  37  38
ENDBRANCH  36  37
ENDBRANCH   1  36
TORSDOF 26
