REMARK SMILES Cc1ccc([C@H](C)Nc2ccc(C(=O)OCCOCCOCCOCCOC(=O)c3ccc(-c4c5nc(c(-c6c(F)c(F)c(F)c(F)c6F)c6ccc([nH]6)c(-c6c(F)c(F)c(F)c(F)c6F)c6nc(c(-c7c(F)c(F)c(F)c(F)c7F)c7ccc4[nH]7)C=C6)C=C5)cc3)cc2Cl)cc1F
REMARK SMILES IDX 20 1 19 2 18 3 17 4 16 5 15 6 13 7 14 8 12 9 9 10 10 11
REMARK SMILES IDX 94 12 11 13 93 14 95 15 8 16 6 18 7 19 5 20 1 21 2 22 3 23
REMARK SMILES IDX 97 24 4 25 96 26 98 27 21 28 22 29 23 30 24 31 25 32 26 33
REMARK SMILES IDX 27 34 28 35 29 36 30 37 31 38 92 39 32 40 91 41 33 42 34 43
REMARK SMILES IDX 35 44 85 45 36 46 90 47 84 48 86 49 37 50 89 51 83 52 82 53
REMARK SMILES IDX 38 55 70 56 50 57 69 58 51 59 54 60 68 61 87 62 52 63 53 64
REMARK SMILES IDX 67 66 88 67 55 68 39 69 40 70 48 71 41 72 42 73 46 74 49 75
REMARK SMILES IDX 43 76 44 77 47 78 45 79 71 80 72 81 80 82 73 83 74 84 78 85
REMARK SMILES IDX 81 86 75 87 76 88 79 89 77 90 56 91 57 92 65 93 58 94 59 95
REMARK SMILES IDX 63 96 66 97 60 98 61 99 64 100 62 101
REMARK H PARENT 8 17 86 54 54 65
REMARK Flexibility Score: inf
ROOT
ATOM      1  C   UNL     1      -7.403  -3.712   5.546  1.00  0.00     0.188 C 
ENDROOT
BRANCH   1   2
ATOM      2  C   UNL     1      -6.950  -2.801   6.706  1.00  0.00     0.188 C 
BRANCH   2   3
ATOM      3  O   UNL     1      -7.991  -2.310   7.526  1.00  0.00    -0.376 OA
BRANCH   3   4
ATOM      4  C   UNL     1      -8.616  -1.073   7.236  1.00  0.00     0.202 C 
BRANCH   4   5
ATOM      5  C   UNL     1      -9.065  -0.730   5.806  1.00  0.00     0.261 C 
BRANCH   5   6
ATOM      6  O   UNL     1      -8.114  -0.956   4.761  1.00  0.00    -0.460 OA
BRANCH   6   7
ATOM      7  C   UNL     1      -6.946  -0.276   4.822  1.00  0.00     0.338 C 
ATOM      8  O   UNL     1      -6.617   0.549   5.641  1.00  0.00    -0.246 OA
BRANCH   7   9
ATOM      9  C   UNL     1      -6.038  -0.896   3.827  1.00  0.00     0.061 A 
ATOM     10  C   UNL     1      -4.312  -2.166   1.996  1.00  0.00     0.053 A 
ATOM     11  C   UNL     1      -3.892  -1.876   3.305  1.00  0.00     0.028 A 
ATOM     12  C   UNL     1      -5.641  -1.839   1.643  1.00  0.00     0.065 A 
ATOM     13  C   UNL     1      -4.737  -1.230   4.210  1.00  0.00     0.018 A 
ATOM     14  C   UNL     1      -6.501  -1.229   2.557  1.00  0.00     0.038 A 
ATOM     15  Cl  UNL     1      -6.339  -2.231   0.109  1.00  0.00    -0.082 Cl
BRANCH  10  16
ATOM     16  N   UNL     1      -3.359  -2.672   1.119  1.00  0.00    -0.377 N 
ATOM     17  H   UNL     1      -2.924  -3.533   1.317  1.00  0.00     0.161 HD
BRANCH  16  18
ATOM     18  C   UNL     1      -2.996  -1.938  -0.098  1.00  0.00     0.106 C 
ATOM     19  C   UNL     1      -1.821  -1.010   0.252  1.00  0.00     0.036 C 
BRANCH  18  20
ATOM     20  C   UNL     1      -2.793  -2.935  -1.235  1.00  0.00    -0.023 A 
ATOM     21  C   UNL     1      -2.824  -5.505  -4.730  1.00  0.00     0.047 C 
ATOM     22  C   UNL     1      -2.765  -4.641  -3.509  1.00  0.00    -0.015 A 
ATOM     23  C   UNL     1      -1.823  -3.618  -3.372  1.00  0.00     0.007 A 
ATOM     24  C   UNL     1      -3.699  -4.820  -2.495  1.00  0.00     0.126 A 
ATOM     25  C   UNL     1      -1.840  -2.772  -2.252  1.00  0.00     0.006 A 
ATOM     26  C   UNL     1      -3.708  -3.996  -1.377  1.00  0.00     0.045 A 
ATOM     27  F   UNL     1      -4.629  -5.780  -2.601  1.00  0.00    -0.207 F 
ENDBRANCH  18  20
ENDBRANCH  16  18
ENDBRANCH  10  16
ENDBRANCH   7   9
ENDBRANCH   6   7
ENDBRANCH   5   6
ENDBRANCH   4   5
ENDBRANCH   3   4
ENDBRANCH   2   3
ENDBRANCH   1   2
BRANCH   1  28
ATOM     28  O   UNL     1      -8.781  -4.028   5.389  1.00  0.00    -0.377 OA
BRANCH  28  29
ATOM     29  C   UNL     1      -9.620  -4.161   6.533  1.00  0.00     0.188 C 
BRANCH  29  30
ATOM     30  C   UNL     1      -9.121  -4.849   7.836  1.00  0.00     0.188 C 
BRANCH  30  31
ATOM     31  O   UNL     1      -7.738  -5.098   7.967  1.00  0.00    -0.376 OA
BRANCH  31  32
ATOM     32  C   UNL     1      -7.075  -6.258   7.521  1.00  0.00     0.202 C 
BRANCH  32  33
ATOM     33  C   UNL     1      -7.611  -7.230   6.485  1.00  0.00     0.261 C 
BRANCH  33  34
ATOM     34  O   UNL     1      -8.365  -6.740   5.377  1.00  0.00    -0.460 OA
BRANCH  34  35
ATOM     35  C   UNL     1      -9.701  -6.824   5.587  1.00  0.00     0.338 C 
ATOM     36  O   UNL     1     -10.220  -7.019   6.678  1.00  0.00    -0.246 OA
BRANCH  35  37
ATOM     37  C   UNL     1     -10.535  -6.880   4.368  1.00  0.00     0.060 A 
ATOM     38  C   UNL     1     -11.896  -7.070   4.672  1.00  0.00     0.016 A 
ATOM     39  C   UNL     1      -9.939  -7.518   3.283  1.00  0.00     0.016 A 
ATOM     40  C   UNL     1     -12.493  -8.232   4.230  1.00  0.00     0.010 A 
ATOM     41  C   UNL     1     -10.543  -8.669   2.829  1.00  0.00     0.010 A 
ATOM     42  C   UNL     1     -11.742  -9.080   3.416  1.00  0.00    -0.014 A 
BRANCH  42  43
ATOM     43  C   UNL     1     -12.212 -10.415   3.114  1.00  0.00     0.031 A 
ATOM     44  C   UNL     1     -13.408 -10.475   2.264  1.00  0.00     0.074 A 
ATOM     45  C   UNL     1     -11.646 -11.513   3.670  1.00  0.00     0.049 A 
ATOM     46  N   UNL     1     -14.387 -11.286   2.451  1.00  0.00    -0.248 NA
ATOM     47  C   UNL     1     -13.655  -9.495   1.205  1.00  0.00     0.031 C 
ATOM     48  C   UNL     1     -11.873 -12.898   3.295  1.00  0.00     0.029 A 
ATOM     49  N   UNL     1     -10.775 -11.604   4.769  1.00  0.00    -0.354 N 
ATOM     50  C   UNL     1     -15.191 -11.181   1.340  1.00  0.00     0.074 A 
ATOM     51  C   UNL     1     -14.806  -9.947   0.698  1.00  0.00     0.031 C 
ATOM     52  C   UNL     1     -11.353 -13.707   4.235  1.00  0.00     0.029 A 
ATOM     53  C   UNL     1     -10.882 -12.891   5.346  1.00  0.00     0.049 A 
ATOM     54  H   UNL     1     -10.183 -10.885   5.088  1.00  0.00     0.167 HD
ATOM     55  C   UNL     1     -15.919 -12.267   0.958  1.00  0.00     0.037 A 
ATOM     56  C   UNL     1     -11.214 -13.132   6.662  1.00  0.00     0.037 A 
ATOM     57  C   UNL     1     -15.710 -13.370   1.895  1.00  0.00     0.049 A 
ATOM     58  C   UNL     1     -12.619 -13.660   6.790  1.00  0.00     0.074 A 
ATOM     59  C   UNL     1     -14.805 -14.420   1.873  1.00  0.00     0.029 A 
ATOM     60  N   UNL     1     -16.141 -13.254   3.214  1.00  0.00    -0.354 N 
ATOM     61  N   UNL     1     -13.472 -13.687   5.811  1.00  0.00    -0.248 NA
ATOM     62  C   UNL     1     -13.186 -14.109   8.056  1.00  0.00     0.031 C 
ATOM     63  C   UNL     1     -14.652 -14.901   3.195  1.00  0.00     0.029 A 
ATOM     64  C   UNL     1     -15.477 -14.161   4.023  1.00  0.00     0.049 A 
ATOM     65  H   UNL     1     -16.823 -12.617   3.527  1.00  0.00     0.167 HD
ATOM     66  C   UNL     1     -14.672 -14.137   6.274  1.00  0.00     0.074 A 
ATOM     67  C   UNL     1     -14.440 -14.406   7.681  1.00  0.00     0.031 C 
ATOM     68  C   UNL     1     -15.752 -14.247   5.450  1.00  0.00     0.037 A 
BRANCH  55  69
ATOM     69  C   UNL     1     -16.437 -12.421  -0.452  1.00  0.00     0.064 A 
ATOM     70  C   UNL     1     -16.379 -13.667  -1.112  1.00  0.00     0.173 A 
ATOM     71  C   UNL     1     -16.946 -11.361  -1.226  1.00  0.00     0.173 A 
ATOM     72  F   UNL     1     -15.992 -14.780  -0.479  1.00  0.00    -0.203 F 
ATOM     73  C   UNL     1     -16.707 -13.819  -2.460  1.00  0.00     0.198 A 
ATOM     74  C   UNL     1     -17.232 -11.503  -2.589  1.00  0.00     0.198 A 
ATOM     75  F   UNL     1     -17.206 -10.167  -0.675  1.00  0.00    -0.203 F 
ATOM     76  F   UNL     1     -16.620 -15.028  -3.032  1.00  0.00    -0.200 F 
ATOM     77  C   UNL     1     -17.105 -12.731  -3.208  1.00  0.00     0.200 A 
ATOM     78  F   UNL     1     -17.627 -10.438  -3.302  1.00  0.00    -0.200 F 
ATOM     79  F   UNL     1     -17.386 -12.871  -4.510  1.00  0.00    -0.200 F 
ENDBRANCH  55  69
BRANCH  56  80
ATOM     80  C   UNL     1     -10.665 -12.232   7.749  1.00  0.00     0.064 A 
ATOM     81  C   UNL     1      -9.267 -12.161   7.756  1.00  0.00     0.173 A 
ATOM     82  C   UNL     1     -11.371 -11.039   7.867  1.00  0.00     0.173 A 
ATOM     83  F   UNL     1      -8.530 -13.262   7.951  1.00  0.00    -0.203 F 
ATOM     84  C   UNL     1      -8.677 -11.038   7.221  1.00  0.00     0.198 A 
ATOM     85  C   UNL     1     -10.823  -9.934   7.268  1.00  0.00     0.198 A 
ATOM     86  F   UNL     1     -12.672 -11.038   8.187  1.00  0.00    -0.203 F 
ATOM     87  F   UNL     1      -7.387 -11.050   6.854  1.00  0.00    -0.200 F 
ATOM     88  C   UNL     1      -9.509 -10.012   6.815  1.00  0.00     0.200 A 
ATOM     89  F   UNL     1     -11.648  -8.942   6.924  1.00  0.00    -0.200 F 
ATOM     90  F   UNL     1      -9.109  -9.304   5.753  1.00  0.00    -0.200 F 
ENDBRANCH  56  80
BRANCH  68  91
ATOM     91  C   UNL     1     -17.131 -14.611   5.910  1.00  0.00     0.064 A 
ATOM     92  C   UNL     1     -17.644 -14.298   7.177  1.00  0.00     0.173 A 
ATOM     93  C   UNL     1     -18.026 -15.238   5.015  1.00  0.00     0.173 A 
ATOM     94  F   UNL     1     -16.945 -13.564   8.053  1.00  0.00    -0.203 F 
ATOM     95  C   UNL     1     -18.922 -14.696   7.564  1.00  0.00     0.198 A 
ATOM     96  C   UNL     1     -19.329 -15.558   5.377  1.00  0.00     0.198 A 
ATOM     97  F   UNL     1     -17.669 -15.548   3.760  1.00  0.00    -0.203 F 
ATOM     98  F   UNL     1     -19.339 -14.458   8.815  1.00  0.00    -0.200 F 
ATOM     99  C   UNL     1     -19.766 -15.319   6.662  1.00  0.00     0.200 A 
ATOM    100  F   UNL     1     -20.155 -16.094   4.469  1.00  0.00    -0.200 F 
ATOM    101  F   UNL     1     -21.005 -15.670   7.026  1.00  0.00    -0.200 F 
ENDBRANCH  68  91
ENDBRANCH  42  43
ENDBRANCH  35  37
ENDBRANCH  34  35
ENDBRANCH  33  34
ENDBRANCH  32  33
ENDBRANCH  31  32
ENDBRANCH  30  31
ENDBRANCH  29  30
ENDBRANCH  28  29
ENDBRANCH   1  28
TORSDOF 23
