REMARK SMILES CC(C)(C)c1ccc(NS(=O)(=O)c2cccc(C(=O)OCCOCCOCCOCCOC(=O)c3ccc(-c4c5nc(c(-c6c(F)c(F)c(F)c(F)c6F)c6ccc([nH]6)c(-c6c(F)c(F)c(F)c(F)c6F)c6nc(c(-c7c(F)c(F)c(F)c(F)c7F)c7ccc4[nH]7)C=C6)C=C5)cc3)c2)cc1
REMARK SMILES IDX 25 1 24 2 23 3 22 4 21 5 20 6 18 7 19 8 17 9 13 10 14 11
REMARK SMILES IDX 98 12 15 13 16 14 10 15 11 16 12 17 9 18 8 20 5 21 6 22
REMARK SMILES IDX 100 23 7 24 99 25 2 26 1 27 3 28 4 29 26 30 27 31 28 32
REMARK SMILES IDX 29 33 30 34 31 35 32 36 33 37 34 38 35 39 36 40 97 41 37 42
REMARK SMILES IDX 96 43 38 44 39 45 40 46 90 47 41 48 95 49 89 50 91 51 42 52
REMARK SMILES IDX 94 53 88 54 87 55 43 57 75 58 55 59 74 60 56 61 59 62 73 63
REMARK SMILES IDX 92 64 57 65 58 66 72 68 93 69 60 70 44 71 45 72 53 73 46 74
REMARK SMILES IDX 47 75 51 76 54 77 48 78 49 79 52 80 50 81 76 82 77 83 85 84
REMARK SMILES IDX 78 85 79 86 83 87 86 88 80 89 81 90 84 91 82 92 61 93 62 94
REMARK SMILES IDX 70 95 63 96 64 97 68 98 71 99 65 100 66 101 69 102 67 103
REMARK H PARENT 9 19 91 56 59 67
REMARK Flexibility Score: inf
ROOT
ATOM      1  C   UNL     1      -3.847  -8.083   2.618  1.00  0.00     0.188 C 
ENDROOT
BRANCH   1   2
ATOM      2  C   UNL     1      -5.107  -7.931   1.742  1.00  0.00     0.188 C 
BRANCH   2   3
ATOM      3  O   UNL     1      -5.870  -9.120   1.625  1.00  0.00    -0.376 OA
BRANCH   3   4
ATOM      4  C   UNL     1      -5.850  -9.833   0.403  1.00  0.00     0.202 C 
BRANCH   4   5
ATOM      5  C   UNL     1      -4.508 -10.360  -0.137  1.00  0.00     0.261 C 
BRANCH   5   6
ATOM      6  O   UNL     1      -3.397  -9.456  -0.063  1.00  0.00    -0.460 OA
BRANCH   6   7
ATOM      7  C   UNL     1      -3.415  -8.436  -0.945  1.00  0.00     0.338 C 
ATOM      8  O   UNL     1      -4.264  -8.245  -1.801  1.00  0.00    -0.246 OA
BRANCH   7   9
ATOM      9  C   UNL     1      -2.340  -7.458  -0.633  1.00  0.00     0.061 A 
ATOM     10  C   UNL     1      -0.090  -6.834   0.046  1.00  0.00     0.088 A 
ATOM     11  C   UNL     1      -0.328  -5.538  -0.406  1.00  0.00     0.022 A 
ATOM     12  C   UNL     1      -1.095  -7.813  -0.095  1.00  0.00     0.038 A 
ATOM     13  C   UNL     1      -1.612  -5.157  -0.796  1.00  0.00     0.002 A 
ATOM     14  C   UNL     1      -2.616  -6.113  -0.905  1.00  0.00     0.016 A 
BRANCH  10  15
ATOM     15  S   UNL     1       1.440  -7.335   0.809  1.00  0.00     0.261 S 
ATOM     16  O   UNL     1       2.294  -7.761  -0.283  1.00  0.00    -0.201 OA
ATOM     17  O   UNL     1       1.092  -8.261   1.866  1.00  0.00    -0.201 OA
BRANCH  15  18
ATOM     18  N   UNL     1       2.310  -6.090   1.558  1.00  0.00    -0.280 N 
ATOM     19  H   UNL     1       3.186  -6.322   1.941  1.00  0.00     0.180 HD
BRANCH  18  20
ATOM     20  C   UNL     1       1.886  -4.736   1.682  1.00  0.00     0.049 A 
ATOM     21  C   UNL     1       1.075  -2.023   1.575  1.00  0.00    -0.042 A 
ATOM     22  C   UNL     1       0.228  -3.027   2.083  1.00  0.00     0.006 A 
ATOM     23  C   UNL     1       2.396  -2.398   1.284  1.00  0.00     0.006 A 
ATOM     24  C   UNL     1       0.643  -4.366   2.178  1.00  0.00     0.027 A 
ATOM     25  C   UNL     1       2.794  -3.737   1.329  1.00  0.00     0.027 A 
BRANCH  21  26
ATOM     26  C   UNL     1       0.612  -0.568   1.370  1.00  0.00    -0.013 C 
ATOM     27  C   UNL     1       1.187   0.038   0.065  1.00  0.00     0.016 C 
ATOM     28  C   UNL     1       1.094   0.276   2.563  1.00  0.00     0.016 C 
ATOM     29  C   UNL     1      -0.924  -0.432   1.259  1.00  0.00     0.016 C 
ENDBRANCH  21  26
ENDBRANCH  18  20
ENDBRANCH  15  18
ENDBRANCH  10  15
ENDBRANCH   7   9
ENDBRANCH   6   7
ENDBRANCH   5   6
ENDBRANCH   4   5
ENDBRANCH   3   4
ENDBRANCH   2   3
ENDBRANCH   1   2
BRANCH   1  30
ATOM     30  O   UNL     1      -3.397  -9.395   2.920  1.00  0.00    -0.377 OA
BRANCH  30  31
ATOM     31  C   UNL     1      -4.289 -10.341   3.506  1.00  0.00     0.188 C 
BRANCH  31  32
ATOM     32  C   UNL     1      -5.599  -9.920   4.216  1.00  0.00     0.188 C 
BRANCH  32  33
ATOM     33  O   UNL     1      -5.708  -8.533   4.485  1.00  0.00    -0.376 OA
BRANCH  33  34
ATOM     34  C   UNL     1      -5.591  -8.113   5.831  1.00  0.00     0.202 C 
BRANCH  34  35
ATOM     35  C   UNL     1      -4.236  -8.348   6.511  1.00  0.00     0.261 C 
BRANCH  35  36
ATOM     36  O   UNL     1      -3.726  -9.689   6.460  1.00  0.00    -0.460 OA
BRANCH  36  37
ATOM     37  C   UNL     1      -4.401 -10.639   7.139  1.00  0.00     0.338 C 
ATOM     38  O   UNL     1      -5.413 -10.495   7.807  1.00  0.00    -0.246 OA
BRANCH  37  39
ATOM     39  C   UNL     1      -3.807 -11.945   6.787  1.00  0.00     0.060 A 
ATOM     40  C   UNL     1      -4.597 -12.912   6.152  1.00  0.00     0.016 A 
ATOM     41  C   UNL     1      -2.464 -12.202   7.071  1.00  0.00     0.016 A 
ATOM     42  C   UNL     1      -4.052 -14.156   5.828  1.00  0.00     0.010 A 
ATOM     43  C   UNL     1      -1.926 -13.454   6.767  1.00  0.00     0.010 A 
ATOM     44  C   UNL     1      -2.727 -14.448   6.175  1.00  0.00    -0.014 A 
BRANCH  44  45
ATOM     45  C   UNL     1      -2.233 -15.845   6.107  1.00  0.00     0.031 A 
ATOM     46  C   UNL     1      -2.227 -16.658   7.372  1.00  0.00     0.074 A 
ATOM     47  C   UNL     1      -1.804 -16.385   4.953  1.00  0.00     0.049 A 
ATOM     48  N   UNL     1      -1.782 -17.870   7.584  1.00  0.00    -0.248 NA
ATOM     49  C   UNL     1      -2.799 -16.009   8.563  1.00  0.00     0.031 C 
ATOM     50  C   UNL     1      -1.799 -15.713   3.657  1.00  0.00     0.029 A 
ATOM     51  N   UNL     1      -1.277 -17.626   4.695  1.00  0.00    -0.354 N 
ATOM     52  C   UNL     1      -2.010 -18.123   8.931  1.00  0.00     0.074 A 
ATOM     53  C   UNL     1      -2.602 -16.930   9.494  1.00  0.00     0.031 C 
ATOM     54  C   UNL     1      -1.277 -16.547   2.739  1.00  0.00     0.029 A 
ATOM     55  C   UNL     1      -0.878 -17.793   3.392  1.00  0.00     0.049 A 
ATOM     56  H   UNL     1      -1.192 -18.329   5.379  1.00  0.00     0.167 HD
ATOM     57  C   UNL     1      -1.755 -19.253   9.632  1.00  0.00     0.037 A 
ATOM     58  C   UNL     1      -0.240 -18.825   2.805  1.00  0.00     0.037 A 
ATOM     59  C   UNL     1      -1.159 -20.435   9.068  1.00  0.00     0.049 A 
ATOM     60  C   UNL     1       0.109 -20.042   3.627  1.00  0.00     0.074 A 
ATOM     61  C   UNL     1      -0.875 -21.638   9.689  1.00  0.00     0.029 A 
ATOM     62  N   UNL     1      -0.743 -20.556   7.750  1.00  0.00    -0.354 N 
ATOM     63  N   UNL     1      -0.135 -20.289   4.891  1.00  0.00    -0.248 NA
ATOM     64  C   UNL     1       0.820 -21.128   2.935  1.00  0.00     0.031 C 
ATOM     65  C   UNL     1      -0.228 -22.464   8.765  1.00  0.00     0.029 A 
ATOM     66  C   UNL     1      -0.176 -21.805   7.547  1.00  0.00     0.049 A 
ATOM     67  H   UNL     1      -0.837 -19.860   7.061  1.00  0.00     0.167 HD
ATOM     68  C   UNL     1       0.358 -21.566   5.137  1.00  0.00     0.074 A 
ATOM     69  C   UNL     1       0.905 -22.047   3.886  1.00  0.00     0.031 C 
ATOM     70  C   UNL     1       0.354 -22.276   6.292  1.00  0.00     0.037 A 
BRANCH  57  71
ATOM     71  C   UNL     1      -2.088 -19.249  11.097  1.00  0.00     0.064 A 
ATOM     72  C   UNL     1      -3.414 -19.225  11.556  1.00  0.00     0.173 A 
ATOM     73  C   UNL     1      -1.064 -19.296  12.055  1.00  0.00     0.173 A 
ATOM     74  F   UNL     1      -4.431 -19.165  10.683  1.00  0.00    -0.203 F 
ATOM     75  C   UNL     1      -3.700 -19.216  12.919  1.00  0.00     0.198 A 
ATOM     76  C   UNL     1      -1.355 -19.323  13.416  1.00  0.00     0.198 A 
ATOM     77  F   UNL     1       0.222 -19.323  11.671  1.00  0.00    -0.203 F 
ATOM     78  F   UNL     1      -4.972 -19.137  13.335  1.00  0.00    -0.200 F 
ATOM     79  C   UNL     1      -2.671 -19.273  13.847  1.00  0.00     0.200 A 
ATOM     80  F   UNL     1      -0.359 -19.393  14.311  1.00  0.00    -0.200 F 
ATOM     81  F   UNL     1      -2.948 -19.274  15.158  1.00  0.00    -0.200 F 
ENDBRANCH  57  71
BRANCH  58  82
ATOM     82  C   UNL     1       0.128 -18.753   1.365  1.00  0.00     0.064 A 
ATOM     83  C   UNL     1      -0.465 -19.605   0.423  1.00  0.00     0.173 A 
ATOM     84  C   UNL     1       1.098 -17.850   0.906  1.00  0.00     0.173 A 
ATOM     85  F   UNL     1      -1.377 -20.506   0.815  1.00  0.00    -0.203 F 
ATOM     86  C   UNL     1      -0.087 -19.571  -0.918  1.00  0.00     0.198 A 
ATOM     87  C   UNL     1       1.452 -17.794  -0.441  1.00  0.00     0.198 A 
ATOM     88  F   UNL     1       1.702 -17.017   1.766  1.00  0.00    -0.203 F 
ATOM     89  F   UNL     1      -0.631 -20.434  -1.787  1.00  0.00    -0.200 F 
ATOM     90  C   UNL     1       0.866 -18.661  -1.351  1.00  0.00     0.200 A 
ATOM     91  F   UNL     1       2.365 -16.905  -0.856  1.00  0.00    -0.200 F 
ATOM     92  F   UNL     1       1.227 -18.627  -2.640  1.00  0.00    -0.200 F 
ENDBRANCH  58  82
BRANCH  70  93
ATOM     93  C   UNL     1       0.910 -23.673   6.253  1.00  0.00     0.064 A 
ATOM     94  C   UNL     1       2.281 -23.924   6.095  1.00  0.00     0.173 A 
ATOM     95  C   UNL     1       0.059 -24.776   6.427  1.00  0.00     0.173 A 
ATOM     96  F   UNL     1       3.137 -22.907   5.913  1.00  0.00    -0.203 F 
ATOM     97  C   UNL     1       2.774 -25.227   6.083  1.00  0.00     0.198 A 
ATOM     98  C   UNL     1       0.560 -26.075   6.452  1.00  0.00     0.198 A 
ATOM     99  F   UNL     1      -1.260 -24.594   6.593  1.00  0.00    -0.203 F 
ATOM    100  F   UNL     1       4.080 -25.444   5.878  1.00  0.00    -0.200 F 
ATOM    101  C   UNL     1       1.915 -26.299   6.271  1.00  0.00     0.200 A 
ATOM    102  F   UNL     1      -0.270 -27.108   6.653  1.00  0.00    -0.200 F 
ATOM    103  F   UNL     1       2.394 -27.551   6.271  1.00  0.00    -0.200 F 
ENDBRANCH  70  93
ENDBRANCH  44  45
ENDBRANCH  37  39
ENDBRANCH  36  37
ENDBRANCH  35  36
ENDBRANCH  34  35
ENDBRANCH  33  34
ENDBRANCH  32  33
ENDBRANCH  31  32
ENDBRANCH  30  31
ENDBRANCH   1  30
TORSDOF 24
