REMARK SMILES Cc1ccc(Cn2nc(C)c3c(C(=O)OCCOCCOCCOCCOC(=O)c4ccc(-c5c6nc(c(-c7c(F)c(F)c(F)c(F)c7F)c7ccc([nH]7)c(-c7c(F)c(F)c(F)c(F)c7F)c7nc(c(-c8c(F)c(F)c(F)c(F)c8F)c8ccc5[nH]8)C=C7)C=C6)cc4)cc(-c4ccccc4)nc32)cc1
REMARK SMILES IDX 21 1 20 2 19 3 18 4 17 5 16 6 15 7 13 8 14 9 12 10 7 11 8 12
REMARK SMILES IDX 102 13 9 14 11 15 101 16 10 17 94 18 93 19 6 20 5 21 1 22
REMARK SMILES IDX 2 23 3 24 104 25 4 26 103 27 95 28 96 29 100 30 97 31 99 32
REMARK SMILES IDX 98 33 22 34 23 35 24 36 25 37 26 38 27 39 28 40 29 41 30 42
REMARK SMILES IDX 31 43 92 44 32 45 91 46 33 47 34 48 35 49 85 50 36 51 90 52
REMARK SMILES IDX 84 53 86 54 37 55 89 56 83 57 82 58 38 60 70 61 50 62 69 63
REMARK SMILES IDX 51 64 54 65 68 66 87 67 52 68 53 69 67 71 88 72 55 73 39 74
REMARK SMILES IDX 40 75 48 76 41 77 42 78 46 79 49 80 43 81 44 82 47 83 45 84
REMARK SMILES IDX 71 85 72 86 80 87 73 88 74 89 78 90 81 91 75 92 76 93 79 94
REMARK SMILES IDX 77 95 56 96 57 97 65 98 58 99 59 100 63 101 66 102 60 103
REMARK SMILES IDX 61 104 64 105 62 106
REMARK H PARENT 86 59 54 70
REMARK Flexibility Score: inf
ROOT
ATOM      1  O   UNL     1      -4.691  -0.413  -6.340  1.00  0.00    -0.377 OA
ENDROOT
BRANCH   1   2
ATOM      2  C   UNL     1      -3.446  -0.326  -5.641  1.00  0.00     0.188 C 
BRANCH   2   3
ATOM      3  C   UNL     1      -2.966  -1.599  -4.928  1.00  0.00     0.188 C 
BRANCH   3   4
ATOM      4  O   UNL     1      -2.952  -2.818  -5.664  1.00  0.00    -0.376 OA
BRANCH   4   5
ATOM      5  C   UNL     1      -4.225  -3.411  -5.942  1.00  0.00     0.202 C 
BRANCH   5   6
ATOM      6  C   UNL     1      -5.110  -3.618  -4.724  1.00  0.00     0.261 C 
BRANCH   6   7
ATOM      7  O   UNL     1      -5.618  -2.330  -4.345  1.00  0.00    -0.460 OA
BRANCH   7   8
ATOM      8  C   UNL     1      -6.159  -2.213  -3.126  1.00  0.00     0.339 C 
ATOM      9  O   UNL     1      -6.582  -3.071  -2.384  1.00  0.00    -0.246 OA
BRANCH   8  10
ATOM     10  C   UNL     1      -5.760  -0.914  -2.619  1.00  0.00     0.075 A 
ATOM     11  N   UNL     1      -3.495  -0.037  -0.114  1.00  0.00    -0.243 N 
ATOM     12  N   UNL     1      -3.260  -1.365  -0.026  1.00  0.00    -0.175 NA
ATOM     13  C   UNL     1      -4.425   0.292  -1.075  1.00  0.00     0.159 A 
ATOM     14  C   UNL     1      -3.904  -1.891  -1.057  1.00  0.00     0.070 A 
ATOM     15  C   UNL     1      -4.766  -0.929  -1.642  1.00  0.00     0.056 A 
ATOM     16  N   UNL     1      -4.926   1.506  -1.421  1.00  0.00    -0.228 NA
ATOM     17  C   UNL     1      -3.589  -3.296  -1.404  1.00  0.00     0.069 C 
ATOM     18  C   UNL     1      -5.889   1.456  -2.398  1.00  0.00     0.074 A 
ATOM     19  C   UNL     1      -6.331   0.283  -3.015  1.00  0.00     0.045 A 
BRANCH  11  20
ATOM     20  C   UNL     1      -2.783   0.813   0.826  1.00  0.00     0.182 C 
BRANCH  20  21
ATOM     21  C   UNL     1      -1.278   0.662   0.672  1.00  0.00    -0.026 A 
ATOM     22  C   UNL     1       2.947   0.153  -0.093  1.00  0.00     0.044 C 
ATOM     23  C   UNL     1       1.492   0.346   0.211  1.00  0.00    -0.051 A 
ATOM     24  C   UNL     1       0.724  -0.741   0.625  1.00  0.00     0.004 A 
ATOM     25  C   UNL     1       0.874   1.592   0.047  1.00  0.00     0.004 A 
ATOM     26  C   UNL     1      -0.635  -0.575   0.885  1.00  0.00     0.006 A 
ATOM     27  C   UNL     1      -0.498   1.748   0.270  1.00  0.00     0.006 A 
ENDBRANCH  20  21
ENDBRANCH  11  20
BRANCH  18  28
ATOM     28  C   UNL     1      -6.507   2.736  -2.805  1.00  0.00     0.000 A 
ATOM     29  C   UNL     1      -5.755   3.770  -3.385  1.00  0.00     0.010 A 
ATOM     30  C   UNL     1      -7.903   2.916  -2.714  1.00  0.00     0.010 A 
ATOM     31  C   UNL     1      -6.378   4.924  -3.881  1.00  0.00     0.001 A 
ATOM     32  C   UNL     1      -8.525   4.068  -3.204  1.00  0.00     0.001 A 
ATOM     33  C   UNL     1      -7.762   5.069  -3.795  1.00  0.00     0.000 A 
ENDBRANCH  18  28
ENDBRANCH   8  10
ENDBRANCH   7   8
ENDBRANCH   6   7
ENDBRANCH   5   6
ENDBRANCH   4   5
ENDBRANCH   3   4
ENDBRANCH   2   3
ENDBRANCH   1   2
BRANCH   1  34
ATOM     34  C   UNL     1      -4.633   0.283  -7.591  1.00  0.00     0.188 C 
BRANCH  34  35
ATOM     35  C   UNL     1      -4.254  -0.653  -8.737  1.00  0.00     0.188 C 
BRANCH  35  36
ATOM     36  O   UNL     1      -3.225  -1.579  -8.425  1.00  0.00    -0.376 OA
BRANCH  36  37
ATOM     37  C   UNL     1      -1.881  -1.224  -8.718  1.00  0.00     0.202 C 
BRANCH  37  38
ATOM     38  C   UNL     1      -1.579  -1.101 -10.217  1.00  0.00     0.261 C 
BRANCH  38  39
ATOM     39  O   UNL     1      -2.025  -2.288 -10.898  1.00  0.00    -0.460 OA
BRANCH  39  40
ATOM     40  C   UNL     1      -3.172  -2.137 -11.616  1.00  0.00     0.338 C 
ATOM     41  O   UNL     1      -3.413  -1.211 -12.374  1.00  0.00    -0.246 OA
BRANCH  40  42
ATOM     42  C   UNL     1      -4.208  -3.077 -11.095  1.00  0.00     0.060 A 
ATOM     43  C   UNL     1      -5.566  -2.785 -11.309  1.00  0.00     0.016 A 
ATOM     44  C   UNL     1      -3.853  -4.020 -10.136  1.00  0.00     0.016 A 
ATOM     45  C   UNL     1      -6.546  -3.298 -10.440  1.00  0.00     0.010 A 
ATOM     46  C   UNL     1      -4.819  -4.473  -9.251  1.00  0.00     0.010 A 
ATOM     47  C   UNL     1      -6.166  -4.074  -9.342  1.00  0.00    -0.014 A 
BRANCH  47  48
ATOM     48  C   UNL     1      -7.019  -4.333  -8.153  1.00  0.00     0.031 A 
ATOM     49  C   UNL     1      -6.987  -5.687  -7.474  1.00  0.00     0.074 A 
ATOM     50  C   UNL     1      -7.526  -3.272  -7.458  1.00  0.00     0.049 A 
ATOM     51  N   UNL     1      -7.587  -5.965  -6.362  1.00  0.00    -0.248 NA
ATOM     52  C   UNL     1      -6.244  -6.853  -7.960  1.00  0.00     0.031 C 
ATOM     53  C   UNL     1      -7.856  -3.274  -6.036  1.00  0.00     0.029 A 
ATOM     54  N   UNL     1      -7.766  -1.920  -7.809  1.00  0.00    -0.354 N 
ATOM     55  C   UNL     1      -6.974  -7.058  -5.794  1.00  0.00     0.074 A 
ATOM     56  C   UNL     1      -6.265  -7.662  -6.891  1.00  0.00     0.031 C 
ATOM     57  C   UNL     1      -8.286  -2.083  -5.617  1.00  0.00     0.029 A 
ATOM     58  C   UNL     1      -8.633  -1.385  -6.812  1.00  0.00     0.049 A 
ATOM     59  H   UNL     1      -7.403  -1.442  -8.590  1.00  0.00     0.167 HD
ATOM     60  C   UNL     1      -7.019  -7.216  -4.434  1.00  0.00     0.037 A 
ATOM     61  C   UNL     1      -9.942  -1.066  -7.043  1.00  0.00     0.037 A 
ATOM     62  C   UNL     1      -7.988  -6.302  -3.797  1.00  0.00     0.049 A 
ATOM     63  C   UNL     1     -10.899  -1.924  -6.226  1.00  0.00     0.074 A 
ATOM     64  C   UNL     1      -7.943  -5.465  -2.699  1.00  0.00     0.029 A 
ATOM     65  N   UNL     1      -9.238  -6.062  -4.391  1.00  0.00    -0.354 N 
ATOM     66  N   UNL     1     -10.622  -3.160  -5.878  1.00  0.00    -0.248 NA
ATOM     67  C   UNL     1     -12.112  -1.435  -5.574  1.00  0.00     0.031 C 
ATOM     68  C   UNL     1      -9.096  -4.631  -2.717  1.00  0.00     0.029 A 
ATOM     69  C   UNL     1      -9.899  -5.018  -3.777  1.00  0.00     0.049 A 
ATOM     70  H   UNL     1      -9.597  -6.574  -5.151  1.00  0.00     0.167 HD
ATOM     71  C   UNL     1     -11.472  -3.560  -4.884  1.00  0.00     0.074 A 
ATOM     72  C   UNL     1     -12.443  -2.481  -4.789  1.00  0.00     0.031 C 
ATOM     73  C   UNL     1     -11.274  -4.667  -4.103  1.00  0.00     0.037 A 
BRANCH  60  74
ATOM     74  C   UNL     1      -6.053  -8.082  -3.606  1.00  0.00     0.064 A 
ATOM     75  C   UNL     1      -6.262  -8.294  -2.219  1.00  0.00     0.173 A 
ATOM     76  C   UNL     1      -4.848  -8.643  -4.087  1.00  0.00     0.173 A 
ATOM     77  F   UNL     1      -7.358  -7.837  -1.600  1.00  0.00    -0.203 F 
ATOM     78  C   UNL     1      -5.354  -8.987  -1.402  1.00  0.00     0.198 A 
ATOM     79  C   UNL     1      -3.981  -9.403  -3.286  1.00  0.00     0.198 A 
ATOM     80  F   UNL     1      -4.418  -8.434  -5.335  1.00  0.00    -0.203 F 
ATOM     81  F   UNL     1      -5.582  -9.088  -0.084  1.00  0.00    -0.200 F 
ATOM     82  C   UNL     1      -4.225  -9.564  -1.941  1.00  0.00     0.200 A 
ATOM     83  F   UNL     1      -2.890  -9.959  -3.834  1.00  0.00    -0.200 F 
ATOM     84  F   UNL     1      -3.373 -10.256  -1.171  1.00  0.00    -0.200 F 
ENDBRANCH  60  74
BRANCH  61  85
ATOM     85  C   UNL     1     -10.098  -0.348  -8.328  1.00  0.00     0.064 A 
ATOM     86  C   UNL     1      -9.539   0.949  -8.342  1.00  0.00     0.173 A 
ATOM     87  C   UNL     1     -10.098  -1.068  -9.531  1.00  0.00     0.173 A 
ATOM     88  F   UNL     1      -9.521   1.678  -7.214  1.00  0.00    -0.203 F 
ATOM     89  C   UNL     1      -8.813   1.408  -9.439  1.00  0.00     0.198 A 
ATOM     90  C   UNL     1      -9.380  -0.594 -10.634  1.00  0.00     0.198 A 
ATOM     91  F   UNL     1     -10.612  -2.304  -9.578  1.00  0.00    -0.203 F 
ATOM     92  F   UNL     1      -8.126   2.556  -9.353  1.00  0.00    -0.200 F 
ATOM     93  C   UNL     1      -8.696   0.613 -10.566  1.00  0.00     0.200 A 
ATOM     94  F   UNL     1      -9.240  -1.367 -11.722  1.00  0.00    -0.200 F 
ATOM     95  F   UNL     1      -7.872   0.980 -11.559  1.00  0.00    -0.200 F 
ENDBRANCH  61  85
BRANCH  73  96
ATOM     96  C   UNL     1     -12.365  -5.475  -3.435  1.00  0.00     0.064 A 
ATOM     97  C   UNL     1     -13.700  -5.445  -3.866  1.00  0.00     0.173 A 
ATOM     98  C   UNL     1     -12.051  -6.499  -2.501  1.00  0.00     0.173 A 
ATOM     99  F   UNL     1     -14.110  -4.580  -4.803  1.00  0.00    -0.203 F 
ATOM    100  C   UNL     1     -14.648  -6.354  -3.390  1.00  0.00     0.198 A 
ATOM    101  C   UNL     1     -12.989  -7.427  -2.060  1.00  0.00     0.198 A 
ATOM    102  F   UNL     1     -10.814  -6.676  -2.018  1.00  0.00    -0.203 F 
ATOM    103  F   UNL     1     -15.910  -6.281  -3.832  1.00  0.00    -0.200 F 
ATOM    104  C   UNL     1     -14.290  -7.353  -2.503  1.00  0.00     0.200 A 
ATOM    105  F   UNL     1     -12.612  -8.415  -1.236  1.00  0.00    -0.200 F 
ATOM    106  F   UNL     1     -15.191  -8.255  -2.095  1.00  0.00    -0.200 F 
ENDBRANCH  73  96
ENDBRANCH  47  48
ENDBRANCH  40  42
ENDBRANCH  39  40
ENDBRANCH  38  39
ENDBRANCH  37  38
ENDBRANCH  36  37
ENDBRANCH  35  36
ENDBRANCH  34  35
ENDBRANCH   1  34
TORSDOF 23
