REMARK SMILES CC(C)(C)c1cc2c(cc1Cl)C=C(C(=O)OCCOCCOCCOCCOC(=O)c1ccc(-c3c4nc(c(-c5c(F)c(F)c(F)c(F)c5F)c5ccc([nH]5)c(-c5c(F)c(F)c(F)c(F)c5F)c5nc(c(-c6c(F)c(F)c(F)c(F)c6F)c6ccc3[nH]6)C=C5)C=C4)cc1)[C@@H](C(F)(F)F)O2
REMARK SMILES IDX 23 1 22 2 21 3 20 4 19 5 18 6 17 7 16 8 14 9 15 10 13 11
REMARK SMILES IDX 5 12 6 13 10 14 7 15 9 16 11 17 8 18 99 19 12 20 94 21 2 22
REMARK SMILES IDX 1 23 3 24 4 25 95 26 96 27 97 28 98 29 24 30 25 31 26 32
REMARK SMILES IDX 27 33 28 34 29 35 30 36 31 37 32 38 93 39 33 40 92 41 34 42
REMARK SMILES IDX 35 43 36 44 86 45 37 46 91 47 85 48 87 49 38 50 90 51 84 52
REMARK SMILES IDX 83 53 39 55 71 56 51 57 70 58 52 59 55 60 69 61 88 62 53 63
REMARK SMILES IDX 54 64 68 66 89 67 56 68 40 69 41 70 49 71 42 72 43 73 47 74
REMARK SMILES IDX 50 75 44 76 45 77 48 78 46 79 72 80 73 81 81 82 74 83 75 84
REMARK SMILES IDX 79 85 82 86 76 87 77 88 80 89 78 90 57 91 58 92 66 93 59 94
REMARK SMILES IDX 60 95 64 96 67 97 61 98 62 99 65 100 63 101
REMARK H PARENT 87 54 55 65
REMARK Flexibility Score: inf
ROOT
ATOM      1  C   UNL     1      -0.734   7.763   8.101  1.00  0.00     0.188 C 
ENDROOT
BRANCH   1   2
ATOM      2  O   UNL     1      -0.031   7.212   6.986  1.00  0.00    -0.377 OA
BRANCH   2   3
ATOM      3  C   UNL     1       0.231   5.818   6.993  1.00  0.00     0.188 C 
BRANCH   3   4
ATOM      4  C   UNL     1       1.439   5.434   7.867  1.00  0.00     0.188 C 
BRANCH   4   5
ATOM      5  O   UNL     1       1.882   6.499   8.706  1.00  0.00    -0.376 OA
BRANCH   5   6
ATOM      6  C   UNL     1       3.057   7.194   8.308  1.00  0.00     0.202 C 
BRANCH   6   7
ATOM      7  C   UNL     1       2.958   8.057   7.041  1.00  0.00     0.261 C 
BRANCH   7   8
ATOM      8  O   UNL     1       2.554   7.352   5.856  1.00  0.00    -0.460 OA
BRANCH   8   9
ATOM      9  C   UNL     1       3.395   6.416   5.376  1.00  0.00     0.338 C 
ATOM     10  O   UNL     1       4.506   6.150   5.796  1.00  0.00    -0.246 OA
BRANCH   9  11
ATOM     11  C   UNL     1       2.670   5.637   4.348  1.00  0.00     0.087 C 
ATOM     12  C   UNL     1       0.905   1.989   1.306  1.00  0.00    -0.020 A 
ATOM     13  C   UNL     1       0.762   3.400   1.402  1.00  0.00     0.053 A 
ATOM     14  C   UNL     1       1.540   1.366   2.399  1.00  0.00     0.045 A 
ATOM     15  C   UNL     1       1.333   4.154   2.432  1.00  0.00     0.128 A 
ATOM     16  C   UNL     1       2.118   2.128   3.433  1.00  0.00     0.032 A 
ATOM     17  Cl  UNL     1       1.675  -0.340   2.639  1.00  0.00    -0.084 Cl
ATOM     18  C   UNL     1       2.060   3.521   3.426  1.00  0.00     0.019 A 
ATOM     19  O   UNL     1       1.151   5.504   2.365  1.00  0.00    -0.475 OA
ATOM     20  C   UNL     1       2.778   4.304   4.415  1.00  0.00     0.027 C 
ATOM     21  C   UNL     1       1.799   6.358   3.350  1.00  0.00     0.316 C 
BRANCH  12  22
ATOM     22  C   UNL     1       0.379   1.315   0.012  1.00  0.00    -0.012 C 
ATOM     23  C   UNL     1       0.784  -0.153  -0.238  1.00  0.00     0.016 C 
ATOM     24  C   UNL     1       0.917   2.085  -1.229  1.00  0.00     0.016 C 
ATOM     25  C   UNL     1      -1.163   1.370   0.002  1.00  0.00     0.016 C 
ENDBRANCH  12  22
BRANCH  21  26
ATOM     26  C   UNL     1       2.563   7.455   2.594  1.00  0.00     0.430 C 
ATOM     27  F   UNL     1       1.775   8.057   1.671  1.00  0.00    -0.167 F 
ATOM     28  F   UNL     1       3.003   8.433   3.420  1.00  0.00    -0.167 F 
ATOM     29  F   UNL     1       3.643   6.960   1.946  1.00  0.00    -0.167 F 
ENDBRANCH  21  26
ENDBRANCH   9  11
ENDBRANCH   8   9
ENDBRANCH   7   8
ENDBRANCH   6   7
ENDBRANCH   5   6
ENDBRANCH   4   5
ENDBRANCH   3   4
ENDBRANCH   2   3
ENDBRANCH   1   2
BRANCH   1  30
ATOM     30  C   UNL     1      -0.832   7.029   9.460  1.00  0.00     0.188 C 
BRANCH  30  31
ATOM     31  O   UNL     1      -1.132   5.641   9.350  1.00  0.00    -0.376 OA
BRANCH  31  32
ATOM     32  C   UNL     1      -2.425   5.228   9.771  1.00  0.00     0.202 C 
BRANCH  32  33
ATOM     33  C   UNL     1      -3.525   5.513   8.743  1.00  0.00     0.261 C 
BRANCH  33  34
ATOM     34  O   UNL     1      -3.729   6.903   8.441  1.00  0.00    -0.460 OA
BRANCH  34  35
ATOM     35  C   UNL     1      -4.081   7.720   9.458  1.00  0.00     0.338 C 
ATOM     36  O   UNL     1      -4.306   7.409  10.614  1.00  0.00    -0.246 OA
BRANCH  35  37
ATOM     37  C   UNL     1      -3.952   9.108   8.970  1.00  0.00     0.060 A 
ATOM     38  C   UNL     1      -4.565   9.496   7.776  1.00  0.00     0.016 A 
ATOM     39  C   UNL     1      -3.178  10.018   9.701  1.00  0.00     0.016 A 
ATOM     40  C   UNL     1      -4.436  10.813   7.332  1.00  0.00     0.010 A 
ATOM     41  C   UNL     1      -3.041  11.333   9.250  1.00  0.00     0.010 A 
ATOM     42  C   UNL     1      -3.695  11.745   8.079  1.00  0.00    -0.014 A 
BRANCH  42  43
ATOM     43  C   UNL     1      -3.791  13.187   7.752  1.00  0.00     0.031 A 
ATOM     44  C   UNL     1      -2.729  13.910   6.986  1.00  0.00     0.074 A 
ATOM     45  C   UNL     1      -4.885  13.843   8.182  1.00  0.00     0.049 A 
ATOM     46  N   UNL     1      -2.715  15.156   6.585  1.00  0.00    -0.248 NA
ATOM     47  C   UNL     1      -1.528  13.145   6.626  1.00  0.00     0.031 C 
ATOM     48  C   UNL     1      -5.971  13.237   8.954  1.00  0.00     0.029 A 
ATOM     49  N   UNL     1      -5.268  15.150   8.032  1.00  0.00    -0.354 N 
ATOM     50  C   UNL     1      -1.518  15.324   5.904  1.00  0.00     0.074 A 
ATOM     51  C   UNL     1      -0.811  14.061   5.984  1.00  0.00     0.031 C 
ATOM     52  C   UNL     1      -6.907  14.166   9.196  1.00  0.00     0.029 A 
ATOM     53  C   UNL     1      -6.477  15.434   8.617  1.00  0.00     0.049 A 
ATOM     54  H   UNL     1      -4.729  15.820   7.552  1.00  0.00     0.167 HD
ATOM     55  C   UNL     1      -1.068  16.429   5.260  1.00  0.00     0.037 A 
ATOM     56  C   UNL     1      -7.166  16.588   8.679  1.00  0.00     0.037 A 
ATOM     57  C   UNL     1      -1.771  17.688   5.206  1.00  0.00     0.049 A 
ATOM     58  C   UNL     1      -6.617  17.808   7.998  1.00  0.00     0.074 A 
ATOM     59  C   UNL     1      -1.404  18.854   4.554  1.00  0.00     0.029 A 
ATOM     60  N   UNL     1      -2.978  17.953   5.838  1.00  0.00    -0.354 N 
ATOM     61  N   UNL     1      -5.516  17.938   7.301  1.00  0.00    -0.248 NA
ATOM     62  C   UNL     1      -7.412  19.038   8.104  1.00  0.00     0.031 C 
ATOM     63  C   UNL     1      -2.359  19.836   4.834  1.00  0.00     0.029 A 
ATOM     64  C   UNL     1      -3.354  19.270   5.613  1.00  0.00     0.049 A 
ATOM     65  H   UNL     1      -3.492  17.302   6.369  1.00  0.00     0.167 HD
ATOM     66  C   UNL     1      -5.495  19.254   6.864  1.00  0.00     0.074 A 
ATOM     67  C   UNL     1      -6.704  19.878   7.362  1.00  0.00     0.031 C 
ATOM     68  C   UNL     1      -4.557  19.885   6.116  1.00  0.00     0.037 A 
BRANCH  55  69
ATOM     69  C   UNL     1       0.248  16.338   4.542  1.00  0.00     0.064 A 
ATOM     70  C   UNL     1       0.377  15.615   3.347  1.00  0.00     0.173 A 
ATOM     71  C   UNL     1       1.363  17.061   4.993  1.00  0.00     0.173 A 
ATOM     72  F   UNL     1      -0.659  14.905   2.873  1.00  0.00    -0.203 F 
ATOM     73  C   UNL     1       1.574  15.612   2.635  1.00  0.00     0.198 A 
ATOM     74  C   UNL     1       2.551  17.077   4.266  1.00  0.00     0.198 A 
ATOM     75  F   UNL     1       1.291  17.780   6.124  1.00  0.00    -0.203 F 
ATOM     76  F   UNL     1       1.678  14.898   1.506  1.00  0.00    -0.200 F 
ATOM     77  C   UNL     1       2.656  16.351   3.089  1.00  0.00     0.200 A 
ATOM     78  F   UNL     1       3.590  17.806   4.697  1.00  0.00    -0.200 F 
ATOM     79  F   UNL     1       3.800  16.366   2.391  1.00  0.00    -0.200 F 
ENDBRANCH  55  69
BRANCH  56  80
ATOM     80  C   UNL     1      -8.475  16.616   9.378  1.00  0.00     0.064 A 
ATOM     81  C   UNL     1      -9.669  16.737   8.656  1.00  0.00     0.173 A 
ATOM     82  C   UNL     1      -8.560  16.482  10.771  1.00  0.00     0.173 A 
ATOM     83  F   UNL     1      -9.635  16.883   7.324  1.00  0.00    -0.203 F 
ATOM     84  C   UNL     1     -10.902  16.730   9.304  1.00  0.00     0.198 A 
ATOM     85  C   UNL     1      -9.795  16.447  11.415  1.00  0.00     0.198 A 
ATOM     86  F   UNL     1      -7.444  16.353  11.504  1.00  0.00    -0.203 F 
ATOM     87  F   UNL     1     -12.029  16.877   8.594  1.00  0.00    -0.200 F 
ATOM     88  C   UNL     1     -10.964  16.577  10.681  1.00  0.00     0.200 A 
ATOM     89  F   UNL     1      -9.851  16.280  12.743  1.00  0.00    -0.200 F 
ATOM     90  F   UNL     1     -12.152  16.555  11.301  1.00  0.00    -0.200 F 
ENDBRANCH  56  80
BRANCH  68  91
ATOM     91  C   UNL     1      -4.806  21.325   5.770  1.00  0.00     0.064 A 
ATOM     92  C   UNL     1      -4.714  22.339   6.735  1.00  0.00     0.173 A 
ATOM     93  C   UNL     1      -5.098  21.701   4.450  1.00  0.00     0.173 A 
ATOM     94  F   UNL     1      -4.455  22.032   8.015  1.00  0.00    -0.203 F 
ATOM     95  C   UNL     1      -4.927  23.673   6.395  1.00  0.00     0.198 A 
ATOM     96  C   UNL     1      -5.279  23.038   4.107  1.00  0.00     0.198 A 
ATOM     97  F   UNL     1      -5.192  20.771   3.487  1.00  0.00    -0.203 F 
ATOM     98  F   UNL     1      -4.878  24.620   7.342  1.00  0.00    -0.200 F 
ATOM     99  C   UNL     1      -5.200  24.022   5.081  1.00  0.00     0.200 A 
ATOM    100  F   UNL     1      -5.530  23.374   2.834  1.00  0.00    -0.200 F 
ATOM    101  F   UNL     1      -5.394  25.307   4.754  1.00  0.00    -0.200 F 
ENDBRANCH  68  91
ENDBRANCH  42  43
ENDBRANCH  35  37
ENDBRANCH  34  35
ENDBRANCH  33  34
ENDBRANCH  32  33
ENDBRANCH  31  32
ENDBRANCH  30  31
ENDBRANCH   1  30
TORSDOF 22
