REMARK SMILES COc1cc(/C=C/C(=O)OCCOCCOCCOCCOC(=O)c2ccc(-c3c4nc(c(-c5c(F)c(F)c(F)c(F)c5F)c5ccc([nH]5)c(-c5c(F)c(F)c(F)c(F)c5F)c5nc(c(-c6c(F)c(F)c(F)c(F)c6F)c6ccc3[nH]6)C=C5)C=C4)cc2)cc(OC)c1O
REMARK SMILES IDX 16 1 15 2 14 3 13 4 12 5 11 6 10 7 8 8 9 9 7 10 6 11 5 12
REMARK SMILES IDX 3 13 4 14 92 15 89 16 88 17 2 18 1 19 93 20 90 22 91 23
REMARK SMILES IDX 17 24 18 25 19 26 20 27 21 28 22 29 23 30 24 31 25 32 26 33
REMARK SMILES IDX 87 34 27 35 86 36 28 37 29 38 30 39 80 40 31 41 85 42 79 43
REMARK SMILES IDX 81 44 32 45 84 46 78 47 77 48 33 50 65 51 45 52 64 53 46 54
REMARK SMILES IDX 49 55 63 56 82 57 47 58 48 59 62 61 83 62 50 63 34 64 35 65
REMARK SMILES IDX 43 66 36 67 37 68 41 69 44 70 38 71 39 72 42 73 40 74 66 75
REMARK SMILES IDX 67 76 75 77 68 78 69 79 73 80 76 81 70 82 71 83 74 84 72 85
REMARK SMILES IDX 51 86 52 87 60 88 53 89 54 90 58 91 61 92 55 93 56 94 59 95
REMARK SMILES IDX 57 96
REMARK H PARENT 93 21 81 49 49 60
REMARK Flexibility Score: inf
ROOT
ATOM      1  O   UNL     1      -0.818  -8.653   1.650  1.00  0.00    -0.377 OA
ENDROOT
BRANCH   1   2
ATOM      2  C   UNL     1      -1.609  -7.638   1.048  1.00  0.00     0.188 C 
BRANCH   2   3
ATOM      3  C   UNL     1      -2.357  -7.973  -0.258  1.00  0.00     0.188 C 
BRANCH   3   4
ATOM      4  O   UNL     1      -2.445  -9.363  -0.517  1.00  0.00    -0.376 OA
BRANCH   4   5
ATOM      5  C   UNL     1      -1.653  -9.928  -1.544  1.00  0.00     0.202 C 
BRANCH   5   6
ATOM      6  C   UNL     1      -0.126  -9.747  -1.516  1.00  0.00     0.261 C 
BRANCH   6   7
ATOM      7  O   UNL     1       0.356  -8.446  -1.156  1.00  0.00    -0.460 OA
BRANCH   7   8
ATOM      8  C   UNL     1       0.286  -7.491  -2.107  1.00  0.00     0.330 C 
ATOM      9  O   UNL     1      -0.148  -7.638  -3.239  1.00  0.00    -0.247 OA
BRANCH   8  10
ATOM     10  C   UNL     1       0.671  -6.165  -1.571  1.00  0.00     0.094 C 
ATOM     11  C   UNL     1       1.373  -5.954  -0.445  1.00  0.00     0.016 C 
BRANCH  11  12
ATOM     12  C   UNL     1       1.729  -4.609   0.042  1.00  0.00    -0.018 A 
ATOM     13  C   UNL     1       1.267  -2.228   0.323  1.00  0.00     0.165 A 
ATOM     14  C   UNL     1       0.886  -3.502  -0.118  1.00  0.00     0.058 A 
ATOM     15  C   UNL     1       2.493  -2.059   0.984  1.00  0.00     0.200 A 
ATOM     16  C   UNL     1       3.342  -3.158   1.178  1.00  0.00     0.165 A 
ATOM     17  C   UNL     1       2.939  -4.424   0.722  1.00  0.00     0.058 A 
BRANCH  13  18
ATOM     18  O   UNL     1       0.317  -1.259   0.120  1.00  0.00    -0.493 OA
ATOM     19  C   UNL     1       0.778   0.038  -0.248  1.00  0.00     0.278 C 
ENDBRANCH  13  18
BRANCH  15  20
ATOM     20  O   UNL     1       2.819  -0.841   1.513  1.00  0.00    -0.502 OA
ATOM     21  H   UNL     1       2.252  -0.107   1.384  1.00  0.00     0.293 HD
ENDBRANCH  15  20
BRANCH  16  22
ATOM     22  O   UNL     1       4.548  -3.190   1.830  1.00  0.00    -0.493 OA
ATOM     23  C   UNL     1       5.203  -1.957   2.092  1.00  0.00     0.278 C 
ENDBRANCH  16  22
ENDBRANCH  11  12
ENDBRANCH   8  10
ENDBRANCH   7   8
ENDBRANCH   6   7
ENDBRANCH   5   6
ENDBRANCH   4   5
ENDBRANCH   3   4
ENDBRANCH   2   3
ENDBRANCH   1   2
BRANCH   1  24
ATOM     24  C   UNL     1      -1.394  -9.924   1.953  1.00  0.00     0.188 C 
BRANCH  24  25
ATOM     25  C   UNL     1      -2.923 -10.143   2.060  1.00  0.00     0.188 C 
BRANCH  25  26
ATOM     26  O   UNL     1      -3.693  -8.956   2.100  1.00  0.00    -0.376 OA
BRANCH  26  27
ATOM     27  C   UNL     1      -4.294  -8.604   3.333  1.00  0.00     0.202 C 
BRANCH  27  28
ATOM     28  C   UNL     1      -3.341  -8.269   4.489  1.00  0.00     0.261 C 
BRANCH  28  29
ATOM     29  O   UNL     1      -2.355  -9.267   4.801  1.00  0.00    -0.460 OA
BRANCH  29  30
ATOM     30  C   UNL     1      -2.796 -10.435   5.311  1.00  0.00     0.338 C 
ATOM     31  O   UNL     1      -3.952 -10.750   5.547  1.00  0.00    -0.246 OA
BRANCH  30  32
ATOM     32  C   UNL     1      -1.648 -11.362   5.370  1.00  0.00     0.060 A 
ATOM     33  C   UNL     1      -1.687 -12.546   4.622  1.00  0.00     0.016 A 
ATOM     34  C   UNL     1      -0.533 -11.057   6.154  1.00  0.00     0.016 A 
ATOM     35  C   UNL     1      -0.620 -13.444   4.680  1.00  0.00     0.010 A 
ATOM     36  C   UNL     1       0.527 -11.966   6.226  1.00  0.00     0.010 A 
ATOM     37  C   UNL     1       0.474 -13.178   5.514  1.00  0.00    -0.014 A 
BRANCH  37  38
ATOM     38  C   UNL     1       1.479 -14.239   5.772  1.00  0.00     0.031 A 
ATOM     39  C   UNL     1       1.367 -15.044   7.037  1.00  0.00     0.074 A 
ATOM     40  C   UNL     1       2.460 -14.502   4.891  1.00  0.00     0.049 A 
ATOM     41  N   UNL     1       2.140 -15.997   7.492  1.00  0.00    -0.248 NA
ATOM     42  C   UNL     1       0.227 -14.725   7.911  1.00  0.00     0.031 C 
ATOM     43  C   UNL     1       2.655 -13.817   3.616  1.00  0.00     0.029 A 
ATOM     44  N   UNL     1       3.485 -15.415   4.946  1.00  0.00    -0.354 N 
ATOM     45  C   UNL     1       1.585 -16.387   8.704  1.00  0.00     0.074 A 
ATOM     46  C   UNL     1       0.431 -15.544   8.932  1.00  0.00     0.031 C 
ATOM     47  C   UNL     1       3.740 -14.329   3.010  1.00  0.00     0.029 A 
ATOM     48  C   UNL     1       4.335 -15.351   3.870  1.00  0.00     0.049 A 
ATOM     49  H   UNL     1       3.598 -16.055   5.685  1.00  0.00     0.167 HD
ATOM     50  C   UNL     1       1.994 -17.366   9.545  1.00  0.00     0.037 A 
ATOM     51  C   UNL     1       5.476 -16.025   3.623  1.00  0.00     0.037 A 
ATOM     52  C   UNL     1       3.147 -18.198   9.318  1.00  0.00     0.049 A 
ATOM     53  C   UNL     1       5.956 -17.056   4.613  1.00  0.00     0.074 A 
ATOM     54  C   UNL     1       3.631 -19.233  10.098  1.00  0.00     0.029 A 
ATOM     55  N   UNL     1       4.007 -18.079   8.235  1.00  0.00    -0.354 N 
ATOM     56  N   UNL     1       5.407 -17.447   5.739  1.00  0.00    -0.248 NA
ATOM     57  C   UNL     1       7.215 -17.746   4.294  1.00  0.00     0.031 C 
ATOM     58  C   UNL     1       4.820 -19.694   9.524  1.00  0.00     0.029 A 
ATOM     59  C   UNL     1       5.039 -18.997   8.347  1.00  0.00     0.049 A 
ATOM     60  H   UNL     1       3.899 -17.436   7.497  1.00  0.00     0.167 HD
ATOM     61  C   UNL     1       6.234 -18.442   6.245  1.00  0.00     0.074 A 
ATOM     62  C   UNL     1       7.313 -18.609   5.295  1.00  0.00     0.031 C 
ATOM     63  C   UNL     1       6.109 -19.155   7.393  1.00  0.00     0.037 A 
BRANCH  50  64
ATOM     64  C   UNL     1       1.208 -17.564  10.811  1.00  0.00     0.064 A 
ATOM     65  C   UNL     1      -0.101 -18.070  10.801  1.00  0.00     0.173 A 
ATOM     66  C   UNL     1       1.784 -17.263  12.055  1.00  0.00     0.173 A 
ATOM     67  F   UNL     1      -0.704 -18.361   9.639  1.00  0.00    -0.203 F 
ATOM     68  C   UNL     1      -0.816 -18.233  11.986  1.00  0.00     0.198 A 
ATOM     69  C   UNL     1       1.079 -17.461  13.239  1.00  0.00     0.198 A 
ATOM     70  F   UNL     1       3.034 -16.781  12.124  1.00  0.00    -0.203 F 
ATOM     71  F   UNL     1      -2.085 -18.662  11.947  1.00  0.00    -0.200 F 
ATOM     72  C   UNL     1      -0.223 -17.936  13.203  1.00  0.00     0.200 A 
ATOM     73  F   UNL     1       1.659 -17.188  14.416  1.00  0.00    -0.200 F 
ATOM     74  F   UNL     1      -0.910 -18.099  14.342  1.00  0.00    -0.200 F 
ENDBRANCH  50  64
BRANCH  51  75
ATOM     75  C   UNL     1       6.255 -15.739   2.388  1.00  0.00     0.064 A 
ATOM     76  C   UNL     1       6.385 -16.697   1.373  1.00  0.00     0.173 A 
ATOM     77  C   UNL     1       6.901 -14.506   2.205  1.00  0.00     0.173 A 
ATOM     78  F   UNL     1       5.811 -17.901   1.512  1.00  0.00    -0.203 F 
ATOM     79  C   UNL     1       7.144 -16.440   0.232  1.00  0.00     0.198 A 
ATOM     80  C   UNL     1       7.632 -14.239   1.050  1.00  0.00     0.198 A 
ATOM     81  F   UNL     1       6.813 -13.556   3.147  1.00  0.00    -0.203 F 
ATOM     82  F   UNL     1       7.293 -17.393  -0.699  1.00  0.00    -0.200 F 
ATOM     83  C   UNL     1       7.760 -15.209   0.068  1.00  0.00     0.200 A 
ATOM     84  F   UNL     1       8.215 -13.043   0.890  1.00  0.00    -0.200 F 
ATOM     85  F   UNL     1       8.484 -14.961  -1.032  1.00  0.00    -0.200 F 
ENDBRANCH  51  75
BRANCH  63  86
ATOM     86  C   UNL     1       7.147 -20.208   7.671  1.00  0.00     0.064 A 
ATOM     87  C   UNL     1       8.473 -19.877   7.989  1.00  0.00     0.173 A 
ATOM     88  C   UNL     1       6.800 -21.568   7.654  1.00  0.00     0.173 A 
ATOM     89  F   UNL     1       8.863 -18.593   8.009  1.00  0.00    -0.203 F 
ATOM     90  C   UNL     1       9.418 -20.868   8.244  1.00  0.00     0.198 A 
ATOM     91  C   UNL     1       7.738 -22.554   7.946  1.00  0.00     0.198 A 
ATOM     92  F   UNL     1       5.544 -21.943   7.366  1.00  0.00    -0.203 F 
ATOM     93  F   UNL     1      10.692 -20.529   8.488  1.00  0.00    -0.200 F 
ATOM     94  C   UNL     1       9.049 -22.205   8.230  1.00  0.00     0.200 A 
ATOM     95  F   UNL     1       7.373 -23.844   7.951  1.00  0.00    -0.200 F 
ATOM     96  F   UNL     1       9.958 -23.156   8.483  1.00  0.00    -0.200 F 
ENDBRANCH  63  86
ENDBRANCH  37  38
ENDBRANCH  30  32
ENDBRANCH  29  30
ENDBRANCH  28  29
ENDBRANCH  27  28
ENDBRANCH  26  27
ENDBRANCH  25  26
ENDBRANCH  24  25
ENDBRANCH   1  24
TORSDOF 24
