REMARK SMILES C=CCOC(=O)N[C@@H](Cc1ccccc1)C(=O)OCCOCCOCCOCCOC(=O)c1ccc(-c2c3nc(c(-c4c(F)c(F)c(F)c(F)c4F)c4ccc([nH]4)c(-c4c(F)c(F)c(F)c(F)c4F)c4nc(c(-c5c(F)c(F)c(F)c(F)c5F)c5ccc2[nH]5)C=C4)C=C3)cc1
REMARK SMILES IDX 23 1 22 2 21 3 20 4 19 5 18 6 16 7 17 8 8 9 7 10 5 11 6 12
REMARK SMILES IDX 4 14 3 15 2 16 1 17 9 18 10 19 11 20 15 21 12 22 14 23 13 24
REMARK SMILES IDX 24 25 25 26 26 27 27 28 28 29 29 30 30 31 31 32 32 33 33 34
REMARK SMILES IDX 34 35 95 36 35 37 94 38 36 39 37 40 38 41 88 42 39 43 93 44
REMARK SMILES IDX 87 45 89 46 40 47 92 48 86 49 85 50 41 52 73 53 53 54 72 55
REMARK SMILES IDX 54 56 57 57 71 58 90 59 55 60 56 61 70 63 91 64 58 65 42 66
REMARK SMILES IDX 43 67 51 68 44 69 45 70 49 71 52 72 46 73 47 74 50 75 48 76
REMARK SMILES IDX 74 77 75 78 83 79 76 80 77 81 81 82 84 83 78 84 79 85 82 86
REMARK SMILES IDX 80 87 59 88 60 89 68 90 61 91 62 92 66 93 69 94 63 95 64 96
REMARK SMILES IDX 67 97 65 98
REMARK H PARENT 7 13 89 51 57 62
REMARK Flexibility Score: inf
ROOT
ATOM      1  C   UNL     1       0.272   0.531   5.540  1.00  0.00     0.188 C 
ENDROOT
BRANCH   1   2
ATOM      2  C   UNL     1      -0.187   1.935   5.976  1.00  0.00     0.188 C 
BRANCH   2   3
ATOM      3  O   UNL     1      -0.212   2.306   7.349  1.00  0.00    -0.376 OA
BRANCH   3   4
ATOM      4  C   UNL     1      -0.618   1.378   8.343  1.00  0.00     0.202 C 
BRANCH   4   5
ATOM      5  C   UNL     1      -1.914   0.568   8.180  1.00  0.00     0.261 C 
BRANCH   5   6
ATOM      6  O   UNL     1      -2.159   0.037   6.867  1.00  0.00    -0.462 OA
BRANCH   6   7
ATOM      7  C   UNL     1      -3.159   0.613   6.154  1.00  0.00     0.329 C 
ATOM      8  O   UNL     1      -3.867   1.525   6.572  1.00  0.00    -0.250 OA
BRANCH   7   9
ATOM      9  C   UNL     1      -3.429  -0.086   4.805  1.00  0.00     0.199 C 
BRANCH   9  10
ATOM     10  N   UNL     1      -2.387  -0.929   4.199  1.00  0.00    -0.308 N 
ATOM     11  C   UNL     1      -1.789  -0.791   2.982  1.00  0.00     0.408 C 
ATOM     12  O   UNL     1      -1.142  -1.710   2.487  1.00  0.00    -0.225 OA
ATOM     13  H   UNL     1      -2.083  -1.691   4.743  1.00  0.00     0.168 HD
BRANCH  11  14
ATOM     14  O   UNL     1      -1.945   0.438   2.435  1.00  0.00    -0.445 OA
BRANCH  14  15
ATOM     15  C   UNL     1      -1.401   0.617   1.116  1.00  0.00     0.262 C 
BRANCH  15  16
ATOM     16  C   UNL     1       0.094   0.782   1.122  1.00  0.00     0.006 C 
ATOM     17  C   UNL     1       0.922   0.076   0.338  1.00  0.00     0.007 C 
ENDBRANCH  15  16
ENDBRANCH  14  15
ENDBRANCH  11  14
ENDBRANCH   9  10
BRANCH   9  18
ATOM     18  C   UNL     1      -4.706  -0.931   4.999  1.00  0.00     0.072 C 
BRANCH  18  19
ATOM     19  C   UNL     1      -4.499  -2.099   5.950  1.00  0.00    -0.045 A 
ATOM     20  C   UNL     1      -3.982  -3.316   5.482  1.00  0.00     0.004 A 
ATOM     21  C   UNL     1      -4.731  -1.946   7.325  1.00  0.00     0.004 A 
ATOM     22  C   UNL     1      -3.675  -4.345   6.372  1.00  0.00     0.000 A 
ATOM     23  C   UNL     1      -4.429  -2.980   8.213  1.00  0.00     0.000 A 
ATOM     24  C   UNL     1      -3.897  -4.177   7.737  1.00  0.00     0.000 A 
ENDBRANCH  18  19
ENDBRANCH   9  18
ENDBRANCH   7   9
ENDBRANCH   6   7
ENDBRANCH   5   6
ENDBRANCH   4   5
ENDBRANCH   3   4
ENDBRANCH   2   3
ENDBRANCH   1   2
BRANCH   1  25
ATOM     25  O   UNL     1       0.470  -0.401   6.586  1.00  0.00    -0.377 OA
BRANCH  25  26
ATOM     26  C   UNL     1       1.815  -0.617   6.984  1.00  0.00     0.188 C 
BRANCH  26  27
ATOM     27  C   UNL     1       2.727   0.622   7.065  1.00  0.00     0.188 C 
BRANCH  27  28
ATOM     28  O   UNL     1       2.726   1.424   5.891  1.00  0.00    -0.376 OA
BRANCH  28  29
ATOM     29  C   UNL     1       3.730   1.225   4.907  1.00  0.00     0.202 C 
BRANCH  29  30
ATOM     30  C   UNL     1       3.778  -0.123   4.165  1.00  0.00     0.261 C 
BRANCH  30  31
ATOM     31  O   UNL     1       3.937  -1.298   4.976  1.00  0.00    -0.460 OA
BRANCH  31  32
ATOM     32  C   UNL     1       5.014  -1.359   5.783  1.00  0.00     0.338 C 
ATOM     33  O   UNL     1       5.929  -0.560   5.853  1.00  0.00    -0.246 OA
BRANCH  32  34
ATOM     34  C   UNL     1       4.808  -2.467   6.740  1.00  0.00     0.060 A 
ATOM     35  C   UNL     1       4.859  -2.180   8.110  1.00  0.00     0.016 A 
ATOM     36  C   UNL     1       4.585  -3.775   6.300  1.00  0.00     0.016 A 
ATOM     37  C   UNL     1       4.751  -3.208   9.042  1.00  0.00     0.010 A 
ATOM     38  C   UNL     1       4.496  -4.810   7.237  1.00  0.00     0.010 A 
ATOM     39  C   UNL     1       4.627  -4.535   8.609  1.00  0.00    -0.014 A 
BRANCH  39  40
ATOM     40  C   UNL     1       4.848  -5.625   9.591  1.00  0.00     0.031 A 
ATOM     41  C   UNL     1       6.206  -6.269   9.655  1.00  0.00     0.074 A 
ATOM     42  C   UNL     1       3.889  -5.977  10.465  1.00  0.00     0.049 A 
ATOM     43  N   UNL     1       6.653  -7.195  10.466  1.00  0.00    -0.248 NA
ATOM     44  C   UNL     1       7.197  -5.803   8.672  1.00  0.00     0.031 C 
ATOM     45  C   UNL     1       2.549  -5.400  10.525  1.00  0.00     0.029 A 
ATOM     46  N   UNL     1       3.906  -6.903  11.477  1.00  0.00    -0.354 N 
ATOM     47  C   UNL     1       7.972  -7.419  10.091  1.00  0.00     0.074 A 
ATOM     48  C   UNL     1       8.242  -6.566   8.954  1.00  0.00     0.031 C 
ATOM     49  C   UNL     1       1.869  -5.985  11.527  1.00  0.00     0.029 A 
ATOM     50  C   UNL     1       2.718  -6.993  12.159  1.00  0.00     0.049 A 
ATOM     51  H   UNL     1       4.694  -7.451  11.694  1.00  0.00     0.167 HD
ATOM     52  C   UNL     1       8.882  -8.251  10.652  1.00  0.00     0.037 A 
ATOM     53  C   UNL     1       2.359  -7.805  13.172  1.00  0.00     0.037 A 
ATOM     54  C   UNL     1       8.608  -9.104  11.780  1.00  0.00     0.049 A 
ATOM     55  C   UNL     1       3.372  -8.769  13.739  1.00  0.00     0.074 A 
ATOM     56  C   UNL     1       9.463  -9.978  12.429  1.00  0.00     0.029 A 
ATOM     57  N   UNL     1       7.380  -9.199  12.418  1.00  0.00    -0.354 N 
ATOM     58  N   UNL     1       4.626  -8.954  13.399  1.00  0.00    -0.248 NA
ATOM     59  C   UNL     1       2.920  -9.627  14.842  1.00  0.00     0.031 C 
ATOM     60  C   UNL     1       8.735 -10.646  13.420  1.00  0.00     0.029 A 
ATOM     61  C   UNL     1       7.447 -10.135  13.439  1.00  0.00     0.049 A 
ATOM     62  H   UNL     1       6.579  -8.677  12.182  1.00  0.00     0.167 HD
ATOM     63  C   UNL     1       5.120  -9.919  14.269  1.00  0.00     0.074 A 
ATOM     64  C   UNL     1       4.036 -10.264  15.164  1.00  0.00     0.031 C 
ATOM     65  C   UNL     1       6.360 -10.469  14.324  1.00  0.00     0.037 A 
BRANCH  52  66
ATOM     66  C   UNL     1      10.251  -8.301  10.034  1.00  0.00     0.064 A 
ATOM     67  C   UNL     1      11.142  -7.220  10.114  1.00  0.00     0.173 A 
ATOM     68  C   UNL     1      10.687  -9.460   9.372  1.00  0.00     0.173 A 
ATOM     69  F   UNL     1      10.771  -6.082  10.721  1.00  0.00    -0.203 F 
ATOM     70  C   UNL     1      12.406  -7.287   9.532  1.00  0.00     0.198 A 
ATOM     71  C   UNL     1      11.964  -9.536   8.822  1.00  0.00     0.198 A 
ATOM     72  F   UNL     1       9.877 -10.524   9.266  1.00  0.00    -0.203 F 
ATOM     73  F   UNL     1      13.220  -6.223   9.576  1.00  0.00    -0.200 F 
ATOM     74  C   UNL     1      12.819  -8.447   8.895  1.00  0.00     0.200 A 
ATOM     75  F   UNL     1      12.365 -10.663   8.219  1.00  0.00    -0.200 F 
ATOM     76  F   UNL     1      14.039  -8.514   8.343  1.00  0.00    -0.200 F 
ENDBRANCH  52  66
BRANCH  53  77
ATOM     77  C   UNL     1       0.979  -7.746  13.723  1.00  0.00     0.064 A 
ATOM     78  C   UNL     1       0.735  -7.312  15.034  1.00  0.00     0.173 A 
ATOM     79  C   UNL     1      -0.125  -8.151  12.957  1.00  0.00     0.173 A 
ATOM     80  F   UNL     1       1.758  -6.937  15.816  1.00  0.00    -0.203 F 
ATOM     81  C   UNL     1      -0.553  -7.311  15.565  1.00  0.00     0.198 A 
ATOM     82  C   UNL     1      -1.417  -8.117  13.478  1.00  0.00     0.198 A 
ATOM     83  F   UNL     1       0.051  -8.576  11.697  1.00  0.00    -0.203 F 
ATOM     84  F   UNL     1      -0.749  -6.946  16.840  1.00  0.00    -0.200 F 
ATOM     85  C   UNL     1      -1.629  -7.707  14.785  1.00  0.00     0.200 A 
ATOM     86  F   UNL     1      -2.454  -8.486  12.715  1.00  0.00    -0.200 F 
ATOM     87  F   UNL     1      -2.868  -7.704  15.296  1.00  0.00    -0.200 F 
ENDBRANCH  53  77
BRANCH  65  88
ATOM     88  C   UNL     1       6.622 -11.463  15.423  1.00  0.00     0.064 A 
ATOM     89  C   UNL     1       5.998 -12.720  15.456  1.00  0.00     0.173 A 
ATOM     90  C   UNL     1       7.514 -11.151  16.462  1.00  0.00     0.173 A 
ATOM     91  F   UNL     1       5.130 -13.068  14.494  1.00  0.00    -0.203 F 
ATOM     92  C   UNL     1       6.214 -13.601  16.513  1.00  0.00     0.198 A 
ATOM     93  C   UNL     1       7.760 -12.052  17.495  1.00  0.00     0.198 A 
ATOM     94  F   UNL     1       8.151  -9.970  16.476  1.00  0.00    -0.203 F 
ATOM     95  F   UNL     1       5.545 -14.761  16.562  1.00  0.00    -0.200 F 
ATOM     96  C   UNL     1       7.097 -13.268  17.529  1.00  0.00     0.200 A 
ATOM     97  F   UNL     1       8.629 -11.736  18.464  1.00  0.00    -0.200 F 
ATOM     98  F   UNL     1       7.300 -14.116  18.547  1.00  0.00    -0.200 F 
ENDBRANCH  65  88
ENDBRANCH  39  40
ENDBRANCH  32  34
ENDBRANCH  31  32
ENDBRANCH  30  31
ENDBRANCH  29  30
ENDBRANCH  28  29
ENDBRANCH  27  28
ENDBRANCH  26  27
ENDBRANCH  25  26
ENDBRANCH   1  25
TORSDOF 26
