REMARK SMILES Cc1onc(-c2cnn(C)c2C)c1C(=O)OCCOCCOCCOCCOC(=O)c1ccc(-c2c3nc(c(-c4c(F)c(F)c(F)c(F)c4F)c4ccc([nH]4)c(-c4c(F)c(F)c(F)c(F)c4F)c4nc(c(-c5c(F)c(F)c(F)c(F)c5F)c5ccc2[nH]5)C=C4)C=C3)cc1
REMARK SMILES IDX 23 1 22 2 21 3 20 4 19 5 18 6 17 7 16 8 14 9 15 10 13 11
REMARK SMILES IDX 1 12 2 13 3 14 4 15 5 16 6 17 7 18 11 19 8 20 9 21 12 22
REMARK SMILES IDX 10 23 24 24 25 25 26 26 27 27 28 28 29 29 30 30 31 31 32 32
REMARK SMILES IDX 93 33 33 34 92 35 34 36 35 37 36 38 86 39 37 40 91 41 85 42
REMARK SMILES IDX 87 43 38 44 90 45 84 46 83 47 39 49 71 50 51 51 70 52 52 53
REMARK SMILES IDX 55 54 69 55 88 56 53 57 54 58 68 60 89 61 56 62 40 63 41 64
REMARK SMILES IDX 49 65 42 66 43 67 47 68 50 69 44 70 45 71 48 72 46 73 72 74
REMARK SMILES IDX 73 75 81 76 74 77 75 78 79 79 82 80 76 81 77 82 80 83 78 84
REMARK SMILES IDX 57 85 58 86 66 87 59 88 60 89 64 90 67 91 61 92 62 93 65 94
REMARK SMILES IDX 63 95
REMARK H PARENT 87 48 55 59
REMARK Flexibility Score: inf
ROOT
ATOM      1  C   UNL     1       2.056  -4.385   3.011  1.00  0.00     0.188 C 
ENDROOT
BRANCH   1   2
ATOM      2  O   UNL     1       1.588  -3.216   2.354  1.00  0.00    -0.377 OA
BRANCH   2   3
ATOM      3  C   UNL     1       0.238  -3.148   1.927  1.00  0.00     0.188 C 
BRANCH   3   4
ATOM      4  C   UNL     1      -0.320  -4.321   1.111  1.00  0.00     0.188 C 
BRANCH   4   5
ATOM      5  O   UNL     1       0.698  -5.112   0.497  1.00  0.00    -0.376 OA
BRANCH   5   6
ATOM      6  C   UNL     1       0.704  -5.071  -0.927  1.00  0.00     0.202 C 
BRANCH   6   7
ATOM      7  C   UNL     1       1.657  -3.997  -1.459  1.00  0.00     0.261 C 
BRANCH   7   8
ATOM      8  O   UNL     1       1.316  -2.659  -1.060  1.00  0.00    -0.459 OA
BRANCH   8   9
ATOM      9  C   UNL     1       0.151  -2.139  -1.530  1.00  0.00     0.344 C 
ATOM     10  O   UNL     1      -0.588  -2.715  -2.317  1.00  0.00    -0.246 OA
BRANCH   9  11
ATOM     11  C   UNL     1      -0.149  -0.862  -0.930  1.00  0.00     0.130 A 
ATOM     12  C   UNL     1       2.213   0.268  -0.555  1.00  0.00     0.092 C 
ATOM     13  C   UNL     1       0.744   0.117  -0.534  1.00  0.00     0.148 A 
ATOM     14  O   UNL     1       0.060   1.158   0.014  1.00  0.00    -0.360 OA
ATOM     15  N   UNL     1      -1.286   0.855   0.062  1.00  0.00    -0.079 NA
ATOM     16  C   UNL     1      -1.397  -0.359  -0.484  1.00  0.00     0.132 A 
BRANCH  16  17
ATOM     17  C   UNL     1      -2.633  -1.120  -0.403  1.00  0.00     0.046 A 
ATOM     18  C   UNL     1      -3.082  -1.763   0.763  1.00  0.00     0.145 A 
ATOM     19  C   UNL     1      -3.607  -1.351  -1.351  1.00  0.00     0.044 A 
ATOM     20  N   UNL     1      -4.224  -2.422   0.565  1.00  0.00    -0.181 NA
ATOM     21  N   UNL     1      -4.533  -2.150  -0.720  1.00  0.00    -0.272 N 
ATOM     22  C   UNL     1      -3.728  -0.864  -2.746  1.00  0.00     0.067 C 
ATOM     23  C   UNL     1      -5.763  -2.678  -1.263  1.00  0.00     0.174 C 
ENDBRANCH  16  17
ENDBRANCH   9  11
ENDBRANCH   8   9
ENDBRANCH   7   8
ENDBRANCH   6   7
ENDBRANCH   5   6
ENDBRANCH   4   5
ENDBRANCH   3   4
ENDBRANCH   2   3
ENDBRANCH   1   2
BRANCH   1  24
ATOM     24  C   UNL     1       1.076  -5.327   3.729  1.00  0.00     0.188 C 
BRANCH  24  25
ATOM     25  O   UNL     1      -0.070  -4.676   4.271  1.00  0.00    -0.376 OA
BRANCH  25  26
ATOM     26  C   UNL     1      -0.114  -4.573   5.690  1.00  0.00     0.202 C 
BRANCH  26  27
ATOM     27  C   UNL     1       0.632  -3.341   6.211  1.00  0.00     0.261 C 
BRANCH  27  28
ATOM     28  O   UNL     1       2.054  -3.403   6.019  1.00  0.00    -0.460 OA
BRANCH  28  29
ATOM     29  C   UNL     1       2.702  -4.390   6.673  1.00  0.00     0.338 C 
ATOM     30  O   UNL     1       2.233  -5.202   7.449  1.00  0.00    -0.246 OA
BRANCH  29  31
ATOM     31  C   UNL     1       4.083  -4.439   6.165  1.00  0.00     0.060 A 
ATOM     32  C   UNL     1       4.575  -5.660   5.688  1.00  0.00     0.016 A 
ATOM     33  C   UNL     1       4.884  -3.294   6.170  1.00  0.00     0.016 A 
ATOM     34  C   UNL     1       5.896  -5.748   5.254  1.00  0.00     0.010 A 
ATOM     35  C   UNL     1       6.211  -3.388   5.754  1.00  0.00     0.010 A 
ATOM     36  C   UNL     1       6.729  -4.623   5.330  1.00  0.00    -0.014 A 
BRANCH  36  37
ATOM     37  C   UNL     1       8.191  -4.782   5.175  1.00  0.00     0.031 A 
ATOM     38  C   UNL     1       8.998  -5.116   6.397  1.00  0.00     0.074 A 
ATOM     39  C   UNL     1       8.789  -4.618   3.984  1.00  0.00     0.049 A 
ATOM     40  N   UNL     1      10.289  -5.283   6.521  1.00  0.00    -0.248 NA
ATOM     41  C   UNL     1       8.244  -5.283   7.652  1.00  0.00     0.031 C 
ATOM     42  C   UNL     1       8.108  -4.307   2.730  1.00  0.00     0.029 A 
ATOM     43  N   UNL     1      10.116  -4.680   3.644  1.00  0.00    -0.354 N 
ATOM     44  C   UNL     1      10.499  -5.584   7.859  1.00  0.00     0.074 A 
ATOM     45  C   UNL     1       9.211  -5.551   8.515  1.00  0.00     0.031 C 
ATOM     46  C   UNL     1       9.027  -4.189   1.755  1.00  0.00     0.029 A 
ATOM     47  C   UNL     1      10.358  -4.399   2.323  1.00  0.00     0.049 A 
ATOM     48  H   UNL     1      10.827  -4.904   4.287  1.00  0.00     0.167 HD
ATOM     49  C   UNL     1      11.664  -5.870   8.486  1.00  0.00     0.037 A 
ATOM     50  C   UNL     1      11.527  -4.310   1.660  1.00  0.00     0.037 A 
ATOM     51  C   UNL     1      12.947  -5.880   7.842  1.00  0.00     0.049 A 
ATOM     52  C   UNL     1      12.817  -4.563   2.396  1.00  0.00     0.074 A 
ATOM     53  C   UNL     1      14.185  -6.170   8.386  1.00  0.00     0.029 A 
ATOM     54  N   UNL     1      13.155  -5.568   6.507  1.00  0.00    -0.354 N 
ATOM     55  N   UNL     1      13.004  -4.895   3.650  1.00  0.00    -0.248 NA
ATOM     56  C   UNL     1      14.059  -4.427   1.621  1.00  0.00     0.031 C 
ATOM     57  C   UNL     1      15.149  -6.000   7.385  1.00  0.00     0.029 A 
ATOM     58  C   UNL     1      14.506  -5.636   6.213  1.00  0.00     0.049 A 
ATOM     59  H   UNL     1      12.447  -5.334   5.864  1.00  0.00     0.167 HD
ATOM     60  C   UNL     1      14.376  -5.032   3.809  1.00  0.00     0.074 A 
ATOM     61  C   UNL     1      14.977  -4.753   2.521  1.00  0.00     0.031 C 
ATOM     62  C   UNL     1      15.078  -5.362   4.921  1.00  0.00     0.037 A 
BRANCH  49  63
ATOM     63  C   UNL     1      11.592  -6.176   9.948  1.00  0.00     0.064 A 
ATOM     64  C   UNL     1      11.114  -7.411  10.411  1.00  0.00     0.173 A 
ATOM     65  C   UNL     1      12.007  -5.230  10.896  1.00  0.00     0.173 A 
ATOM     66  F   UNL     1      10.686  -8.338   9.540  1.00  0.00    -0.203 F 
ATOM     67  C   UNL     1      11.039  -7.682  11.774  1.00  0.00     0.198 A 
ATOM     68  C   UNL     1      11.947  -5.511  12.258  1.00  0.00     0.198 A 
ATOM     69  F   UNL     1      12.465  -4.033  10.500  1.00  0.00    -0.203 F 
ATOM     70  F   UNL     1      10.544  -8.853  12.197  1.00  0.00    -0.200 F 
ATOM     71  C   UNL     1      11.459  -6.734  12.695  1.00  0.00     0.200 A 
ATOM     72  F   UNL     1      12.354  -4.596  13.148  1.00  0.00    -0.200 F 
ATOM     73  F   UNL     1      11.384  -6.995  14.008  1.00  0.00    -0.200 F 
ENDBRANCH  49  63
BRANCH  50  74
ATOM     74  C   UNL     1      11.537  -3.963   0.218  1.00  0.00     0.064 A 
ATOM     75  C   UNL     1      11.855  -4.924  -0.751  1.00  0.00     0.173 A 
ATOM     76  C   UNL     1      11.250  -2.662  -0.218  1.00  0.00     0.173 A 
ATOM     77  F   UNL     1      12.161  -6.175  -0.377  1.00  0.00    -0.203 F 
ATOM     78  C   UNL     1      11.899  -4.593  -2.103  1.00  0.00     0.198 A 
ATOM     79  C   UNL     1      11.276  -2.337  -1.573  1.00  0.00     0.198 A 
ATOM     80  F   UNL     1      10.946  -1.707   0.672  1.00  0.00    -0.203 F 
ATOM     81  F   UNL     1      12.243  -5.521  -3.007  1.00  0.00    -0.200 F 
ATOM     82  C   UNL     1      11.606  -3.301  -2.514  1.00  0.00     0.200 A 
ATOM     83  F   UNL     1      10.987  -1.089  -1.966  1.00  0.00    -0.200 F 
ATOM     84  F   UNL     1      11.650  -2.983  -3.814  1.00  0.00    -0.200 F 
ENDBRANCH  50  74
BRANCH  62  85
ATOM     85  C   UNL     1      16.567  -5.466   4.789  1.00  0.00     0.064 A 
ATOM     86  C   UNL     1      17.376  -4.324   4.728  1.00  0.00     0.173 A 
ATOM     87  C   UNL     1      17.192  -6.722   4.781  1.00  0.00     0.173 A 
ATOM     88  F   UNL     1      16.821  -3.103   4.719  1.00  0.00    -0.203 F 
ATOM     89  C   UNL     1      18.762  -4.436   4.649  1.00  0.00     0.198 A 
ATOM     90  C   UNL     1      18.578  -6.829   4.723  1.00  0.00     0.198 A 
ATOM     91  F   UNL     1      16.457  -7.843   4.843  1.00  0.00    -0.203 F 
ATOM     92  F   UNL     1      19.517  -3.332   4.561  1.00  0.00    -0.200 F 
ATOM     93  C   UNL     1      19.361  -5.687   4.654  1.00  0.00     0.200 A 
ATOM     94  F   UNL     1      19.156  -8.038   4.737  1.00  0.00    -0.200 F 
ATOM     95  F   UNL     1      20.695  -5.792   4.586  1.00  0.00    -0.200 F 
ENDBRANCH  62  85
ENDBRANCH  36  37
ENDBRANCH  29  31
ENDBRANCH  28  29
ENDBRANCH  27  28
ENDBRANCH  26  27
ENDBRANCH  25  26
ENDBRANCH  24  25
ENDBRANCH   1  24
TORSDOF 21
