REMARK SMILES O=C(OCCOCCOCCOCCOC(=O)[C@@H]1C[C@H]1C(=O)N[C@@H]1CONC1=O)c1ccc(-c2c3nc(c(-c4c(F)c(F)c(F)c(F)c4F)c4ccc([nH]4)c(-c4c(F)c(F)c(F)c(F)c4F)c4nc(c(-c5c(F)c(F)c(F)c(F)c5F)c5ccc2[nH]5)C=C4)C=C3)cc1
REMARK SMILES IDX 9 1 8 2 7 3 6 4 5 5 4 6 3 7 2 8 1 9 30 10 31 11 92 12 32 13
REMARK SMILES IDX 91 14 33 15 34 16 35 17 85 18 36 19 90 20 84 21 86 22 37 23
REMARK SMILES IDX 89 24 83 25 82 26 38 28 70 29 50 30 69 31 51 32 54 33 68 34
REMARK SMILES IDX 87 35 52 36 53 37 67 39 88 40 55 41 39 42 40 43 48 44 41 45
REMARK SMILES IDX 42 46 46 47 49 48 43 49 44 50 47 51 45 52 71 53 72 54 80 55
REMARK SMILES IDX 73 56 74 57 78 58 81 59 75 60 76 61 79 62 77 63 56 64 57 65
REMARK SMILES IDX 65 66 58 67 59 68 63 69 66 70 60 71 61 72 64 73 62 74 10 75
REMARK SMILES IDX 11 76 12 77 13 78 14 79 15 80 16 81 17 82 18 83 19 84 20 85
REMARK SMILES IDX 21 86 22 87 23 88 24 90 25 91 28 92 26 93 27 94 29 95
REMARK H PARENT 86 27 54 38 23 89 27 96
REMARK Flexibility Score: inf
ROOT
ATOM      1  O   UNL     1       2.846  -3.964  -0.426  1.00  0.00    -0.377 OA
ENDROOT
BRANCH   1   2
ATOM      2  C   UNL     1       2.029  -2.808  -0.498  1.00  0.00     0.188 C 
BRANCH   2   3
ATOM      3  C   UNL     1       2.526  -1.515   0.140  1.00  0.00     0.188 C 
BRANCH   3   4
ATOM      4  O   UNL     1       3.832  -1.150  -0.296  1.00  0.00    -0.376 OA
BRANCH   4   5
ATOM      5  C   UNL     1       4.739  -0.673   0.701  1.00  0.00     0.202 C 
BRANCH   5   6
ATOM      6  C   UNL     1       4.355   0.624   1.412  1.00  0.00     0.261 C 
BRANCH   6   7
ATOM      7  O   UNL     1       2.978   1.007   1.286  1.00  0.00    -0.460 OA
BRANCH   7   8
ATOM      8  C   UNL     1       2.334   1.647   0.284  1.00  0.00     0.338 C 
ATOM      9  O   UNL     1       1.143   1.915   0.440  1.00  0.00    -0.246 OA
BRANCH   8  10
ATOM     10  C   UNL     1       2.954   2.030  -1.017  1.00  0.00     0.060 A 
ATOM     11  C   UNL     1       4.032   1.390  -1.622  1.00  0.00     0.016 A 
ATOM     12  C   UNL     1       2.322   3.058  -1.736  1.00  0.00     0.016 A 
ATOM     13  C   UNL     1       4.502   1.743  -2.870  1.00  0.00     0.010 A 
ATOM     14  C   UNL     1       2.786   3.437  -2.996  1.00  0.00     0.010 A 
ATOM     15  C   UNL     1       3.894   2.785  -3.546  1.00  0.00    -0.014 A 
BRANCH  15  16
ATOM     16  C   UNL     1       4.613   3.322  -4.701  1.00  0.00     0.031 A 
ATOM     17  C   UNL     1       5.404   4.565  -4.475  1.00  0.00     0.074 A 
ATOM     18  C   UNL     1       4.664   2.625  -5.845  1.00  0.00     0.049 A 
ATOM     19  N   UNL     1       5.991   5.345  -5.335  1.00  0.00    -0.248 NA
ATOM     20  C   UNL     1       5.557   4.987  -3.070  1.00  0.00     0.031 C 
ATOM     21  C   UNL     1       4.078   1.299  -6.053  1.00  0.00     0.029 A 
ATOM     22  N   UNL     1       5.242   2.933  -7.043  1.00  0.00    -0.354 N 
ATOM     23  C   UNL     1       6.522   6.383  -4.584  1.00  0.00     0.074 A 
ATOM     24  C   UNL     1       6.205   6.130  -3.199  1.00  0.00     0.031 C 
ATOM     25  C   UNL     1       4.301   0.920  -7.321  1.00  0.00     0.029 A 
ATOM     26  C   UNL     1       4.961   2.015  -8.022  1.00  0.00     0.049 A 
ATOM     27  H   UNL     1       5.801   3.730  -7.189  1.00  0.00     0.167 HD
ATOM     28  C   UNL     1       7.192   7.463  -5.043  1.00  0.00     0.037 A 
ATOM     29  C   UNL     1       5.151   2.110  -9.350  1.00  0.00     0.037 A 
ATOM     30  C   UNL     1       7.468   7.648  -6.440  1.00  0.00     0.049 A 
ATOM     31  C   UNL     1       5.793   3.370  -9.863  1.00  0.00     0.074 A 
ATOM     32  C   UNL     1       8.082   8.708  -7.073  1.00  0.00     0.029 A 
ATOM     33  N   UNL     1       7.124   6.726  -7.426  1.00  0.00    -0.354 N 
ATOM     34  N   UNL     1       6.219   4.412  -9.184  1.00  0.00    -0.248 NA
ATOM     35  C   UNL     1       5.971   3.483 -11.313  1.00  0.00     0.031 C 
ATOM     36  C   UNL     1       8.047   8.458  -8.449  1.00  0.00     0.029 A 
ATOM     37  C   UNL     1       7.485   7.205  -8.669  1.00  0.00     0.049 A 
ATOM     38  H   UNL     1       6.687   5.860  -7.261  1.00  0.00     0.167 HD
ATOM     39  C   UNL     1       6.738   5.296 -10.116  1.00  0.00     0.074 A 
ATOM     40  C   UNL     1       6.572   4.662 -11.412  1.00  0.00     0.031 C 
ATOM     41  C   UNL     1       7.305   6.514  -9.926  1.00  0.00     0.037 A 
BRANCH  28  42
ATOM     42  C   UNL     1       7.522   8.531  -4.042  1.00  0.00     0.064 A 
ATOM     43  C   UNL     1       8.430   8.329  -2.991  1.00  0.00     0.173 A 
ATOM     44  C   UNL     1       6.831   9.753  -4.080  1.00  0.00     0.173 A 
ATOM     45  F   UNL     1       9.093   7.167  -2.883  1.00  0.00    -0.203 F 
ATOM     46  C   UNL     1       8.589   9.283  -1.986  1.00  0.00     0.198 A 
ATOM     47  C   UNL     1       7.021  10.719  -3.096  1.00  0.00     0.198 A 
ATOM     48  F   UNL     1       5.941   9.997  -5.053  1.00  0.00    -0.203 F 
ATOM     49  F   UNL     1       9.386   9.025  -0.940  1.00  0.00    -0.200 F 
ATOM     50  C   UNL     1       7.886  10.477  -2.040  1.00  0.00     0.200 A 
ATOM     51  F   UNL     1       6.341  11.873  -3.153  1.00  0.00    -0.200 F 
ATOM     52  F   UNL     1       8.022  11.382  -1.062  1.00  0.00    -0.200 F 
ENDBRANCH  28  42
BRANCH  29  53
ATOM     53  C   UNL     1       4.652   1.032 -10.242  1.00  0.00     0.064 A 
ATOM     54  C   UNL     1       5.529   0.214 -10.964  1.00  0.00     0.173 A 
ATOM     55  C   UNL     1       3.276   0.762 -10.350  1.00  0.00     0.173 A 
ATOM     56  F   UNL     1       6.850   0.437 -10.907  1.00  0.00    -0.203 F 
ATOM     57  C   UNL     1       5.053  -0.829 -11.759  1.00  0.00     0.198 A 
ATOM     58  C   UNL     1       2.803  -0.298 -11.120  1.00  0.00     0.198 A 
ATOM     59  F   UNL     1       2.389   1.511  -9.677  1.00  0.00    -0.203 F 
ATOM     60  F   UNL     1       5.913  -1.580 -12.459  1.00  0.00    -0.200 F 
ATOM     61  C   UNL     1       3.692  -1.090 -11.828  1.00  0.00     0.200 A 
ATOM     62  F   UNL     1       1.489  -0.557 -11.165  1.00  0.00    -0.200 F 
ATOM     63  F   UNL     1       3.238  -2.103 -12.578  1.00  0.00    -0.200 F 
ENDBRANCH  29  53
BRANCH  41  64
ATOM     64  C   UNL     1       7.840   7.212 -11.138  1.00  0.00     0.064 A 
ATOM     65  C   UNL     1       6.992   7.824 -12.070  1.00  0.00     0.173 A 
ATOM     66  C   UNL     1       9.226   7.365 -11.295  1.00  0.00     0.173 A 
ATOM     67  F   UNL     1       5.662   7.691 -11.965  1.00  0.00    -0.203 F 
ATOM     68  C   UNL     1       7.517   8.567 -13.122  1.00  0.00     0.198 A 
ATOM     69  C   UNL     1       9.744   8.137 -12.327  1.00  0.00     0.198 A 
ATOM     70  F   UNL     1      10.072   6.802 -10.419  1.00  0.00    -0.203 F 
ATOM     71  F   UNL     1       6.694   9.126 -14.020  1.00  0.00    -0.200 F 
ATOM     72  C   UNL     1       8.890   8.736 -13.240  1.00  0.00     0.200 A 
ATOM     73  F   UNL     1      11.068   8.318 -12.425  1.00  0.00    -0.200 F 
ATOM     74  F   UNL     1       9.391   9.481 -14.235  1.00  0.00    -0.200 F 
ENDBRANCH  41  64
ENDBRANCH  15  16
ENDBRANCH   8  10
ENDBRANCH   7   8
ENDBRANCH   6   7
ENDBRANCH   5   6
ENDBRANCH   4   5
ENDBRANCH   3   4
ENDBRANCH   2   3
ENDBRANCH   1   2
BRANCH   1  75
ATOM     75  C   UNL     1       4.244  -3.793  -0.332  1.00  0.00     0.188 C 
BRANCH  75  76
ATOM     76  C   UNL     1       5.083  -3.562  -1.601  1.00  0.00     0.188 C 
BRANCH  76  77
ATOM     77  O   UNL     1       4.555  -2.885  -2.721  1.00  0.00    -0.376 OA
BRANCH  77  78
ATOM     78  C   UNL     1       3.499  -3.439  -3.493  1.00  0.00     0.202 C 
BRANCH  78  79
ATOM     79  C   UNL     1       3.182  -4.946  -3.608  1.00  0.00     0.261 C 
BRANCH  79  80
ATOM     80  O   UNL     1       3.297  -5.696  -2.400  1.00  0.00    -0.463 OA
BRANCH  80  81
ATOM     81  C   UNL     1       4.270  -6.635  -2.309  1.00  0.00     0.309 C 
ATOM     82  O   UNL     1       4.999  -7.020  -3.217  1.00  0.00    -0.252 OA
BRANCH  81  83
ATOM     83  C   UNL     1       4.510  -6.974  -0.887  1.00  0.00     0.112 C 
ATOM     84  C   UNL     1       5.944  -6.921  -0.388  1.00  0.00     0.030 C 
ATOM     85  C   UNL     1       5.175  -8.204  -0.325  1.00  0.00     0.093 C 
BRANCH  85  86
ATOM     86  C   UNL     1       4.488  -8.834   0.840  1.00  0.00     0.224 C 
ATOM     87  O   UNL     1       3.877  -9.880   0.636  1.00  0.00    -0.275 OA
ATOM     88  N   UNL     1       4.451  -8.326   2.114  1.00  0.00    -0.342 N 
ATOM     89  H   UNL     1       3.929  -8.876   2.743  1.00  0.00     0.164 HD
BRANCH  88  90
ATOM     90  C   UNL     1       5.029  -7.139   2.718  1.00  0.00     0.202 C 
ATOM     91  C   UNL     1       5.150  -7.162   4.239  1.00  0.00     0.228 C 
ATOM     92  C   UNL     1       4.188  -5.882   2.670  1.00  0.00     0.268 C 
ATOM     93  O   UNL     1       5.426  -5.789   4.589  1.00  0.00    -0.271 OA
ATOM     94  N   UNL     1       4.667  -5.043   3.653  1.00  0.00    -0.233 N 
ATOM     95  O   UNL     1       3.264  -5.626   1.921  1.00  0.00    -0.270 OA
ATOM     96  H   UNL     1       4.506  -4.072   3.698  1.00  0.00     0.199 HD
ENDBRANCH  88  90
ENDBRANCH  85  86
ENDBRANCH  81  83
ENDBRANCH  80  81
ENDBRANCH  79  80
ENDBRANCH  78  79
ENDBRANCH  77  78
ENDBRANCH  76  77
ENDBRANCH  75  76
ENDBRANCH   1  75
TORSDOF 22
