REMARK SMILES COc1ccc([C@H]2CC(c3ccccc3)=NN2C(=O)CCCC(=O)OCCOCCOCCOCCOC(=O)c2ccc(-c3c4nc(c(-c5c(F)c(F)c(F)c(F)c5F)c5ccc([nH]5)c(-c5c(F)c(F)c(F)c(F)c5F)c5nc(c(-c6c(F)c(F)c(F)c(F)c6F)c6ccc3[nH]6)C=C5)C=C4)cc2)cc1
REMARK SMILES IDX 29 1 28 2 27 3 26 4 25 5 23 6 24 7 22 8 21 9 20 10 18 11
REMARK SMILES IDX 19 12 17 13 7 14 8 15 9 16 16 17 6 18 3 19 4 20 104 21 5 22
REMARK SMILES IDX 103 23 2 24 1 25 10 26 11 27 15 28 12 29 14 30 13 31 30 32
REMARK SMILES IDX 31 33 32 34 33 35 34 36 35 37 36 38 37 39 38 40 39 41 40 42
REMARK SMILES IDX 41 43 102 44 42 45 101 46 43 47 44 48 45 49 95 50 46 51
REMARK SMILES IDX 100 52 94 53 96 54 47 55 99 56 93 57 92 58 48 60 80 61 60 62
REMARK SMILES IDX 79 63 61 64 64 65 78 66 97 67 62 68 63 69 77 71 98 72 65 73
REMARK SMILES IDX 49 74 50 75 58 76 51 77 52 78 56 79 59 80 53 81 54 82 57 83
REMARK SMILES IDX 55 84 81 85 82 86 90 87 83 88 84 89 88 90 91 91 85 92 86 93
REMARK SMILES IDX 89 94 87 95 66 96 67 97 75 98 68 99 69 100 73 101 76 102
REMARK SMILES IDX 70 103 71 104 74 105 72 106
REMARK H PARENT 96 59 64 70
REMARK Flexibility Score: inf
ROOT
ATOM      1  C   UNL     1      -2.752  -1.351  -5.125  1.00  0.00     0.188 C 
ENDROOT
BRANCH   1   2
ATOM      2  O   UNL     1      -3.228  -1.376  -6.468  1.00  0.00    -0.376 OA
BRANCH   2   3
ATOM      3  C   UNL     1      -2.571  -0.540  -7.413  1.00  0.00     0.202 C 
BRANCH   3   4
ATOM      4  C   UNL     1      -1.317  -1.118  -8.116  1.00  0.00     0.261 C 
BRANCH   4   5
ATOM      5  O   UNL     1      -0.442  -1.930  -7.316  1.00  0.00    -0.463 OA
BRANCH   5   6
ATOM      6  C   UNL     1       0.102  -1.281  -6.269  1.00  0.00     0.305 C 
ATOM      7  O   UNL     1      -0.112  -0.090  -6.068  1.00  0.00    -0.252 OA
BRANCH   6   8
ATOM      8  C   UNL     1       0.964  -2.135  -5.357  1.00  0.00     0.123 C 
BRANCH   8   9
ATOM      9  C   UNL     1       1.737  -3.269  -5.961  1.00  0.00     0.022 C 
BRANCH   9  10
ATOM     10  C   UNL     1       2.614  -2.793  -7.103  1.00  0.00     0.103 C 
BRANCH  10  11
ATOM     11  C   UNL     1       3.888  -2.008  -6.775  1.00  0.00     0.243 C 
ATOM     12  O   UNL     1       4.952  -2.642  -6.880  1.00  0.00    -0.273 OA
BRANCH  11  13
ATOM     13  N   UNL     1       3.898  -0.627  -6.578  1.00  0.00    -0.225 N 
ATOM     14  C   UNL     1       2.938   0.403  -6.048  1.00  0.00     0.147 C 
ATOM     15  C   UNL     1       3.490   1.743  -6.494  1.00  0.00     0.091 C 
ATOM     16  C   UNL     1       4.726   1.277  -7.174  1.00  0.00     0.071 C 
ATOM     17  N   UNL     1       4.955   0.007  -7.199  1.00  0.00    -0.174 NA
BRANCH  14  18
ATOM     18  C   UNL     1       2.708   0.442  -4.528  1.00  0.00    -0.023 A 
ATOM     19  C   UNL     1       1.861  -0.127  -1.906  1.00  0.00     0.118 A 
ATOM     20  C   UNL     1       1.042   0.625  -2.738  1.00  0.00     0.047 A 
ATOM     21  C   UNL     1       3.143  -0.482  -2.324  1.00  0.00     0.047 A 
ATOM     22  C   UNL     1       1.491   0.959  -4.021  1.00  0.00     0.010 A 
ATOM     23  C   UNL     1       3.573  -0.191  -3.626  1.00  0.00     0.010 A 
BRANCH  19  24
ATOM     24  O   UNL     1       1.369  -0.695  -0.763  1.00  0.00    -0.497 OA
ATOM     25  C   UNL     1       1.241   0.246   0.297  1.00  0.00     0.278 C 
ENDBRANCH  19  24
ENDBRANCH  14  18
BRANCH  16  26
ATOM     26  C   UNL     1       5.594   2.239  -7.831  1.00  0.00    -0.002 A 
ATOM     27  C   UNL     1       5.822   2.111  -9.201  1.00  0.00     0.010 A 
ATOM     28  C   UNL     1       6.176   3.254  -7.077  1.00  0.00     0.010 A 
ATOM     29  C   UNL     1       6.653   3.030  -9.832  1.00  0.00     0.001 A 
ATOM     30  C   UNL     1       7.018   4.158  -7.712  1.00  0.00     0.001 A 
ATOM     31  C   UNL     1       7.254   4.047  -9.085  1.00  0.00     0.000 A 
ENDBRANCH  16  26
ENDBRANCH  11  13
ENDBRANCH  10  11
ENDBRANCH   9  10
ENDBRANCH   8   9
ENDBRANCH   6   8
ENDBRANCH   5   6
ENDBRANCH   4   5
ENDBRANCH   3   4
ENDBRANCH   2   3
ENDBRANCH   1   2
BRANCH   1  32
ATOM     32  C   UNL     1      -2.198  -2.693  -4.624  1.00  0.00     0.188 C 
BRANCH  32  33
ATOM     33  O   UNL     1      -1.752  -3.630  -5.598  1.00  0.00    -0.377 OA
BRANCH  33  34
ATOM     34  C   UNL     1      -2.671  -4.005  -6.628  1.00  0.00     0.188 C 
BRANCH  34  35
ATOM     35  C   UNL     1      -4.169  -4.086  -6.273  1.00  0.00     0.188 C 
BRANCH  35  36
ATOM     36  O   UNL     1      -4.449  -4.191  -4.891  1.00  0.00    -0.376 OA
BRANCH  36  37
ATOM     37  C   UNL     1      -4.432  -5.478  -4.294  1.00  0.00     0.202 C 
BRANCH  37  38
ATOM     38  C   UNL     1      -3.214  -6.393  -4.510  1.00  0.00     0.261 C 
BRANCH  38  39
ATOM     39  O   UNL     1      -2.916  -6.807  -5.858  1.00  0.00    -0.460 OA
BRANCH  39  40
ATOM     40  C   UNL     1      -3.911  -7.258  -6.661  1.00  0.00     0.338 C 
ATOM     41  O   UNL     1      -5.055  -7.478  -6.371  1.00  0.00    -0.246 OA
BRANCH  40  42
ATOM     42  C   UNL     1      -3.383  -7.225  -8.050  1.00  0.00     0.060 A 
ATOM     43  C   UNL     1      -4.004  -6.400  -9.001  1.00  0.00     0.016 A 
ATOM     44  C   UNL     1      -2.269  -7.987  -8.400  1.00  0.00     0.016 A 
ATOM     45  C   UNL     1      -3.524  -6.351 -10.311  1.00  0.00     0.010 A 
ATOM     46  C   UNL     1      -1.816  -7.972  -9.721  1.00  0.00     0.010 A 
ATOM     47  C   UNL     1      -2.461  -7.178 -10.687  1.00  0.00    -0.014 A 
BRANCH  47  48
ATOM     48  C   UNL     1      -2.184  -7.414 -12.124  1.00  0.00     0.031 A 
ATOM     49  C   UNL     1      -2.860  -8.586 -12.779  1.00  0.00     0.074 A 
ATOM     50  C   UNL     1      -1.355  -6.627 -12.829  1.00  0.00     0.049 A 
ATOM     51  N   UNL     1      -2.697  -9.080 -13.979  1.00  0.00    -0.248 NA
ATOM     52  C   UNL     1      -3.856  -9.300 -11.962  1.00  0.00     0.031 C 
ATOM     53  C   UNL     1      -0.690  -5.428 -12.325  1.00  0.00     0.029 A 
ATOM     54  N   UNL     1      -0.917  -6.738 -14.126  1.00  0.00    -0.354 N 
ATOM     55  C   UNL     1      -3.558 -10.167 -14.054  1.00  0.00     0.074 A 
ATOM     56  C   UNL     1      -4.226 -10.274 -12.777  1.00  0.00     0.031 C 
ATOM     57  C   UNL     1       0.096  -4.928 -13.296  1.00  0.00     0.029 A 
ATOM     58  C   UNL     1       0.020  -5.796 -14.472  1.00  0.00     0.049 A 
ATOM     59  H   UNL     1      -1.244  -7.428 -14.748  1.00  0.00     0.167 HD
ATOM     60  C   UNL     1      -3.772 -11.001 -15.097  1.00  0.00     0.037 A 
ATOM     61  C   UNL     1       0.756  -5.678 -15.596  1.00  0.00     0.037 A 
ATOM     62  C   UNL     1      -3.097 -10.898 -16.362  1.00  0.00     0.049 A 
ATOM     63  C   UNL     1       0.578  -6.685 -16.707  1.00  0.00     0.074 A 
ATOM     64  C   UNL     1      -3.252 -11.685 -17.489  1.00  0.00     0.029 A 
ATOM     65  N   UNL     1      -2.125  -9.954 -16.661  1.00  0.00    -0.354 N 
ATOM     66  N   UNL     1      -0.252  -7.697 -16.785  1.00  0.00    -0.248 NA
ATOM     67  C   UNL     1       1.446  -6.535 -17.885  1.00  0.00     0.031 C 
ATOM     68  C   UNL     1      -2.330 -11.256 -18.448  1.00  0.00     0.029 A 
ATOM     69  C   UNL     1      -1.645 -10.162 -17.943  1.00  0.00     0.049 A 
ATOM     70  H   UNL     1      -1.822  -9.243 -16.052  1.00  0.00     0.167 HD
ATOM     71  C   UNL     1      -0.026  -8.286 -18.024  1.00  0.00     0.074 A 
ATOM     72  C   UNL     1       1.010  -7.509 -18.672  1.00  0.00     0.031 C 
ATOM     73  C   UNL     1      -0.621  -9.371 -18.577  1.00  0.00     0.037 A 
BRANCH  60  74
ATOM     74  C   UNL     1      -4.748 -12.123 -14.897  1.00  0.00     0.064 A 
ATOM     75  C   UNL     1      -6.127 -11.892 -14.789  1.00  0.00     0.173 A 
ATOM     76  C   UNL     1      -4.297 -13.450 -14.836  1.00  0.00     0.173 A 
ATOM     77  F   UNL     1      -6.608 -10.640 -14.822  1.00  0.00    -0.203 F 
ATOM     78  C   UNL     1      -7.017 -12.947 -14.602  1.00  0.00     0.198 A 
ATOM     79  C   UNL     1      -5.191 -14.504 -14.681  1.00  0.00     0.198 A 
ATOM     80  F   UNL     1      -2.987 -13.725 -14.934  1.00  0.00    -0.203 F 
ATOM     81  F   UNL     1      -8.325 -12.700 -14.452  1.00  0.00    -0.200 F 
ATOM     82  C   UNL     1      -6.549 -14.252 -14.557  1.00  0.00     0.200 A 
ATOM     83  F   UNL     1      -4.739 -15.765 -14.650  1.00  0.00    -0.200 F 
ATOM     84  F   UNL     1      -7.407 -15.267 -14.385  1.00  0.00    -0.200 F 
ENDBRANCH  60  74
BRANCH  61  85
ATOM     85  C   UNL     1       1.759  -4.586 -15.722  1.00  0.00     0.064 A 
ATOM     86  C   UNL     1       1.598  -3.562 -16.666  1.00  0.00     0.173 A 
ATOM     87  C   UNL     1       2.915  -4.563 -14.927  1.00  0.00     0.173 A 
ATOM     88  F   UNL     1       0.526  -3.556 -17.471  1.00  0.00    -0.203 F 
ATOM     89  C   UNL     1       2.563  -2.568 -16.822  1.00  0.00     0.198 A 
ATOM     90  C   UNL     1       3.864  -3.551 -15.063  1.00  0.00     0.198 A 
ATOM     91  F   UNL     1       3.123  -5.524 -14.015  1.00  0.00    -0.203 F 
ATOM     92  F   UNL     1       2.408  -1.630 -17.767  1.00  0.00    -0.200 F 
ATOM     93  C   UNL     1       3.692  -2.560 -16.016  1.00  0.00     0.200 A 
ATOM     94  F   UNL     1       4.949  -3.542 -14.277  1.00  0.00    -0.200 F 
ATOM     95  F   UNL     1       4.617  -1.602 -16.166  1.00  0.00    -0.200 F 
ENDBRANCH  61  85
BRANCH  73  96
ATOM     96  C   UNL     1      -0.202  -9.770 -19.963  1.00  0.00     0.064 A 
ATOM     97  C   UNL     1       1.046 -10.359 -20.215  1.00  0.00     0.173 A 
ATOM     98  C   UNL     1      -1.090  -9.627 -21.041  1.00  0.00     0.173 A 
ATOM     99  F   UNL     1       1.936 -10.506 -19.223  1.00  0.00    -0.203 F 
ATOM    100  C   UNL     1       1.394 -10.776 -21.498  1.00  0.00     0.198 A 
ATOM    101  C   UNL     1      -0.751 -10.074 -22.315  1.00  0.00     0.198 A 
ATOM    102  F   UNL     1      -2.300  -9.078 -20.853  1.00  0.00    -0.203 F 
ATOM    103  F   UNL     1       2.606 -11.302 -21.723  1.00  0.00    -0.200 F 
ATOM    104  C   UNL     1       0.492 -10.643 -22.544  1.00  0.00     0.200 A 
ATOM    105  F   UNL     1      -1.631  -9.961 -23.320  1.00  0.00    -0.200 F 
ATOM    106  F   UNL     1       0.823 -11.062 -23.773  1.00  0.00    -0.200 F 
ENDBRANCH  73  96
ENDBRANCH  47  48
ENDBRANCH  40  42
ENDBRANCH  39  40
ENDBRANCH  38  39
ENDBRANCH  37  38
ENDBRANCH  36  37
ENDBRANCH  35  36
ENDBRANCH  34  35
ENDBRANCH  33  34
ENDBRANCH  32  33
ENDBRANCH   1  32
TORSDOF 27
