REMARK SMILES Cc1cccc(C(=O)Nc2ccc(C(=O)NNC(=O)c3ccccc3C(=O)OCCOCCOCCOCCOC(=O)c3ccc(-c4c5nc(c(-c6c(F)c(F)c(F)c(F)c6F)c6ccc([nH]6)c(-c6c(F)c(F)c(F)c(F)c6F)c6nc(c(-c7c(F)c(F)c(F)c(F)c7F)c7ccc4[nH]7)C=C6)C=C5)cc3)cc2)c1
REMARK SMILES IDX 32 1 31 2 30 3 29 4 28 5 26 6 27 7 25 8 20 9 21 10 22 11
REMARK SMILES IDX 24 12 23 13 18 14 17 15 19 17 16 18 14 19 15 20 13 22 10 23
REMARK SMILES IDX 11 24 107 25 12 26 106 27 9 28 7 29 8 30 6 32 1 33 2 34 3 35
REMARK SMILES IDX 108 36 4 37 5 38 33 39 34 40 35 41 36 42 37 43 38 44 39 45
REMARK SMILES IDX 40 46 41 47 42 48 43 49 44 50 105 51 45 52 104 53 46 54
REMARK SMILES IDX 47 55 48 56 98 57 49 58 103 59 97 60 99 61 50 62 102 63
REMARK SMILES IDX 96 64 95 65 51 67 83 68 63 69 82 70 64 71 67 72 81 73 100 74
REMARK SMILES IDX 65 75 66 76 80 78 101 79 68 80 52 81 53 82 61 83 54 84 55 85
REMARK SMILES IDX 59 86 62 87 56 88 57 89 60 90 58 91 84 92 85 93 93 94 86 95
REMARK SMILES IDX 87 96 91 97 94 98 88 99 89 100 92 101 90 102 69 103 70 104
REMARK SMILES IDX 78 105 71 106 72 107 76 108 79 109 73 110 74 111 77 112
REMARK SMILES IDX 75 113
REMARK H PARENT 17 16 16 21 9 31 99 66 67 77
REMARK Flexibility Score: inf
ROOT
ATOM      1  C   UNL     1       6.397  -1.587   2.309  1.00  0.00     0.188 C 
ENDROOT
BRANCH   1   2
ATOM      2  O   UNL     1       6.027  -0.677   3.340  1.00  0.00    -0.376 OA
BRANCH   2   3
ATOM      3  C   UNL     1       6.280   0.709   3.157  1.00  0.00     0.202 C 
BRANCH   3   4
ATOM      4  C   UNL     1       7.676   1.135   2.787  1.00  0.00     0.261 C 
BRANCH   4   5
ATOM      5  O   UNL     1       7.904   0.626   1.499  1.00  0.00    -0.460 OA
BRANCH   5   6
ATOM      6  C   UNL     1       9.141   0.671   1.049  1.00  0.00     0.339 C 
ATOM      7  O   UNL     1      10.174   1.027   1.634  1.00  0.00    -0.246 OA
BRANCH   6   8
ATOM      8  C   UNL     1       9.042  -0.035  -0.196  1.00  0.00     0.072 A 
ATOM      9  C   UNL     1       8.115   0.318  -1.163  1.00  0.00     0.056 A 
ATOM     10  C   UNL     1       8.051  -0.582  -2.289  1.00  0.00     0.015 A 
ATOM     11  C   UNL     1       8.727  -1.805  -2.351  1.00  0.00     0.001 A 
ATOM     12  C   UNL     1       9.745  -1.264  -0.258  1.00  0.00     0.016 A 
ATOM     13  C   UNL     1       9.557  -2.161  -1.308  1.00  0.00     0.001 A 
BRANCH   9  14
ATOM     14  C   UNL     1       6.991   1.327  -1.080  1.00  0.00     0.270 C 
ATOM     15  N   UNL     1       6.622   2.393  -0.064  1.00  0.00    -0.263 N 
ATOM     16  H   UNL     1       6.751   2.187   0.890  1.00  0.00     0.191 HD
ATOM     17  O   UNL     1       6.164   0.853  -1.877  1.00  0.00    -0.267 OA
BRANCH  15  18
ATOM     18  N   UNL     1       5.961   4.018  -0.503  1.00  0.00    -0.263 N 
ATOM     19  C   UNL     1       4.969   5.195  -0.096  1.00  0.00     0.269 C 
ATOM     20  O   UNL     1       5.482   6.321   0.079  1.00  0.00    -0.267 OA
ATOM     21  H   UNL     1       6.395   4.287  -1.345  1.00  0.00     0.191 HD
BRANCH  19  22
ATOM     22  C   UNL     1       3.353   5.368  -0.018  1.00  0.00     0.041 A 
ATOM     23  C   UNL     1       0.473   4.893   0.272  1.00  0.00     0.041 A 
ATOM     24  C   UNL     1       1.060   5.017  -0.952  1.00  0.00     0.027 A 
ATOM     25  C   UNL     1       1.227   5.509   1.288  1.00  0.00     0.027 A 
ATOM     26  C   UNL     1       2.450   5.384  -1.083  1.00  0.00     0.016 A 
ATOM     27  C   UNL     1       2.660   5.711   1.153  1.00  0.00     0.016 A 
BRANCH  23  28
ATOM     28  N   UNL     1      -0.830   4.333   0.497  1.00  0.00    -0.322 N 
ATOM     29  C   UNL     1      -1.622   3.184   0.210  1.00  0.00     0.255 C 
ATOM     30  O   UNL     1      -2.833   3.387   0.407  1.00  0.00    -0.269 OA
ATOM     31  H   UNL     1      -1.361   4.963   1.036  1.00  0.00     0.170 HD
BRANCH  29  32
ATOM     32  C   UNL     1      -1.301   1.688  -0.068  1.00  0.00     0.040 A 
ATOM     33  C   UNL     1       1.290  -0.875  -1.492  1.00  0.00     0.044 C 
ATOM     34  C   UNL     1       0.096  -0.265  -0.792  1.00  0.00    -0.050 A 
ATOM     35  C   UNL     1      -0.919  -1.157  -0.467  1.00  0.00     0.003 A 
ATOM     36  C   UNL     1      -0.107   1.126  -0.504  1.00  0.00     0.017 A 
ATOM     37  C   UNL     1      -2.120  -0.660   0.009  1.00  0.00     0.001 A 
ATOM     38  C   UNL     1      -2.312   0.732   0.170  1.00  0.00     0.014 A 
ENDBRANCH  29  32
ENDBRANCH  23  28
ENDBRANCH  19  22
ENDBRANCH  15  18
ENDBRANCH   9  14
ENDBRANCH   6   8
ENDBRANCH   5   6
ENDBRANCH   4   5
ENDBRANCH   3   4
ENDBRANCH   2   3
ENDBRANCH   1   2
BRANCH   1  39
ATOM     39  C   UNL     1       5.545  -1.815   1.042  1.00  0.00     0.188 C 
BRANCH  39  40
ATOM     40  O   UNL     1       5.000  -0.720   0.354  1.00  0.00    -0.377 OA
BRANCH  40  41
ATOM     41  C   UNL     1       3.741  -0.247   0.787  1.00  0.00     0.188 C 
BRANCH  41  42
ATOM     42  C   UNL     1       2.791  -1.123   1.578  1.00  0.00     0.188 C 
BRANCH  42  43
ATOM     43  O   UNL     1       3.321  -1.223   2.890  1.00  0.00    -0.376 OA
BRANCH  43  44
ATOM     44  C   UNL     1       2.923  -2.371   3.618  1.00  0.00     0.202 C 
BRANCH  44  45
ATOM     45  C   UNL     1       1.413  -2.429   3.857  1.00  0.00     0.261 C 
BRANCH  45  46
ATOM     46  O   UNL     1       1.052  -1.343   4.738  1.00  0.00    -0.460 OA
BRANCH  46  47
ATOM     47  C   UNL     1       0.185  -0.441   4.208  1.00  0.00     0.338 C 
ATOM     48  O   UNL     1      -0.928  -0.710   3.785  1.00  0.00    -0.246 OA
BRANCH  47  49
ATOM     49  C   UNL     1       0.891   0.847   3.942  1.00  0.00     0.060 A 
ATOM     50  C   UNL     1       0.355   1.714   3.006  1.00  0.00     0.016 A 
ATOM     51  C   UNL     1       2.216   1.018   4.285  1.00  0.00     0.016 A 
ATOM     52  C   UNL     1       1.221   2.462   2.184  1.00  0.00     0.010 A 
ATOM     53  C   UNL     1       3.033   1.781   3.444  1.00  0.00     0.010 A 
ATOM     54  C   UNL     1       2.594   2.438   2.279  1.00  0.00    -0.014 A 
BRANCH  54  55
ATOM     55  C   UNL     1       3.654   2.920   1.236  1.00  0.00     0.031 A 
ATOM     56  C   UNL     1       4.935   3.631   2.174  1.00  0.00     0.074 A 
ATOM     57  C   UNL     1       3.535   2.659  -0.200  1.00  0.00     0.049 A 
ATOM     58  N   UNL     1       6.154   3.899   1.813  1.00  0.00    -0.248 NA
ATOM     59  C   UNL     1       4.811   4.106   3.583  1.00  0.00     0.031 C 
ATOM     60  C   UNL     1       4.446   2.313  -1.286  1.00  0.00     0.029 A 
ATOM     61  N   UNL     1       2.478   2.651  -1.159  1.00  0.00    -0.354 N 
ATOM     62  C   UNL     1       6.963   4.440   2.793  1.00  0.00     0.074 A 
ATOM     63  C   UNL     1       6.060   4.500   3.919  1.00  0.00     0.031 C 
ATOM     64  C   UNL     1       4.040   2.017  -2.524  1.00  0.00     0.029 A 
ATOM     65  C   UNL     1       2.881   2.796  -2.576  1.00  0.00     0.049 A 
ATOM     66  H   UNL     1       1.535   2.556  -0.894  1.00  0.00     0.167 HD
ATOM     67  C   UNL     1       8.318   4.600   2.537  1.00  0.00     0.037 A 
ATOM     68  C   UNL     1       3.196   3.807  -3.485  1.00  0.00     0.037 A 
ATOM     69  C   UNL     1       8.650   4.662   1.082  1.00  0.00     0.049 A 
ATOM     70  C   UNL     1       4.562   4.830  -3.471  1.00  0.00     0.074 A 
ATOM     71  C   UNL     1       9.464   3.980   0.187  1.00  0.00     0.029 A 
ATOM     72  N   UNL     1       8.043   5.623   0.296  1.00  0.00    -0.354 N 
ATOM     73  N   UNL     1       5.769   4.705  -2.903  1.00  0.00    -0.248 NA
ATOM     74  C   UNL     1       4.413   6.208  -3.981  1.00  0.00     0.031 C 
ATOM     75  C   UNL     1       9.220   4.455  -1.155  1.00  0.00     0.029 A 
ATOM     76  C   UNL     1       8.309   5.493  -1.090  1.00  0.00     0.049 A 
ATOM     77  H   UNL     1       7.475   6.337   0.666  1.00  0.00     0.167 HD
ATOM     78  C   UNL     1       6.437   5.985  -2.783  1.00  0.00     0.074 A 
ATOM     79  C   UNL     1       5.503   6.848  -3.510  1.00  0.00     0.031 C 
ATOM     80  C   UNL     1       7.568   6.398  -2.012  1.00  0.00     0.037 A 
BRANCH  67  81
ATOM     81  C   UNL     1       9.469   4.489   3.575  1.00  0.00     0.064 A 
ATOM     82  C   UNL     1      10.827   4.590   3.157  1.00  0.00     0.173 A 
ATOM     83  C   UNL     1       9.329   4.101   4.925  1.00  0.00     0.173 A 
ATOM     84  F   UNL     1      11.152   5.031   1.935  1.00  0.00    -0.203 F 
ATOM     85  C   UNL     1      11.919   4.247   3.972  1.00  0.00     0.198 A 
ATOM     86  C   UNL     1      10.430   3.819   5.761  1.00  0.00     0.198 A 
ATOM     87  F   UNL     1       8.128   3.936   5.487  1.00  0.00    -0.203 F 
ATOM     88  F   UNL     1      13.165   4.288   3.474  1.00  0.00    -0.200 F 
ATOM     89  C   UNL     1      11.721   3.864   5.277  1.00  0.00     0.200 A 
ATOM     90  F   UNL     1      10.222   3.474   7.041  1.00  0.00    -0.200 F 
ATOM     91  F   UNL     1      12.761   3.549   6.063  1.00  0.00    -0.200 F 
ENDBRANCH  67  81
BRANCH  68  92
ATOM     92  C   UNL     1       2.155   3.562  -4.620  1.00  0.00     0.064 A 
ATOM     93  C   UNL     1       2.197   2.254  -5.184  1.00  0.00     0.173 A 
ATOM     94  C   UNL     1       0.866   3.968  -4.231  1.00  0.00     0.173 A 
ATOM     95  F   UNL     1       3.332   1.814  -5.748  1.00  0.00    -0.203 F 
ATOM     96  C   UNL     1       1.188   1.308  -4.913  1.00  0.00     0.198 A 
ATOM     97  C   UNL     1      -0.122   3.021  -3.901  1.00  0.00     0.198 A 
ATOM     98  F   UNL     1       0.665   5.255  -3.915  1.00  0.00    -0.203 F 
ATOM     99  F   UNL     1       1.374   0.014  -5.217  1.00  0.00    -0.200 F 
ATOM    100  C   UNL     1       0.069   1.681  -4.190  1.00  0.00     0.200 A 
ATOM    101  F   UNL     1      -1.183   3.394  -3.169  1.00  0.00    -0.200 F 
ATOM    102  F   UNL     1      -0.787   0.754  -3.733  1.00  0.00    -0.200 F 
ENDBRANCH  68  92
BRANCH  80 103
ATOM    103  C   UNL     1       8.102   7.866  -1.871  1.00  0.00     0.064 A 
ATOM    104  C   UNL     1       8.161   8.758  -2.944  1.00  0.00     0.173 A 
ATOM    105  C   UNL     1       8.726   8.372  -0.676  1.00  0.00     0.173 A 
ATOM    106  F   UNL     1       7.758   8.384  -4.165  1.00  0.00    -0.203 F 
ATOM    107  C   UNL     1       8.690  10.057  -2.809  1.00  0.00     0.198 A 
ATOM    108  C   UNL     1       9.291   9.639  -0.559  1.00  0.00     0.198 A 
ATOM    109  F   UNL     1       8.839   7.683   0.463  1.00  0.00    -0.203 F 
ATOM    110  F   UNL     1       8.670  10.888  -3.859  1.00  0.00    -0.200 F 
ATOM    111  C   UNL     1       9.250  10.496  -1.621  1.00  0.00     0.200 A 
ATOM    112  F   UNL     1       9.874  10.001   0.595  1.00  0.00    -0.200 F 
ATOM    113  F   UNL     1       9.762  11.728  -1.504  1.00  0.00    -0.200 F 
ENDBRANCH  80 103
ENDBRANCH  54  55
ENDBRANCH  47  49
ENDBRANCH  46  47
ENDBRANCH  45  46
ENDBRANCH  44  45
ENDBRANCH  43  44
ENDBRANCH  42  43
ENDBRANCH  41  42
ENDBRANCH  40  41
ENDBRANCH  39  40
ENDBRANCH   1  39
TORSDOF 25
