REMARK SMILES Cn1cc(Cl)cc1C(=O)N[C@H]1C=C[C@H](C(=O)OCCOCCOCCOCCOC(=O)c2ccc(-c3c4nc(c(-c5c(F)c(F)c(F)c(F)c5F)c5ccc([nH]5)c(-c5c(F)c(F)c(F)c(F)c5F)c5nc(c(-c6c(F)c(F)c(F)c(F)c6F)c6ccc3[nH]6)C=C5)C=C4)cc2)C1
REMARK SMILES IDX 23 1 22 2 21 3 20 4 19 5 18 6 17 7 15 8 16 9 14 10 11 11
REMARK SMILES IDX 12 12 95 13 13 14 10 15 8 16 9 17 7 19 1 20 2 21 3 22 4 23
REMARK SMILES IDX 6 24 5 25 24 26 25 27 26 28 27 29 28 30 29 31 30 32 31 33
REMARK SMILES IDX 32 34 33 35 94 36 34 37 93 38 35 39 36 40 37 41 87 42 38 43
REMARK SMILES IDX 92 44 86 45 88 46 39 47 91 48 85 49 84 50 40 52 72 53 52 54
REMARK SMILES IDX 71 55 53 56 56 57 70 58 89 59 54 60 55 61 69 63 90 64 57 65
REMARK SMILES IDX 41 66 42 67 50 68 43 69 44 70 48 71 51 72 45 73 46 74 49 75
REMARK SMILES IDX 47 76 73 77 74 78 82 79 75 80 76 81 80 82 83 83 77 84 78 85
REMARK SMILES IDX 81 86 79 87 58 88 59 89 67 90 60 91 61 92 65 93 68 94 62 95
REMARK SMILES IDX 63 96 66 97 64 98
REMARK H PARENT 10 18 88 51 56 62
REMARK Flexibility Score: inf
ROOT
ATOM      1  O   UNL     1       3.115   3.506   1.906  1.00  0.00    -0.377 OA
ENDROOT
BRANCH   1   2
ATOM      2  C   UNL     1       1.845   3.866   2.425  1.00  0.00     0.188 C 
BRANCH   2   3
ATOM      3  C   UNL     1       1.498   3.314   3.833  1.00  0.00     0.188 C 
BRANCH   3   4
ATOM      4  O   UNL     1       2.402   2.472   4.538  1.00  0.00    -0.376 OA
BRANCH   4   5
ATOM      5  C   UNL     1       3.252   1.597   3.820  1.00  0.00     0.202 C 
BRANCH   5   6
ATOM      6  C   UNL     1       2.637   0.652   2.774  1.00  0.00     0.261 C 
BRANCH   6   7
ATOM      7  O   UNL     1       1.459   1.127   2.084  1.00  0.00    -0.463 OA
BRANCH   7   8
ATOM      8  C   UNL     1       0.265   0.698   2.571  1.00  0.00     0.312 C 
ATOM      9  O   UNL     1       0.153  -0.102   3.493  1.00  0.00    -0.252 OA
BRANCH   8  10
ATOM     10  C   UNL     1      -0.964   1.212   1.793  1.00  0.00     0.124 C 
ATOM     11  C   UNL     1      -0.520   0.951  -0.545  1.00  0.00     0.106 C 
ATOM     12  C   UNL     1      -0.868   2.373  -0.271  1.00  0.00    -0.006 C 
ATOM     13  C   UNL     1      -1.187   0.248   0.633  1.00  0.00     0.048 C 
ATOM     14  C   UNL     1      -1.022   2.531   1.054  1.00  0.00    -0.014 C 
BRANCH  11  15
ATOM     15  N   UNL     1      -0.946   0.487  -1.823  1.00  0.00    -0.345 N 
ATOM     16  C   UNL     1      -0.769  -0.753  -2.387  1.00  0.00     0.268 C 
ATOM     17  O   UNL     1      -1.297  -0.920  -3.488  1.00  0.00    -0.268 OA
ATOM     18  H   UNL     1      -1.432   1.142  -2.375  1.00  0.00     0.164 HD
BRANCH  16  19
ATOM     19  C   UNL     1      -0.119  -1.853  -1.682  1.00  0.00     0.108 A 
ATOM     20  C   UNL     1       2.063  -0.942  -0.689  1.00  0.00     0.150 C 
ATOM     21  N   UNL     1       1.027  -1.926  -0.905  1.00  0.00    -0.345 N 
ATOM     22  C   UNL     1       1.159  -3.189  -0.367  1.00  0.00     0.106 A 
ATOM     23  C   UNL     1       0.215  -3.994  -0.943  1.00  0.00     0.059 A 
ATOM     24  C   UNL     1      -0.572  -3.173  -1.771  1.00  0.00     0.054 A 
ATOM     25  Cl  UNL     1       0.020  -5.661  -0.725  1.00  0.00    -0.083 Cl
ENDBRANCH  16  19
ENDBRANCH  11  15
ENDBRANCH   8  10
ENDBRANCH   7   8
ENDBRANCH   6   7
ENDBRANCH   5   6
ENDBRANCH   4   5
ENDBRANCH   3   4
ENDBRANCH   2   3
ENDBRANCH   1   2
BRANCH   1  26
ATOM     26  C   UNL     1       4.140   4.486   2.025  1.00  0.00     0.188 C 
BRANCH  26  27
ATOM     27  C   UNL     1       4.316   5.157   3.404  1.00  0.00     0.188 C 
BRANCH  27  28
ATOM     28  O   UNL     1       3.099   5.492   4.052  1.00  0.00    -0.376 OA
BRANCH  28  29
ATOM     29  C   UNL     1       2.590   6.812   4.084  1.00  0.00     0.202 C 
BRANCH  29  30
ATOM     30  C   UNL     1       2.118   7.454   2.781  1.00  0.00     0.261 C 
BRANCH  30  31
ATOM     31  O   UNL     1       2.937   7.213   1.652  1.00  0.00    -0.460 OA
BRANCH  31  32
ATOM     32  C   UNL     1       4.136   7.823   1.702  1.00  0.00     0.338 C 
ATOM     33  O   UNL     1       4.695   8.273   2.681  1.00  0.00    -0.246 OA
BRANCH  32  34
ATOM     34  C   UNL     1       4.596   8.033   0.327  1.00  0.00     0.060 A 
ATOM     35  C   UNL     1       5.867   8.579   0.195  1.00  0.00     0.016 A 
ATOM     36  C   UNL     1       3.675   8.005  -0.735  1.00  0.00     0.016 A 
ATOM     37  C   UNL     1       6.130   9.311  -0.936  1.00  0.00     0.010 A 
ATOM     38  C   UNL     1       3.942   8.735  -1.870  1.00  0.00     0.010 A 
ATOM     39  C   UNL     1       5.132   9.449  -1.917  1.00  0.00    -0.014 A 
BRANCH  39  40
ATOM     40  C   UNL     1       5.477  10.228  -3.086  1.00  0.00     0.031 A 
ATOM     41  C   UNL     1       6.557   9.572  -3.842  1.00  0.00     0.074 A 
ATOM     42  C   UNL     1       4.913  11.403  -3.422  1.00  0.00     0.049 A 
ATOM     43  N   UNL     1       7.800   9.909  -3.815  1.00  0.00    -0.248 NA
ATOM     44  C   UNL     1       6.296   8.277  -4.486  1.00  0.00     0.031 C 
ATOM     45  C   UNL     1       3.706  12.016  -2.867  1.00  0.00     0.029 A 
ATOM     46  N   UNL     1       5.282  12.280  -4.402  1.00  0.00    -0.354 N 
ATOM     47  C   UNL     1       8.444   9.013  -4.654  1.00  0.00     0.074 A 
ATOM     48  C   UNL     1       7.528   7.925  -4.864  1.00  0.00     0.031 C 
ATOM     49  C   UNL     1       3.314  13.035  -3.668  1.00  0.00     0.029 A 
ATOM     50  C   UNL     1       4.319  13.239  -4.699  1.00  0.00     0.049 A 
ATOM     51  H   UNL     1       6.153  12.238  -4.858  1.00  0.00     0.167 HD
ATOM     52  C   UNL     1       9.510   9.453  -5.373  1.00  0.00     0.037 A 
ATOM     53  C   UNL     1       4.346  14.104  -5.744  1.00  0.00     0.037 A 
ATOM     54  C   UNL     1      10.033  10.671  -4.795  1.00  0.00     0.049 A 
ATOM     55  C   UNL     1       5.765  14.277  -6.131  1.00  0.00     0.074 A 
ATOM     56  C   UNL     1      10.720  11.034  -3.657  1.00  0.00     0.029 A 
ATOM     57  N   UNL     1       9.426  11.798  -5.279  1.00  0.00    -0.354 N 
ATOM     58  N   UNL     1       6.638  14.898  -5.388  1.00  0.00    -0.248 NA
ATOM     59  C   UNL     1       6.324  13.454  -7.198  1.00  0.00     0.031 C 
ATOM     60  C   UNL     1      10.377  12.398  -3.402  1.00  0.00     0.029 A 
ATOM     61  C   UNL     1       9.532  12.848  -4.415  1.00  0.00     0.049 A 
ATOM     62  H   UNL     1       8.967  11.846  -6.149  1.00  0.00     0.167 HD
ATOM     63  C   UNL     1       7.809  14.197  -5.590  1.00  0.00     0.074 A 
ATOM     64  C   UNL     1       7.609  13.465  -6.835  1.00  0.00     0.031 C 
ATOM     65  C   UNL     1       8.682  14.008  -4.558  1.00  0.00     0.037 A 
BRANCH  52  66
ATOM     66  C   UNL     1       9.666   9.187  -6.860  1.00  0.00     0.064 A 
ATOM     67  C   UNL     1      10.797   9.718  -7.515  1.00  0.00     0.173 A 
ATOM     68  C   UNL     1       8.615   8.776  -7.711  1.00  0.00     0.173 A 
ATOM     69  F   UNL     1      11.846  10.166  -6.808  1.00  0.00    -0.203 F 
ATOM     70  C   UNL     1      10.831   9.903  -8.900  1.00  0.00     0.198 A 
ATOM     71  C   UNL     1       8.672   8.919  -9.095  1.00  0.00     0.198 A 
ATOM     72  F   UNL     1       7.442   8.333  -7.249  1.00  0.00    -0.203 F 
ATOM     73  F   UNL     1      11.870  10.535  -9.462  1.00  0.00    -0.200 F 
ATOM     74  C   UNL     1       9.764   9.511  -9.688  1.00  0.00     0.200 A 
ATOM     75  F   UNL     1       7.613   8.561  -9.835  1.00  0.00    -0.200 F 
ATOM     76  F   UNL     1       9.764   9.748 -11.006  1.00  0.00    -0.200 F 
ENDBRANCH  52  66
BRANCH  53  77
ATOM     77  C   UNL     1       3.238  14.604  -6.596  1.00  0.00     0.064 A 
ATOM     78  C   UNL     1       3.456  15.639  -7.526  1.00  0.00     0.173 A 
ATOM     79  C   UNL     1       2.044  13.876  -6.746  1.00  0.00     0.173 A 
ATOM     80  F   UNL     1       4.582  16.367  -7.477  1.00  0.00    -0.203 F 
ATOM     81  C   UNL     1       2.567  15.885  -8.577  1.00  0.00     0.198 A 
ATOM     82  C   UNL     1       1.153  14.128  -7.793  1.00  0.00     0.198 A 
ATOM     83  F   UNL     1       1.764  12.839  -5.945  1.00  0.00    -0.203 F 
ATOM     84  F   UNL     1       2.855  16.823  -9.491  1.00  0.00    -0.200 F 
ATOM     85  C   UNL     1       1.425  15.117  -8.720  1.00  0.00     0.200 A 
ATOM     86  F   UNL     1       0.067  13.356  -7.939  1.00  0.00    -0.200 F 
ATOM     87  F   UNL     1       0.612  15.298  -9.770  1.00  0.00    -0.200 F 
ENDBRANCH  53  77
BRANCH  65  88
ATOM     88  C   UNL     1       8.651  15.003  -3.442  1.00  0.00     0.064 A 
ATOM     89  C   UNL     1       7.573  15.197  -2.565  1.00  0.00     0.173 A 
ATOM     90  C   UNL     1       9.816  15.752  -3.219  1.00  0.00     0.173 A 
ATOM     91  F   UNL     1       6.456  14.462  -2.667  1.00  0.00    -0.203 F 
ATOM     92  C   UNL     1       7.650  16.133  -1.534  1.00  0.00     0.198 A 
ATOM     93  C   UNL     1       9.904  16.654  -2.166  1.00  0.00     0.198 A 
ATOM     94  F   UNL     1      10.888  15.579  -4.008  1.00  0.00    -0.203 F 
ATOM     95  F   UNL     1       6.602  16.322  -0.719  1.00  0.00    -0.200 F 
ATOM     96  C   UNL     1       8.817  16.854  -1.332  1.00  0.00     0.200 A 
ATOM     97  F   UNL     1      11.049  17.315  -1.951  1.00  0.00    -0.200 F 
ATOM     98  F   UNL     1       8.903  17.727  -0.319  1.00  0.00    -0.200 F 
ENDBRANCH  65  88
ENDBRANCH  39  40
ENDBRANCH  32  34
ENDBRANCH  31  32
ENDBRANCH  30  31
ENDBRANCH  29  30
ENDBRANCH  28  29
ENDBRANCH  27  28
ENDBRANCH  26  27
ENDBRANCH   1  26
TORSDOF 22
