REMARK SMILES Cc1ccc(-n2cnnn2)cc1OCC(=O)OCCOCCOCCOCCOC(=O)c1ccc(-c2c3nc(c(-c4c(F)c(F)c(F)c(F)c4F)c4ccc([nH]4)c(-c4c(F)c(F)c(F)c(F)c4F)c4nc(c(-c5c(F)c(F)c(F)c(F)c5F)c5ccc2[nH]5)C=C4)C=C3)cc1
REMARK SMILES IDX 22 1 21 2 20 3 19 4 18 5 17 6 15 7 16 8 14 9 13 10 12 11
REMARK SMILES IDX 1 12 2 13 3 14 4 15 11 16 5 17 6 18 7 19 10 20 8 21 9 22
REMARK SMILES IDX 23 23 24 24 25 25 26 26 27 27 28 28 29 29 30 30 31 31 32 32
REMARK SMILES IDX 33 33 94 34 34 35 93 36 35 37 36 38 37 39 87 40 38 41 92 42
REMARK SMILES IDX 86 43 88 44 39 45 91 46 85 47 84 48 40 50 72 51 52 52 71 53
REMARK SMILES IDX 53 54 56 55 70 56 89 57 54 58 55 59 69 61 90 62 57 63 41 64
REMARK SMILES IDX 42 65 50 66 43 67 44 68 48 69 51 70 45 71 46 72 49 73 47 74
REMARK SMILES IDX 73 75 74 76 82 77 75 78 76 79 80 80 83 81 77 82 78 83 81 84
REMARK SMILES IDX 79 85 58 86 59 87 67 88 60 89 61 90 65 91 68 92 62 93 63 94
REMARK SMILES IDX 66 95 64 96
REMARK H PARENT 88 49 56 60
REMARK Flexibility Score: inf
ROOT
ATOM      1  C   UNL     1       0.800   0.575   1.000  1.00  0.00     0.188 C 
ENDROOT
BRANCH   1   2
ATOM      2  C   UNL     1       1.769  -0.528   0.478  1.00  0.00     0.188 C 
BRANCH   2   3
ATOM      3  O   UNL     1       3.118  -0.688   0.880  1.00  0.00    -0.376 OA
BRANCH   3   4
ATOM      4  C   UNL     1       3.736   0.476   1.357  1.00  0.00     0.202 C 
BRANCH   4   5
ATOM      5  C   UNL     1       4.226   1.512   0.369  1.00  0.00     0.261 C 
BRANCH   5   6
ATOM      6  O   UNL     1       3.123   2.109  -0.309  1.00  0.00    -0.461 OA
BRANCH   6   7
ATOM      7  C   UNL     1       3.332   2.374  -1.614  1.00  0.00     0.344 C 
ATOM      8  O   UNL     1       4.403   2.241  -2.197  1.00  0.00    -0.248 OA
BRANCH   7   9
ATOM      9  C   UNL     1       2.061   2.880  -2.296  1.00  0.00     0.351 C 
BRANCH   9  10
ATOM     10  O   UNL     1       0.760   2.531  -1.873  1.00  0.00    -0.482 OA
BRANCH  10  11
ATOM     11  C   UNL     1       0.121   1.344  -2.096  1.00  0.00     0.125 A 
ATOM     12  C   UNL     1       1.982  -0.229  -3.064  1.00  0.00     0.048 C 
ATOM     13  C   UNL     1       0.617   0.101  -2.523  1.00  0.00    -0.009 A 
ATOM     14  C   UNL     1      -0.206  -1.043  -2.361  1.00  0.00     0.009 A 
ATOM     15  C   UNL     1      -1.480  -0.973  -1.809  1.00  0.00     0.029 A 
ATOM     16  C   UNL     1      -1.225   1.422  -1.648  1.00  0.00     0.075 A 
ATOM     17  C   UNL     1      -2.009   0.269  -1.486  1.00  0.00     0.072 A 
BRANCH  17  18
ATOM     18  N   UNL     1      -3.305   0.324  -0.938  1.00  0.00    -0.200 N 
ATOM     19  C   UNL     1      -4.257   1.299  -1.057  1.00  0.00     0.252 A 
ATOM     20  N   UNL     1      -3.822  -0.686  -0.200  1.00  0.00    -0.040 NA
ATOM     21  N   UNL     1      -5.323   0.943  -0.377  1.00  0.00    -0.117 NA
ATOM     22  N   UNL     1      -5.027  -0.279   0.171  1.00  0.00    -0.024 NA
ENDBRANCH  17  18
ENDBRANCH  10  11
ENDBRANCH   9  10
ENDBRANCH   7   9
ENDBRANCH   6   7
ENDBRANCH   5   6
ENDBRANCH   4   5
ENDBRANCH   3   4
ENDBRANCH   2   3
ENDBRANCH   1   2
BRANCH   1  23
ATOM     23  O   UNL     1       0.685   0.807   2.391  1.00  0.00    -0.377 OA
BRANCH  23  24
ATOM     24  C   UNL     1      -0.368   0.196   3.125  1.00  0.00     0.188 C 
BRANCH  24  25
ATOM     25  C   UNL     1      -1.201  -0.898   2.513  1.00  0.00     0.188 C 
BRANCH  25  26
ATOM     26  O   UNL     1      -0.304  -1.881   2.034  1.00  0.00    -0.376 OA
BRANCH  26  27
ATOM     27  C   UNL     1      -0.900  -3.023   1.446  1.00  0.00     0.202 C 
BRANCH  27  28
ATOM     28  C   UNL     1      -1.680  -3.846   2.470  1.00  0.00     0.261 C 
BRANCH  28  29
ATOM     29  O   UNL     1      -0.757  -4.278   3.497  1.00  0.00    -0.460 OA
BRANCH  29  30
ATOM     30  C   UNL     1      -0.845  -3.612   4.688  1.00  0.00     0.338 C 
ATOM     31  O   UNL     1      -1.868  -3.413   5.301  1.00  0.00    -0.246 OA
BRANCH  30  32
ATOM     32  C   UNL     1       0.460  -2.937   5.001  1.00  0.00     0.060 A 
ATOM     33  C   UNL     1       0.553  -2.040   6.082  1.00  0.00     0.016 A 
ATOM     34  C   UNL     1       1.473  -2.949   4.050  1.00  0.00     0.016 A 
ATOM     35  C   UNL     1       1.576  -1.065   6.126  1.00  0.00     0.010 A 
ATOM     36  C   UNL     1       2.396  -1.914   4.037  1.00  0.00     0.010 A 
ATOM     37  C   UNL     1       2.460  -0.941   5.055  1.00  0.00    -0.014 A 
BRANCH  37  38
ATOM     38  C   UNL     1       3.392   0.196   4.803  1.00  0.00     0.031 A 
ATOM     39  C   UNL     1       4.814  -0.139   4.417  1.00  0.00     0.074 A 
ATOM     40  C   UNL     1       2.876   1.424   4.507  1.00  0.00     0.049 A 
ATOM     41  N   UNL     1       5.706   0.691   3.986  1.00  0.00    -0.248 NA
ATOM     42  C   UNL     1       5.319  -1.509   4.395  1.00  0.00     0.031 C 
ATOM     43  C   UNL     1       3.459   2.436   3.607  1.00  0.00     0.029 A 
ATOM     44  N   UNL     1       1.609   1.982   4.772  1.00  0.00    -0.354 N 
ATOM     45  C   UNL     1       6.704  -0.015   3.319  1.00  0.00     0.074 A 
ATOM     46  C   UNL     1       6.436  -1.387   3.671  1.00  0.00     0.031 C 
ATOM     47  C   UNL     1       2.634   3.484   3.449  1.00  0.00     0.029 A 
ATOM     48  C   UNL     1       1.692   3.378   4.530  1.00  0.00     0.049 A 
ATOM     49  H   UNL     1       0.810   1.492   5.072  1.00  0.00     0.167 HD
ATOM     50  C   UNL     1       7.535   0.654   2.447  1.00  0.00     0.037 A 
ATOM     51  C   UNL     1       1.675   4.257   5.575  1.00  0.00     0.037 A 
ATOM     52  C   UNL     1       7.264   2.117   2.494  1.00  0.00     0.049 A 
ATOM     53  C   UNL     1       3.066   4.855   5.772  1.00  0.00     0.074 A 
ATOM     54  C   UNL     1       6.978   3.109   1.570  1.00  0.00     0.029 A 
ATOM     55  N   UNL     1       7.091   2.732   3.742  1.00  0.00    -0.354 N 
ATOM     56  N   UNL     1       4.159   4.265   5.338  1.00  0.00    -0.248 NA
ATOM     57  C   UNL     1       3.354   6.196   6.270  1.00  0.00     0.031 C 
ATOM     58  C   UNL     1       6.482   4.252   2.271  1.00  0.00     0.029 A 
ATOM     59  C   UNL     1       6.546   3.995   3.633  1.00  0.00     0.049 A 
ATOM     60  H   UNL     1       7.330   2.310   4.599  1.00  0.00     0.167 HD
ATOM     61  C   UNL     1       5.210   5.127   5.350  1.00  0.00     0.074 A 
ATOM     62  C   UNL     1       4.674   6.305   6.011  1.00  0.00     0.031 C 
ATOM     63  C   UNL     1       6.436   4.851   4.809  1.00  0.00     0.037 A 
BRANCH  50  64
ATOM     64  C   UNL     1       8.501   0.020   1.404  1.00  0.00     0.064 A 
ATOM     65  C   UNL     1       9.187   0.817   0.448  1.00  0.00     0.173 A 
ATOM     66  C   UNL     1       8.796  -1.356   1.263  1.00  0.00     0.173 A 
ATOM     67  F   UNL     1       9.134   2.152   0.479  1.00  0.00    -0.203 F 
ATOM     68  C   UNL     1      10.001   0.290  -0.573  1.00  0.00     0.198 A 
ATOM     69  C   UNL     1       9.623  -1.885   0.253  1.00  0.00     0.198 A 
ATOM     70  F   UNL     1       8.347  -2.274   2.113  1.00  0.00    -0.203 F 
ATOM     71  F   UNL     1      10.588   1.117  -1.451  1.00  0.00    -0.200 F 
ATOM     72  C   UNL     1      10.216  -1.064  -0.675  1.00  0.00     0.200 A 
ATOM     73  F   UNL     1       9.846  -3.207   0.207  1.00  0.00    -0.200 F 
ATOM     74  F   UNL     1      11.007  -1.569  -1.631  1.00  0.00    -0.200 F 
ENDBRANCH  50  64
BRANCH  51  75
ATOM     75  C   UNL     1       0.549   3.895   6.500  1.00  0.00     0.064 A 
ATOM     76  C   UNL     1      -0.732   4.013   5.899  1.00  0.00     0.173 A 
ATOM     77  C   UNL     1       0.709   2.860   7.436  1.00  0.00     0.173 A 
ATOM     78  F   UNL     1      -0.965   5.004   5.022  1.00  0.00    -0.203 F 
ATOM     79  C   UNL     1      -1.679   2.990   5.995  1.00  0.00     0.198 A 
ATOM     80  C   UNL     1      -0.265   1.856   7.559  1.00  0.00     0.198 A 
ATOM     81  F   UNL     1       1.877   2.704   8.074  1.00  0.00    -0.203 F 
ATOM     82  F   UNL     1      -2.772   3.013   5.218  1.00  0.00    -0.200 F 
ATOM     83  C   UNL     1      -1.418   1.885   6.784  1.00  0.00     0.200 A 
ATOM     84  F   UNL     1      -0.030   0.786   8.334  1.00  0.00    -0.200 F 
ATOM     85  F   UNL     1      -2.239   0.825   6.746  1.00  0.00    -0.200 F 
ENDBRANCH  51  75
BRANCH  63  86
ATOM     86  C   UNL     1       7.722   5.379   5.388  1.00  0.00     0.064 A 
ATOM     87  C   UNL     1       7.826   5.765   6.732  1.00  0.00     0.173 A 
ATOM     88  C   UNL     1       8.947   5.259   4.683  1.00  0.00     0.173 A 
ATOM     89  F   UNL     1       6.757   5.786   7.540  1.00  0.00    -0.203 F 
ATOM     90  C   UNL     1       9.054   6.070   7.313  1.00  0.00     0.198 A 
ATOM     91  C   UNL     1      10.175   5.497   5.288  1.00  0.00     0.198 A 
ATOM     92  F   UNL     1       9.000   4.856   3.406  1.00  0.00    -0.203 F 
ATOM     93  F   UNL     1       9.094   6.470   8.591  1.00  0.00    -0.200 F 
ATOM     94  C   UNL     1      10.227   5.923   6.598  1.00  0.00     0.200 A 
ATOM     95  F   UNL     1      11.307   5.278   4.604  1.00  0.00    -0.200 F 
ATOM     96  F   UNL     1      11.408   6.169   7.178  1.00  0.00    -0.200 F 
ENDBRANCH  63  86
ENDBRANCH  37  38
ENDBRANCH  30  32
ENDBRANCH  29  30
ENDBRANCH  28  29
ENDBRANCH  27  28
ENDBRANCH  26  27
ENDBRANCH  25  26
ENDBRANCH  24  25
ENDBRANCH  23  24
ENDBRANCH   1  23
TORSDOF 23
