REMARK SMILES Cc1cc(C)c(NS(=O)(=O)c2cccc3cc(C)cnc23)c(C(=O)OCCOCCOCCOCCOC(=O)c2ccc(-c3c4nc(c(-c5c(F)c(F)c(F)c(F)c5F)c5ccc([nH]5)c(-c5c(F)c(F)c(F)c(F)c5F)c5nc(c(-c6c(F)c(F)c(F)c(F)c6F)c6ccc3[nH]6)C=C5)C=C4)cc2)c1
REMARK SMILES IDX 30 1 29 2 28 3 27 4 26 5 25 6 23 7 24 8 22 9 1 10 2 11 3 12
REMARK SMILES IDX 103 13 4 14 5 15 6 16 7 17 8 19 9 20 10 21 11 22 12 23 21 24
REMARK SMILES IDX 13 25 15 26 20 27 14 28 16 29 19 30 17 31 18 32 31 33 32 34
REMARK SMILES IDX 33 35 34 36 35 37 36 38 37 39 38 40 39 41 40 42 41 43 102 44
REMARK SMILES IDX 42 45 101 46 43 47 44 48 45 49 95 50 46 51 100 52 94 53
REMARK SMILES IDX 96 54 47 55 99 56 93 57 92 58 48 60 80 61 60 62 79 63 61 64
REMARK SMILES IDX 64 65 78 66 97 67 62 68 63 69 77 71 98 72 65 73 49 74 50 75
REMARK SMILES IDX 58 76 51 77 52 78 56 79 59 80 53 81 54 82 57 83 55 84 81 85
REMARK SMILES IDX 82 86 90 87 83 88 84 89 88 90 91 91 85 92 86 93 89 94 87 95
REMARK SMILES IDX 66 96 67 97 75 98 68 99 69 100 73 101 76 102 70 103 71 104
REMARK SMILES IDX 74 105 72 106
REMARK H PARENT 7 18 96 59 64 70
REMARK Flexibility Score: inf
ROOT
ATOM      1  C   UNL     1      -0.153  -3.478   2.078  1.00  0.00     0.188 C 
ENDROOT
BRANCH   1   2
ATOM      2  C   UNL     1      -1.139  -4.429   1.363  1.00  0.00     0.188 C 
BRANCH   2   3
ATOM      3  O   UNL     1      -0.627  -5.730   1.117  1.00  0.00    -0.376 OA
BRANCH   3   4
ATOM      4  C   UNL     1      -0.389  -6.096  -0.229  1.00  0.00     0.202 C 
BRANCH   4   5
ATOM      5  C   UNL     1       0.799  -5.398  -0.899  1.00  0.00     0.261 C 
BRANCH   5   6
ATOM      6  O   UNL     1       0.816  -3.967  -0.807  1.00  0.00    -0.460 OA
BRANCH   6   7
ATOM      7  C   UNL     1      -0.183  -3.288  -1.413  1.00  0.00     0.340 C 
ATOM      8  O   UNL     1      -1.123  -3.779  -2.014  1.00  0.00    -0.246 OA
BRANCH   7   9
ATOM      9  C   UNL     1      -0.012  -1.832  -1.194  1.00  0.00     0.084 A 
ATOM     10  C   UNL     1       2.826   0.626  -0.733  1.00  0.00     0.044 C 
ATOM     11  C   UNL     1       1.483   0.062  -1.083  1.00  0.00    -0.050 A 
ATOM     12  C   UNL     1       0.404   0.871  -1.452  1.00  0.00     0.009 A 
ATOM     13  C   UNL     1       1.281  -1.311  -1.044  1.00  0.00     0.021 A 
ATOM     14  C   UNL     1      -0.898   0.342  -1.596  1.00  0.00    -0.026 A 
ATOM     15  C   UNL     1      -1.936   1.165  -2.300  1.00  0.00     0.046 C 
ATOM     16  C   UNL     1      -1.140  -0.983  -1.229  1.00  0.00     0.066 A 
BRANCH  16  17
ATOM     17  N   UNL     1      -2.200  -1.357  -0.311  1.00  0.00    -0.278 N 
ATOM     18  H   UNL     1      -1.996  -2.158   0.223  1.00  0.00     0.180 HD
BRANCH  17  19
ATOM     19  S   UNL     1      -3.693  -0.697   0.016  1.00  0.00     0.264 S 
ATOM     20  O   UNL     1      -4.413  -0.698  -1.244  1.00  0.00    -0.201 OA
ATOM     21  O   UNL     1      -4.216  -1.468   1.128  1.00  0.00    -0.201 OA
BRANCH  19  22
ATOM     22  C   UNL     1      -3.641   0.983   0.574  1.00  0.00     0.114 A 
ATOM     23  C   UNL     1      -4.765   1.755   0.201  1.00  0.00     0.024 A 
ATOM     24  C   UNL     1      -2.477   1.565   1.067  1.00  0.00     0.091 A 
ATOM     25  C   UNL     1      -4.694   3.139   0.191  1.00  0.00     0.002 A 
ATOM     26  C   UNL     1      -2.390   2.973   0.932  1.00  0.00     0.002 A 
ATOM     27  N   UNL     1      -1.441   0.858   1.569  1.00  0.00    -0.255 NA
ATOM     28  C   UNL     1      -3.489   3.745   0.513  1.00  0.00     0.010 A 
ATOM     29  C   UNL     1      -1.148   3.587   1.128  1.00  0.00     0.015 A 
ATOM     30  C   UNL     1      -0.265   1.492   1.786  1.00  0.00     0.115 A 
ATOM     31  C   UNL     1      -0.043   2.828   1.501  1.00  0.00    -0.032 A 
ATOM     32  C   UNL     1       1.327   3.424   1.509  1.00  0.00     0.046 C 
ENDBRANCH  19  22
ENDBRANCH  17  19
ENDBRANCH  16  17
ENDBRANCH   7   9
ENDBRANCH   6   7
ENDBRANCH   5   6
ENDBRANCH   4   5
ENDBRANCH   3   4
ENDBRANCH   2   3
ENDBRANCH   1   2
BRANCH   1  33
ATOM     33  O   UNL     1       1.157  -3.945   2.377  1.00  0.00    -0.377 OA
BRANCH  33  34
ATOM     34  C   UNL     1       1.332  -5.255   2.910  1.00  0.00     0.188 C 
BRANCH  34  35
ATOM     35  C   UNL     1       0.208  -5.960   3.709  1.00  0.00     0.188 C 
BRANCH  35  36
ATOM     36  O   UNL     1      -0.893  -5.132   4.030  1.00  0.00    -0.376 OA
BRANCH  36  37
ATOM     37  C   UNL     1      -1.061  -4.727   5.374  1.00  0.00     0.202 C 
BRANCH  37  38
ATOM     38  C   UNL     1       0.043  -3.845   5.967  1.00  0.00     0.261 C 
BRANCH  38  39
ATOM     39  O   UNL     1       1.381  -4.358   5.868  1.00  0.00    -0.460 OA
BRANCH  39  40
ATOM     40  C   UNL     1       1.661  -5.501   6.534  1.00  0.00     0.338 C 
ATOM     41  O   UNL     1       0.917  -6.152   7.237  1.00  0.00    -0.246 OA
BRANCH  40  42
ATOM     42  C   UNL     1       3.004  -5.938   6.094  1.00  0.00     0.060 A 
ATOM     43  C   UNL     1       3.151  -7.179   5.458  1.00  0.00     0.016 A 
ATOM     44  C   UNL     1       4.107  -5.105   6.290  1.00  0.00     0.016 A 
ATOM     45  C   UNL     1       4.412  -7.602   5.040  1.00  0.00     0.010 A 
ATOM     46  C   UNL     1       5.372  -5.541   5.897  1.00  0.00     0.010 A 
ATOM     47  C   UNL     1       5.534  -6.805   5.301  1.00  0.00    -0.014 A 
BRANCH  47  48
ATOM     48  C   UNL     1       6.892  -7.378   5.162  1.00  0.00     0.031 A 
ATOM     49  C   UNL     1       7.551  -7.935   6.392  1.00  0.00     0.074 A 
ATOM     50  C   UNL     1       7.526  -7.409   3.978  1.00  0.00     0.049 A 
ATOM     51  N   UNL     1       8.753  -8.425   6.547  1.00  0.00    -0.248 NA
ATOM     52  C   UNL     1       6.738  -7.932   7.620  1.00  0.00     0.031 C 
ATOM     53  C   UNL     1       6.974  -6.938   2.711  1.00  0.00     0.029 A 
ATOM     54  N   UNL     1       8.785  -7.851   3.658  1.00  0.00    -0.354 N 
ATOM     55  C   UNL     1       8.841  -8.782   7.886  1.00  0.00     0.074 A 
ATOM     56  C   UNL     1       7.588  -8.419   8.508  1.00  0.00     0.031 C 
ATOM     57  C   UNL     1       7.900  -7.099   1.749  1.00  0.00     0.029 A 
ATOM     58  C   UNL     1       9.118  -7.652   2.341  1.00  0.00     0.049 A 
ATOM     59  H   UNL     1       9.392  -8.270   4.310  1.00  0.00     0.167 HD
ATOM     60  C   UNL     1       9.874  -9.369   8.536  1.00  0.00     0.037 A 
ATOM     61  C   UNL     1      10.284  -7.867   1.700  1.00  0.00     0.037 A 
ATOM     62  C   UNL     1      11.123  -9.717   7.914  1.00  0.00     0.049 A 
ATOM     63  C   UNL     1      11.450  -8.446   2.463  1.00  0.00     0.074 A 
ATOM     64  C   UNL     1      12.230 -10.324   8.479  1.00  0.00     0.029 A 
ATOM     65  N   UNL     1      11.435  -9.474   6.583  1.00  0.00    -0.354 N 
ATOM     66  N   UNL     1      11.523  -8.805   3.722  1.00  0.00    -0.248 NA
ATOM     67  C   UNL     1      12.696  -8.653   1.711  1.00  0.00     0.031 C 
ATOM     68  C   UNL     1      13.233 -10.393   7.507  1.00  0.00     0.029 A 
ATOM     69  C   UNL     1      12.729  -9.893   6.317  1.00  0.00     0.049 A 
ATOM     70  H   UNL     1      10.827  -9.065   5.926  1.00  0.00     0.167 HD
ATOM     71  C   UNL     1      12.806  -9.307   3.906  1.00  0.00     0.074 A 
ATOM     72  C   UNL     1      13.474  -9.218   2.625  1.00  0.00     0.031 C 
ATOM     73  C   UNL     1      13.378  -9.801   5.033  1.00  0.00     0.037 A 
BRANCH  60  74
ATOM     74  C   UNL     1       9.701  -9.635  10.004  1.00  0.00     0.064 A 
ATOM     75  C   UNL     1       8.799 -10.599  10.481  1.00  0.00     0.173 A 
ATOM     76  C   UNL     1      10.452  -8.918  10.947  1.00  0.00     0.173 A 
ATOM     77  F   UNL     1       8.043 -11.301   9.622  1.00  0.00    -0.203 F 
ATOM     78  C   UNL     1       8.632 -10.810  11.847  1.00  0.00     0.198 A 
ATOM     79  C   UNL     1      10.307  -9.156  12.311  1.00  0.00     0.198 A 
ATOM     80  F   UNL     1      11.329  -7.985  10.546  1.00  0.00    -0.203 F 
ATOM     81  F   UNL     1       7.721 -11.693  12.280  1.00  0.00    -0.200 F 
ATOM     82  C   UNL     1       9.390 -10.093  12.760  1.00  0.00     0.200 A 
ATOM     83  F   UNL     1      11.051  -8.471  13.191  1.00  0.00    -0.200 F 
ATOM     84  F   UNL     1       9.231 -10.299  14.075  1.00  0.00    -0.200 F 
ENDBRANCH  60  74
BRANCH  61  85
ATOM     85  C   UNL     1      10.412  -7.521   0.260  1.00  0.00     0.064 A 
ATOM     86  C   UNL     1      10.575  -8.517  -0.714  1.00  0.00     0.173 A 
ATOM     87  C   UNL     1      10.388  -6.186  -0.171  1.00  0.00     0.173 A 
ATOM     88  F   UNL     1      10.633  -9.806  -0.350  1.00  0.00    -0.203 F 
ATOM     89  C   UNL     1      10.723  -8.189  -2.060  1.00  0.00     0.198 A 
ATOM     90  C   UNL     1      10.506  -5.862  -1.521  1.00  0.00     0.198 A 
ATOM     91  F   UNL     1      10.239  -5.195   0.720  1.00  0.00    -0.203 F 
ATOM     92  F   UNL     1      10.924  -9.158  -2.965  1.00  0.00    -0.200 F 
ATOM     93  C   UNL     1      10.681  -6.863  -2.464  1.00  0.00     0.200 A 
ATOM     94  F   UNL     1      10.451  -4.580  -1.907  1.00  0.00    -0.200 F 
ATOM     95  F   UNL     1      10.817  -6.550  -3.760  1.00  0.00    -0.200 F 
ENDBRANCH  61  85
BRANCH  73  96
ATOM     96  C   UNL     1      14.784 -10.323   4.926  1.00  0.00     0.064 A 
ATOM     97  C   UNL     1      15.880  -9.469   4.739  1.00  0.00     0.173 A 
ATOM     98  C   UNL     1      15.040 -11.697   5.062  1.00  0.00     0.173 A 
ATOM     99  F   UNL     1      15.690  -8.149   4.592  1.00  0.00    -0.203 F 
ATOM    100  C   UNL     1      17.177  -9.973   4.665  1.00  0.00     0.198 A 
ATOM    101  C   UNL     1      16.340 -12.194   5.021  1.00  0.00     0.198 A 
ATOM    102  F   UNL     1      14.029 -12.559   5.252  1.00  0.00    -0.203 F 
ATOM    103  F   UNL     1      18.203  -9.143   4.434  1.00  0.00    -0.200 F 
ATOM    104  C   UNL     1      17.406 -11.333   4.814  1.00  0.00     0.200 A 
ATOM    105  F   UNL     1      16.560 -13.505   5.184  1.00  0.00    -0.200 F 
ATOM    106  F   UNL     1      18.655 -11.814   4.752  1.00  0.00    -0.200 F 
ENDBRANCH  73  96
ENDBRANCH  47  48
ENDBRANCH  40  42
ENDBRANCH  39  40
ENDBRANCH  38  39
ENDBRANCH  37  38
ENDBRANCH  36  37
ENDBRANCH  35  36
ENDBRANCH  34  35
ENDBRANCH  33  34
ENDBRANCH   1  33
TORSDOF 23
