REMARK SMILES C[C@@H](Oc1cncc(C(=O)OCCOCCOCCOCCOC(=O)c2ccc(-c3c4nc(c(-c5c(F)c(F)c(F)c(F)c5F)c5ccc([nH]5)c(-c5c(F)c(F)c(F)c(F)c5F)c5nc(c(-c6c(F)c(F)c(F)c(F)c6F)c6ccc3[nH]6)C=C5)C=C4)cc2)n1)C(F)(F)F
REMARK SMILES IDX 16 1 15 2 14 3 13 4 12 5 11 6 9 7 10 8 8 9 4 10 5 11 89 12
REMARK SMILES IDX 6 13 7 14 3 15 2 16 1 17 90 18 91 19 92 20 93 21 17 22 18 23
REMARK SMILES IDX 19 24 20 25 21 26 22 27 23 28 24 29 25 30 26 31 27 32 88 33
REMARK SMILES IDX 28 34 87 35 29 36 30 37 31 38 81 39 32 40 86 41 80 42 82 43
REMARK SMILES IDX 33 44 85 45 79 46 78 47 34 49 66 50 46 51 65 52 47 53 50 54
REMARK SMILES IDX 64 55 83 56 48 57 49 58 63 60 84 61 51 62 35 63 36 64 44 65
REMARK SMILES IDX 37 66 38 67 42 68 45 69 39 70 40 71 43 72 41 73 67 74 68 75
REMARK SMILES IDX 76 76 69 77 70 78 74 79 77 80 71 81 72 82 75 83 73 84 52 85
REMARK SMILES IDX 53 86 61 87 54 88 55 89 59 90 62 91 56 92 57 93 60 94 58 95
REMARK H PARENT 82 48 50 59
REMARK Flexibility Score: inf
ROOT
ATOM      1  C   UNL     1       5.029  -3.233  -4.251  1.00  0.00     0.188 C 
ENDROOT
BRANCH   1   2
ATOM      2  C   UNL     1       6.131  -4.224  -3.806  1.00  0.00     0.188 C 
BRANCH   2   3
ATOM      3  O   UNL     1       6.207  -5.414  -4.568  1.00  0.00    -0.376 OA
BRANCH   3   4
ATOM      4  C   UNL     1       5.824  -6.634  -3.964  1.00  0.00     0.202 C 
BRANCH   4   5
ATOM      5  C   UNL     1       4.348  -6.785  -3.564  1.00  0.00     0.261 C 
BRANCH   5   6
ATOM      6  O   UNL     1       3.790  -5.687  -2.824  1.00  0.00    -0.458 OA
BRANCH   6   7
ATOM      7  C   UNL     1       4.164  -5.585  -1.527  1.00  0.00     0.358 C 
ATOM      8  O   UNL     1       4.918  -6.343  -0.938  1.00  0.00    -0.244 OA
BRANCH   7   9
ATOM      9  C   UNL     1       3.751  -4.264  -0.998  1.00  0.00     0.170 A 
ATOM     10  C   UNL     1       2.227  -2.568  -0.697  1.00  0.00     0.233 A 
ATOM     11  C   UNL     1       3.235  -1.807  -0.110  1.00  0.00     0.179 A 
ATOM     12  N   UNL     1       2.475  -3.813  -1.171  1.00  0.00    -0.203 NA
ATOM     13  N   UNL     1       4.516  -2.235   0.025  1.00  0.00    -0.257 NA
ATOM     14  C   UNL     1       4.743  -3.494  -0.407  1.00  0.00     0.147 A 
BRANCH  10  15
ATOM     15  O   UNL     1       0.902  -2.241  -0.628  1.00  0.00    -0.464 OA
BRANCH  15  16
ATOM     16  C   UNL     1       0.482  -0.935  -1.076  1.00  0.00     0.277 C 
ATOM     17  C   UNL     1       0.678   0.129   0.010  1.00  0.00     0.063 C 
BRANCH  16  18
ATOM     18  C   UNL     1      -1.020  -1.008  -1.401  1.00  0.00     0.425 C 
ATOM     19  F   UNL     1      -1.487   0.203  -1.796  1.00  0.00    -0.167 F 
ATOM     20  F   UNL     1      -1.280  -1.877  -2.400  1.00  0.00    -0.167 F 
ATOM     21  F   UNL     1      -1.746  -1.381  -0.322  1.00  0.00    -0.167 F 
ENDBRANCH  16  18
ENDBRANCH  15  16
ENDBRANCH  10  15
ENDBRANCH   7   9
ENDBRANCH   6   7
ENDBRANCH   5   6
ENDBRANCH   4   5
ENDBRANCH   3   4
ENDBRANCH   2   3
ENDBRANCH   1   2
BRANCH   1  22
ATOM     22  O   UNL     1       4.187  -3.493  -5.369  1.00  0.00    -0.377 OA
BRANCH  22  23
ATOM     23  C   UNL     1       4.643  -4.322  -6.429  1.00  0.00     0.188 C 
BRANCH  23  24
ATOM     24  C   UNL     1       6.066  -4.110  -6.989  1.00  0.00     0.188 C 
BRANCH  24  25
ATOM     25  O   UNL     1       6.797  -3.105  -6.307  1.00  0.00    -0.376 OA
BRANCH  25  26
ATOM     26  C   UNL     1       6.978  -1.864  -6.965  1.00  0.00     0.202 C 
BRANCH  26  27
ATOM     27  C   UNL     1       5.729  -1.064  -7.364  1.00  0.00     0.261 C 
BRANCH  27  28
ATOM     28  O   UNL     1       4.700  -1.774  -8.069  1.00  0.00    -0.460 OA
BRANCH  28  29
ATOM     29  C   UNL     1       4.962  -2.186  -9.326  1.00  0.00     0.338 C 
ATOM     30  O   UNL     1       5.998  -2.037  -9.954  1.00  0.00    -0.246 OA
BRANCH  29  31
ATOM     31  C   UNL     1       3.823  -3.021  -9.761  1.00  0.00     0.060 A 
ATOM     32  C   UNL     1       4.029  -4.376 -10.058  1.00  0.00     0.016 A 
ATOM     33  C   UNL     1       2.545  -2.465  -9.850  1.00  0.00     0.016 A 
ATOM     34  C   UNL     1       2.959  -5.172 -10.470  1.00  0.00     0.010 A 
ATOM     35  C   UNL     1       1.481  -3.255 -10.287  1.00  0.00     0.010 A 
ATOM     36  C   UNL     1       1.688  -4.604 -10.630  1.00  0.00    -0.014 A 
BRANCH  36  37
ATOM     37  C   UNL     1       0.623  -5.342 -11.351  1.00  0.00     0.031 A 
ATOM     38  C   UNL     1       0.417  -5.031 -12.808  1.00  0.00     0.074 A 
ATOM     39  C   UNL     1      -0.154  -6.249 -10.732  1.00  0.00     0.049 A 
ATOM     40  N   UNL     1      -0.517  -5.445 -13.625  1.00  0.00    -0.248 NA
ATOM     41  C   UNL     1       1.397  -4.121 -13.427  1.00  0.00     0.031 C 
ATOM     42  C   UNL     1      -0.025  -6.667  -9.339  1.00  0.00     0.029 A 
ATOM     43  N   UNL     1      -1.227  -6.968 -11.202  1.00  0.00    -0.354 N 
ATOM     44  C   UNL     1      -0.250  -4.829 -14.841  1.00  0.00     0.074 A 
ATOM     45  C   UNL     1       0.921  -4.003 -14.657  1.00  0.00     0.031 C 
ATOM     46  C   UNL     1      -1.000  -7.550  -9.057  1.00  0.00     0.029 A 
ATOM     47  C   UNL     1      -1.845  -7.727 -10.237  1.00  0.00     0.049 A 
ATOM     48  H   UNL     1      -1.525  -6.942 -12.140  1.00  0.00     0.167 HD
ATOM     49  C   UNL     1      -0.925  -4.946 -16.008  1.00  0.00     0.037 A 
ATOM     50  C   UNL     1      -2.983  -8.447 -10.297  1.00  0.00     0.037 A 
ATOM     51  C   UNL     1      -2.081  -5.781 -16.191  1.00  0.00     0.049 A 
ATOM     52  C   UNL     1      -3.753  -8.505 -11.597  1.00  0.00     0.074 A 
ATOM     53  C   UNL     1      -2.812  -5.996 -17.346  1.00  0.00     0.029 A 
ATOM     54  N   UNL     1      -2.680  -6.530 -15.190  1.00  0.00    -0.354 N 
ATOM     55  N   UNL     1      -3.474  -7.954 -12.754  1.00  0.00    -0.248 NA
ATOM     56  C   UNL     1      -4.999  -9.288 -11.599  1.00  0.00     0.031 C 
ATOM     57  C   UNL     1      -3.893  -6.823 -17.029  1.00  0.00     0.029 A 
ATOM     58  C   UNL     1      -3.792  -7.183 -15.694  1.00  0.00     0.049 A 
ATOM     59  H   UNL     1      -2.362  -6.588 -14.260  1.00  0.00     0.167 HD
ATOM     60  C   UNL     1      -4.479  -8.358 -13.625  1.00  0.00     0.074 A 
ATOM     61  C   UNL     1      -5.371  -9.208 -12.868  1.00  0.00     0.031 C 
ATOM     62  C   UNL     1      -4.651  -8.053 -14.934  1.00  0.00     0.037 A 
BRANCH  49  63
ATOM     63  C   UNL     1      -0.458  -4.134 -17.179  1.00  0.00     0.064 A 
ATOM     64  C   UNL     1       0.723  -4.441 -17.870  1.00  0.00     0.173 A 
ATOM     65  C   UNL     1      -1.250  -3.082 -17.664  1.00  0.00     0.173 A 
ATOM     66  F   UNL     1       1.522  -5.427 -17.437  1.00  0.00    -0.203 F 
ATOM     67  C   UNL     1       1.095  -3.720 -19.002  1.00  0.00     0.198 A 
ATOM     68  C   UNL     1      -0.890  -2.384 -18.812  1.00  0.00     0.198 A 
ATOM     69  F   UNL     1      -2.389  -2.749 -17.038  1.00  0.00    -0.203 F 
ATOM     70  F   UNL     1       2.242  -4.012 -19.632  1.00  0.00    -0.200 F 
ATOM     71  C   UNL     1       0.283  -2.702 -19.479  1.00  0.00     0.200 A 
ATOM     72  F   UNL     1      -1.684  -1.411 -19.280  1.00  0.00    -0.200 F 
ATOM     73  F   UNL     1       0.631  -2.026 -20.583  1.00  0.00    -0.200 F 
ENDBRANCH  49  63
BRANCH  50  74
ATOM     74  C   UNL     1      -3.505  -9.146  -9.089  1.00  0.00     0.064 A 
ATOM     75  C   UNL     1      -3.619 -10.543  -9.050  1.00  0.00     0.173 A 
ATOM     76  C   UNL     1      -3.972  -8.427  -7.978  1.00  0.00     0.173 A 
ATOM     77  F   UNL     1      -3.214 -11.277 -10.097  1.00  0.00    -0.203 F 
ATOM     78  C   UNL     1      -4.218 -11.190  -7.970  1.00  0.00     0.198 A 
ATOM     79  C   UNL     1      -4.536  -9.077  -6.881  1.00  0.00     0.198 A 
ATOM     80  F   UNL     1      -3.893  -7.089  -7.961  1.00  0.00    -0.203 F 
ATOM     81  F   UNL     1      -4.387 -12.519  -7.998  1.00  0.00    -0.200 F 
ATOM     82  C   UNL     1      -4.674 -10.457  -6.885  1.00  0.00     0.200 A 
ATOM     83  F   UNL     1      -4.965  -8.365  -5.831  1.00  0.00    -0.200 F 
ATOM     84  F   UNL     1      -5.262 -11.077  -5.853  1.00  0.00    -0.200 F 
ENDBRANCH  50  74
BRANCH  62  85
ATOM     85  C   UNL     1      -5.801  -8.693 -15.659  1.00  0.00     0.064 A 
ATOM     86  C   UNL     1      -7.132  -8.329 -15.410  1.00  0.00     0.173 A 
ATOM     87  C   UNL     1      -5.558  -9.641 -16.666  1.00  0.00     0.173 A 
ATOM     88  F   UNL     1      -7.420  -7.436 -14.451  1.00  0.00    -0.203 F 
ATOM     89  C   UNL     1      -8.178  -8.910 -16.123  1.00  0.00     0.198 A 
ATOM     90  C   UNL     1      -6.602 -10.191 -17.402  1.00  0.00     0.198 A 
ATOM     91  F   UNL     1      -4.302 -10.015 -16.953  1.00  0.00    -0.203 F 
ATOM     92  F   UNL     1      -9.445  -8.583 -15.835  1.00  0.00    -0.200 F 
ATOM     93  C   UNL     1      -7.912  -9.832 -17.125  1.00  0.00     0.200 A 
ATOM     94  F   UNL     1      -6.340 -11.066 -18.384  1.00  0.00    -0.200 F 
ATOM     95  F   UNL     1      -8.919 -10.377 -17.821  1.00  0.00    -0.200 F 
ENDBRANCH  62  85
ENDBRANCH  36  37
ENDBRANCH  29  31
ENDBRANCH  28  29
ENDBRANCH  27  28
ENDBRANCH  26  27
ENDBRANCH  25  26
ENDBRANCH  24  25
ENDBRANCH  23  24
ENDBRANCH  22  23
ENDBRANCH   1  22
TORSDOF 23
