REMARK SMILES C[C@@H]1CN(S(=O)(=O)c2cccc(C(=O)N3CCC[C@@H]3C(=O)OCCOCCOCCOCCOC(=O)c3ccc(-c4c5nc(c(-c6c(F)c(F)c(F)c(F)c6F)c6ccc([nH]6)c(-c6c(F)c(F)c(F)c(F)c6F)c6nc(c(-c7c(F)c(F)c(F)c(F)c7F)c7ccc4[nH]7)C=C6)C=C5)cc3)c2)C[C@H](C)O1
REMARK SMILES IDX 27 1 26 2 25 3 24 4 23 5 22 6 20 7 21 8 19 9 15 10 16 11
REMARK SMILES IDX 17 12 18 13 13 14 14 15 12 16 8 17 9 18 100 19 10 20 11 21
REMARK SMILES IDX 5 22 6 23 7 24 4 25 1 26 2 27 3 28 104 29 102 30 101 31
REMARK SMILES IDX 103 32 28 33 29 34 30 35 31 36 32 37 33 38 34 39 35 40 36 41
REMARK SMILES IDX 37 42 38 43 99 44 39 45 98 46 40 47 41 48 42 49 92 50 43 51
REMARK SMILES IDX 97 52 91 53 93 54 44 55 96 56 90 57 89 58 45 60 77 61 57 62
REMARK SMILES IDX 76 63 58 64 61 65 75 66 94 67 59 68 60 69 74 71 95 72 62 73
REMARK SMILES IDX 46 74 47 75 55 76 48 77 49 78 53 79 56 80 50 81 51 82 54 83
REMARK SMILES IDX 52 84 78 85 79 86 87 87 80 88 81 89 85 90 88 91 82 92 83 93
REMARK SMILES IDX 86 94 84 95 63 96 64 97 72 98 65 99 66 100 70 101 73 102
REMARK SMILES IDX 67 103 68 104 71 105 69 106
REMARK H PARENT 93 59 61 70
REMARK Flexibility Score: inf
ROOT
ATOM      1  C   UNL     1       1.170  -4.478  -3.032  1.00  0.00     0.188 C 
ENDROOT
BRANCH   1   2
ATOM      2  C   UNL     1       2.417  -5.350  -2.815  1.00  0.00     0.188 C 
BRANCH   2   3
ATOM      3  O   UNL     1       3.133  -5.329  -1.589  1.00  0.00    -0.376 OA
BRANCH   3   4
ATOM      4  C   UNL     1       3.326  -4.130  -0.854  1.00  0.00     0.202 C 
BRANCH   4   5
ATOM      5  C   UNL     1       3.929  -2.881  -1.514  1.00  0.00     0.261 C 
BRANCH   5   6
ATOM      6  O   UNL     1       3.304  -2.445  -2.735  1.00  0.00    -0.462 OA
BRANCH   6   7
ATOM      7  C   UNL     1       4.013  -2.710  -3.862  1.00  0.00     0.328 C 
ATOM      8  O   UNL     1       5.106  -3.271  -3.856  1.00  0.00    -0.250 OA
BRANCH   7   9
ATOM      9  C   UNL     1       3.386  -2.158  -5.155  1.00  0.00     0.195 C 
ATOM     10  N   UNL     1       3.993  -0.901  -5.553  1.00  0.00    -0.325 N 
ATOM     11  C   UNL     1       3.136  -0.235  -6.505  1.00  0.00     0.121 C 
ATOM     12  C   UNL     1       1.771  -0.449  -5.886  1.00  0.00     0.024 C 
ATOM     13  C   UNL     1       1.884  -1.810  -5.181  1.00  0.00     0.039 C 
BRANCH  10  14
ATOM     14  C   UNL     1       5.352  -0.699  -5.508  1.00  0.00     0.254 C 
ATOM     15  O   UNL     1       6.171  -1.345  -6.140  1.00  0.00    -0.269 OA
BRANCH  14  16
ATOM     16  C   UNL     1       5.730   0.276  -4.436  1.00  0.00     0.041 A 
ATOM     17  C   UNL     1       5.067   2.047  -2.911  1.00  0.00     0.083 A 
ATOM     18  C   UNL     1       6.323   2.008  -2.308  1.00  0.00     0.022 A 
ATOM     19  C   UNL     1       4.787   1.203  -3.980  1.00  0.00     0.035 A 
ATOM     20  C   UNL     1       7.280   1.093  -2.770  1.00  0.00     0.002 A 
ATOM     21  C   UNL     1       6.984   0.224  -3.830  1.00  0.00     0.014 A 
BRANCH  17  22
ATOM     22  S   UNL     1       3.883   3.311  -2.539  1.00  0.00     0.243 S 
ATOM     23  O   UNL     1       3.285   3.716  -3.796  1.00  0.00    -0.207 OA
ATOM     24  O   UNL     1       4.531   4.282  -1.683  1.00  0.00    -0.207 OA
BRANCH  22  25
ATOM     25  N   UNL     1       2.636   2.570  -1.610  1.00  0.00    -0.193 NA
ATOM     26  C   UNL     1       1.269  -0.067  -0.259  1.00  0.00     0.040 C 
ATOM     27  C   UNL     1       0.776   0.880  -1.349  1.00  0.00     0.130 C 
ATOM     28  C   UNL     1       1.904   1.426  -2.254  1.00  0.00     0.134 C 
ATOM     29  O   UNL     1      -0.084   1.896  -0.818  1.00  0.00    -0.373 OA
ATOM     30  C   UNL     1       0.567   3.059  -0.293  1.00  0.00     0.130 C 
ATOM     31  C   UNL     1       1.617   3.624  -1.247  1.00  0.00     0.134 C 
ATOM     32  C   UNL     1       1.129   2.840   1.100  1.00  0.00     0.040 C 
ENDBRANCH  22  25
ENDBRANCH  17  22
ENDBRANCH  14  16
ENDBRANCH  10  14
ENDBRANCH   7   9
ENDBRANCH   6   7
ENDBRANCH   5   6
ENDBRANCH   4   5
ENDBRANCH   3   4
ENDBRANCH   2   3
ENDBRANCH   1   2
BRANCH   1  33
ATOM     33  O   UNL     1       0.902  -3.543  -2.007  1.00  0.00    -0.377 OA
BRANCH  33  34
ATOM     34  C   UNL     1      -0.084  -3.901  -1.044  1.00  0.00     0.188 C 
BRANCH  34  35
ATOM     35  C   UNL     1      -0.215  -5.382  -0.652  1.00  0.00     0.188 C 
BRANCH  35  36
ATOM     36  O   UNL     1      -0.554  -6.230  -1.746  1.00  0.00    -0.376 OA
BRANCH  36  37
ATOM     37  C   UNL     1      -1.934  -6.536  -1.931  1.00  0.00     0.202 C 
BRANCH  37  38
ATOM     38  C   UNL     1      -2.793  -5.393  -2.500  1.00  0.00     0.261 C 
BRANCH  38  39
ATOM     39  O   UNL     1      -3.021  -4.278  -1.617  1.00  0.00    -0.460 OA
BRANCH  39  40
ATOM     40  C   UNL     1      -3.536  -4.538  -0.399  1.00  0.00     0.338 C 
ATOM     41  O   UNL     1      -3.948  -5.609   0.011  1.00  0.00    -0.246 OA
BRANCH  40  42
ATOM     42  C   UNL     1      -3.359  -3.350   0.461  1.00  0.00     0.060 A 
ATOM     43  C   UNL     1      -2.733  -3.524   1.700  1.00  0.00     0.016 A 
ATOM     44  C   UNL     1      -3.855  -2.098   0.089  1.00  0.00     0.016 A 
ATOM     45  C   UNL     1      -2.676  -2.467   2.607  1.00  0.00     0.010 A 
ATOM     46  C   UNL     1      -3.802  -1.038   1.004  1.00  0.00     0.010 A 
ATOM     47  C   UNL     1      -3.260  -1.234   2.287  1.00  0.00    -0.014 A 
BRANCH  47  48
ATOM     48  C   UNL     1      -3.476  -0.237   3.368  1.00  0.00     0.031 A 
ATOM     49  C   UNL     1      -4.829  -0.159   4.023  1.00  0.00     0.074 A 
ATOM     50  C   UNL     1      -2.474   0.528   3.833  1.00  0.00     0.049 A 
ATOM     51  N   UNL     1      -5.224   0.585   5.025  1.00  0.00    -0.248 NA
ATOM     52  C   UNL     1      -5.868  -1.057   3.494  1.00  0.00     0.031 C 
ATOM     53  C   UNL     1      -1.098   0.499   3.352  1.00  0.00     0.029 A 
ATOM     54  N   UNL     1      -2.466   1.483   4.821  1.00  0.00    -0.354 N 
ATOM     55  C   UNL     1      -6.540   0.219   5.270  1.00  0.00     0.074 A 
ATOM     56  C   UNL     1      -6.900  -0.763   4.270  1.00  0.00     0.031 C 
ATOM     57  C   UNL     1      -0.382   1.414   4.028  1.00  0.00     0.029 A 
ATOM     58  C   UNL     1      -1.258   2.120   4.956  1.00  0.00     0.049 A 
ATOM     59  H   UNL     1      -3.250   1.689   5.379  1.00  0.00     0.167 HD
ATOM     60  C   UNL     1      -7.365   0.636   6.260  1.00  0.00     0.037 A 
ATOM     61  C   UNL     1      -0.902   3.170   5.720  1.00  0.00     0.037 A 
ATOM     62  C   UNL     1      -7.020   1.623   7.248  1.00  0.00     0.049 A 
ATOM     63  C   UNL     1      -1.882   3.724   6.715  1.00  0.00     0.074 A 
ATOM     64  C   UNL     1      -7.785   2.096   8.301  1.00  0.00     0.029 A 
ATOM     65  N   UNL     1      -5.811   2.302   7.298  1.00  0.00    -0.354 N 
ATOM     66  N   UNL     1      -3.110   3.343   6.966  1.00  0.00    -0.248 NA
ATOM     67  C   UNL     1      -1.408   4.825   7.565  1.00  0.00     0.031 C 
ATOM     68  C   UNL     1      -7.059   3.097   8.957  1.00  0.00     0.029 A 
ATOM     69  C   UNL     1      -5.820   3.209   8.347  1.00  0.00     0.049 A 
ATOM     70  H   UNL     1      -5.058   2.160   6.680  1.00  0.00     0.167 HD
ATOM     71  C   UNL     1      -3.536   4.115   8.038  1.00  0.00     0.074 A 
ATOM     72  C   UNL     1      -2.438   4.994   8.382  1.00  0.00     0.031 C 
ATOM     73  C   UNL     1      -4.723   4.077   8.691  1.00  0.00     0.037 A 
BRANCH  60  74
ATOM     74  C   UNL     1      -8.732   0.022   6.315  1.00  0.00     0.064 A 
ATOM     75  C   UNL     1      -8.921  -1.311   6.714  1.00  0.00     0.173 A 
ATOM     76  C   UNL     1      -9.868   0.778   5.992  1.00  0.00     0.173 A 
ATOM     77  F   UNL     1      -7.865  -2.081   7.017  1.00  0.00    -0.203 F 
ATOM     78  C   UNL     1     -10.195  -1.870   6.764  1.00  0.00     0.198 A 
ATOM     79  C   UNL     1     -11.142   0.224   6.069  1.00  0.00     0.198 A 
ATOM     80  F   UNL     1      -9.741   2.056   5.605  1.00  0.00    -0.203 F 
ATOM     81  F   UNL     1     -10.347  -3.157   7.103  1.00  0.00    -0.200 F 
ATOM     82  C   UNL     1     -11.305  -1.101   6.448  1.00  0.00     0.200 A 
ATOM     83  F   UNL     1     -12.215   0.971   5.773  1.00  0.00    -0.200 F 
ATOM     84  F   UNL     1     -12.531  -1.638   6.501  1.00  0.00    -0.200 F 
ENDBRANCH  60  74
BRANCH  61  85
ATOM     85  C   UNL     1       0.445   3.775   5.569  1.00  0.00     0.064 A 
ATOM     86  C   UNL     1       1.434   3.616   6.547  1.00  0.00     0.173 A 
ATOM     87  C   UNL     1       0.752   4.559   4.447  1.00  0.00     0.173 A 
ATOM     88  F   UNL     1       1.173   2.902   7.651  1.00  0.00    -0.203 F 
ATOM     89  C   UNL     1       2.679   4.229   6.414  1.00  0.00     0.198 A 
ATOM     90  C   UNL     1       2.005   5.152   4.305  1.00  0.00     0.198 A 
ATOM     91  F   UNL     1      -0.166   4.747   3.487  1.00  0.00    -0.203 F 
ATOM     92  F   UNL     1       3.594   4.096   7.384  1.00  0.00    -0.200 F 
ATOM     93  C   UNL     1       2.965   4.992   5.291  1.00  0.00     0.200 A 
ATOM     94  F   UNL     1       2.277   5.881   3.214  1.00  0.00    -0.200 F 
ATOM     95  F   UNL     1       4.162   5.580   5.165  1.00  0.00    -0.200 F 
ENDBRANCH  61  85
BRANCH  73  96
ATOM     96  C   UNL     1      -4.873   4.970   9.889  1.00  0.00     0.064 A 
ATOM     97  C   UNL     1      -4.975   6.363   9.769  1.00  0.00     0.173 A 
ATOM     98  C   UNL     1      -4.914   4.416  11.178  1.00  0.00     0.173 A 
ATOM     99  F   UNL     1      -4.923   6.943   8.561  1.00  0.00    -0.203 F 
ATOM    100  C   UNL     1      -5.074   7.172  10.899  1.00  0.00     0.198 A 
ATOM    101  C   UNL     1      -5.045   5.226  12.303  1.00  0.00     0.198 A 
ATOM    102  F   UNL     1      -4.825   3.088  11.348  1.00  0.00    -0.203 F 
ATOM    103  F   UNL     1      -5.105   8.505  10.764  1.00  0.00    -0.200 F 
ATOM    104  C   UNL     1      -5.113   6.603  12.163  1.00  0.00     0.200 A 
ATOM    105  F   UNL     1      -5.096   4.673  13.522  1.00  0.00    -0.200 F 
ATOM    106  F   UNL     1      -5.205   7.384  13.248  1.00  0.00    -0.200 F 
ENDBRANCH  73  96
ENDBRANCH  47  48
ENDBRANCH  40  42
ENDBRANCH  39  40
ENDBRANCH  38  39
ENDBRANCH  37  38
ENDBRANCH  36  37
ENDBRANCH  35  36
ENDBRANCH  34  35
ENDBRANCH  33  34
ENDBRANCH   1  33
TORSDOF 24
