REMARK SMILES COc1cccc(-c2nn(-c3cc4c(cc3C(N)=O)OCO4)cc2C(=O)OCCOCCOCCOCCOC(=O)c2ccc(-c3c4nc(c(-c5c(F)c(F)c(F)c(F)c5F)c5ccc([nH]5)c(-c5c(F)c(F)c(F)c(F)c5F)c5nc(c(-c6c(F)c(F)c(F)c(F)c6F)c6ccc3[nH]6)C=C5)C=C4)cc2)c1
REMARK SMILES IDX 33 1 32 2 31 3 30 4 29 5 28 6 27 7 25 8 26 9 24 10 8 11 9 12
REMARK SMILES IDX 10 13 23 14 7 15 3 16 4 17 105 18 5 19 6 20 2 21 1 22 11 23
REMARK SMILES IDX 12 24 16 25 13 26 15 27 14 28 22 29 20 30 21 31 17 32 18 33
REMARK SMILES IDX 19 34 34 37 35 38 36 39 37 40 38 41 39 42 40 43 41 44 42 45
REMARK SMILES IDX 43 46 104 47 44 48 103 49 45 50 46 51 47 52 97 53 48 54
REMARK SMILES IDX 102 55 96 56 98 57 49 58 101 59 95 60 94 61 50 63 82 64
REMARK SMILES IDX 62 65 81 66 63 67 66 68 80 69 99 70 64 71 65 72 79 74 100 75
REMARK SMILES IDX 67 76 51 77 52 78 60 79 53 80 54 81 58 82 61 83 55 84 56 85
REMARK SMILES IDX 59 86 57 87 83 88 84 89 92 90 85 91 86 92 90 93 93 94 87 95
REMARK SMILES IDX 88 96 91 97 89 98 68 99 69 100 77 101 70 102 71 103 75 104
REMARK SMILES IDX 78 105 72 106 73 107 76 108 74 109
REMARK H PARENT 18 35 18 36 98 62 66 73
REMARK Flexibility Score: inf
ROOT
ATOM      1  O   UNL     1       4.166   3.879   7.953  1.00  0.00    -0.377 OA
ENDROOT
BRANCH   1   2
ATOM      2  C   UNL     1       3.451   3.645   6.744  1.00  0.00     0.188 C 
BRANCH   2   3
ATOM      3  C   UNL     1       2.251   2.667   6.676  1.00  0.00     0.188 C 
BRANCH   3   4
ATOM      4  O   UNL     1       2.041   1.961   7.880  1.00  0.00    -0.376 OA
BRANCH   4   5
ATOM      5  C   UNL     1       2.254   0.573   7.939  1.00  0.00     0.202 C 
BRANCH   5   6
ATOM      6  C   UNL     1       3.608  -0.010   7.518  1.00  0.00     0.261 C 
BRANCH   6   7
ATOM      7  O   UNL     1       4.333   0.698   6.512  1.00  0.00    -0.460 OA
BRANCH   7   8
ATOM      8  C   UNL     1       3.935   0.532   5.215  1.00  0.00     0.342 C 
ATOM      9  O   UNL     1       3.026  -0.190   4.857  1.00  0.00    -0.246 OA
BRANCH   8  10
ATOM     10  C   UNL     1       4.666   1.434   4.347  1.00  0.00     0.106 A 
ATOM     11  C   UNL     1       4.239   2.209   3.231  1.00  0.00     0.107 A 
ATOM     12  N   UNL     1       5.277   2.869   2.677  1.00  0.00    -0.167 NA
ATOM     13  N   UNL     1       6.353   2.345   3.318  1.00  0.00    -0.239 N 
ATOM     14  C   UNL     1       5.980   1.809   4.521  1.00  0.00     0.131 A 
BRANCH  11  15
ATOM     15  C   UNL     1       2.871   2.401   2.767  1.00  0.00     0.007 A 
ATOM     16  C   UNL     1       0.980   1.656   1.449  1.00  0.00     0.119 A 
ATOM     17  C   UNL     1       0.194   2.658   2.029  1.00  0.00     0.046 A 
ATOM     18  C   UNL     1       2.316   1.519   1.833  1.00  0.00     0.056 A 
ATOM     19  C   UNL     1       0.741   3.545   2.954  1.00  0.00     0.005 A 
ATOM     20  C   UNL     1       2.086   3.433   3.301  1.00  0.00     0.011 A 
BRANCH  16  21
ATOM     21  O   UNL     1       0.327   0.897   0.517  1.00  0.00    -0.497 OA
ATOM     22  C   UNL     1       1.010  -0.248   0.025  1.00  0.00     0.278 C 
ENDBRANCH  16  21
ENDBRANCH  11  15
BRANCH  13  23
ATOM     23  C   UNL     1       7.672   2.421   2.810  1.00  0.00     0.081 A 
ATOM     24  C   UNL     1       8.018   3.541   2.030  1.00  0.00     0.079 A 
ATOM     25  C   UNL     1       8.632   1.394   3.087  1.00  0.00     0.069 A 
ATOM     26  C   UNL     1       9.327   3.641   1.612  1.00  0.00     0.167 A 
ATOM     27  C   UNL     1       9.975   1.616   2.748  1.00  0.00     0.066 A 
ATOM     28  C   UNL     1      10.278   2.725   1.994  1.00  0.00     0.166 A 
ATOM     29  O   UNL     1       9.846   4.594   0.791  1.00  0.00    -0.454 OA
ATOM     30  O   UNL     1      11.504   2.993   1.468  1.00  0.00    -0.454 OA
ATOM     31  C   UNL     1      11.153   4.035   0.536  1.00  0.00     0.468 C 
BRANCH  25  32
ATOM     32  C   UNL     1       8.217  -0.009   3.463  1.00  0.00     0.251 C 
ATOM     33  N   UNL     1       9.174  -0.972   3.624  1.00  0.00    -0.366 N 
ATOM     34  O   UNL     1       7.053  -0.376   3.544  1.00  0.00    -0.269 OA
ATOM     35  H   UNL     1      10.127  -0.733   3.569  1.00  0.00     0.159 HD
ATOM     36  H   UNL     1       8.909  -1.905   3.795  1.00  0.00     0.159 HD
ENDBRANCH  25  32
ENDBRANCH  13  23
ENDBRANCH   8  10
ENDBRANCH   7   8
ENDBRANCH   6   7
ENDBRANCH   5   6
ENDBRANCH   4   5
ENDBRANCH   3   4
ENDBRANCH   2   3
ENDBRANCH   1   2
BRANCH   1  37
ATOM     37  C   UNL     1       3.514   3.713   9.204  1.00  0.00     0.188 C 
BRANCH  37  38
ATOM     38  C   UNL     1       2.075   4.257   9.410  1.00  0.00     0.188 C 
BRANCH  38  39
ATOM     39  O   UNL     1       1.373   4.620   8.235  1.00  0.00    -0.376 OA
BRANCH  39  40
ATOM     40  C   UNL     1       1.193   5.945   7.774  1.00  0.00     0.202 C 
BRANCH  40  41
ATOM     41  C   UNL     1       2.367   6.909   7.643  1.00  0.00     0.261 C 
BRANCH  41  42
ATOM     42  O   UNL     1       3.398   6.674   8.570  1.00  0.00    -0.460 OA
BRANCH  42  43
ATOM     43  C   UNL     1       3.083   7.007   9.832  1.00  0.00     0.338 C 
ATOM     44  O   UNL     1       2.007   7.380  10.259  1.00  0.00    -0.246 OA
BRANCH  43  45
ATOM     45  C   UNL     1       4.317   6.949  10.618  1.00  0.00     0.060 A 
ATOM     46  C   UNL     1       4.154   7.214  11.976  1.00  0.00     0.016 A 
ATOM     47  C   UNL     1       5.513   7.180   9.925  1.00  0.00     0.016 A 
ATOM     48  C   UNL     1       5.058   8.068  12.546  1.00  0.00     0.010 A 
ATOM     49  C   UNL     1       6.389   8.065  10.479  1.00  0.00     0.010 A 
ATOM     50  C   UNL     1       6.077   8.575  11.735  1.00  0.00    -0.014 A 
BRANCH  50  51
ATOM     51  C   UNL     1       6.895   9.630  12.265  1.00  0.00     0.031 A 
ATOM     52  C   UNL     1       7.884   9.110  13.223  1.00  0.00     0.074 A 
ATOM     53  C   UNL     1       6.782  10.896  11.827  1.00  0.00     0.049 A 
ATOM     54  N   UNL     1       7.918   9.321  14.494  1.00  0.00    -0.248 NA
ATOM     55  C   UNL     1       8.798   8.053  12.757  1.00  0.00     0.031 C 
ATOM     56  C   UNL     1       5.978  11.414  10.716  1.00  0.00     0.029 A 
ATOM     57  N   UNL     1       7.469  11.989  12.244  1.00  0.00    -0.354 N 
ATOM     58  C   UNL     1       9.001   8.585  14.952  1.00  0.00     0.074 A 
ATOM     59  C   UNL     1       9.349   7.665  13.905  1.00  0.00     0.031 C 
ATOM     60  C   UNL     1       6.402  12.662  10.408  1.00  0.00     0.029 A 
ATOM     61  C   UNL     1       7.416  13.063  11.365  1.00  0.00     0.049 A 
ATOM     62  H   UNL     1       7.962  12.017  13.095  1.00  0.00     0.167 HD
ATOM     63  C   UNL     1       9.708   9.011  16.029  1.00  0.00     0.037 A 
ATOM     64  C   UNL     1       8.251  14.133  11.402  1.00  0.00     0.037 A 
ATOM     65  C   UNL     1       8.935   9.936  16.821  1.00  0.00     0.049 A 
ATOM     66  C   UNL     1       8.848  14.175  12.768  1.00  0.00     0.074 A 
ATOM     67  C   UNL     1       7.726   9.850  17.486  1.00  0.00     0.029 A 
ATOM     68  N   UNL     1       9.188  11.279  16.675  1.00  0.00    -0.354 N 
ATOM     69  N   UNL     1       8.160  14.457  13.842  1.00  0.00    -0.248 NA
ATOM     70  C   UNL     1      10.068  13.408  12.996  1.00  0.00     0.031 C 
ATOM     71  C   UNL     1       7.097  11.112  17.281  1.00  0.00     0.029 A 
ATOM     72  C   UNL     1       7.980  11.923  16.569  1.00  0.00     0.049 A 
ATOM     73  H   UNL     1      10.075  11.704  16.651  1.00  0.00     0.167 HD
ATOM     74  C   UNL     1       8.608  13.555  14.797  1.00  0.00     0.074 A 
ATOM     75  C   UNL     1       9.830  12.979  14.240  1.00  0.00     0.031 C 
ATOM     76  C   UNL     1       7.788  13.133  15.805  1.00  0.00     0.037 A 
BRANCH  63  77
ATOM     77  C   UNL     1      11.209   8.918  16.113  1.00  0.00     0.064 A 
ATOM     78  C   UNL     1      11.838   9.282  17.316  1.00  0.00     0.173 A 
ATOM     79  C   UNL     1      12.064   8.782  14.994  1.00  0.00     0.173 A 
ATOM     80  F   UNL     1      11.120   9.452  18.436  1.00  0.00    -0.203 F 
ATOM     81  C   UNL     1      13.201   9.578  17.372  1.00  0.00     0.198 A 
ATOM     82  C   UNL     1      13.432   9.022  15.067  1.00  0.00     0.198 A 
ATOM     83  F   UNL     1      11.610   8.529  13.762  1.00  0.00    -0.203 F 
ATOM     84  F   UNL     1      13.729  10.053  18.507  1.00  0.00    -0.200 F 
ATOM     85  C   UNL     1      13.995   9.456  16.246  1.00  0.00     0.200 A 
ATOM     86  F   UNL     1      14.178   8.912  13.959  1.00  0.00    -0.200 F 
ATOM     87  F   UNL     1      15.287   9.802  16.281  1.00  0.00    -0.200 F 
ENDBRANCH  63  77
BRANCH  64  88
ATOM     88  C   UNL     1       8.811  14.892  10.257  1.00  0.00     0.064 A 
ATOM     89  C   UNL     1       9.449  16.128  10.446  1.00  0.00     0.173 A 
ATOM     90  C   UNL     1       8.965  14.302   8.986  1.00  0.00     0.173 A 
ATOM     91  F   UNL     1       9.397  16.738  11.640  1.00  0.00    -0.203 F 
ATOM     92  C   UNL     1      10.207  16.728   9.433  1.00  0.00     0.198 A 
ATOM     93  C   UNL     1       9.714  14.904   7.974  1.00  0.00     0.198 A 
ATOM     94  F   UNL     1       8.472  13.083   8.725  1.00  0.00    -0.203 F 
ATOM     95  F   UNL     1      10.850  17.880   9.671  1.00  0.00    -0.200 F 
ATOM     96  C   UNL     1      10.346  16.110   8.201  1.00  0.00     0.200 A 
ATOM     97  F   UNL     1       9.869  14.275   6.800  1.00  0.00    -0.200 F 
ATOM     98  F   UNL     1      11.118  16.654   7.250  1.00  0.00    -0.200 F 
ENDBRANCH  64  88
BRANCH  76  99
ATOM     99  C   UNL     1       6.474  13.844  15.982  1.00  0.00     0.064 A 
ATOM    100  C   UNL     1       5.454  13.861  15.014  1.00  0.00     0.173 A 
ATOM    101  C   UNL     1       6.182  14.401  17.233  1.00  0.00     0.173 A 
ATOM    102  F   UNL     1       5.615  13.252  13.833  1.00  0.00    -0.203 F 
ATOM    103  C   UNL     1       4.220  14.456  15.272  1.00  0.00     0.198 A 
ATOM    104  C   UNL     1       4.935  14.959  17.502  1.00  0.00     0.198 A 
ATOM    105  F   UNL     1       7.094  14.358  18.216  1.00  0.00    -0.203 F 
ATOM    106  F   UNL     1       3.269  14.472  14.326  1.00  0.00    -0.200 F 
ATOM    107  C   UNL     1       3.960  14.998  16.519  1.00  0.00     0.200 A 
ATOM    108  F   UNL     1       4.670  15.434  18.727  1.00  0.00    -0.200 F 
ATOM    109  F   UNL     1       2.760  15.534  16.783  1.00  0.00    -0.200 F 
ENDBRANCH  76  99
ENDBRANCH  50  51
ENDBRANCH  43  45
ENDBRANCH  42  43
ENDBRANCH  41  42
ENDBRANCH  40  41
ENDBRANCH  39  40
ENDBRANCH  38  39
ENDBRANCH  37  38
ENDBRANCH   1  37
TORSDOF 24
