REMARK SMILES C[NH+]1CCC2(CC1)OC[C@@H](C(=O)OCCOCCOCCOCCOC(=O)c1ccc(-c3c4nc(c(-c5c(F)c(F)c(F)c(F)c5F)c5ccc([nH]5)c(-c5c(F)c(F)c(F)c(F)c5F)c5nc(c(-c6c(F)c(F)c(F)c(F)c6F)c6ccc3[nH]6)C=C5)C=C4)cc1)N2C(=O)c1ccc2ccccc2c1
REMARK SMILES IDX 19 1 18 2 17 3 16 4 15 5 14 6 13 7 11 8 12 9 10 10 1 11 2 12
REMARK SMILES IDX 3 13 7 14 4 16 6 17 5 18 8 19 91 20 9 21 92 22 93 23 94 24
REMARK SMILES IDX 95 25 103 26 96 27 102 28 97 29 101 30 98 31 100 32 99 33
REMARK SMILES IDX 20 34 21 35 22 36 23 37 24 38 25 39 26 40 27 41 28 42 29 43
REMARK SMILES IDX 90 44 30 45 89 46 31 47 32 48 33 49 83 50 34 51 88 52 82 53
REMARK SMILES IDX 84 54 35 55 87 56 81 57 80 58 36 60 68 61 48 62 67 63 49 64
REMARK SMILES IDX 52 65 66 66 85 67 50 68 51 69 65 71 86 72 53 73 37 74 38 75
REMARK SMILES IDX 46 76 39 77 40 78 44 79 47 80 41 81 42 82 45 83 43 84 69 85
REMARK SMILES IDX 70 86 78 87 71 88 72 89 76 90 79 91 73 92 74 93 77 94 75 95
REMARK SMILES IDX 54 96 55 97 63 98 56 99 57 100 61 101 64 102 58 103 59 104
REMARK SMILES IDX 62 105 60 106
REMARK H PARENT 2 15 84 59 52 70
REMARK Flexibility Score: inf
ROOT
ATOM      1  O   UNL     1      -0.531   7.690  -1.104  1.00  0.00    -0.377 OA
ENDROOT
BRANCH   1   2
ATOM      2  C   UNL     1      -1.095   8.126   0.120  1.00  0.00     0.188 C 
BRANCH   2   3
ATOM      3  C   UNL     1      -0.236   9.209   0.779  1.00  0.00     0.188 C 
BRANCH   3   4
ATOM      4  O   UNL     1       0.125  10.337  -0.009  1.00  0.00    -0.376 OA
BRANCH   4   5
ATOM      5  C   UNL     1       0.808  10.145  -1.248  1.00  0.00     0.202 C 
BRANCH   5   6
ATOM      6  C   UNL     1       2.117   9.325  -1.293  1.00  0.00     0.261 C 
BRANCH   6   7
ATOM      7  O   UNL     1       1.973   7.878  -1.205  1.00  0.00    -0.462 OA
BRANCH   7   8
ATOM      8  C   UNL     1       2.302   7.354  -0.004  1.00  0.00     0.331 C 
ATOM      9  O   UNL     1       2.782   8.040   0.905  1.00  0.00    -0.250 OA
BRANCH   8  10
ATOM     10  C   UNL     1       2.123   5.838   0.228  1.00  0.00     0.224 C 
ATOM     11  C   UNL     1       1.457  -0.549   0.436  1.00  0.00     0.332 C 
ATOM     12  N   UNL     1       1.212   0.799  -0.037  1.00  0.00    -0.337 N 
ATOM     13  C   UNL     1       0.846   1.761   0.986  1.00  0.00     0.267 C 
ATOM     14  C   UNL     1       2.074   1.203  -1.135  1.00  0.00     0.267 C 
ATOM     15  H   UNL     1       0.314   0.781  -0.521  1.00  0.00     0.347 HD
ATOM     16  C   UNL     1       1.863   2.846   1.261  1.00  0.00     0.120 C 
ATOM     17  C   UNL     1       2.964   2.420  -0.955  1.00  0.00     0.120 C 
ATOM     18  C   UNL     1       2.459   3.494  -0.002  1.00  0.00     0.155 C 
ATOM     19  O   UNL     1       3.697   4.073   0.490  1.00  0.00    -0.352 OA
ATOM     20  N   UNL     1       1.693   4.649  -0.546  1.00  0.00    -0.293 N 
ATOM     21  C   UNL     1       3.565   5.477   0.563  1.00  0.00     0.200 C 
BRANCH  20  22
ATOM     22  C   UNL     1       0.325   4.478  -0.841  1.00  0.00     0.256 C 
ATOM     23  O   UNL     1      -0.558   4.989  -0.156  1.00  0.00    -0.269 OA
BRANCH  22  24
ATOM     24  C   UNL     1      -0.096   3.552  -1.944  1.00  0.00     0.040 A 
ATOM     25  C   UNL     1       0.520   3.573  -3.194  1.00  0.00     0.014 A 
ATOM     26  C   UNL     1      -1.100   2.593  -1.697  1.00  0.00     0.022 A 
ATOM     27  C   UNL     1       0.255   2.548  -4.119  1.00  0.00     0.009 A 
ATOM     28  C   UNL     1      -1.308   1.507  -2.576  1.00  0.00    -0.018 A 
ATOM     29  C   UNL     1      -0.591   1.468  -3.792  1.00  0.00    -0.018 A 
ATOM     30  C   UNL     1      -2.134   0.416  -2.234  1.00  0.00     0.009 A 
ATOM     31  C   UNL     1      -0.688   0.322  -4.607  1.00  0.00     0.009 A 
ATOM     32  C   UNL     1      -2.211  -0.716  -3.050  1.00  0.00     0.001 A 
ATOM     33  C   UNL     1      -1.476  -0.768  -4.230  1.00  0.00     0.001 A 
ENDBRANCH  22  24
ENDBRANCH  20  22
ENDBRANCH   8  10
ENDBRANCH   7   8
ENDBRANCH   6   7
ENDBRANCH   5   6
ENDBRANCH   4   5
ENDBRANCH   3   4
ENDBRANCH   2   3
ENDBRANCH   1   2
BRANCH   1  34
ATOM     34  C   UNL     1      -1.304   7.676  -2.296  1.00  0.00     0.188 C 
BRANCH  34  35
ATOM     35  C   UNL     1      -2.651   8.401  -2.276  1.00  0.00     0.188 C 
BRANCH  35  36
ATOM     36  O   UNL     1      -3.715   7.785  -1.545  1.00  0.00    -0.376 OA
BRANCH  36  37
ATOM     37  C   UNL     1      -3.680   6.371  -1.365  1.00  0.00     0.202 C 
BRANCH  37  38
ATOM     38  C   UNL     1      -4.185   5.547  -2.552  1.00  0.00     0.261 C 
BRANCH  38  39
ATOM     39  O   UNL     1      -3.372   5.699  -3.727  1.00  0.00    -0.460 OA
BRANCH  39  40
ATOM     40  C   UNL     1      -3.840   6.582  -4.639  1.00  0.00     0.338 C 
ATOM     41  O   UNL     1      -4.859   7.244  -4.585  1.00  0.00    -0.246 OA
BRANCH  40  42
ATOM     42  C   UNL     1      -2.842   6.750  -5.712  1.00  0.00     0.060 A 
ATOM     43  C   UNL     1      -2.456   8.049  -6.066  1.00  0.00     0.016 A 
ATOM     44  C   UNL     1      -2.380   5.647  -6.431  1.00  0.00     0.016 A 
ATOM     45  C   UNL     1      -1.645   8.255  -7.179  1.00  0.00     0.010 A 
ATOM     46  C   UNL     1      -1.581   5.855  -7.556  1.00  0.00     0.010 A 
ATOM     47  C   UNL     1      -1.248   7.161  -7.956  1.00  0.00    -0.014 A 
BRANCH  47  48
ATOM     48  C   UNL     1      -0.643   7.391  -9.287  1.00  0.00     0.031 A 
ATOM     49  C   UNL     1      -1.517   7.271 -10.504  1.00  0.00     0.074 A 
ATOM     50  C   UNL     1       0.656   7.714  -9.404  1.00  0.00     0.049 A 
ATOM     51  N   UNL     1      -1.196   7.343 -11.770  1.00  0.00    -0.248 NA
ATOM     52  C   UNL     1      -2.948   7.030 -10.257  1.00  0.00     0.031 C 
ATOM     53  C   UNL     1       1.580   7.908  -8.290  1.00  0.00     0.029 A 
ATOM     54  N   UNL     1       1.422   7.922 -10.522  1.00  0.00    -0.354 N 
ATOM     55  C   UNL     1      -2.380   7.143 -12.468  1.00  0.00     0.074 A 
ATOM     56  C   UNL     1      -3.420   6.916 -11.489  1.00  0.00     0.031 C 
ATOM     57  C   UNL     1       2.799   8.191  -8.781  1.00  0.00     0.029 A 
ATOM     58  C   UNL     1       2.744   8.157 -10.242  1.00  0.00     0.049 A 
ATOM     59  H   UNL     1       1.059   7.905 -11.437  1.00  0.00     0.167 HD
ATOM     60  C   UNL     1      -2.578   7.154 -13.808  1.00  0.00     0.037 A 
ATOM     61  C   UNL     1       3.793   8.295 -11.075  1.00  0.00     0.037 A 
ATOM     62  C   UNL     1      -1.534   7.382 -14.771  1.00  0.00     0.049 A 
ATOM     63  C   UNL     1       3.560   8.225 -12.563  1.00  0.00     0.074 A 
ATOM     64  C   UNL     1      -1.627   7.432 -16.151  1.00  0.00     0.029 A 
ATOM     65  N   UNL     1      -0.199   7.590 -14.452  1.00  0.00    -0.354 N 
ATOM     66  N   UNL     1       2.438   8.054 -13.220  1.00  0.00    -0.248 NA
ATOM     67  C   UNL     1       4.741   8.370 -13.425  1.00  0.00     0.031 C 
ATOM     68  C   UNL     1      -0.339   7.606 -16.668  1.00  0.00     0.029 A 
ATOM     69  C   UNL     1       0.547   7.737 -15.610  1.00  0.00     0.049 A 
ATOM     70  H   UNL     1       0.164   7.627 -13.538  1.00  0.00     0.167 HD
ATOM     71  C   UNL     1       2.771   8.105 -14.568  1.00  0.00     0.074 A 
ATOM     72  C   UNL     1       4.199   8.336 -14.634  1.00  0.00     0.031 C 
ATOM     73  C   UNL     1       1.968   7.976 -15.654  1.00  0.00     0.037 A 
BRANCH  60  74
ATOM     74  C   UNL     1      -3.967   6.879 -14.310  1.00  0.00     0.064 A 
ATOM     75  C   UNL     1      -5.018   7.790 -14.126  1.00  0.00     0.173 A 
ATOM     76  C   UNL     1      -4.242   5.697 -15.015  1.00  0.00     0.173 A 
ATOM     77  F   UNL     1      -4.813   8.929 -13.446  1.00  0.00    -0.203 F 
ATOM     78  C   UNL     1      -6.297   7.516 -14.604  1.00  0.00     0.198 A 
ATOM     79  C   UNL     1      -5.514   5.441 -15.521  1.00  0.00     0.198 A 
ATOM     80  F   UNL     1      -3.274   4.792 -15.223  1.00  0.00    -0.203 F 
ATOM     81  F   UNL     1      -7.297   8.378 -14.371  1.00  0.00    -0.200 F 
ATOM     82  C   UNL     1      -6.542   6.346 -15.308  1.00  0.00     0.200 A 
ATOM     83  F   UNL     1      -5.744   4.317 -16.214  1.00  0.00    -0.200 F 
ATOM     84  F   UNL     1      -7.771   6.088 -15.776  1.00  0.00    -0.200 F 
ENDBRANCH  60  74
BRANCH  61  85
ATOM     85  C   UNL     1       5.160   8.495 -10.525  1.00  0.00     0.064 A 
ATOM     86  C   UNL     1       5.851   9.699 -10.720  1.00  0.00     0.173 A 
ATOM     87  C   UNL     1       5.811   7.480  -9.807  1.00  0.00     0.173 A 
ATOM     88  F   UNL     1       5.280  10.691 -11.419  1.00  0.00    -0.203 F 
ATOM     89  C   UNL     1       7.147   9.872 -10.239  1.00  0.00     0.198 A 
ATOM     90  C   UNL     1       7.094   7.666  -9.298  1.00  0.00     0.198 A 
ATOM     91  F   UNL     1       5.195   6.308  -9.590  1.00  0.00    -0.203 F 
ATOM     92  F   UNL     1       7.803  11.013 -10.486  1.00  0.00    -0.200 F 
ATOM     93  C   UNL     1       7.766   8.858  -9.524  1.00  0.00     0.200 A 
ATOM     94  F   UNL     1       7.681   6.689  -8.594  1.00  0.00    -0.200 F 
ATOM     95  F   UNL     1       9.011   9.026  -9.059  1.00  0.00    -0.200 F 
ENDBRANCH  61  85
BRANCH  73  96
ATOM     96  C   UNL     1       2.605   8.127 -17.007  1.00  0.00     0.064 A 
ATOM     97  C   UNL     1       3.480   7.162 -17.526  1.00  0.00     0.173 A 
ATOM     98  C   UNL     1       2.299   9.236 -17.812  1.00  0.00     0.173 A 
ATOM     99  F   UNL     1       3.816   6.090 -16.793  1.00  0.00    -0.203 F 
ATOM    100  C   UNL     1       4.047   7.316 -18.789  1.00  0.00     0.198 A 
ATOM    101  C   UNL     1       2.838   9.368 -19.088  1.00  0.00     0.198 A 
ATOM    102  F   UNL     1       1.460  10.184 -17.367  1.00  0.00    -0.203 F 
ATOM    103  F   UNL     1       4.923   6.408 -19.243  1.00  0.00    -0.200 F 
ATOM    104  C   UNL     1       3.719   8.413 -19.572  1.00  0.00     0.200 A 
ATOM    105  F   UNL     1       2.505  10.419 -19.849  1.00  0.00    -0.200 F 
ATOM    106  F   UNL     1       4.258   8.554 -20.790  1.00  0.00    -0.200 F 
ENDBRANCH  73  96
ENDBRANCH  47  48
ENDBRANCH  40  42
ENDBRANCH  39  40
ENDBRANCH  38  39
ENDBRANCH  37  38
ENDBRANCH  36  37
ENDBRANCH  35  36
ENDBRANCH  34  35
ENDBRANCH   1  34
TORSDOF 22
