REMARK SMILES C=CCN(CC(=O)OCCOCCOCCOCCOC(=O)c1ccc(-c2c3nc(c(-c4c(F)c(F)c(F)c(F)c4F)c4ccc([nH]4)c(-c4c(F)c(F)c(F)c(F)c4F)c4nc(c(-c5c(F)c(F)c(F)c(F)c5F)c5ccc2[nH]5)C=C4)C=C3)cc1)C(=O)CSc1cccs1
REMARK SMILES IDX 12 1 11 2 10 3 9 4 8 5 6 6 7 7 5 8 4 9 3 10 2 11 1 12 86 13
REMARK SMILES IDX 87 14 88 15 89 16 90 17 91 18 94 19 92 20 93 21 13 22 14 23
REMARK SMILES IDX 15 24 16 25 17 26 18 27 19 28 20 29 21 30 22 31 23 32 24 33
REMARK SMILES IDX 85 34 25 35 84 36 26 37 27 38 28 39 78 40 29 41 83 42 77 43
REMARK SMILES IDX 79 44 30 45 82 46 76 47 75 48 31 50 63 51 43 52 62 53 44 54
REMARK SMILES IDX 47 55 61 56 80 57 45 58 46 59 60 61 81 62 48 63 32 64 33 65
REMARK SMILES IDX 41 66 34 67 35 68 39 69 42 70 36 71 37 72 40 73 38 74 64 75
REMARK SMILES IDX 65 76 73 77 66 78 67 79 71 80 74 81 68 82 69 83 72 84 70 85
REMARK SMILES IDX 49 86 50 87 58 88 51 89 52 90 56 91 59 92 53 93 54 94 57 95
REMARK SMILES IDX 55 96
REMARK H PARENT 79 49 47 60
REMARK Flexibility Score: inf
ROOT
ATOM      1  C   UNL     1      -4.902  -0.126   4.746  1.00  0.00     0.188 C 
ENDROOT
BRANCH   1   2
ATOM      2  O   UNL     1      -6.287  -0.016   4.472  1.00  0.00    -0.376 OA
BRANCH   2   3
ATOM      3  C   UNL     1      -6.701   0.220   3.133  1.00  0.00     0.202 C 
BRANCH   3   4
ATOM      4  C   UNL     1      -6.084   1.413   2.372  1.00  0.00     0.261 C 
BRANCH   4   5
ATOM      5  O   UNL     1      -4.635   1.403   2.230  1.00  0.00    -0.462 OA
BRANCH   5   6
ATOM      6  C   UNL     1      -3.978   2.532   2.606  1.00  0.00     0.325 C 
ATOM      7  O   UNL     1      -4.554   3.561   2.952  1.00  0.00    -0.250 OA
BRANCH   6   8
ATOM      8  C   UNL     1      -2.424   2.465   2.630  1.00  0.00     0.242 C 
BRANCH   8   9
ATOM      9  N   UNL     1      -1.567   1.308   2.275  1.00  0.00    -0.327 N 
BRANCH   9  10
ATOM     10  C   UNL     1      -1.319   1.081   0.849  1.00  0.00     0.147 C 
BRANCH  10  11
ATOM     11  C   UNL     1       0.141   1.290   0.533  1.00  0.00    -0.014 C 
ATOM     12  C   UNL     1       0.900   0.401  -0.126  1.00  0.00     0.006 C 
ENDBRANCH  10  11
ENDBRANCH   9  10
BRANCH   9  13
ATOM     13  C   UNL     1      -0.964   0.421   3.178  1.00  0.00     0.233 C 
ATOM     14  O   UNL     1      -0.311  -0.555   2.790  1.00  0.00    -0.274 OA
BRANCH  13  15
ATOM     15  C   UNL     1      -1.197   0.574   4.676  1.00  0.00     0.175 C 
BRANCH  15  16
ATOM     16  S   UNL     1      -0.231   1.866   5.464  1.00  0.00    -0.105 SA
BRANCH  16  17
ATOM     17  C   UNL     1       1.415   1.278   5.415  1.00  0.00     0.060 A 
ATOM     18  C   UNL     1       2.500   2.114   5.263  1.00  0.00     0.027 A 
ATOM     19  S   UNL     1       1.899  -0.344   5.634  1.00  0.00    -0.137 S 
ATOM     20  C   UNL     1       3.735   1.410   5.267  1.00  0.00     0.013 A 
ATOM     21  C   UNL     1       3.553   0.058   5.450  1.00  0.00     0.066 A 
ENDBRANCH  16  17
ENDBRANCH  15  16
ENDBRANCH  13  15
ENDBRANCH   9  13
ENDBRANCH   8   9
ENDBRANCH   6   8
ENDBRANCH   5   6
ENDBRANCH   4   5
ENDBRANCH   3   4
ENDBRANCH   2   3
ENDBRANCH   1   2
BRANCH   1  22
ATOM     22  C   UNL     1      -3.993  -0.837   3.741  1.00  0.00     0.188 C 
BRANCH  22  23
ATOM     23  O   UNL     1      -4.625  -1.520   2.689  1.00  0.00    -0.377 OA
BRANCH  23  24
ATOM     24  C   UNL     1      -4.695  -2.929   2.755  1.00  0.00     0.188 C 
BRANCH  24  25
ATOM     25  C   UNL     1      -4.785  -3.555   4.148  1.00  0.00     0.188 C 
BRANCH  25  26
ATOM     26  O   UNL     1      -3.618  -3.515   4.974  1.00  0.00    -0.376 OA
BRANCH  26  27
ATOM     27  C   UNL     1      -2.317  -3.643   4.389  1.00  0.00     0.202 C 
BRANCH  27  28
ATOM     28  C   UNL     1      -1.882  -5.058   4.038  1.00  0.00     0.261 C 
BRANCH  28  29
ATOM     29  O   UNL     1      -2.395  -5.401   2.743  1.00  0.00    -0.460 OA
BRANCH  29  30
ATOM     30  C   UNL     1      -3.481  -6.199   2.733  1.00  0.00     0.338 C 
ATOM     31  O   UNL     1      -3.983  -6.789   3.676  1.00  0.00    -0.246 OA
BRANCH  30  32
ATOM     32  C   UNL     1      -4.123  -6.079   1.412  1.00  0.00     0.060 A 
ATOM     33  C   UNL     1      -5.518  -5.956   1.370  1.00  0.00     0.016 A 
ATOM     34  C   UNL     1      -3.368  -6.076   0.236  1.00  0.00     0.016 A 
ATOM     35  C   UNL     1      -6.173  -5.883   0.146  1.00  0.00     0.010 A 
ATOM     36  C   UNL     1      -4.024  -6.029  -0.991  1.00  0.00     0.010 A 
ATOM     37  C   UNL     1      -5.428  -5.981  -1.034  1.00  0.00    -0.014 A 
BRANCH  37  38
ATOM     38  C   UNL     1      -6.114  -6.311  -2.298  1.00  0.00     0.031 A 
ATOM     39  C   UNL     1      -6.191  -7.761  -2.681  1.00  0.00     0.074 A 
ATOM     40  C   UNL     1      -6.643  -5.355  -3.075  1.00  0.00     0.049 A 
ATOM     41  N   UNL     1      -6.638  -8.312  -3.778  1.00  0.00    -0.248 NA
ATOM     42  C   UNL     1      -5.681  -8.723  -1.688  1.00  0.00     0.031 C 
ATOM     43  C   UNL     1      -6.671  -3.929  -2.760  1.00  0.00     0.029 A 
ATOM     44  N   UNL     1      -7.244  -5.447  -4.303  1.00  0.00    -0.354 N 
ATOM     45  C   UNL     1      -6.450  -9.678  -3.612  1.00  0.00     0.074 A 
ATOM     46  C   UNL     1      -5.822  -9.873  -2.326  1.00  0.00     0.031 C 
ATOM     47  C   UNL     1      -7.248  -3.272  -3.783  1.00  0.00     0.029 A 
ATOM     48  C   UNL     1      -7.585  -4.229  -4.835  1.00  0.00     0.049 A 
ATOM     49  H   UNL     1      -7.414  -6.303  -4.758  1.00  0.00     0.167 HD
ATOM     50  C   UNL     1      -6.779 -10.678  -4.461  1.00  0.00     0.037 A 
ATOM     51  C   UNL     1      -8.084  -3.934  -6.051  1.00  0.00     0.037 A 
ATOM     52  C   UNL     1      -7.391 -10.460  -5.743  1.00  0.00     0.049 A 
ATOM     53  C   UNL     1      -8.347  -5.058  -7.022  1.00  0.00     0.074 A 
ATOM     54  C   UNL     1      -7.779 -11.395  -6.685  1.00  0.00     0.029 A 
ATOM     55  N   UNL     1      -7.692  -9.210  -6.266  1.00  0.00    -0.354 N 
ATOM     56  N   UNL     1      -8.192  -6.351  -6.857  1.00  0.00    -0.248 NA
ATOM     57  C   UNL     1      -8.853  -4.682  -8.349  1.00  0.00     0.031 C 
ATOM     58  C   UNL     1      -8.252 -10.707  -7.806  1.00  0.00     0.029 A 
ATOM     59  C   UNL     1      -8.229  -9.347  -7.534  1.00  0.00     0.049 A 
ATOM     60  H   UNL     1      -7.545  -8.353  -5.804  1.00  0.00     0.167 HD
ATOM     61  C   UNL     1      -8.618  -6.943  -8.040  1.00  0.00     0.074 A 
ATOM     62  C   UNL     1      -9.041  -5.867  -8.913  1.00  0.00     0.031 C 
ATOM     63  C   UNL     1      -8.662  -8.257  -8.374  1.00  0.00     0.037 A 
BRANCH  50  64
ATOM     64  C   UNL     1      -6.434 -12.079  -4.046  1.00  0.00     0.064 A 
ATOM     65  C   UNL     1      -7.078 -12.716  -2.974  1.00  0.00     0.173 A 
ATOM     66  C   UNL     1      -5.443 -12.796  -4.733  1.00  0.00     0.173 A 
ATOM     67  F   UNL     1      -8.021 -12.070  -2.271  1.00  0.00    -0.203 F 
ATOM     68  C   UNL     1      -6.717 -14.004  -2.583  1.00  0.00     0.198 A 
ATOM     69  C   UNL     1      -5.109 -14.096  -4.362  1.00  0.00     0.198 A 
ATOM     70  F   UNL     1      -4.794 -12.235  -5.764  1.00  0.00    -0.203 F 
ATOM     71  F   UNL     1      -7.302 -14.567  -1.517  1.00  0.00    -0.200 F 
ATOM     72  C   UNL     1      -5.739 -14.694  -3.282  1.00  0.00     0.200 A 
ATOM     73  F   UNL     1      -4.172 -14.766  -5.047  1.00  0.00    -0.200 F 
ATOM     74  F   UNL     1      -5.394 -15.934  -2.906  1.00  0.00    -0.200 F 
ENDBRANCH  50  64
BRANCH  51  75
ATOM     75  C   UNL     1      -8.357  -2.521  -6.423  1.00  0.00     0.064 A 
ATOM     76  C   UNL     1      -9.668  -2.075  -6.640  1.00  0.00     0.173 A 
ATOM     77  C   UNL     1      -7.318  -1.591  -6.584  1.00  0.00     0.173 A 
ATOM     78  F   UNL     1     -10.694  -2.930  -6.519  1.00  0.00    -0.203 F 
ATOM     79  C   UNL     1      -9.928  -0.761  -7.024  1.00  0.00     0.198 A 
ATOM     80  C   UNL     1      -7.582  -0.270  -6.938  1.00  0.00     0.198 A 
ATOM     81  F   UNL     1      -6.045  -1.964  -6.389  1.00  0.00    -0.203 F 
ATOM     82  F   UNL     1     -11.188  -0.376  -7.272  1.00  0.00    -0.200 F 
ATOM     83  C   UNL     1      -8.886   0.142  -7.167  1.00  0.00     0.200 A 
ATOM     84  F   UNL     1      -6.573   0.604  -7.061  1.00  0.00    -0.200 F 
ATOM     85  F   UNL     1      -9.138   1.406  -7.533  1.00  0.00    -0.200 F 
ENDBRANCH  51  75
BRANCH  63  86
ATOM     86  C   UNL     1      -9.239  -8.616  -9.713  1.00  0.00     0.064 A 
ATOM     87  C   UNL     1      -8.553  -8.358 -10.909  1.00  0.00     0.173 A 
ATOM     88  C   UNL     1     -10.464  -9.297  -9.791  1.00  0.00     0.173 A 
ATOM     89  F   UNL     1      -7.385  -7.698 -10.889  1.00  0.00    -0.203 F 
ATOM     90  C   UNL     1      -9.082  -8.754 -12.134  1.00  0.00     0.198 A 
ATOM     91  C   UNL     1     -10.972  -9.722 -11.014  1.00  0.00     0.198 A 
ATOM     92  F   UNL     1     -11.155  -9.576  -8.675  1.00  0.00    -0.203 F 
ATOM     93  F   UNL     1      -8.431  -8.461 -13.269  1.00  0.00    -0.200 F 
ATOM     94  C   UNL     1     -10.284  -9.445 -12.185  1.00  0.00     0.200 A 
ATOM     95  F   UNL     1     -12.123 -10.407 -11.058  1.00  0.00    -0.200 F 
ATOM     96  F   UNL     1     -10.781  -9.842 -13.365  1.00  0.00    -0.200 F 
ENDBRANCH  63  86
ENDBRANCH  37  38
ENDBRANCH  30  32
ENDBRANCH  29  30
ENDBRANCH  28  29
ENDBRANCH  27  28
ENDBRANCH  26  27
ENDBRANCH  25  26
ENDBRANCH  24  25
ENDBRANCH  23  24
ENDBRANCH  22  23
ENDBRANCH   1  22
TORSDOF 27
