REMARK SMILES C[C@H]1[NH2+]CC[C@H]1C(=O)N(C)CCCC(=O)OCCOCCOCCOCCOC(=O)c1ccc(-c2c3nc(c(-c4c(F)c(F)c(F)c(F)c4F)c4ccc([nH]4)c(-c4c(F)c(F)c(F)c(F)c4F)c4nc(c(-c5c(F)c(F)c(F)c(F)c5F)c5ccc2[nH]5)C=C4)C=C3)cc1
REMARK SMILES IDX 20 1 19 2 18 3 17 4 16 5 14 6 15 7 13 8 12 9 11 10 9 11
REMARK SMILES IDX 10 12 7 13 8 14 6 15 1 16 2 17 3 18 4 19 5 22 21 23 22 24
REMARK SMILES IDX 23 25 24 26 25 27 26 28 27 29 28 30 29 31 30 32 31 33 32 34
REMARK SMILES IDX 93 35 33 36 92 37 34 38 35 39 36 40 86 41 37 42 91 43 85 44
REMARK SMILES IDX 87 45 38 46 90 47 84 48 83 49 39 51 71 52 51 53 70 54 52 55
REMARK SMILES IDX 55 56 69 57 88 58 53 59 54 60 68 62 89 63 56 64 40 65 41 66
REMARK SMILES IDX 49 67 42 68 43 69 47 70 50 71 44 72 45 73 48 74 46 75 72 76
REMARK SMILES IDX 73 77 81 78 74 79 75 80 79 81 82 82 76 83 77 84 80 85 78 86
REMARK SMILES IDX 57 87 58 88 66 89 59 90 60 91 64 92 67 93 61 94 62 95 65 96
REMARK SMILES IDX 63 97
REMARK H PARENT 3 20 3 21 87 50 55 61
REMARK Flexibility Score: inf
ROOT
ATOM      1  C   UNL     1       2.421   7.664  -1.257  1.00  0.00     0.188 C 
ENDROOT
BRANCH   1   2
ATOM      2  O   UNL     1       1.179   8.289  -1.006  1.00  0.00    -0.376 OA
BRANCH   2   3
ATOM      3  C   UNL     1      -0.011   7.655  -1.438  1.00  0.00     0.202 C 
BRANCH   3   4
ATOM      4  C   UNL     1      -0.240   6.154  -1.210  1.00  0.00     0.261 C 
BRANCH   4   5
ATOM      5  O   UNL     1       0.932   5.379  -0.939  1.00  0.00    -0.463 OA
BRANCH   5   6
ATOM      6  C   UNL     1       1.381   4.571  -1.921  1.00  0.00     0.305 C 
ATOM      7  O   UNL     1       1.003   4.628  -3.087  1.00  0.00    -0.252 OA
BRANCH   6   8
ATOM      8  C   UNL     1       2.483   3.619  -1.481  1.00  0.00     0.124 C 
BRANCH   8   9
ATOM      9  C   UNL     1       2.920   3.434  -0.018  1.00  0.00     0.033 C 
BRANCH   9  10
ATOM     10  C   UNL     1       1.887   3.464   1.113  1.00  0.00     0.119 C 
BRANCH  10  11
ATOM     11  N   UNL     1       1.090   2.242   1.172  1.00  0.00    -0.345 N 
ATOM     12  C   UNL     1       1.092   1.552   2.451  1.00  0.00     0.146 C 
BRANCH  11  13
ATOM     13  C   UNL     1       0.153   2.043   0.184  1.00  0.00     0.231 C 
ATOM     14  O   UNL     1      -0.328   3.003  -0.428  1.00  0.00    -0.274 OA
BRANCH  13  15
ATOM     15  C   UNL     1      -0.332   0.665  -0.209  1.00  0.00     0.142 C 
ATOM     16  C   UNL     1       1.915  -0.630   0.365  1.00  0.00     0.076 C 
ATOM     17  C   UNL     1       0.597  -0.536  -0.393  1.00  0.00     0.192 C 
ATOM     18  N   UNL     1      -0.232  -1.722  -0.084  1.00  0.00    -0.343 N 
ATOM     19  C   UNL     1      -1.594  -1.280   0.226  1.00  0.00     0.261 C 
ATOM     20  H   UNL     1       0.160  -2.214   0.719  1.00  0.00     0.346 HD
ATOM     21  H   UNL     1      -0.247  -2.353  -0.886  1.00  0.00     0.346 HD
ATOM     22  C   UNL     1      -1.519   0.185   0.590  1.00  0.00     0.081 C 
ENDBRANCH  13  15
ENDBRANCH  11  13
ENDBRANCH  10  11
ENDBRANCH   9  10
ENDBRANCH   8   9
ENDBRANCH   6   8
ENDBRANCH   5   6
ENDBRANCH   4   5
ENDBRANCH   3   4
ENDBRANCH   2   3
ENDBRANCH   1   2
BRANCH   1  23
ATOM     23  C   UNL     1       3.060   7.012  -0.014  1.00  0.00     0.188 C 
BRANCH  23  24
ATOM     24  O   UNL     1       2.295   6.768   1.162  1.00  0.00    -0.377 OA
BRANCH  24  25
ATOM     25  C   UNL     1       1.437   7.789   1.669  1.00  0.00     0.188 C 
BRANCH  25  26
ATOM     26  C   UNL     1       1.824   9.275   1.500  1.00  0.00     0.188 C 
BRANCH  26  27
ATOM     27  O   UNL     1       3.116   9.492   0.961  1.00  0.00    -0.376 OA
BRANCH  27  28
ATOM     28  C   UNL     1       4.175   9.761   1.867  1.00  0.00     0.202 C 
BRANCH  28  29
ATOM     29  C   UNL     1       4.459   8.734   2.976  1.00  0.00     0.261 C 
BRANCH  29  30
ATOM     30  O   UNL     1       3.371   8.437   3.866  1.00  0.00    -0.460 OA
BRANCH  30  31
ATOM     31  C   UNL     1       2.856   9.453   4.585  1.00  0.00     0.338 C 
ATOM     32  O   UNL     1       3.227  10.617   4.603  1.00  0.00    -0.246 OA
BRANCH  31  33
ATOM     33  C   UNL     1       1.630   8.961   5.237  1.00  0.00     0.060 A 
ATOM     34  C   UNL     1       0.395   9.524   4.888  1.00  0.00     0.016 A 
ATOM     35  C   UNL     1       1.705   7.953   6.201  1.00  0.00     0.016 A 
ATOM     36  C   UNL     1      -0.767   9.108   5.534  1.00  0.00     0.010 A 
ATOM     37  C   UNL     1       0.544   7.553   6.864  1.00  0.00     0.010 A 
ATOM     38  C   UNL     1      -0.690   8.158   6.559  1.00  0.00    -0.014 A 
BRANCH  38  39
ATOM     39  C   UNL     1      -1.853   7.959   7.454  1.00  0.00     0.031 A 
ATOM     40  C   UNL     1      -1.868   8.680   8.772  1.00  0.00     0.074 A 
ATOM     41  C   UNL     1      -2.882   7.172   7.100  1.00  0.00     0.049 A 
ATOM     42  N   UNL     1      -2.745   8.632   9.741  1.00  0.00    -0.248 NA
ATOM     43  C   UNL     1      -0.728   9.573   9.034  1.00  0.00     0.031 C 
ATOM     44  C   UNL     1      -2.998   6.453   5.835  1.00  0.00     0.029 A 
ATOM     45  N   UNL     1      -4.022   6.840   7.788  1.00  0.00    -0.354 N 
ATOM     46  C   UNL     1      -2.255   9.473  10.732  1.00  0.00     0.074 A 
ATOM     47  C   UNL     1      -0.990   9.993  10.261  1.00  0.00     0.031 C 
ATOM     48  C   UNL     1      -4.139   5.743   5.844  1.00  0.00     0.029 A 
ATOM     49  C   UNL     1      -4.812   5.933   7.129  1.00  0.00     0.049 A 
ATOM     50  H   UNL     1      -4.251   7.216   8.669  1.00  0.00     0.167 HD
ATOM     51  C   UNL     1      -2.813   9.787  11.925  1.00  0.00     0.037 A 
ATOM     52  C   UNL     1      -5.934   5.305   7.532  1.00  0.00     0.037 A 
ATOM     53  C   UNL     1      -4.072   9.262  12.386  1.00  0.00     0.049 A 
ATOM     54  C   UNL     1      -6.513   5.622   8.888  1.00  0.00     0.074 A 
ATOM     55  C   UNL     1      -4.747   9.545  13.559  1.00  0.00     0.029 A 
ATOM     56  N   UNL     1      -4.837   8.328  11.700  1.00  0.00    -0.354 N 
ATOM     57  N   UNL     1      -6.069   6.447   9.806  1.00  0.00    -0.248 NA
ATOM     58  C   UNL     1      -7.752   4.926   9.259  1.00  0.00     0.031 C 
ATOM     59  C   UNL     1      -5.880   8.726  13.619  1.00  0.00     0.029 A 
ATOM     60  C   UNL     1      -5.955   7.990  12.446  1.00  0.00     0.049 A 
ATOM     61  H   UNL     1      -4.617   7.959  10.814  1.00  0.00     0.167 HD
ATOM     62  C   UNL     1      -6.982   6.388  10.851  1.00  0.00     0.074 A 
ATOM     63  C   UNL     1      -8.014   5.456  10.447  1.00  0.00     0.031 C 
ATOM     64  C   UNL     1      -6.971   7.052  12.035  1.00  0.00     0.037 A 
BRANCH  51  65
ATOM     65  C   UNL     1      -2.032  10.694  12.834  1.00  0.00     0.064 A 
ATOM     66  C   UNL     1      -1.796  12.042  12.524  1.00  0.00     0.173 A 
ATOM     67  C   UNL     1      -1.499  10.197  14.033  1.00  0.00     0.173 A 
ATOM     68  F   UNL     1      -2.269  12.567  11.383  1.00  0.00    -0.203 F 
ATOM     69  C   UNL     1      -1.017  12.844  13.355  1.00  0.00     0.198 A 
ATOM     70  C   UNL     1      -0.754  11.011  14.881  1.00  0.00     0.198 A 
ATOM     71  F   UNL     1      -1.696   8.917  14.383  1.00  0.00    -0.203 F 
ATOM     72  F   UNL     1      -0.743  14.107  13.001  1.00  0.00    -0.200 F 
ATOM     73  C   UNL     1      -0.501  12.330  14.535  1.00  0.00     0.200 A 
ATOM     74  F   UNL     1      -0.269  10.516  16.028  1.00  0.00    -0.200 F 
ATOM     75  F   UNL     1       0.251  13.101  15.332  1.00  0.00    -0.200 F 
ENDBRANCH  51  65
BRANCH  52  76
ATOM     76  C   UNL     1      -6.566   4.298   6.640  1.00  0.00     0.064 A 
ATOM     77  C   UNL     1      -7.802   4.540   6.027  1.00  0.00     0.173 A 
ATOM     78  C   UNL     1      -5.929   3.078   6.365  1.00  0.00     0.173 A 
ATOM     79  F   UNL     1      -8.463   5.679   6.278  1.00  0.00    -0.203 F 
ATOM     80  C   UNL     1      -8.379   3.599   5.175  1.00  0.00     0.198 A 
ATOM     81  C   UNL     1      -6.491   2.152   5.491  1.00  0.00     0.198 A 
ATOM     82  F   UNL     1      -4.745   2.797   6.929  1.00  0.00    -0.203 F 
ATOM     83  F   UNL     1      -9.578   3.840   4.627  1.00  0.00    -0.200 F 
ATOM     84  C   UNL     1      -7.718   2.411   4.899  1.00  0.00     0.200 A 
ATOM     85  F   UNL     1      -5.841   1.013   5.216  1.00  0.00    -0.200 F 
ATOM     86  F   UNL     1      -8.265   1.514   4.068  1.00  0.00    -0.200 F 
ENDBRANCH  52  76
BRANCH  64  87
ATOM     87  C   UNL     1      -8.124   6.818  12.973  1.00  0.00     0.064 A 
ATOM     88  C   UNL     1      -8.303   5.596  13.639  1.00  0.00     0.173 A 
ATOM     89  C   UNL     1      -9.037   7.850  13.245  1.00  0.00     0.173 A 
ATOM     90  F   UNL     1      -7.468   4.572  13.409  1.00  0.00    -0.203 F 
ATOM     91  C   UNL     1      -9.368   5.408  14.517  1.00  0.00     0.198 A 
ATOM     92  C   UNL     1     -10.078   7.670  14.151  1.00  0.00     0.198 A 
ATOM     93  F   UNL     1      -8.908   9.043  12.644  1.00  0.00    -0.203 F 
ATOM     94  F   UNL     1      -9.550   4.215  15.100  1.00  0.00    -0.200 F 
ATOM     95  C   UNL     1     -10.249   6.447  14.779  1.00  0.00     0.200 A 
ATOM     96  F   UNL     1     -10.916   8.682  14.416  1.00  0.00    -0.200 F 
ATOM     97  F   UNL     1     -11.267   6.266  15.632  1.00  0.00    -0.200 F 
ENDBRANCH  64  87
ENDBRANCH  38  39
ENDBRANCH  31  33
ENDBRANCH  30  31
ENDBRANCH  29  30
ENDBRANCH  28  29
ENDBRANCH  27  28
ENDBRANCH  26  27
ENDBRANCH  25  26
ENDBRANCH  24  25
ENDBRANCH  23  24
ENDBRANCH   1  23
TORSDOF 25
