REMARK SMILES O=C(NCC(=O)OCCOCCOCCOCCOC(=O)c1ccc(-c2c3nc(c(-c4c(F)c(F)c(F)c(F)c4F)c4ccc([nH]4)c(-c4c(F)c(F)c(F)c(F)c4F)c4nc(c(-c5c(F)c(F)c(F)c(F)c5F)c5ccc2[nH]5)C=C4)C=C3)cc1)Nc1cccc2c1CCCC2
REMARK SMILES IDX 13 1 12 2 11 3 10 4 9 5 8 6 7 7 5 8 6 9 4 10 3 11 1 12 2 13
REMARK SMILES IDX 85 14 86 17 87 18 91 19 88 20 90 21 92 22 89 23 95 24 93 25
REMARK SMILES IDX 94 26 14 27 15 28 16 29 17 30 18 31 19 32 20 33 21 34 22 35
REMARK SMILES IDX 23 36 84 37 24 38 83 39 25 40 26 41 27 42 77 43 28 44 82 45
REMARK SMILES IDX 76 46 78 47 29 48 81 49 75 50 74 51 30 53 62 54 42 55 61 56
REMARK SMILES IDX 43 57 46 58 60 59 79 60 44 61 45 62 59 64 80 65 47 66 31 67
REMARK SMILES IDX 32 68 40 69 33 70 34 71 38 72 41 73 35 74 36 75 39 76 37 77
REMARK SMILES IDX 63 78 64 79 72 80 65 81 66 82 70 83 73 84 67 85 68 86 71 87
REMARK SMILES IDX 69 88 48 89 49 90 57 91 50 92 51 93 55 94 58 95 52 96 53 97
REMARK SMILES IDX 56 98 54 99
REMARK H PARENT 3 15 85 16 78 52 46 63
REMARK Flexibility Score: inf
ROOT
ATOM      1  O   UNL     1       3.237  -2.163   3.147  1.00  0.00    -0.377 OA
ENDROOT
BRANCH   1   2
ATOM      2  C   UNL     1       3.576  -2.956   2.028  1.00  0.00     0.188 C 
BRANCH   2   3
ATOM      3  C   UNL     1       5.049  -3.402   1.992  1.00  0.00     0.188 C 
BRANCH   3   4
ATOM      4  O   UNL     1       5.818  -3.466   3.184  1.00  0.00    -0.376 OA
BRANCH   4   5
ATOM      5  C   UNL     1       5.923  -2.348   4.057  1.00  0.00     0.202 C 
BRANCH   5   6
ATOM      6  C   UNL     1       6.126  -0.915   3.540  1.00  0.00     0.261 C 
BRANCH   6   7
ATOM      7  O   UNL     1       5.228  -0.497   2.504  1.00  0.00    -0.462 OA
BRANCH   7   8
ATOM      8  C   UNL     1       5.785  -0.215   1.299  1.00  0.00     0.325 C 
ATOM      9  O   UNL     1       6.984  -0.280   1.049  1.00  0.00    -0.250 OA
BRANCH   8  10
ATOM     10  C   UNL     1       4.745   0.005   0.205  1.00  0.00     0.240 C 
BRANCH  10  11
ATOM     11  N   UNL     1       3.405   0.364   0.639  1.00  0.00    -0.327 N 
ATOM     12  O   UNL     1       1.530   1.487   0.921  1.00  0.00    -0.248 OA
ATOM     13  C   UNL     1       2.693   1.518   0.526  1.00  0.00     0.319 C 
ATOM     14  N   UNL     1       3.324   2.576  -0.093  1.00  0.00    -0.308 N 
ATOM     15  H   UNL     1       2.923  -0.361   1.100  1.00  0.00     0.166 HD
ATOM     16  H   UNL     1       4.306   2.574  -0.168  1.00  0.00     0.171 HD
BRANCH  14  17
ATOM     17  C   UNL     1       2.589   3.670  -0.626  1.00  0.00     0.046 A 
ATOM     18  C   UNL     1       2.491   3.658  -2.013  1.00  0.00     0.026 A 
ATOM     19  C   UNL     1       1.559   4.271   0.093  1.00  0.00    -0.021 A 
ATOM     20  C   UNL     1       1.231   3.843  -2.587  1.00  0.00     0.002 A 
ATOM     21  C   UNL     1       0.254   4.178  -0.400  1.00  0.00    -0.043 A 
ATOM     22  C   UNL     1       1.802   5.689   0.639  1.00  0.00     0.038 C 
ATOM     23  C   UNL     1       0.098   3.986  -1.771  1.00  0.00     0.004 A 
ATOM     24  C   UNL     1      -0.877   4.473   0.547  1.00  0.00     0.036 C 
ATOM     25  C   UNL     1       0.719   6.162   1.615  1.00  0.00     0.005 C 
ATOM     26  C   UNL     1      -0.383   5.129   1.849  1.00  0.00     0.005 C 
ENDBRANCH  14  17
ENDBRANCH  10  11
ENDBRANCH   8  10
ENDBRANCH   7   8
ENDBRANCH   6   7
ENDBRANCH   5   6
ENDBRANCH   4   5
ENDBRANCH   3   4
ENDBRANCH   2   3
ENDBRANCH   1   2
BRANCH   1  27
ATOM     27  C   UNL     1       2.626  -2.819   4.257  1.00  0.00     0.188 C 
BRANCH  27  28
ATOM     28  C   UNL     1       3.008  -4.281   4.579  1.00  0.00     0.188 C 
BRANCH  28  29
ATOM     29  O   UNL     1       2.955  -5.159   3.462  1.00  0.00    -0.376 OA
BRANCH  29  30
ATOM     30  C   UNL     1       1.797  -5.966   3.299  1.00  0.00     0.202 C 
BRANCH  30  31
ATOM     31  C   UNL     1       0.484  -5.235   2.970  1.00  0.00     0.261 C 
BRANCH  31  32
ATOM     32  O   UNL     1       0.022  -4.300   3.960  1.00  0.00    -0.460 OA
BRANCH  32  33
ATOM     33  C   UNL     1      -0.236  -4.786   5.194  1.00  0.00     0.338 C 
ATOM     34  O   UNL     1      -0.198  -5.944   5.546  1.00  0.00    -0.246 OA
BRANCH  33  35
ATOM     35  C   UNL     1      -0.382  -3.642   6.123  1.00  0.00     0.060 A 
ATOM     36  C   UNL     1       0.450  -3.599   7.248  1.00  0.00     0.016 A 
ATOM     37  C   UNL     1      -1.344  -2.650   5.918  1.00  0.00     0.016 A 
ATOM     38  C   UNL     1       0.277  -2.601   8.205  1.00  0.00     0.010 A 
ATOM     39  C   UNL     1      -1.525  -1.654   6.886  1.00  0.00     0.010 A 
ATOM     40  C   UNL     1      -0.747  -1.654   8.058  1.00  0.00    -0.014 A 
BRANCH  40  41
ATOM     41  C   UNL     1      -1.099  -0.800   9.222  1.00  0.00     0.031 A 
ATOM     42  C   UNL     1      -2.274  -1.191  10.080  1.00  0.00     0.074 A 
ATOM     43  C   UNL     1      -0.336   0.252   9.567  1.00  0.00     0.049 A 
ATOM     44  N   UNL     1      -2.716  -0.648  11.186  1.00  0.00    -0.248 NA
ATOM     45  C   UNL     1      -3.054  -2.354   9.630  1.00  0.00     0.031 C 
ATOM     46  C   UNL     1       0.841   0.714   8.837  1.00  0.00     0.029 A 
ATOM     47  N   UNL     1      -0.436   1.115  10.630  1.00  0.00    -0.354 N 
ATOM     48  C   UNL     1      -3.820  -1.403  11.564  1.00  0.00     0.074 A 
ATOM     49  C   UNL     1      -4.007  -2.415  10.548  1.00  0.00     0.031 C 
ATOM     50  C   UNL     1       1.361   1.775   9.478  1.00  0.00     0.029 A 
ATOM     51  C   UNL     1       0.539   2.081  10.648  1.00  0.00     0.049 A 
ATOM     52  H   UNL     1      -1.141   1.047  11.315  1.00  0.00     0.167 HD
ATOM     53  C   UNL     1      -4.598  -1.275  12.665  1.00  0.00     0.037 A 
ATOM     54  C   UNL     1       0.739   3.099  11.508  1.00  0.00     0.037 A 
ATOM     55  C   UNL     1      -4.416  -0.262  13.674  1.00  0.00     0.049 A 
ATOM     56  C   UNL     1      -0.179   3.256  12.694  1.00  0.00     0.074 A 
ATOM     57  C   UNL     1      -5.143  -0.058  14.834  1.00  0.00     0.029 A 
ATOM     58  N   UNL     1      -3.442   0.726  13.635  1.00  0.00    -0.354 N 
ATOM     59  N   UNL     1      -1.195   2.515  13.064  1.00  0.00    -0.248 NA
ATOM     60  C   UNL     1       0.093   4.387  13.592  1.00  0.00     0.031 C 
ATOM     61  C   UNL     1      -4.651   1.091  15.463  1.00  0.00     0.029 A 
ATOM     62  C   UNL     1      -3.568   1.560  14.736  1.00  0.00     0.049 A 
ATOM     63  H   UNL     1      -2.763   0.821  12.929  1.00  0.00     0.167 HD
ATOM     64  C   UNL     1      -1.662   3.068  14.251  1.00  0.00     0.074 A 
ATOM     65  C   UNL     1      -0.802   4.193  14.550  1.00  0.00     0.031 C 
ATOM     66  C   UNL     1      -2.707   2.679  15.025  1.00  0.00     0.037 A 
BRANCH  53  67
ATOM     67  C   UNL     1      -5.743  -2.237  12.822  1.00  0.00     0.064 A 
ATOM     68  C   UNL     1      -5.536  -3.599  13.090  1.00  0.00     0.173 A 
ATOM     69  C   UNL     1      -7.068  -1.782  12.734  1.00  0.00     0.173 A 
ATOM     70  F   UNL     1      -4.290  -4.091  13.171  1.00  0.00    -0.203 F 
ATOM     71  C   UNL     1      -6.611  -4.474  13.233  1.00  0.00     0.198 A 
ATOM     72  C   UNL     1      -8.140  -2.653  12.912  1.00  0.00     0.198 A 
ATOM     73  F   UNL     1      -7.324  -0.490  12.483  1.00  0.00    -0.203 F 
ATOM     74  F   UNL     1      -6.388  -5.780  13.435  1.00  0.00    -0.200 F 
ATOM     75  C   UNL     1      -7.911  -3.999  13.153  1.00  0.00     0.200 A 
ATOM     76  F   UNL     1      -9.396  -2.188  12.849  1.00  0.00    -0.200 F 
ATOM     77  F   UNL     1      -8.945  -4.839  13.300  1.00  0.00    -0.200 F 
ENDBRANCH  53  67
BRANCH  54  78
ATOM     78  C   UNL     1       1.857   4.056  11.283  1.00  0.00     0.064 A 
ATOM     79  C   UNL     1       2.938   4.136  12.172  1.00  0.00     0.173 A 
ATOM     80  C   UNL     1       1.850   4.931  10.187  1.00  0.00     0.173 A 
ATOM     81  F   UNL     1       2.979   3.340  13.251  1.00  0.00    -0.203 F 
ATOM     82  C   UNL     1       3.955   5.071  11.988  1.00  0.00     0.198 A 
ATOM     83  C   UNL     1       2.885   5.842   9.984  1.00  0.00     0.198 A 
ATOM     84  F   UNL     1       0.838   4.900   9.307  1.00  0.00    -0.203 F 
ATOM     85  F   UNL     1       4.946   5.165  12.885  1.00  0.00    -0.200 F 
ATOM     86  C   UNL     1       3.932   5.918  10.890  1.00  0.00     0.200 A 
ATOM     87  F   UNL     1       2.865   6.649   8.915  1.00  0.00    -0.200 F 
ATOM     88  F   UNL     1       4.911   6.815  10.712  1.00  0.00    -0.200 F 
ENDBRANCH  54  78
BRANCH  66  89
ATOM     89  C   UNL     1      -2.947   3.450  16.295  1.00  0.00     0.064 A 
ATOM     90  C   UNL     1      -3.374   4.787  16.285  1.00  0.00     0.173 A 
ATOM     91  C   UNL     1      -2.748   2.839  17.543  1.00  0.00     0.173 A 
ATOM     92  F   UNL     1      -3.572   5.425  15.121  1.00  0.00    -0.203 F 
ATOM     93  C   UNL     1      -3.537   5.497  17.473  1.00  0.00     0.198 A 
ATOM     94  C   UNL     1      -2.953   3.539  18.729  1.00  0.00     0.198 A 
ATOM     95  F   UNL     1      -2.354   1.559  17.616  1.00  0.00    -0.203 F 
ATOM     96  F   UNL     1      -3.868   6.796  17.434  1.00  0.00    -0.200 F 
ATOM     97  C   UNL     1      -3.331   4.872  18.693  1.00  0.00     0.200 A 
ATOM     98  F   UNL     1      -2.772   2.927  19.907  1.00  0.00    -0.200 F 
ATOM     99  F   UNL     1      -3.485   5.558  19.834  1.00  0.00    -0.200 F 
ENDBRANCH  66  89
ENDBRANCH  40  41
ENDBRANCH  33  35
ENDBRANCH  32  33
ENDBRANCH  31  32
ENDBRANCH  30  31
ENDBRANCH  29  30
ENDBRANCH  28  29
ENDBRANCH  27  28
ENDBRANCH   1  27
TORSDOF 22
