REMARK SMILES COc1cc(C(=O)N[C@H](C(=O)OCCOCCOCCOCCOC(=O)c2ccc(-c3c4nc(c(-c5c(F)c(F)c(F)c(F)c5F)c5ccc([nH]5)c(-c5c(F)c(F)c(F)c(F)c5F)c5nc(c(-c6c(F)c(F)c(F)c(F)c6F)c6ccc3[nH]6)C=C5)C=C4)cc2)C2=C(C)N=N[C@H]2C)ccc1C
REMARK SMILES IDX 17 1 16 2 15 3 14 4 13 5 12 6 10 7 11 8 9 9 8 10 6 11 7 12
REMARK SMILES IDX 5 14 3 15 4 16 99 17 98 18 100 19 97 20 2 21 1 22 90 23
REMARK SMILES IDX 91 24 95 25 92 26 93 27 94 28 96 29 18 30 19 31 20 32 21 33
REMARK SMILES IDX 22 34 23 35 24 36 25 37 26 38 27 39 28 40 89 41 29 42 88 43
REMARK SMILES IDX 30 44 31 45 32 46 82 47 33 48 87 49 81 50 83 51 34 52 86 53
REMARK SMILES IDX 80 54 79 55 35 57 67 58 47 59 66 60 48 61 51 62 65 63 84 64
REMARK SMILES IDX 49 65 50 66 64 68 85 69 52 70 36 71 37 72 45 73 38 74 39 75
REMARK SMILES IDX 43 76 46 77 40 78 41 79 44 80 42 81 68 82 69 83 77 84 70 85
REMARK SMILES IDX 71 86 75 87 78 88 72 89 73 90 76 91 74 92 53 93 54 94 62 95
REMARK SMILES IDX 55 96 56 97 60 98 63 99 57 100 58 101 61 102 59 103
REMARK H PARENT 8 13 83 56 51 67
REMARK Flexibility Score: inf
ROOT
ATOM      1  C   UNL     1       0.526   2.794  -2.142  1.00  0.00     0.188 C 
ENDROOT
BRANCH   1   2
ATOM      2  C   UNL     1       1.414   3.972  -1.741  1.00  0.00     0.188 C 
BRANCH   2   3
ATOM      3  O   UNL     1       2.584   4.285  -2.473  1.00  0.00    -0.376 OA
BRANCH   3   4
ATOM      4  C   UNL     1       2.942   3.633  -3.660  1.00  0.00     0.202 C 
BRANCH   4   5
ATOM      5  C   UNL     1       3.249   2.126  -3.661  1.00  0.00     0.261 C 
BRANCH   5   6
ATOM      6  O   UNL     1       3.720   1.354  -2.526  1.00  0.00    -0.461 OA
BRANCH   6   7
ATOM      7  C   UNL     1       3.948   1.773  -1.249  1.00  0.00     0.333 C 
ATOM      8  O   UNL     1       3.771   2.867  -0.807  1.00  0.00    -0.249 OA
BRANCH   7   9
ATOM      9  C   UNL     1       4.457   0.608  -0.396  1.00  0.00     0.223 C 
BRANCH   9  10
ATOM     10  N   UNL     1       5.789   0.105  -0.770  1.00  0.00    -0.335 N 
ATOM     11  C   UNL     1       7.068   0.582  -0.573  1.00  0.00     0.252 C 
ATOM     12  O   UNL     1       7.821  -0.253  -0.068  1.00  0.00    -0.269 OA
ATOM     13  H   UNL     1       5.761  -0.747  -1.261  1.00  0.00     0.165 HD
BRANCH  11  14
ATOM     14  C   UNL     1       7.491   2.002  -0.910  1.00  0.00     0.043 A 
ATOM     15  C   UNL     1       7.156   4.281  -0.655  1.00  0.00     0.122 A 
ATOM     16  C   UNL     1       6.817   2.971  -0.319  1.00  0.00     0.060 A 
ATOM     17  C   UNL     1       8.426   4.695  -1.488  1.00  0.00    -0.009 A 
ATOM     18  C   UNL     1       9.204   3.711  -1.862  1.00  0.00     0.008 A 
ATOM     19  C   UNL     1       9.181   5.897  -2.212  1.00  0.00     0.048 C 
ATOM     20  C   UNL     1       8.599   2.522  -1.647  1.00  0.00     0.014 A 
BRANCH  15  21
ATOM     21  O   UNL     1       6.075   5.096  -0.365  1.00  0.00    -0.496 OA
ATOM     22  C   UNL     1       5.174   4.886   0.713  1.00  0.00     0.278 C 
ENDBRANCH  15  21
ENDBRANCH  11  14
ENDBRANCH   9  10
BRANCH   9  23
ATOM     23  C   UNL     1       4.291   0.632   1.112  1.00  0.00     0.012 C 
ATOM     24  C   UNL     1       3.882   1.453   2.103  1.00  0.00     0.064 C 
ATOM     25  C   UNL     1       4.472  -0.683   1.825  1.00  0.00     0.156 C 
ATOM     26  C   UNL     1       3.267   2.812   2.178  1.00  0.00     0.069 C 
ATOM     27  N   UNL     1       3.999   0.871   3.347  1.00  0.00    -0.160 NA
ATOM     28  N   UNL     1       4.374  -0.320   3.252  1.00  0.00    -0.181 NA
ATOM     29  C   UNL     1       3.308  -1.628   1.519  1.00  0.00     0.040 C 
ENDBRANCH   9  23
ENDBRANCH   7   9
ENDBRANCH   6   7
ENDBRANCH   5   6
ENDBRANCH   4   5
ENDBRANCH   3   4
ENDBRANCH   2   3
ENDBRANCH   1   2
BRANCH   1  30
ATOM     30  O   UNL     1      -0.528   3.059  -3.075  1.00  0.00    -0.377 OA
BRANCH  30  31
ATOM     31  C   UNL     1      -0.159   3.208  -4.444  1.00  0.00     0.188 C 
BRANCH  31  32
ATOM     32  C   UNL     1      -0.061   4.671  -4.897  1.00  0.00     0.188 C 
BRANCH  32  33
ATOM     33  O   UNL     1       0.294   5.520  -3.818  1.00  0.00    -0.376 OA
BRANCH  33  34
ATOM     34  C   UNL     1      -0.825   6.126  -3.166  1.00  0.00     0.202 C 
BRANCH  34  35
ATOM     35  C   UNL     1      -1.040   7.506  -3.771  1.00  0.00     0.261 C 
BRANCH  35  36
ATOM     36  O   UNL     1       0.187   8.244  -3.571  1.00  0.00    -0.460 OA
BRANCH  36  37
ATOM     37  C   UNL     1       1.095   8.094  -4.575  1.00  0.00     0.338 C 
ATOM     38  O   UNL     1       0.823   8.027  -5.765  1.00  0.00    -0.246 OA
BRANCH  37  39
ATOM     39  C   UNL     1       2.473   7.866  -4.038  1.00  0.00     0.060 A 
ATOM     40  C   UNL     1       3.549   7.816  -4.932  1.00  0.00     0.016 A 
ATOM     41  C   UNL     1       2.700   7.519  -2.706  1.00  0.00     0.016 A 
ATOM     42  C   UNL     1       4.830   7.424  -4.497  1.00  0.00     0.010 A 
ATOM     43  C   UNL     1       3.969   7.075  -2.293  1.00  0.00     0.010 A 
ATOM     44  C   UNL     1       5.067   7.038  -3.165  1.00  0.00    -0.014 A 
BRANCH  44  45
ATOM     45  C   UNL     1       6.436   6.471  -2.782  1.00  0.00     0.031 A 
ATOM     46  C   UNL     1       6.951   7.046  -1.107  1.00  0.00     0.074 A 
ATOM     47  C   UNL     1       6.546   5.176  -3.426  1.00  0.00     0.049 A 
ATOM     48  N   UNL     1       8.008   6.672  -0.347  1.00  0.00    -0.248 NA
ATOM     49  C   UNL     1       6.146   7.912  -0.232  1.00  0.00     0.031 C 
ATOM     50  C   UNL     1       5.770   4.020  -2.969  1.00  0.00     0.029 A 
ATOM     51  N   UNL     1       7.440   4.433  -4.325  1.00  0.00    -0.354 N 
ATOM     52  C   UNL     1       7.766   6.671   1.018  1.00  0.00     0.074 A 
ATOM     53  C   UNL     1       6.653   7.664   1.005  1.00  0.00     0.031 C 
ATOM     54  C   UNL     1       6.267   2.828  -3.369  1.00  0.00     0.029 A 
ATOM     55  C   UNL     1       7.489   2.991  -4.120  1.00  0.00     0.049 A 
ATOM     56  H   UNL     1       7.973   4.881  -5.021  1.00  0.00     0.167 HD
ATOM     57  C   UNL     1       8.225   5.738   2.016  1.00  0.00     0.037 A 
ATOM     58  C   UNL     1       8.169   1.855  -4.609  1.00  0.00     0.037 A 
ATOM     59  C   UNL     1       8.771   4.194   1.727  1.00  0.00     0.049 A 
ATOM     60  C   UNL     1       9.020   0.626  -3.651  1.00  0.00     0.074 A 
ATOM     61  C   UNL     1       8.290   2.982   2.275  1.00  0.00     0.029 A 
ATOM     62  N   UNL     1       9.822   3.649   0.867  1.00  0.00    -0.354 N 
ATOM     63  N   UNL     1       8.880   0.246  -2.366  1.00  0.00    -0.248 NA
ATOM     64  C   UNL     1      10.426   0.291  -3.996  1.00  0.00     0.031 C 
ATOM     65  C   UNL     1       8.939   1.797   1.745  1.00  0.00     0.029 A 
ATOM     66  C   UNL     1       9.764   2.133   0.674  1.00  0.00     0.049 A 
ATOM     67  H   UNL     1      10.512   4.212   0.446  1.00  0.00     0.167 HD
ATOM     68  C   UNL     1      10.207   0.411  -1.636  1.00  0.00     0.074 A 
ATOM     69  C   UNL     1      11.050   0.071  -2.804  1.00  0.00     0.031 C 
ATOM     70  C   UNL     1      10.628   1.225  -0.436  1.00  0.00     0.037 A 
BRANCH  57  71
ATOM     71  C   UNL     1       7.790   6.020   3.540  1.00  0.00     0.064 A 
ATOM     72  C   UNL     1       7.947   5.072   4.583  1.00  0.00     0.173 A 
ATOM     73  C   UNL     1       7.242   7.229   4.023  1.00  0.00     0.173 A 
ATOM     74  F   UNL     1       8.787   4.038   4.468  1.00  0.00    -0.203 F 
ATOM     75  C   UNL     1       7.346   5.194   5.850  1.00  0.00     0.198 A 
ATOM     76  C   UNL     1       6.615   7.357   5.278  1.00  0.00     0.198 A 
ATOM     77  F   UNL     1       7.404   8.378   3.354  1.00  0.00    -0.203 F 
ATOM     78  F   UNL     1       7.502   4.220   6.759  1.00  0.00    -0.200 F 
ATOM     79  C   UNL     1       6.629   6.318   6.179  1.00  0.00     0.200 A 
ATOM     80  F   UNL     1       6.025   8.514   5.614  1.00  0.00    -0.200 F 
ATOM     81  F   UNL     1       6.047   6.438   7.380  1.00  0.00    -0.200 F 
ENDBRANCH  57  71
BRANCH  58  82
ATOM     82  C   UNL     1       7.414   1.478  -5.878  1.00  0.00     0.064 A 
ATOM     83  C   UNL     1       6.274   0.650  -5.835  1.00  0.00     0.173 A 
ATOM     84  C   UNL     1       7.458   2.431  -6.919  1.00  0.00     0.173 A 
ATOM     85  F   UNL     1       6.148  -0.278  -4.876  1.00  0.00    -0.203 F 
ATOM     86  C   UNL     1       5.166   0.902  -6.662  1.00  0.00     0.198 A 
ATOM     87  C   UNL     1       6.338   2.707  -7.706  1.00  0.00     0.198 A 
ATOM     88  F   UNL     1       8.526   3.238  -7.027  1.00  0.00    -0.203 F 
ATOM     89  F   UNL     1       4.031   0.206  -6.494  1.00  0.00    -0.200 F 
ATOM     90  C   UNL     1       5.178   1.970  -7.546  1.00  0.00     0.200 A 
ATOM     91  F   UNL     1       6.348   3.765  -8.530  1.00  0.00    -0.200 F 
ATOM     92  F   UNL     1       4.055   2.330  -8.187  1.00  0.00    -0.200 F 
ENDBRANCH  58  82
BRANCH  70  93
ATOM     93  C   UNL     1      12.101   1.508  -0.165  1.00  0.00     0.064 A 
ATOM     94  C   UNL     1      13.007   1.937  -1.141  1.00  0.00     0.173 A 
ATOM     95  C   UNL     1      12.535   1.630   1.181  1.00  0.00     0.173 A 
ATOM     96  F   UNL     1      12.658   2.020  -2.431  1.00  0.00    -0.203 F 
ATOM     97  C   UNL     1      14.280   2.397  -0.805  1.00  0.00     0.198 A 
ATOM     98  C   UNL     1      13.760   2.201   1.515  1.00  0.00     0.198 A 
ATOM     99  F   UNL     1      11.748   1.257   2.202  1.00  0.00    -0.203 F 
ATOM    100  F   UNL     1      15.134   2.740  -1.779  1.00  0.00    -0.200 F 
ATOM    101  C   UNL     1      14.644   2.561   0.519  1.00  0.00     0.200 A 
ATOM    102  F   UNL     1      14.061   2.438   2.799  1.00  0.00    -0.200 F 
ATOM    103  F   UNL     1      15.831   3.096   0.832  1.00  0.00    -0.200 F 
ENDBRANCH  70  93
ENDBRANCH  44  45
ENDBRANCH  37  39
ENDBRANCH  36  37
ENDBRANCH  35  36
ENDBRANCH  34  35
ENDBRANCH  33  34
ENDBRANCH  32  33
ENDBRANCH  31  32
ENDBRANCH  30  31
ENDBRANCH   1  30
TORSDOF 24
