REMARK SMILES Cc1ccc(C)c(CC(=O)N(CC(=O)OCCOCCOCCOCCOC(=O)c2ccc(-c3c4nc(c(-c5c(F)c(F)c(F)c(F)c5F)c5ccc([nH]5)c(-c5c(F)c(F)c(F)c(F)c5F)c5nc(c(-c6c(F)c(F)c(F)c(F)c6F)c6ccc3[nH]6)C=C5)C=C4)cc2)CC(F)(F)F)c1
REMARK SMILES IDX 20 1 19 2 18 3 17 4 16 5 15 6 13 7 14 8 12 9 11 10 9 11
REMARK SMILES IDX 10 12 8 13 7 14 1 15 2 16 3 17 98 18 4 19 5 20 6 21 93 22
REMARK SMILES IDX 94 23 95 24 96 25 97 26 21 27 22 28 23 29 24 30 25 31 26 32
REMARK SMILES IDX 27 33 28 34 29 35 30 36 31 37 92 38 32 39 91 40 33 41 34 42
REMARK SMILES IDX 35 43 85 44 36 45 90 46 84 47 86 48 37 49 89 50 83 51 82 52
REMARK SMILES IDX 38 54 70 55 50 56 69 57 51 58 54 59 68 60 87 61 52 62 53 63
REMARK SMILES IDX 67 65 88 66 55 67 39 68 40 69 48 70 41 71 42 72 46 73 49 74
REMARK SMILES IDX 43 75 44 76 47 77 45 78 71 79 72 80 80 81 73 82 74 83 78 84
REMARK SMILES IDX 81 85 75 86 76 87 79 88 77 89 56 90 57 91 65 92 58 93 59 94
REMARK SMILES IDX 63 95 66 96 60 97 61 98 64 99 62 100
REMARK H PARENT 86 53 54 64
REMARK Flexibility Score: inf
ROOT
ATOM      1  C   UNL     1      -2.596   0.519  -3.661  1.00  0.00     0.188 C 
ENDROOT
BRANCH   1   2
ATOM      2  C   UNL     1      -1.404   0.112  -4.504  1.00  0.00     0.188 C 
BRANCH   2   3
ATOM      3  O   UNL     1      -1.062  -1.250  -4.589  1.00  0.00    -0.376 OA
BRANCH   3   4
ATOM      4  C   UNL     1      -0.303  -1.814  -3.537  1.00  0.00     0.202 C 
BRANCH   4   5
ATOM      5  C   UNL     1       0.442  -0.903  -2.554  1.00  0.00     0.261 C 
BRANCH   5   6
ATOM      6  O   UNL     1      -0.369   0.161  -1.994  1.00  0.00    -0.462 OA
BRANCH   6   7
ATOM      7  C   UNL     1       0.244   1.368  -1.866  1.00  0.00     0.325 C 
ATOM      8  O   UNL     1       1.443   1.526  -2.088  1.00  0.00    -0.250 OA
BRANCH   7   9
ATOM      9  C   UNL     1      -0.665   2.598  -1.528  1.00  0.00     0.242 C 
BRANCH   9  10
ATOM     10  N   UNL     1      -2.107   2.670  -1.144  1.00  0.00    -0.322 N 
BRANCH  10  11
ATOM     11  C   UNL     1      -2.549   2.610   0.171  1.00  0.00     0.227 C 
ATOM     12  O   UNL     1      -3.651   3.083   0.473  1.00  0.00    -0.275 OA
BRANCH  11  13
ATOM     13  C   UNL     1      -1.656   2.069   1.264  1.00  0.00     0.136 C 
BRANCH  13  14
ATOM     14  C   UNL     1      -1.079   0.688   1.062  1.00  0.00    -0.035 A 
ATOM     15  C   UNL     1       2.447  -0.682   0.601  1.00  0.00     0.044 C 
ATOM     16  C   UNL     1       0.970  -0.644   0.856  1.00  0.00    -0.051 A 
ATOM     17  C   UNL     1       0.201  -1.799   0.749  1.00  0.00     0.004 A 
ATOM     18  C   UNL     1       0.324   0.569   1.106  1.00  0.00     0.008 A 
ATOM     19  C   UNL     1      -1.191  -1.708   0.720  1.00  0.00     0.004 A 
ATOM     20  C   UNL     1      -1.847  -0.469   0.834  1.00  0.00    -0.047 A 
ATOM     21  C   UNL     1      -3.337  -0.476   0.625  1.00  0.00     0.044 C 
ENDBRANCH  13  14
ENDBRANCH  11  13
ENDBRANCH  10  11
BRANCH  10  22
ATOM     22  C   UNL     1      -3.075   3.317  -2.081  1.00  0.00     0.235 C 
BRANCH  22  23
ATOM     23  C   UNL     1      -4.525   2.754  -2.171  1.00  0.00     0.406 C 
ATOM     24  F   UNL     1      -5.438   3.632  -1.698  1.00  0.00    -0.169 F 
ATOM     25  F   UNL     1      -4.853   2.555  -3.479  1.00  0.00    -0.169 F 
ATOM     26  F   UNL     1      -4.700   1.576  -1.542  1.00  0.00    -0.169 F 
ENDBRANCH  22  23
ENDBRANCH  10  22
ENDBRANCH   9  10
ENDBRANCH   7   9
ENDBRANCH   6   7
ENDBRANCH   5   6
ENDBRANCH   4   5
ENDBRANCH   3   4
ENDBRANCH   2   3
ENDBRANCH   1   2
BRANCH   1  27
ATOM     27  O   UNL     1      -3.484  -0.435  -3.128  1.00  0.00    -0.377 OA
BRANCH  27  28
ATOM     28  C   UNL     1      -4.033  -1.384  -4.027  1.00  0.00     0.188 C 
BRANCH  28  29
ATOM     29  C   UNL     1      -4.754  -0.803  -5.245  1.00  0.00     0.188 C 
BRANCH  29  30
ATOM     30  O   UNL     1      -3.880   0.017  -6.011  1.00  0.00    -0.376 OA
BRANCH  30  31
ATOM     31  C   UNL     1      -4.497   1.122  -6.648  1.00  0.00     0.202 C 
BRANCH  31  32
ATOM     32  C   UNL     1      -5.288   0.703  -7.887  1.00  0.00     0.261 C 
BRANCH  32  33
ATOM     33  O   UNL     1      -4.594   0.012  -8.958  1.00  0.00    -0.460 OA
BRANCH  33  34
ATOM     34  C   UNL     1      -3.613  -0.887  -8.672  1.00  0.00     0.338 C 
ATOM     35  O   UNL     1      -3.773  -2.082  -8.604  1.00  0.00    -0.246 OA
BRANCH  34  36
ATOM     36  C   UNL     1      -2.299  -0.200  -8.512  1.00  0.00     0.060 A 
ATOM     37  C   UNL     1      -1.298  -0.877  -7.831  1.00  0.00     0.016 A 
ATOM     38  C   UNL     1      -2.147   1.163  -8.823  1.00  0.00     0.016 A 
ATOM     39  C   UNL     1      -0.261  -0.132  -7.290  1.00  0.00     0.010 A 
ATOM     40  C   UNL     1      -1.145   1.919  -8.216  1.00  0.00     0.010 A 
ATOM     41  C   UNL     1      -0.257   1.286  -7.360  1.00  0.00    -0.014 A 
BRANCH  41  42
ATOM     42  C   UNL     1       0.815   1.993  -6.619  1.00  0.00     0.031 A 
ATOM     43  C   UNL     1       2.113   1.367  -6.952  1.00  0.00     0.074 A 
ATOM     44  C   UNL     1       0.704   3.043  -5.759  1.00  0.00     0.049 A 
ATOM     45  N   UNL     1       2.952   0.825  -6.133  1.00  0.00    -0.248 NA
ATOM     46  C   UNL     1       2.393   1.104  -8.385  1.00  0.00     0.031 C 
ATOM     47  C   UNL     1      -0.536   3.754  -5.444  1.00  0.00     0.029 A 
ATOM     48  N   UNL     1       1.640   3.748  -5.008  1.00  0.00    -0.354 N 
ATOM     49  C   UNL     1       4.000   0.422  -6.947  1.00  0.00     0.074 A 
ATOM     50  C   UNL     1       3.519   0.401  -8.306  1.00  0.00     0.031 C 
ATOM     51  C   UNL     1      -0.257   4.874  -4.743  1.00  0.00     0.029 A 
ATOM     52  C   UNL     1       1.178   4.986  -4.529  1.00  0.00     0.049 A 
ATOM     53  H   UNL     1       2.547   3.409  -4.828  1.00  0.00     0.167 HD
ATOM     54  C   UNL     1       5.259   0.712  -6.538  1.00  0.00     0.037 A 
ATOM     55  C   UNL     1       1.880   6.062  -4.057  1.00  0.00     0.037 A 
ATOM     56  C   UNL     1       5.388   0.727  -5.114  1.00  0.00     0.049 A 
ATOM     57  C   UNL     1       3.258   5.631  -3.724  1.00  0.00     0.074 A 
ATOM     58  C   UNL     1       5.375  -0.213  -4.110  1.00  0.00     0.029 A 
ATOM     59  N   UNL     1       5.147   1.937  -4.531  1.00  0.00    -0.354 N 
ATOM     60  N   UNL     1       3.606   5.085  -2.597  1.00  0.00    -0.248 NA
ATOM     61  C   UNL     1       4.277   5.607  -4.769  1.00  0.00     0.031 C 
ATOM     62  C   UNL     1       5.154   0.491  -2.894  1.00  0.00     0.029 A 
ATOM     63  C   UNL     1       5.085   1.855  -3.167  1.00  0.00     0.049 A 
ATOM     64  H   UNL     1       5.030   2.774  -5.035  1.00  0.00     0.167 HD
ATOM     65  C   UNL     1       4.654   4.260  -2.935  1.00  0.00     0.074 A 
ATOM     66  C   UNL     1       5.138   4.751  -4.217  1.00  0.00     0.031 C 
ATOM     67  C   UNL     1       4.751   3.022  -2.375  1.00  0.00     0.037 A 
BRANCH  54  68
ATOM     68  C   UNL     1       6.095   1.585  -7.431  1.00  0.00     0.064 A 
ATOM     69  C   UNL     1       7.486   1.494  -7.427  1.00  0.00     0.173 A 
ATOM     70  C   UNL     1       5.538   2.673  -8.150  1.00  0.00     0.173 A 
ATOM     71  F   UNL     1       8.099   0.573  -6.671  1.00  0.00    -0.203 F 
ATOM     72  C   UNL     1       8.266   2.392  -8.162  1.00  0.00     0.198 A 
ATOM     73  C   UNL     1       6.305   3.510  -8.946  1.00  0.00     0.198 A 
ATOM     74  F   UNL     1       4.248   3.013  -8.016  1.00  0.00    -0.203 F 
ATOM     75  F   UNL     1       9.601   2.329  -8.085  1.00  0.00    -0.200 F 
ATOM     76  C   UNL     1       7.674   3.374  -8.946  1.00  0.00     0.200 A 
ATOM     77  F   UNL     1       5.709   4.478  -9.657  1.00  0.00    -0.200 F 
ATOM     78  F   UNL     1       8.425   4.227  -9.655  1.00  0.00    -0.200 F 
ENDBRANCH  54  68
BRANCH  55  79
ATOM     79  C   UNL     1       1.538   7.526  -3.960  1.00  0.00     0.064 A 
ATOM     80  C   UNL     1       2.419   8.449  -3.343  1.00  0.00     0.173 A 
ATOM     81  C   UNL     1       0.481   8.114  -4.680  1.00  0.00     0.173 A 
ATOM     82  F   UNL     1       3.471   8.022  -2.629  1.00  0.00    -0.203 F 
ATOM     83  C   UNL     1       2.291   9.837  -3.503  1.00  0.00     0.198 A 
ATOM     84  C   UNL     1       0.339   9.499  -4.818  1.00  0.00     0.198 A 
ATOM     85  F   UNL     1      -0.406   7.371  -5.350  1.00  0.00    -0.203 F 
ATOM     86  F   UNL     1       3.206  10.661  -2.973  1.00  0.00    -0.200 F 
ATOM     87  C   UNL     1       1.259  10.360  -4.256  1.00  0.00     0.200 A 
ATOM     88  F   UNL     1      -0.666   9.986  -5.559  1.00  0.00    -0.200 F 
ATOM     89  F   UNL     1       1.171  11.679  -4.474  1.00  0.00    -0.200 F 
ENDBRANCH  55  79
BRANCH  67  90
ATOM     90  C   UNL     1       4.417   2.869  -0.919  1.00  0.00     0.064 A 
ATOM     91  C   UNL     1       3.245   3.310  -0.284  1.00  0.00     0.173 A 
ATOM     92  C   UNL     1       5.362   2.206  -0.110  1.00  0.00     0.173 A 
ATOM     93  F   UNL     1       2.231   3.871  -0.960  1.00  0.00    -0.203 F 
ATOM     94  C   UNL     1       3.053   3.125   1.085  1.00  0.00     0.198 A 
ATOM     95  C   UNL     1       5.131   1.957   1.238  1.00  0.00     0.198 A 
ATOM     96  F   UNL     1       6.521   1.773  -0.633  1.00  0.00    -0.203 F 
ATOM     97  F   UNL     1       1.927   3.573   1.661  1.00  0.00    -0.200 F 
ATOM     98  C   UNL     1       3.980   2.428   1.839  1.00  0.00     0.200 A 
ATOM     99  F   UNL     1       6.016   1.241   1.945  1.00  0.00    -0.200 F 
ATOM    100  F   UNL     1       3.743   2.175   3.133  1.00  0.00    -0.200 F 
ENDBRANCH  67  90
ENDBRANCH  41  42
ENDBRANCH  34  36
ENDBRANCH  33  34
ENDBRANCH  32  33
ENDBRANCH  31  32
ENDBRANCH  30  31
ENDBRANCH  29  30
ENDBRANCH  28  29
ENDBRANCH  27  28
ENDBRANCH   1  27
TORSDOF 26
