REMARK SMILES Cc1c(Cl)cccc1NC(=O)C[C@](C)(C(=O)OCCOCCOCCOCCOC(=O)c1ccc(-c2c3nc(c(-c4c(F)c(F)c(F)c(F)c4F)c4ccc([nH]4)c(-c4c(F)c(F)c(F)c(F)c4F)c4nc(c(-c5c(F)c(F)c(F)c(F)c5F)c5ccc2[nH]5)C=C4)C=C3)cc1)c1ccccc1
REMARK SMILES IDX 22 1 21 2 20 3 19 4 18 5 17 6 15 7 16 8 13 9 14 10 12 11
REMARK SMILES IDX 10 12 9 13 11 15 8 16 1 17 2 18 3 19 4 20 5 21 7 22 6 23
REMARK SMILES IDX 95 24 96 25 100 26 97 27 99 28 98 29 23 30 24 31 25 32 26 33
REMARK SMILES IDX 27 34 28 35 29 36 30 37 31 38 32 39 33 40 94 41 34 42 93 43
REMARK SMILES IDX 35 44 36 45 37 46 87 47 38 48 92 49 86 50 88 51 39 52 91 53
REMARK SMILES IDX 85 54 84 55 40 57 72 58 52 59 71 60 53 61 56 62 70 63 89 64
REMARK SMILES IDX 54 65 55 66 69 68 90 69 57 70 41 71 42 72 50 73 43 74 44 75
REMARK SMILES IDX 48 76 51 77 45 78 46 79 49 80 47 81 73 82 74 83 82 84 75 85
REMARK SMILES IDX 76 86 80 87 83 88 77 89 78 90 81 91 79 92 58 93 59 94 67 95
REMARK SMILES IDX 60 96 61 97 65 98 68 99 62 100 63 101 66 102 64 103
REMARK H PARENT 9 14 88 56 56 67
REMARK Flexibility Score: inf
ROOT
ATOM      1  C   UNL     1      -7.487   0.143  -0.701  1.00  0.00     0.188 C 
ENDROOT
BRANCH   1   2
ATOM      2  C   UNL     1      -7.733  -0.643  -1.994  1.00  0.00     0.188 C 
BRANCH   2   3
ATOM      3  O   UNL     1      -8.204  -1.955  -1.770  1.00  0.00    -0.376 OA
BRANCH   3   4
ATOM      4  C   UNL     1      -7.284  -3.028  -1.847  1.00  0.00     0.202 C 
BRANCH   4   5
ATOM      5  C   UNL     1      -5.879  -2.942  -1.232  1.00  0.00     0.261 C 
BRANCH   5   6
ATOM      6  O   UNL     1      -5.284  -1.643  -1.121  1.00  0.00    -0.463 OA
BRANCH   6   7
ATOM      7  C   UNL     1      -4.357  -1.288  -2.034  1.00  0.00     0.316 C 
ATOM      8  O   UNL     1      -4.064  -1.999  -2.991  1.00  0.00    -0.251 OA
BRANCH   7   9
ATOM      9  C   UNL     1      -3.696   0.094  -1.750  1.00  0.00     0.099 C 
ATOM     10  C   UNL     1      -4.198   0.842  -0.475  1.00  0.00     0.029 C 
BRANCH   9  11
ATOM     11  C   UNL     1      -2.173  -0.186  -1.529  1.00  0.00     0.123 C 
BRANCH  11  12
ATOM     12  C   UNL     1      -1.693  -1.634  -1.387  1.00  0.00     0.225 C 
ATOM     13  N   UNL     1      -2.107  -2.531  -0.447  1.00  0.00    -0.326 N 
ATOM     14  H   UNL     1      -1.783  -3.441  -0.638  1.00  0.00     0.169 HD
ATOM     15  O   UNL     1      -0.866  -2.061  -2.205  1.00  0.00    -0.275 OA
BRANCH  13  16
ATOM     16  C   UNL     1      -2.883  -2.484   0.729  1.00  0.00     0.045 A 
ATOM     17  C   UNL     1      -3.447  -4.991   0.491  1.00  0.00     0.048 C 
ATOM     18  C   UNL     1      -3.561  -3.649   1.178  1.00  0.00    -0.009 A 
ATOM     19  C   UNL     1      -4.425  -3.545   2.296  1.00  0.00     0.046 A 
ATOM     20  Cl  UNL     1      -5.360  -4.893   2.855  1.00  0.00    -0.084 Cl
ATOM     21  C   UNL     1      -4.592  -2.339   2.972  1.00  0.00     0.021 A 
ATOM     22  C   UNL     1      -2.991  -1.314   1.482  1.00  0.00     0.026 A 
ATOM     23  C   UNL     1      -3.855  -1.231   2.580  1.00  0.00     0.004 A 
ENDBRANCH  13  16
ENDBRANCH  11  12
ENDBRANCH   9  11
BRANCH   9  24
ATOM     24  C   UNL     1      -3.998   1.091  -2.925  1.00  0.00    -0.030 A 
ATOM     25  C   UNL     1      -3.579   2.436  -2.859  1.00  0.00     0.005 A 
ATOM     26  C   UNL     1      -4.830   0.743  -4.010  1.00  0.00     0.005 A 
ATOM     27  C   UNL     1      -4.026   3.385  -3.790  1.00  0.00     0.000 A 
ATOM     28  C   UNL     1      -5.272   1.689  -4.941  1.00  0.00     0.000 A 
ATOM     29  C   UNL     1      -4.880   3.014  -4.824  1.00  0.00     0.000 A 
ENDBRANCH   9  24
ENDBRANCH   7   9
ENDBRANCH   6   7
ENDBRANCH   5   6
ENDBRANCH   4   5
ENDBRANCH   3   4
ENDBRANCH   2   3
ENDBRANCH   1   2
BRANCH   1  30
ATOM     30  O   UNL     1      -7.184  -0.593   0.474  1.00  0.00    -0.377 OA
BRANCH  30  31
ATOM     31  C   UNL     1      -8.183  -1.418   1.066  1.00  0.00     0.188 C 
BRANCH  31  32
ATOM     32  C   UNL     1      -9.646  -1.421   0.569  1.00  0.00     0.188 C 
BRANCH  32  33
ATOM     33  O   UNL     1     -10.044  -0.287  -0.179  1.00  0.00    -0.376 OA
BRANCH  33  34
ATOM     34  C   UNL     1     -10.743   0.754   0.482  1.00  0.00     0.202 C 
BRANCH  34  35
ATOM     35  C   UNL     1     -10.024   1.484   1.630  1.00  0.00     0.261 C 
BRANCH  35  36
ATOM     36  O   UNL     1      -9.589   0.661   2.723  1.00  0.00    -0.460 OA
BRANCH  36  37
ATOM     37  C   UNL     1     -10.541  -0.014   3.389  1.00  0.00     0.338 C 
ATOM     38  O   UNL     1     -11.751   0.017   3.195  1.00  0.00    -0.246 OA
BRANCH  37  39
ATOM     39  C   UNL     1      -9.890  -0.951   4.316  1.00  0.00     0.060 A 
ATOM     40  C   UNL     1     -10.105  -2.325   4.151  1.00  0.00     0.016 A 
ATOM     41  C   UNL     1      -9.123  -0.472   5.381  1.00  0.00     0.016 A 
ATOM     42  C   UNL     1      -9.616  -3.222   5.095  1.00  0.00     0.010 A 
ATOM     43  C   UNL     1      -8.649  -1.371   6.338  1.00  0.00     0.010 A 
ATOM     44  C   UNL     1      -8.945  -2.742   6.226  1.00  0.00    -0.014 A 
BRANCH  44  45
ATOM     45  C   UNL     1      -8.776  -3.644   7.390  1.00  0.00     0.031 A 
ATOM     46  C   UNL     1      -9.780  -3.560   8.507  1.00  0.00     0.074 A 
ATOM     47  C   UNL     1      -7.801  -4.567   7.423  1.00  0.00     0.049 A 
ATOM     48  N   UNL     1      -9.852  -4.250   9.617  1.00  0.00    -0.248 NA
ATOM     49  C   UNL     1     -10.848  -2.559   8.351  1.00  0.00     0.031 C 
ATOM     50  C   UNL     1      -6.808  -4.776   6.376  1.00  0.00     0.029 A 
ATOM     51  N   UNL     1      -7.494  -5.506   8.375  1.00  0.00    -0.354 N 
ATOM     52  C   UNL     1     -10.967  -3.765  10.288  1.00  0.00     0.074 A 
ATOM     53  C   UNL     1     -11.517  -2.696   9.485  1.00  0.00     0.031 C 
ATOM     54  C   UNL     1      -5.999  -5.786   6.738  1.00  0.00     0.029 A 
ATOM     55  C   UNL     1      -6.398  -6.269   8.059  1.00  0.00     0.049 A 
ATOM     56  H   UNL     1      -8.011  -5.621   9.206  1.00  0.00     0.167 HD
ATOM     57  C   UNL     1     -11.493  -4.184  11.463  1.00  0.00     0.037 A 
ATOM     58  C   UNL     1      -5.784  -7.237   8.766  1.00  0.00     0.037 A 
ATOM     59  C   UNL     1     -10.940  -5.247  12.259  1.00  0.00     0.049 A 
ATOM     60  C   UNL     1      -6.340  -7.629  10.112  1.00  0.00     0.074 A 
ATOM     61  C   UNL     1     -11.396  -5.750  13.464  1.00  0.00     0.029 A 
ATOM     62  N   UNL     1      -9.798  -5.965  11.932  1.00  0.00    -0.354 N 
ATOM     63  N   UNL     1      -7.403  -7.179  10.735  1.00  0.00    -0.248 NA
ATOM     64  C   UNL     1      -5.613  -8.671  10.851  1.00  0.00     0.031 C 
ATOM     65  C   UNL     1     -10.496  -6.729  13.897  1.00  0.00     0.029 A 
ATOM     66  C   UNL     1      -9.520  -6.889  12.926  1.00  0.00     0.049 A 
ATOM     67  H   UNL     1      -9.265  -5.837  11.114  1.00  0.00     0.167 HD
ATOM     68  C   UNL     1      -7.494  -7.906  11.916  1.00  0.00     0.074 A 
ATOM     69  C   UNL     1      -6.383  -8.835  11.917  1.00  0.00     0.031 C 
ATOM     70  C   UNL     1      -8.416  -7.817  12.907  1.00  0.00     0.037 A 
BRANCH  57  71
ATOM     71  C   UNL     1     -12.710  -3.465  11.971  1.00  0.00     0.064 A 
ATOM     72  C   UNL     1     -13.956  -3.573  11.335  1.00  0.00     0.173 A 
ATOM     73  C   UNL     1     -12.630  -2.666  13.122  1.00  0.00     0.173 A 
ATOM     74  F   UNL     1     -14.085  -4.309  10.221  1.00  0.00    -0.203 F 
ATOM     75  C   UNL     1     -15.068  -2.883  11.813  1.00  0.00     0.198 A 
ATOM     76  C   UNL     1     -13.752  -2.006  13.617  1.00  0.00     0.198 A 
ATOM     77  F   UNL     1     -11.464  -2.528  13.771  1.00  0.00    -0.203 F 
ATOM     78  F   UNL     1     -16.233  -2.955  11.154  1.00  0.00    -0.200 F 
ATOM     79  C   UNL     1     -14.967  -2.107  12.957  1.00  0.00     0.200 A 
ATOM     80  F   UNL     1     -13.654  -1.268  14.732  1.00  0.00    -0.200 F 
ATOM     81  F   UNL     1     -16.038  -1.448  13.419  1.00  0.00    -0.200 F 
ENDBRANCH  57  71
BRANCH  58  82
ATOM     82  C   UNL     1      -4.572  -7.903   8.220  1.00  0.00     0.064 A 
ATOM     83  C   UNL     1      -4.586  -9.260   7.868  1.00  0.00     0.173 A 
ATOM     84  C   UNL     1      -3.368  -7.202   8.058  1.00  0.00     0.173 A 
ATOM     85  F   UNL     1      -5.705  -9.982   8.028  1.00  0.00    -0.203 F 
ATOM     86  C   UNL     1      -3.438  -9.895   7.397  1.00  0.00     0.198 A 
ATOM     87  C   UNL     1      -2.229  -7.829   7.556  1.00  0.00     0.198 A 
ATOM     88  F   UNL     1      -3.298  -5.902   8.383  1.00  0.00    -0.203 F 
ATOM     89  F   UNL     1      -3.466 -11.205   7.119  1.00  0.00    -0.200 F 
ATOM     90  C   UNL     1      -2.263  -9.177   7.235  1.00  0.00     0.200 A 
ATOM     91  F   UNL     1      -1.099  -7.128   7.391  1.00  0.00    -0.200 F 
ATOM     92  F   UNL     1      -1.159  -9.787   6.780  1.00  0.00    -0.200 F 
ENDBRANCH  58  82
BRANCH  70  93
ATOM     93  C   UNL     1      -8.301  -8.786  14.051  1.00  0.00     0.064 A 
ATOM     94  C   UNL     1      -7.263  -8.707  14.991  1.00  0.00     0.173 A 
ATOM     95  C   UNL     1      -9.272  -9.784  14.229  1.00  0.00     0.173 A 
ATOM     96  F   UNL     1      -6.303  -7.779  14.861  1.00  0.00    -0.203 F 
ATOM     97  C   UNL     1      -7.183  -9.613  16.046  1.00  0.00     0.198 A 
ATOM     98  C   UNL     1      -9.209 -10.664  15.306  1.00  0.00     0.198 A 
ATOM     99  F   UNL     1     -10.293  -9.898  13.366  1.00  0.00    -0.203 F 
ATOM    100  F   UNL     1      -6.151  -9.554  16.899  1.00  0.00    -0.200 F 
ATOM    101  C   UNL     1      -8.159 -10.584  16.208  1.00  0.00     0.200 A 
ATOM    102  F   UNL     1     -10.165 -11.589  15.470  1.00  0.00    -0.200 F 
ATOM    103  F   UNL     1      -8.085 -11.449  17.229  1.00  0.00    -0.200 F 
ENDBRANCH  70  93
ENDBRANCH  44  45
ENDBRANCH  37  39
ENDBRANCH  36  37
ENDBRANCH  35  36
ENDBRANCH  34  35
ENDBRANCH  33  34
ENDBRANCH  32  33
ENDBRANCH  31  32
ENDBRANCH  30  31
ENDBRANCH   1  30
TORSDOF 24
