REMARK SMILES O=C1C[C@H](c2cn[nH]c2C(=O)OCCOCCOCCOCCOC(=O)c2ccc(-c3c4nc(c(-c5c(F)c(F)c(F)c(F)c5F)c5ccc([nH]5)c(-c5c(F)c(F)c(F)c(F)c5F)c5nc(c(-c6c(F)c(F)c(F)c(F)c6F)c6ccc3[nH]6)C=C5)C=C4)cc2)c2c(-c3cccs3)n[nH]c2N1
REMARK SMILES IDX 18 1 17 2 16 3 15 4 14 5 13 6 12 7 10 8 11 9 9 10 5 11 6 12
REMARK SMILES IDX 7 13 8 14 4 16 1 17 2 18 3 19 100 20 99 21 90 23 98 24 91 25
REMARK SMILES IDX 97 26 92 28 93 29 96 30 94 31 95 32 19 33 20 34 21 35 22 36
REMARK SMILES IDX 23 37 24 38 25 39 26 40 27 41 28 42 89 43 29 44 88 45 30 46
REMARK SMILES IDX 31 47 32 48 82 49 33 50 87 51 81 52 83 53 34 54 86 55 80 56
REMARK SMILES IDX 79 57 35 59 67 60 47 61 66 62 48 63 51 64 65 65 84 66 49 67
REMARK SMILES IDX 50 68 64 70 85 71 52 72 36 73 37 74 45 75 38 76 39 77 43 78
REMARK SMILES IDX 46 79 40 80 41 81 44 82 42 83 68 84 69 85 77 86 70 87 71 88
REMARK SMILES IDX 75 89 78 90 72 91 73 92 76 93 74 94 53 95 54 96 62 97 55 98
REMARK SMILES IDX 56 99 60 100 63 101 57 102 58 103 61 104 59 105
REMARK H PARENT 8 15 100 22 98 27 83 58 51 69
REMARK Flexibility Score: inf
ROOT
ATOM      1  O   UNL     1       3.029  -1.933  -2.945  1.00  0.00    -0.377 OA
ENDROOT
BRANCH   1   2
ATOM      2  C   UNL     1       3.990  -0.908  -3.142  1.00  0.00     0.188 C 
BRANCH   2   3
ATOM      3  C   UNL     1       5.141  -1.212  -4.129  1.00  0.00     0.188 C 
BRANCH   3   4
ATOM      4  O   UNL     1       5.815  -2.438  -3.944  1.00  0.00    -0.376 OA
BRANCH   4   5
ATOM      5  C   UNL     1       6.855  -2.639  -3.008  1.00  0.00     0.202 C 
BRANCH   5   6
ATOM      6  C   UNL     1       7.349  -1.599  -1.995  1.00  0.00     0.261 C 
BRANCH   6   7
ATOM      7  O   UNL     1       6.478  -0.499  -1.734  1.00  0.00    -0.459 OA
BRANCH   7   8
ATOM      8  C   UNL     1       6.861   0.698  -2.235  1.00  0.00     0.356 C 
ATOM      9  O   UNL     1       7.874   0.870  -2.915  1.00  0.00    -0.244 OA
BRANCH   8  10
ATOM     10  C   UNL     1       5.836   1.701  -2.096  1.00  0.00     0.147 A 
ATOM     11  C   UNL     1       4.826   2.056  -1.189  1.00  0.00     0.013 A 
ATOM     12  C   UNL     1       4.253   3.217  -1.795  1.00  0.00     0.140 A 
ATOM     13  N   UNL     1       4.786   3.527  -2.970  1.00  0.00    -0.183 NA
ATOM     14  N   UNL     1       5.757   2.627  -3.109  1.00  0.00    -0.271 N 
ATOM     15  H   UNL     1       6.372   2.625  -3.878  1.00  0.00     0.190 HD
BRANCH  11  16
ATOM     16  C   UNL     1       4.374   1.578   0.190  1.00  0.00     0.069 C 
ATOM     17  O   UNL     1       1.095  -0.250   0.063  1.00  0.00    -0.275 OA
ATOM     18  C   UNL     1       2.284  -0.027   0.297  1.00  0.00     0.226 C 
ATOM     19  C   UNL     1       2.835   1.398   0.298  1.00  0.00     0.114 C 
ATOM     20  N   UNL     1       3.104  -1.053   0.691  1.00  0.00    -0.311 N 
ATOM     21  C   UNL     1       4.425  -0.806   0.931  1.00  0.00     0.132 A 
ATOM     22  H   UNL     1       2.743  -1.962   0.800  1.00  0.00     0.171 HD
ATOM     23  C   UNL     1       5.065   0.390   0.748  1.00  0.00     0.031 A 
ATOM     24  N   UNL     1       5.361  -1.700   1.344  1.00  0.00    -0.262 N 
ATOM     25  C   UNL     1       6.408   0.135   1.125  1.00  0.00     0.108 A 
ATOM     26  N   UNL     1       6.597  -1.165   1.412  1.00  0.00    -0.173 NA
ATOM     27  H   UNL     1       5.159  -2.637   1.569  1.00  0.00     0.192 HD
BRANCH  25  28
ATOM     28  C   UNL     1       7.535   1.116   1.028  1.00  0.00     0.055 A 
ATOM     29  C   UNL     1       8.761   0.816   0.470  1.00  0.00     0.022 A 
ATOM     30  S   UNL     1       7.426   2.758   1.478  1.00  0.00    -0.142 S 
ATOM     31  C   UNL     1       9.554   1.986   0.278  1.00  0.00     0.012 A 
ATOM     32  C   UNL     1       8.967   3.103   0.829  1.00  0.00     0.065 A 
ENDBRANCH  25  28
ENDBRANCH  11  16
ENDBRANCH   8  10
ENDBRANCH   7   8
ENDBRANCH   6   7
ENDBRANCH   5   6
ENDBRANCH   4   5
ENDBRANCH   3   4
ENDBRANCH   2   3
ENDBRANCH   1   2
BRANCH   1  33
ATOM     33  C   UNL     1       3.544  -3.131  -2.404  1.00  0.00     0.188 C 
BRANCH  33  34
ATOM     34  C   UNL     1       3.618  -4.315  -3.391  1.00  0.00     0.188 C 
BRANCH  34  35
ATOM     35  O   UNL     1       3.222  -4.256  -4.761  1.00  0.00    -0.376 OA
BRANCH  35  36
ATOM     36  C   UNL     1       2.477  -3.190  -5.331  1.00  0.00     0.202 C 
BRANCH  36  37
ATOM     37  C   UNL     1       1.004  -3.009  -4.975  1.00  0.00     0.261 C 
BRANCH  37  38
ATOM     38  O   UNL     1       0.750  -3.196  -3.601  1.00  0.00    -0.460 OA
BRANCH  38  39
ATOM     39  C   UNL     1       0.679  -4.492  -3.247  1.00  0.00     0.338 C 
ATOM     40  O   UNL     1       0.715  -5.467  -3.979  1.00  0.00    -0.246 OA
BRANCH  39  41
ATOM     41  C   UNL     1       0.434  -4.564  -1.797  1.00  0.00     0.060 A 
ATOM     42  C   UNL     1       0.090  -5.846  -1.380  1.00  0.00     0.016 A 
ATOM     43  C   UNL     1      -0.038  -3.405  -1.163  1.00  0.00     0.016 A 
ATOM     44  C   UNL     1      -1.092  -5.956  -0.704  1.00  0.00     0.010 A 
ATOM     45  C   UNL     1      -1.220  -3.513  -0.486  1.00  0.00     0.010 A 
ATOM     46  C   UNL     1      -1.788  -4.779  -0.406  1.00  0.00    -0.014 A 
BRANCH  46  47
ATOM     47  C   UNL     1      -3.166  -4.929  -0.022  1.00  0.00     0.031 A 
ATOM     48  C   UNL     1      -3.306  -5.412   1.360  1.00  0.00     0.074 A 
ATOM     49  C   UNL     1      -4.172  -4.617  -0.856  1.00  0.00     0.049 A 
ATOM     50  N   UNL     1      -3.769  -6.546   1.765  1.00  0.00    -0.248 NA
ATOM     51  C   UNL     1      -2.663  -4.601   2.405  1.00  0.00     0.031 C 
ATOM     52  C   UNL     1      -4.128  -3.877  -2.121  1.00  0.00     0.029 A 
ATOM     53  N   UNL     1      -5.498  -4.828  -0.671  1.00  0.00    -0.354 N 
ATOM     54  C   UNL     1      -3.632  -6.518   3.147  1.00  0.00     0.074 A 
ATOM     55  C   UNL     1      -2.782  -5.401   3.460  1.00  0.00     0.031 C 
ATOM     56  C   UNL     1      -5.385  -3.501  -2.454  1.00  0.00     0.029 A 
ATOM     57  C   UNL     1      -6.316  -4.081  -1.500  1.00  0.00     0.049 A 
ATOM     58  H   UNL     1      -5.850  -5.460  -0.003  1.00  0.00     0.167 HD
ATOM     59  C   UNL     1      -4.432  -7.269   3.946  1.00  0.00     0.037 A 
ATOM     60  C   UNL     1      -7.641  -3.879  -1.301  1.00  0.00     0.037 A 
ATOM     61  C   UNL     1      -5.028  -8.358   3.220  1.00  0.00     0.049 A 
ATOM     62  C   UNL     1      -8.113  -4.925  -0.349  1.00  0.00     0.074 A 
ATOM     63  C   UNL     1      -4.525  -9.467   2.567  1.00  0.00     0.029 A 
ATOM     64  N   UNL     1      -6.318  -8.211   2.770  1.00  0.00    -0.354 N 
ATOM     65  N   UNL     1      -8.186  -6.196  -0.641  1.00  0.00    -0.248 NA
ATOM     66  C   UNL     1      -8.045  -4.619   1.075  1.00  0.00     0.031 C 
ATOM     67  C   UNL     1      -5.364  -9.642   1.429  1.00  0.00     0.029 A 
ATOM     68  C   UNL     1      -6.353  -8.659   1.474  1.00  0.00     0.049 A 
ATOM     69  H   UNL     1      -7.077  -7.851   3.284  1.00  0.00     0.167 HD
ATOM     70  C   UNL     1      -7.775  -6.855   0.511  1.00  0.00     0.074 A 
ATOM     71  C   UNL     1      -7.770  -5.836   1.555  1.00  0.00     0.031 C 
ATOM     72  C   UNL     1      -7.202  -8.093   0.451  1.00  0.00     0.037 A 
BRANCH  59  73
ATOM     73  C   UNL     1      -4.940  -6.792   5.279  1.00  0.00     0.064 A 
ATOM     74  C   UNL     1      -5.637  -7.692   6.103  1.00  0.00     0.173 A 
ATOM     75  C   UNL     1      -5.023  -5.431   5.652  1.00  0.00     0.173 A 
ATOM     76  F   UNL     1      -5.641  -9.006   5.830  1.00  0.00    -0.203 F 
ATOM     77  C   UNL     1      -6.418  -7.253   7.174  1.00  0.00     0.198 A 
ATOM     78  C   UNL     1      -5.753  -5.003   6.756  1.00  0.00     0.198 A 
ATOM     79  F   UNL     1      -4.501  -4.447   4.911  1.00  0.00    -0.203 F 
ATOM     80  F   UNL     1      -7.165  -8.133   7.853  1.00  0.00    -0.200 F 
ATOM     81  C   UNL     1      -6.479  -5.910   7.497  1.00  0.00     0.200 A 
ATOM     82  F   UNL     1      -5.810  -3.695   7.041  1.00  0.00    -0.200 F 
ATOM     83  F   UNL     1      -7.274  -5.481   8.485  1.00  0.00    -0.200 F 
ENDBRANCH  59  73
BRANCH  60  84
ATOM     84  C   UNL     1      -8.397  -2.634  -1.567  1.00  0.00     0.064 A 
ATOM     85  C   UNL     1      -9.796  -2.640  -1.673  1.00  0.00     0.173 A 
ATOM     86  C   UNL     1      -7.781  -1.369  -1.472  1.00  0.00     0.173 A 
ATOM     87  F   UNL     1     -10.462  -3.803  -1.711  1.00  0.00    -0.203 F 
ATOM     88  C   UNL     1     -10.534  -1.451  -1.683  1.00  0.00     0.198 A 
ATOM     89  C   UNL     1      -8.517  -0.185  -1.490  1.00  0.00     0.198 A 
ATOM     90  F   UNL     1      -6.461  -1.260  -1.267  1.00  0.00    -0.203 F 
ATOM     91  F   UNL     1     -11.872  -1.496  -1.736  1.00  0.00    -0.200 F 
ATOM     92  C   UNL     1      -9.894  -0.226  -1.586  1.00  0.00     0.200 A 
ATOM     93  F   UNL     1      -7.887   0.991  -1.355  1.00  0.00    -0.200 F 
ATOM     94  F   UNL     1     -10.604   0.910  -1.544  1.00  0.00    -0.200 F 
ENDBRANCH  60  84
BRANCH  72  95
ATOM     95  C   UNL     1      -7.234  -8.816  -0.865  1.00  0.00     0.064 A 
ATOM     96  C   UNL     1      -6.555  -8.367  -2.012  1.00  0.00     0.173 A 
ATOM     97  C   UNL     1      -7.819 -10.087  -0.917  1.00  0.00     0.173 A 
ATOM     98  F   UNL     1      -5.885  -7.208  -2.003  1.00  0.00    -0.203 F 
ATOM     99  C   UNL     1      -6.497  -9.144  -3.167  1.00  0.00     0.198 A 
ATOM    100  C   UNL     1      -7.728 -10.877  -2.060  1.00  0.00     0.198 A 
ATOM    101  F   UNL     1      -8.427 -10.591   0.168  1.00  0.00    -0.203 F 
ATOM    102  F   UNL     1      -5.845  -8.693  -4.250  1.00  0.00    -0.200 F 
ATOM    103  C   UNL     1      -7.075 -10.402  -3.187  1.00  0.00     0.200 A 
ATOM    104  F   UNL     1      -8.243 -12.114  -2.057  1.00  0.00    -0.200 F 
ATOM    105  F   UNL     1      -6.976 -11.172  -4.280  1.00  0.00    -0.200 F 
ENDBRANCH  72  95
ENDBRANCH  46  47
ENDBRANCH  39  41
ENDBRANCH  38  39
ENDBRANCH  37  38
ENDBRANCH  36  37
ENDBRANCH  35  36
ENDBRANCH  34  35
ENDBRANCH  33  34
ENDBRANCH   1  33
TORSDOF 22
