REMARK SMILES Cc1cc2c(c(C)c1Cl)C=C(C(=O)OCCOCCOCCOCCOC(=O)c1ccc(-c3c4nc(c(-c5c(F)c(F)c(F)c(F)c5F)c5ccc([nH]5)c(-c5c(F)c(F)c(F)c(F)c5F)c5nc(c(-c6c(F)c(F)c(F)c(F)c6F)c6ccc3[nH]6)C=C5)C=C4)cc1)[C@@H](C(F)(F)F)O2
REMARK SMILES IDX 21 1 20 2 19 3 18 4 17 5 16 6 15 7 14 8 12 9 13 10 11 11
REMARK SMILES IDX 1 12 2 13 3 14 8 15 4 16 6 17 9 18 5 19 97 20 7 21 10 22
REMARK SMILES IDX 92 23 93 24 94 25 95 26 96 27 22 28 23 29 24 30 25 31 26 32
REMARK SMILES IDX 27 33 28 34 29 35 30 36 91 37 31 38 90 39 32 40 33 41 34 42
REMARK SMILES IDX 84 43 35 44 89 45 83 46 85 47 36 48 88 49 82 50 81 51 37 53
REMARK SMILES IDX 69 54 49 55 68 56 50 57 53 58 67 59 86 60 51 61 52 62 66 64
REMARK SMILES IDX 87 65 54 66 38 67 39 68 47 69 40 70 41 71 45 72 48 73 42 74
REMARK SMILES IDX 43 75 46 76 44 77 70 78 71 79 79 80 72 81 73 82 77 83 80 84
REMARK SMILES IDX 74 85 75 86 78 87 76 88 55 89 56 90 64 91 57 92 58 93 62 94
REMARK SMILES IDX 65 95 59 96 60 97 63 98 61 99
REMARK H PARENT 85 52 53 63
REMARK Flexibility Score: inf
ROOT
ATOM      1  C   UNL     1       1.558  -4.826   9.340  1.00  0.00     0.188 C 
ENDROOT
BRANCH   1   2
ATOM      2  O   UNL     1       0.992  -4.434   8.087  1.00  0.00    -0.377 OA
BRANCH   2   3
ATOM      3  C   UNL     1       0.894  -3.047   7.800  1.00  0.00     0.188 C 
BRANCH   3   4
ATOM      4  C   UNL     1      -0.274  -2.349   8.524  1.00  0.00     0.188 C 
BRANCH   4   5
ATOM      5  O   UNL     1      -0.769  -3.103   9.619  1.00  0.00    -0.376 OA
BRANCH   5   6
ATOM      6  C   UNL     1      -1.920  -3.915   9.461  1.00  0.00     0.202 C 
BRANCH   6   7
ATOM      7  C   UNL     1      -2.065  -4.908   8.294  1.00  0.00     0.261 C 
BRANCH   7   8
ATOM      8  O   UNL     1      -1.566  -4.485   7.021  1.00  0.00    -0.460 OA
BRANCH   8   9
ATOM      9  C   UNL     1      -2.295  -3.590   6.330  1.00  0.00     0.338 C 
ATOM     10  O   UNL     1      -3.370  -3.118   6.654  1.00  0.00    -0.246 OA
BRANCH   9  11
ATOM     11  C   UNL     1      -1.476  -3.138   5.182  1.00  0.00     0.087 C 
ATOM     12  C   UNL     1       1.150  -0.170   0.079  1.00  0.00     0.046 C 
ATOM     13  C   UNL     1       0.586  -0.513   1.432  1.00  0.00    -0.028 A 
ATOM     14  C   UNL     1       0.564  -1.861   1.808  1.00  0.00     0.052 A 
ATOM     15  C   UNL     1       0.113   0.452   2.342  1.00  0.00     0.047 A 
ATOM     16  C   UNL     1      -0.032  -2.262   3.000  1.00  0.00     0.128 A 
ATOM     17  C   UNL     1      -0.483   0.065   3.567  1.00  0.00    -0.021 A 
ATOM     18  Cl  UNL     1       0.261   2.133   1.928  1.00  0.00    -0.084 Cl
ATOM     19  C   UNL     1      -0.612  -1.318   3.854  1.00  0.00     0.022 A 
ATOM     20  O   UNL     1      -0.012  -3.607   3.228  1.00  0.00    -0.475 OA
ATOM     21  C   UNL     1      -0.964   1.083   4.576  1.00  0.00     0.047 C 
ATOM     22  C   UNL     1      -1.396  -1.816   4.982  1.00  0.00     0.027 C 
ATOM     23  C   UNL     1      -0.723  -4.153   4.368  1.00  0.00     0.316 C 
BRANCH  23  24
ATOM     24  C   UNL     1      -1.625  -5.285   3.858  1.00  0.00     0.430 C 
ATOM     25  F   UNL     1      -0.937  -6.145   3.070  1.00  0.00    -0.167 F 
ATOM     26  F   UNL     1      -2.144  -6.019   4.869  1.00  0.00    -0.167 F 
ATOM     27  F   UNL     1      -2.663  -4.810   3.131  1.00  0.00    -0.167 F 
ENDBRANCH  23  24
ENDBRANCH   9  11
ENDBRANCH   8   9
ENDBRANCH   7   8
ENDBRANCH   6   7
ENDBRANCH   5   6
ENDBRANCH   4   5
ENDBRANCH   3   4
ENDBRANCH   2   3
ENDBRANCH   1   2
BRANCH   1  28
ATOM     28  C   UNL     1       1.750  -3.837  10.517  1.00  0.00     0.188 C 
BRANCH  28  29
ATOM     29  O   UNL     1       2.113  -2.520  10.126  1.00  0.00    -0.376 OA
BRANCH  29  30
ATOM     30  C   UNL     1       3.445  -2.098  10.361  1.00  0.00     0.202 C 
BRANCH  30  31
ATOM     31  C   UNL     1       4.517  -2.764   9.491  1.00  0.00     0.261 C 
BRANCH  31  32
ATOM     32  O   UNL     1       4.574  -4.197   9.564  1.00  0.00    -0.460 OA
BRANCH  32  33
ATOM     33  C   UNL     1       4.891  -4.747  10.755  1.00  0.00     0.338 C 
ATOM     34  O   UNL     1       5.170  -4.166  11.789  1.00  0.00    -0.246 OA
BRANCH  33  35
ATOM     35  C   UNL     1       4.655  -6.201  10.643  1.00  0.00     0.060 A 
ATOM     36  C   UNL     1       3.712  -6.806  11.484  1.00  0.00     0.016 A 
ATOM     37  C   UNL     1       5.347  -6.955   9.693  1.00  0.00     0.016 A 
ATOM     38  C   UNL     1       3.480  -8.179  11.393  1.00  0.00     0.010 A 
ATOM     39  C   UNL     1       5.131  -8.332   9.620  1.00  0.00     0.010 A 
ATOM     40  C   UNL     1       4.220  -8.954  10.491  1.00  0.00    -0.014 A 
BRANCH  40  41
ATOM     41  C   UNL     1       4.197 -10.432  10.603  1.00  0.00     0.031 A 
ATOM     42  C   UNL     1       5.278 -11.096  11.410  1.00  0.00     0.074 A 
ATOM     43  C   UNL     1       3.229 -11.167  10.030  1.00  0.00     0.049 A 
ATOM     44  N   UNL     1       5.489 -12.367  11.631  1.00  0.00    -0.248 NA
ATOM     45  C   UNL     1       6.252 -10.201  12.058  1.00  0.00     0.031 C 
ATOM     46  C   UNL     1       2.103 -10.635   9.268  1.00  0.00     0.029 A 
ATOM     47  N   UNL     1       3.042 -12.527  10.005  1.00  0.00    -0.354 N 
ATOM     48  C   UNL     1       6.612 -12.423  12.447  1.00  0.00     0.074 A 
ATOM     49  C   UNL     1       7.063 -11.065  12.649  1.00  0.00     0.031 C 
ATOM     50  C   UNL     1       1.341 -11.659   8.847  1.00  0.00     0.029 A 
ATOM     51  C   UNL     1       1.943 -12.920   9.282  1.00  0.00     0.049 A 
ATOM     52  H   UNL     1       3.640 -13.162  10.462  1.00  0.00     0.167 HD
ATOM     53  C   UNL     1       7.203 -13.511  12.992  1.00  0.00     0.037 A 
ATOM     54  C   UNL     1       1.487 -14.156   8.995  1.00  0.00     0.037 A 
ATOM     55  C   UNL     1       6.756 -14.862  12.784  1.00  0.00     0.049 A 
ATOM     56  C   UNL     1       2.225 -15.359   9.530  1.00  0.00     0.074 A 
ATOM     57  C   UNL     1       7.289 -16.032  13.292  1.00  0.00     0.029 A 
ATOM     58  N   UNL     1       5.671 -15.222  11.997  1.00  0.00    -0.354 N 
ATOM     59  N   UNL     1       3.275 -15.406  10.314  1.00  0.00    -0.248 NA
ATOM     60  C   UNL     1       1.714 -16.682   9.140  1.00  0.00     0.031 C 
ATOM     61  C   UNL     1       6.563 -17.104  12.769  1.00  0.00     0.029 A 
ATOM     62  C   UNL     1       5.538 -16.600  11.984  1.00  0.00     0.049 A 
ATOM     63  H   UNL     1       5.085 -14.592  11.520  1.00  0.00     0.167 HD
ATOM     64  C   UNL     1       3.532 -16.754  10.534  1.00  0.00     0.074 A 
ATOM     65  C   UNL     1       2.521 -17.494   9.809  1.00  0.00     0.031 C 
ATOM     66  C   UNL     1       4.518 -17.325  11.269  1.00  0.00     0.037 A 
BRANCH  53  67
ATOM     67  C   UNL     1       8.406 -13.290  13.860  1.00  0.00     0.064 A 
ATOM     68  C   UNL     1       8.295 -12.717  15.135  1.00  0.00     0.173 A 
ATOM     69  C   UNL     1       9.675 -13.713  13.437  1.00  0.00     0.173 A 
ATOM     70  F   UNL     1       7.106 -12.281  15.578  1.00  0.00    -0.203 F 
ATOM     71  C   UNL     1       9.412 -12.564  15.951  1.00  0.00     0.198 A 
ATOM     72  C   UNL     1      10.785 -13.586  14.267  1.00  0.00     0.198 A 
ATOM     73  F   UNL     1       9.835 -14.268  12.226  1.00  0.00    -0.203 F 
ATOM     74  F   UNL     1       9.289 -11.981  17.151  1.00  0.00    -0.200 F 
ATOM     75  C   UNL     1      10.654 -13.008  15.521  1.00  0.00     0.200 A 
ATOM     76  F   UNL     1      11.981 -14.028  13.856  1.00  0.00    -0.200 F 
ATOM     77  F   UNL     1      11.725 -12.877  16.315  1.00  0.00    -0.200 F 
ENDBRANCH  53  67
BRANCH  54  78
ATOM     78  C   UNL     1       0.265 -14.321   8.164  1.00  0.00     0.064 A 
ATOM     79  C   UNL     1      -0.917 -14.836   8.714  1.00  0.00     0.173 A 
ATOM     80  C   UNL     1       0.250 -13.968   6.806  1.00  0.00     0.173 A 
ATOM     81  F   UNL     1      -0.946 -15.216  10.000  1.00  0.00    -0.203 F 
ATOM     82  C   UNL     1      -2.063 -14.998   7.938  1.00  0.00     0.198 A 
ATOM     83  C   UNL     1      -0.905 -14.103   6.038  1.00  0.00     0.198 A 
ATOM     84  F   UNL     1       1.356 -13.477   6.228  1.00  0.00    -0.203 F 
ATOM     85  F   UNL     1      -3.168 -15.529   8.481  1.00  0.00    -0.200 F 
ATOM     86  C   UNL     1      -2.059 -14.623   6.603  1.00  0.00     0.200 A 
ATOM     87  F   UNL     1      -0.899 -13.730   4.751  1.00  0.00    -0.200 F 
ATOM     88  F   UNL     1      -3.165 -14.769   5.860  1.00  0.00    -0.200 F 
ENDBRANCH  54  78
BRANCH  66  89
ATOM     89  C   UNL     1       4.552 -18.824  11.362  1.00  0.00     0.064 A 
ATOM     90  C   UNL     1       4.949 -19.618  10.277  1.00  0.00     0.173 A 
ATOM     91  C   UNL     1       4.285 -19.465  12.583  1.00  0.00     0.173 A 
ATOM     92  F   UNL     1       5.206 -19.055   9.087  1.00  0.00    -0.203 F 
ATOM     93  C   UNL     1       5.069 -20.999  10.408  1.00  0.00     0.198 A 
ATOM     94  C   UNL     1       4.437 -20.842  12.719  1.00  0.00     0.198 A 
ATOM     95  F   UNL     1       3.913 -18.750  13.655  1.00  0.00    -0.203 F 
ATOM     96  F   UNL     1       5.424 -21.742   9.351  1.00  0.00    -0.200 F 
ATOM     97  C   UNL     1       4.827 -21.608  11.631  1.00  0.00     0.200 A 
ATOM     98  F   UNL     1       4.223 -21.425  13.906  1.00  0.00    -0.200 F 
ATOM     99  F   UNL     1       4.969 -22.934  11.761  1.00  0.00    -0.200 F 
ENDBRANCH  66  89
ENDBRANCH  40  41
ENDBRANCH  33  35
ENDBRANCH  32  33
ENDBRANCH  31  32
ENDBRANCH  30  31
ENDBRANCH  29  30
ENDBRANCH  28  29
ENDBRANCH   1  28
TORSDOF 21
