REMARK SMILES C[N@H+]([C@@H]1CCOC2(CCCC2)C1)C(C)(C)C(=O)OCCOCCOCCOCCOC(=O)c1ccc(-c2c3nc(c(-c4c(F)c(F)c(F)c(F)c4F)c4ccc([nH]4)c(-c4c(F)c(F)c(F)c(F)c4F)c4nc(c(-c5c(F)c(F)c(F)c(F)c5F)c5ccc2[nH]5)C=C4)C=C3)cc1
REMARK SMILES IDX 24 1 23 2 22 3 21 4 20 5 19 6 18 7 16 8 17 9 13 10 14 11
REMARK SMILES IDX 15 12 2 13 1 14 3 16 4 17 12 18 5 19 7 20 6 21 8 22 11 23
REMARK SMILES IDX 9 24 10 25 25 26 26 27 27 28 28 29 29 30 30 31 31 32 32 33
REMARK SMILES IDX 33 34 34 35 95 36 35 37 94 38 36 39 37 40 38 41 88 42 39 43
REMARK SMILES IDX 93 44 87 45 89 46 40 47 92 48 86 49 85 50 41 52 73 53 53 54
REMARK SMILES IDX 72 55 54 56 57 57 71 58 90 59 55 60 56 61 70 63 91 64 58 65
REMARK SMILES IDX 42 66 43 67 51 68 44 69 45 70 49 71 52 72 46 73 47 74 50 75
REMARK SMILES IDX 48 76 74 77 75 78 83 79 76 80 77 81 81 82 84 83 78 84 79 85
REMARK SMILES IDX 82 86 80 87 59 88 60 89 68 90 61 91 62 92 66 93 69 94 63 95
REMARK SMILES IDX 64 96 67 97 65 98
REMARK H PARENT 2 15 89 51 57 62
REMARK Flexibility Score: inf
ROOT
ATOM      1  O   UNL     1       2.837   1.885  -4.854  1.00  0.00    -0.377 OA
ENDROOT
BRANCH   1   2
ATOM      2  C   UNL     1       2.117   0.722  -4.489  1.00  0.00     0.188 C 
BRANCH   2   3
ATOM      3  C   UNL     1       0.626   0.606  -4.833  1.00  0.00     0.188 C 
BRANCH   3   4
ATOM      4  O   UNL     1       0.232   1.430  -5.916  1.00  0.00    -0.376 OA
BRANCH   4   5
ATOM      5  C   UNL     1      -0.627   2.522  -5.635  1.00  0.00     0.202 C 
BRANCH   5   6
ATOM      6  C   UNL     1      -0.097   3.662  -4.742  1.00  0.00     0.261 C 
BRANCH   6   7
ATOM      7  O   UNL     1       0.644   3.276  -3.572  1.00  0.00    -0.459 OA
BRANCH   7   8
ATOM      8  C   UNL     1      -0.093   2.714  -2.581  1.00  0.00     0.367 C 
ATOM      9  O   UNL     1      -1.298   2.526  -2.722  1.00  0.00    -0.245 OA
BRANCH   8  10
ATOM     10  C   UNL     1       0.726   2.434  -1.271  1.00  0.00     0.190 C 
ATOM     11  C   UNL     1       0.418   3.650  -0.360  1.00  0.00     0.092 C 
ATOM     12  C   UNL     1       2.274   2.577  -1.454  1.00  0.00     0.092 C 
BRANCH  10  13
ATOM     13  N   UNL     1       0.341   1.113  -0.588  1.00  0.00    -0.321 N 
ATOM     14  C   UNL     1       1.248   0.007  -0.919  1.00  0.00     0.333 C 
ATOM     15  H   UNL     1       0.462   1.383   0.388  1.00  0.00     0.349 HD
BRANCH  13  16
ATOM     16  C   UNL     1      -1.091   0.666  -0.619  1.00  0.00     0.189 C 
ATOM     17  C   UNL     1      -2.106   1.683  -0.068  1.00  0.00     0.093 C 
ATOM     18  C   UNL     1      -1.410  -0.613   0.219  1.00  0.00     0.100 C 
ATOM     19  C   UNL     1      -1.858   1.923   1.411  1.00  0.00     0.167 C 
ATOM     20  C   UNL     1      -1.246  -0.393   1.734  1.00  0.00     0.074 C 
ATOM     21  O   UNL     1      -2.032   0.730   2.166  1.00  0.00    -0.375 OA
ATOM     22  C   UNL     1      -1.794  -1.594   2.542  1.00  0.00     0.036 C 
ATOM     23  C   UNL     1       0.225  -0.272   2.183  1.00  0.00     0.036 C 
ATOM     24  C   UNL     1      -0.629  -2.123   3.371  1.00  0.00     0.003 C 
ATOM     25  C   UNL     1       0.276  -0.919   3.553  1.00  0.00     0.003 C 
ENDBRANCH  13  16
ENDBRANCH  10  13
ENDBRANCH   8  10
ENDBRANCH   7   8
ENDBRANCH   6   7
ENDBRANCH   5   6
ENDBRANCH   4   5
ENDBRANCH   3   4
ENDBRANCH   2   3
ENDBRANCH   1   2
BRANCH   1  26
ATOM     26  C   UNL     1       2.806   2.312  -6.208  1.00  0.00     0.188 C 
BRANCH  26  27
ATOM     27  C   UNL     1       2.599   1.301  -7.359  1.00  0.00     0.188 C 
BRANCH  27  28
ATOM     28  O   UNL     1       2.577  -0.065  -6.982  1.00  0.00    -0.376 OA
BRANCH  28  29
ATOM     29  C   UNL     1       3.766  -0.815  -7.189  1.00  0.00     0.202 C 
BRANCH  29  30
ATOM     30  C   UNL     1       5.004  -0.397  -6.377  1.00  0.00     0.261 C 
BRANCH  30  31
ATOM     31  O   UNL     1       5.454   0.953  -6.573  1.00  0.00    -0.460 OA
BRANCH  31  32
ATOM     32  C   UNL     1       5.804   1.313  -7.824  1.00  0.00     0.338 C 
ATOM     33  O   UNL     1       5.830   0.612  -8.822  1.00  0.00    -0.246 OA
BRANCH  32  34
ATOM     34  C   UNL     1       5.970   2.778  -7.837  1.00  0.00     0.060 A 
ATOM     35  C   UNL     1       5.145   3.551  -8.666  1.00  0.00     0.016 A 
ATOM     36  C   UNL     1       6.929   3.382  -7.022  1.00  0.00     0.016 A 
ATOM     37  C   UNL     1       5.304   4.934  -8.713  1.00  0.00     0.010 A 
ATOM     38  C   UNL     1       7.112   4.763  -7.096  1.00  0.00     0.010 A 
ATOM     39  C   UNL     1       6.329   5.536  -7.972  1.00  0.00    -0.014 A 
BRANCH  39  40
ATOM     40  C   UNL     1       6.762   6.910  -8.315  1.00  0.00     0.031 A 
ATOM     41  C   UNL     1       7.909   7.053  -9.277  1.00  0.00     0.074 A 
ATOM     42  C   UNL     1       6.152   7.995  -7.811  1.00  0.00     0.049 A 
ATOM     43  N   UNL     1       8.538   8.129  -9.672  1.00  0.00    -0.248 NA
ATOM     44  C   UNL     1       8.417   5.806  -9.874  1.00  0.00     0.031 C 
ATOM     45  C   UNL     1       4.993   7.981  -6.923  1.00  0.00     0.029 A 
ATOM     46  N   UNL     1       6.440   9.327  -7.973  1.00  0.00    -0.354 N 
ATOM     47  C   UNL     1       9.515   7.687 -10.554  1.00  0.00     0.074 A 
ATOM     48  C   UNL     1       9.422   6.246 -10.613  1.00  0.00     0.031 C 
ATOM     49  C   UNL     1       4.677   9.250  -6.603  1.00  0.00     0.029 A 
ATOM     50  C   UNL     1       5.636  10.157  -7.231  1.00  0.00     0.049 A 
ATOM     51  H   UNL     1       7.154   9.656  -8.565  1.00  0.00     0.167 HD
ATOM     52  C   UNL     1      10.406   8.421 -11.260  1.00  0.00     0.037 A 
ATOM     53  C   UNL     1       5.697  11.493  -7.062  1.00  0.00     0.037 A 
ATOM     54  C   UNL     1      10.501   9.853 -11.191  1.00  0.00     0.049 A 
ATOM     55  C   UNL     1       6.769  12.278  -7.781  1.00  0.00     0.074 A 
ATOM     56  C   UNL     1      11.375  10.693 -11.855  1.00  0.00     0.029 A 
ATOM     57  N   UNL     1       9.692  10.657 -10.401  1.00  0.00    -0.354 N 
ATOM     58  N   UNL     1       7.687  11.860  -8.619  1.00  0.00    -0.248 NA
ATOM     59  C   UNL     1       6.811  13.727  -7.530  1.00  0.00     0.031 C 
ATOM     60  C   UNL     1      11.133  12.001 -11.426  1.00  0.00     0.029 A 
ATOM     61  C   UNL     1      10.061  11.983 -10.548  1.00  0.00     0.049 A 
ATOM     62  H   UNL     1       8.964  10.333  -9.823  1.00  0.00     0.167 HD
ATOM     63  C   UNL     1       8.380  12.993  -9.028  1.00  0.00     0.074 A 
ATOM     64  C   UNL     1       7.773  14.119  -8.352  1.00  0.00     0.031 C 
ATOM     65  C   UNL     1       9.423  13.095  -9.889  1.00  0.00     0.037 A 
BRANCH  52  66
ATOM     66  C   UNL     1      11.367   7.683 -12.146  1.00  0.00     0.064 A 
ATOM     67  C   UNL     1      10.944   7.039 -13.318  1.00  0.00     0.173 A 
ATOM     68  C   UNL     1      12.734   7.647 -11.834  1.00  0.00     0.173 A 
ATOM     69  F   UNL     1       9.644   7.026 -13.651  1.00  0.00    -0.203 F 
ATOM     70  C   UNL     1      11.851   6.369 -14.135  1.00  0.00     0.198 A 
ATOM     71  C   UNL     1      13.643   7.005 -12.670  1.00  0.00     0.198 A 
ATOM     72  F   UNL     1      13.191   8.245 -10.724  1.00  0.00    -0.203 F 
ATOM     73  F   UNL     1      11.417   5.721 -15.225  1.00  0.00    -0.200 F 
ATOM     74  C   UNL     1      13.200   6.361 -13.816  1.00  0.00     0.200 A 
ATOM     75  F   UNL     1      14.949   7.010 -12.367  1.00  0.00    -0.200 F 
ATOM     76  F   UNL     1      14.075   5.727 -14.609  1.00  0.00    -0.200 F 
ENDBRANCH  52  66
BRANCH  53  77
ATOM     77  C   UNL     1       4.734  12.185  -6.161  1.00  0.00     0.064 A 
ATOM     78  C   UNL     1       3.815  13.118  -6.664  1.00  0.00     0.173 A 
ATOM     79  C   UNL     1       4.752  11.973  -4.774  1.00  0.00     0.173 A 
ATOM     80  F   UNL     1       3.776  13.377  -7.979  1.00  0.00    -0.203 F 
ATOM     81  C   UNL     1       2.976  13.835  -5.812  1.00  0.00     0.198 A 
ATOM     82  C   UNL     1       3.888  12.665  -3.928  1.00  0.00     0.198 A 
ATOM     83  F   UNL     1       5.612  11.096  -4.239  1.00  0.00    -0.203 F 
ATOM     84  F   UNL     1       2.156  14.768  -6.314  1.00  0.00    -0.200 F 
ATOM     85  C   UNL     1       3.010  13.605  -4.446  1.00  0.00     0.200 A 
ATOM     86  F   UNL     1       3.916  12.431  -2.609  1.00  0.00    -0.200 F 
ATOM     87  F   UNL     1       2.208  14.299  -3.627  1.00  0.00    -0.200 F 
ENDBRANCH  53  77
BRANCH  65  88
ATOM     88  C   UNL     1       9.931  14.472 -10.212  1.00  0.00     0.064 A 
ATOM     89  C   UNL     1      10.635  15.244  -9.277  1.00  0.00     0.173 A 
ATOM     90  C   UNL     1       9.759  15.000 -11.502  1.00  0.00     0.173 A 
ATOM     91  F   UNL     1      10.819  14.792  -8.028  1.00  0.00    -0.203 F 
ATOM     92  C   UNL     1      11.123  16.505  -9.614  1.00  0.00     0.198 A 
ATOM     93  C   UNL     1      10.279  16.244 -11.845  1.00  0.00     0.198 A 
ATOM     94  F   UNL     1       9.102  14.297 -12.438  1.00  0.00    -0.203 F 
ATOM     95  F   UNL     1      11.749  17.247  -8.690  1.00  0.00    -0.200 F 
ATOM     96  C   UNL     1      10.954  16.999 -10.899  1.00  0.00     0.200 A 
ATOM     97  F   UNL     1      10.132  16.709 -13.093  1.00  0.00    -0.200 F 
ATOM     98  F   UNL     1      11.436  18.206 -11.223  1.00  0.00    -0.200 F 
ENDBRANCH  65  88
ENDBRANCH  39  40
ENDBRANCH  32  34
ENDBRANCH  31  32
ENDBRANCH  30  31
ENDBRANCH  29  30
ENDBRANCH  28  29
ENDBRANCH  27  28
ENDBRANCH  26  27
ENDBRANCH   1  26
TORSDOF 22
