REMARK SMILES C[C@@H]1[NH2+]CC[C@H]1C(=O)NCc1cccc(C(=O)OCCOCCOCCOCCOC(=O)c2ccc(-c3c4nc(c(-c5c(F)c(F)c(F)c(F)c5F)c5ccc([nH]5)c(-c5c(F)c(F)c(F)c(F)c5F)c5nc(c(-c6c(F)c(F)c(F)c(F)c6F)c6ccc3[nH]6)C=C5)C=C4)cc2)c1
REMARK SMILES IDX 23 1 22 2 21 3 20 4 19 5 18 6 16 7 17 8 15 9 11 10 12 11
REMARK SMILES IDX 96 12 13 13 14 14 10 15 9 16 7 17 8 18 6 20 1 21 2 22 3 23
REMARK SMILES IDX 4 24 5 27 24 28 25 29 26 30 27 31 28 32 29 33 30 34 31 35
REMARK SMILES IDX 32 36 33 37 34 38 95 39 35 40 94 41 36 42 37 43 38 44 88 45
REMARK SMILES IDX 39 46 93 47 87 48 89 49 40 50 92 51 86 52 85 53 41 55 73 56
REMARK SMILES IDX 53 57 72 58 54 59 57 60 71 61 90 62 55 63 56 64 70 66 91 67
REMARK SMILES IDX 58 68 42 69 43 70 51 71 44 72 45 73 49 74 52 75 46 76 47 77
REMARK SMILES IDX 50 78 48 79 74 80 75 81 83 82 76 83 77 84 81 85 84 86 78 87
REMARK SMILES IDX 79 88 82 89 80 90 59 91 60 92 68 93 61 94 62 95 66 96 69 97
REMARK SMILES IDX 63 98 64 99 67 100 65 101
REMARK H PARENT 9 19 3 25 3 26 89 54 57 65
REMARK Flexibility Score: inf
ROOT
ATOM      1  C   UNL     1       0.257   1.223   8.005  1.00  0.00     0.188 C 
ENDROOT
BRANCH   1   2
ATOM      2  C   UNL     1       1.613   0.905   8.669  1.00  0.00     0.188 C 
BRANCH   2   3
ATOM      3  O   UNL     1       2.274   2.052   9.181  1.00  0.00    -0.376 OA
BRANCH   3   4
ATOM      4  C   UNL     1       3.478   2.467   8.565  1.00  0.00     0.202 C 
BRANCH   4   5
ATOM      5  C   UNL     1       3.407   2.952   7.110  1.00  0.00     0.261 C 
BRANCH   5   6
ATOM      6  O   UNL     1       2.655   2.123   6.217  1.00  0.00    -0.460 OA
BRANCH   6   7
ATOM      7  C   UNL     1       3.207   0.951   5.827  1.00  0.00     0.338 C 
ATOM      8  O   UNL     1       4.308   0.528   6.130  1.00  0.00    -0.246 OA
BRANCH   7   9
ATOM      9  C   UNL     1       2.135   0.161   5.167  1.00  0.00     0.060 A 
ATOM     10  C   UNL     1       0.066   0.066   3.878  1.00  0.00    -0.028 A 
ATOM     11  C   UNL     1      -0.051  -1.292   4.221  1.00  0.00     0.005 A 
ATOM     12  C   UNL     1       1.167   0.786   4.369  1.00  0.00     0.021 A 
ATOM     13  C   UNL     1       0.917  -1.919   5.010  1.00  0.00     0.001 A 
ATOM     14  C   UNL     1       2.015  -1.198   5.476  1.00  0.00     0.016 A 
BRANCH  10  15
ATOM     15  C   UNL     1      -1.024   0.715   3.058  1.00  0.00     0.151 C 
BRANCH  15  16
ATOM     16  N   UNL     1      -0.620   1.965   2.443  1.00  0.00    -0.352 N 
ATOM     17  C   UNL     1      -0.153   2.253   1.202  1.00  0.00     0.229 C 
ATOM     18  O   UNL     1       0.231   3.410   1.003  1.00  0.00    -0.275 OA
ATOM     19  H   UNL     1      -0.699   2.747   3.035  1.00  0.00     0.163 HD
BRANCH  17  20
ATOM     20  C   UNL     1      -0.110   1.235   0.073  1.00  0.00     0.142 C 
ATOM     21  C   UNL     1       2.014   0.013  -0.581  1.00  0.00     0.076 C 
ATOM     22  C   UNL     1       0.798   0.035   0.343  1.00  0.00     0.192 C 
ATOM     23  N   UNL     1      -0.007  -1.179   0.119  1.00  0.00    -0.343 N 
ATOM     24  C   UNL     1      -1.204  -0.786  -0.624  1.00  0.00     0.261 C 
ATOM     25  H   UNL     1      -0.272  -1.591   1.014  1.00  0.00     0.346 HD
ATOM     26  H   UNL     1       0.528  -1.872  -0.405  1.00  0.00     0.346 HD
ATOM     27  C   UNL     1      -1.471   0.670  -0.297  1.00  0.00     0.081 C 
ENDBRANCH  17  20
ENDBRANCH  15  16
ENDBRANCH  10  15
ENDBRANCH   7   9
ENDBRANCH   6   7
ENDBRANCH   5   6
ENDBRANCH   4   5
ENDBRANCH   3   4
ENDBRANCH   2   3
ENDBRANCH   1   2
BRANCH   1  28
ATOM     28  O   UNL     1      -0.073   2.581   7.751  1.00  0.00    -0.377 OA
BRANCH  28  29
ATOM     29  C   UNL     1       0.038   3.541   8.801  1.00  0.00     0.188 C 
BRANCH  29  30
ATOM     30  C   UNL     1       0.007   3.131  10.295  1.00  0.00     0.188 C 
BRANCH  30  31
ATOM     31  O   UNL     1      -0.387   1.791  10.538  1.00  0.00    -0.376 OA
BRANCH  31  32
ATOM     32  C   UNL     1      -1.663   1.581  11.117  1.00  0.00     0.202 C 
BRANCH  32  33
ATOM     33  C   UNL     1      -2.867   1.973  10.252  1.00  0.00     0.261 C 
BRANCH  33  34
ATOM     34  O   UNL     1      -2.886   3.332   9.785  1.00  0.00    -0.460 OA
BRANCH  34  35
ATOM     35  C   UNL     1      -3.006   4.306  10.712  1.00  0.00     0.338 C 
ATOM     36  O   UNL     1      -3.116   4.172  11.919  1.00  0.00    -0.246 OA
BRANCH  35  37
ATOM     37  C   UNL     1      -2.793   5.596  10.025  1.00  0.00     0.060 A 
ATOM     38  C   UNL     1      -1.707   6.401  10.395  1.00  0.00     0.016 A 
ATOM     39  C   UNL     1      -3.652   5.992   8.998  1.00  0.00     0.016 A 
ATOM     40  C   UNL     1      -1.489   7.618   9.747  1.00  0.00     0.010 A 
ATOM     41  C   UNL     1      -3.446   7.220   8.367  1.00  0.00     0.010 A 
ATOM     42  C   UNL     1      -2.379   8.050   8.755  1.00  0.00    -0.014 A 
BRANCH  42  43
ATOM     43  C   UNL     1      -2.312   9.442   8.248  1.00  0.00     0.031 A 
ATOM     44  C   UNL     1      -3.237  10.463   8.846  1.00  0.00     0.074 A 
ATOM     45  C   UNL     1      -1.452   9.794   7.277  1.00  0.00     0.049 A 
ATOM     46  N   UNL     1      -3.426  11.714   8.515  1.00  0.00    -0.248 NA
ATOM     47  C   UNL     1      -4.068  10.005   9.971  1.00  0.00     0.031 C 
ATOM     48  C   UNL     1      -0.476   8.908   6.649  1.00  0.00     0.029 A 
ATOM     49  N   UNL     1      -1.278  10.997   6.639  1.00  0.00    -0.354 N 
ATOM     50  C   UNL     1      -4.400  12.189   9.383  1.00  0.00     0.074 A 
ATOM     51  C   UNL     1      -4.786  11.085  10.235  1.00  0.00     0.031 C 
ATOM     52  C   UNL     1       0.187   9.594   5.702  1.00  0.00     0.029 A 
ATOM     53  C   UNL     1      -0.346  10.954   5.631  1.00  0.00     0.049 A 
ATOM     54  H   UNL     1      -1.773  11.813   6.880  1.00  0.00     0.167 HD
ATOM     55  C   UNL     1      -4.920  13.437   9.467  1.00  0.00     0.037 A 
ATOM     56  C   UNL     1       0.009  11.898   4.737  1.00  0.00     0.037 A 
ATOM     57  C   UNL     1      -4.540  14.529   8.611  1.00  0.00     0.049 A 
ATOM     58  C   UNL     1      -0.653  13.252   4.788  1.00  0.00     0.074 A 
ATOM     59  C   UNL     1      -4.994  15.836   8.627  1.00  0.00     0.029 A 
ATOM     60  N   UNL     1      -3.621  14.437   7.575  1.00  0.00    -0.354 N 
ATOM     61  N   UNL     1      -1.553  13.706   5.628  1.00  0.00    -0.248 NA
ATOM     62  C   UNL     1      -0.250  14.226   3.763  1.00  0.00     0.031 C 
ATOM     63  C   UNL     1      -4.399  16.518   7.560  1.00  0.00     0.029 A 
ATOM     64  C   UNL     1      -3.523  15.655   6.921  1.00  0.00     0.049 A 
ATOM     65  H   UNL     1      -3.115  13.627   7.340  1.00  0.00     0.167 HD
ATOM     66  C   UNL     1      -1.802  15.021   5.251  1.00  0.00     0.074 A 
ATOM     67  C   UNL     1      -0.945  15.298   4.117  1.00  0.00     0.031 C 
ATOM     68  C   UNL     1      -2.664  15.917   5.793  1.00  0.00     0.037 A 
BRANCH  55  69
ATOM     69  C   UNL     1      -5.987  13.673  10.497  1.00  0.00     0.064 A 
ATOM     70  C   UNL     1      -5.704  13.668  11.872  1.00  0.00     0.173 A 
ATOM     71  C   UNL     1      -7.309  13.926  10.102  1.00  0.00     0.173 A 
ATOM     72  F   UNL     1      -4.459  13.415  12.304  1.00  0.00    -0.203 F 
ATOM     73  C   UNL     1      -6.710  13.875  12.812  1.00  0.00     0.198 A 
ATOM     74  C   UNL     1      -8.306  14.167  11.044  1.00  0.00     0.198 A 
ATOM     75  F   UNL     1      -7.635  13.944   8.801  1.00  0.00    -0.203 F 
ATOM     76  F   UNL     1      -6.427  13.810  14.120  1.00  0.00    -0.200 F 
ATOM     77  C   UNL     1      -8.008  14.132  12.397  1.00  0.00     0.200 A 
ATOM     78  F   UNL     1      -9.557  14.428  10.640  1.00  0.00    -0.200 F 
ATOM     79  F   UNL     1      -8.975  14.337  13.303  1.00  0.00    -0.200 F 
ENDBRANCH  55  69
BRANCH  56  80
ATOM     80  C   UNL     1       1.029  11.594   3.697  1.00  0.00     0.064 A 
ATOM     81  C   UNL     1       2.274  12.237   3.695  1.00  0.00     0.173 A 
ATOM     82  C   UNL     1       0.770  10.675   2.669  1.00  0.00     0.173 A 
ATOM     83  F   UNL     1       2.558  13.148   4.638  1.00  0.00    -0.203 F 
ATOM     84  C   UNL     1       3.213  11.987   2.696  1.00  0.00     0.198 A 
ATOM     85  C   UNL     1       1.721  10.402   1.688  1.00  0.00     0.198 A 
ATOM     86  F   UNL     1      -0.409  10.038   2.619  1.00  0.00    -0.203 F 
ATOM     87  F   UNL     1       4.374  12.656   2.689  1.00  0.00    -0.200 F 
ATOM     88  C   UNL     1       2.939  11.065   1.697  1.00  0.00     0.200 A 
ATOM     89  F   UNL     1       1.455   9.505   0.729  1.00  0.00    -0.200 F 
ATOM     90  F   UNL     1       3.843  10.824   0.738  1.00  0.00    -0.200 F 
ENDBRANCH  56  80
BRANCH  68  91
ATOM     91  C   UNL     1      -2.704  17.294   5.190  1.00  0.00     0.064 A 
ATOM     92  C   UNL     1      -3.244  17.528   3.916  1.00  0.00     0.173 A 
ATOM     93  C   UNL     1      -2.235  18.401   5.915  1.00  0.00     0.173 A 
ATOM     94  F   UNL     1      -3.694  16.504   3.175  1.00  0.00    -0.203 F 
ATOM     95  C   UNL     1      -3.287  18.813   3.380  1.00  0.00     0.198 A 
ATOM     96  C   UNL     1      -2.312  19.689   5.391  1.00  0.00     0.198 A 
ATOM     97  F   UNL     1      -1.717  18.237   7.142  1.00  0.00    -0.203 F 
ATOM     98  F   UNL     1      -3.759  19.004   2.141  1.00  0.00    -0.200 F 
ATOM     99  C   UNL     1      -2.829  19.893   4.121  1.00  0.00     0.200 A 
ATOM    100  F   UNL     1      -1.887  20.733   6.116  1.00  0.00    -0.200 F 
ATOM    101  F   UNL     1      -2.881  21.130   3.608  1.00  0.00    -0.200 F 
ENDBRANCH  68  91
ENDBRANCH  42  43
ENDBRANCH  35  37
ENDBRANCH  34  35
ENDBRANCH  33  34
ENDBRANCH  32  33
ENDBRANCH  31  32
ENDBRANCH  30  31
ENDBRANCH  29  30
ENDBRANCH  28  29
ENDBRANCH   1  28
TORSDOF 23
