REMARK SMILES COC(=O)C1=C(C)N(c2cccc(OC)c2)C(=O)/C1=C\c1ccc(C(=O)OCCOCCOCCOCCOC(=O)c2ccc(-c3c4nc(c(-c5c(F)c(F)c(F)c(F)c5F)c5ccc([nH]5)c(-c5c(F)c(F)c(F)c(F)c5F)c5nc(c(-c6c(F)c(F)c(F)c(F)c6F)c6ccc3[nH]6)C=C5)C=C4)cc2)cc1
REMARK SMILES IDX 32 1 31 2 30 3 29 4 28 5 27 6 25 7 26 8 24 9 21 10 22 11
REMARK SMILES IDX 106 12 23 13 105 14 20 15 5 16 6 17 19 18 7 19 8 20 17 21
REMARK SMILES IDX 18 22 3 23 4 24 2 25 1 26 9 27 10 28 16 29 11 30 13 31 12 32
REMARK SMILES IDX 14 33 15 34 33 35 34 36 35 37 36 38 37 39 38 40 39 41 40 42
REMARK SMILES IDX 41 43 42 44 43 45 104 46 44 47 103 48 45 49 46 50 47 51
REMARK SMILES IDX 97 52 48 53 102 54 96 55 98 56 49 57 101 58 95 59 94 60
REMARK SMILES IDX 50 62 82 63 62 64 81 65 63 66 66 67 80 68 99 69 64 70 65 71
REMARK SMILES IDX 79 73 100 74 67 75 51 76 52 77 60 78 53 79 54 80 58 81 61 82
REMARK SMILES IDX 55 83 56 84 59 85 57 86 83 87 84 88 92 89 85 90 86 91 90 92
REMARK SMILES IDX 93 93 87 94 88 95 91 96 89 97 68 98 69 99 77 100 70 101
REMARK SMILES IDX 71 102 75 103 78 104 72 105 73 106 76 107 74 108
REMARK H PARENT 98 61 66 72
REMARK Flexibility Score: inf
ROOT
ATOM      1  C   UNL     1       6.598   7.476   6.460  1.00  0.00     0.188 C 
ENDROOT
BRANCH   1   2
ATOM      2  C   UNL     1       6.686   8.859   5.777  1.00  0.00     0.188 C 
BRANCH   2   3
ATOM      3  O   UNL     1       6.821   9.942   6.682  1.00  0.00    -0.376 OA
BRANCH   3   4
ATOM      4  C   UNL     1       5.738  10.839   6.841  1.00  0.00     0.202 C 
BRANCH   4   5
ATOM      5  C   UNL     1       4.415  10.291   7.395  1.00  0.00     0.261 C 
BRANCH   5   6
ATOM      6  O   UNL     1       3.969   9.052   6.835  1.00  0.00    -0.460 OA
BRANCH   6   7
ATOM      7  C   UNL     1       3.499   9.093   5.569  1.00  0.00     0.338 C 
ATOM      8  O   UNL     1       3.401  10.085   4.867  1.00  0.00    -0.246 OA
BRANCH   7   9
ATOM      9  C   UNL     1       3.314   7.701   5.093  1.00  0.00     0.060 A 
ATOM     10  C   UNL     1       2.858   5.138   4.084  1.00  0.00    -0.025 A 
ATOM     11  C   UNL     1       3.428   6.119   3.263  1.00  0.00     0.009 A 
ATOM     12  C   UNL     1       2.622   5.410   5.438  1.00  0.00     0.009 A 
ATOM     13  C   UNL     1       3.648   7.402   3.766  1.00  0.00     0.016 A 
ATOM     14  C   UNL     1       2.846   6.692   5.943  1.00  0.00     0.016 A 
BRANCH  10  15
ATOM     15  C   UNL     1       2.299   3.926   3.477  1.00  0.00     0.023 C 
ATOM     16  C   UNL     1       0.295   2.773   2.455  1.00  0.00     0.092 C 
ATOM     17  C   UNL     1      -0.984   3.159   2.240  1.00  0.00     0.039 C 
ATOM     18  C   UNL     1       1.004   3.854   3.119  1.00  0.00     0.057 C 
ATOM     19  C   UNL     1      -2.021   2.370   1.506  1.00  0.00     0.066 C 
ATOM     20  N   UNL     1      -1.177   4.464   2.692  1.00  0.00    -0.280 N 
ATOM     21  C   UNL     1       0.000   4.966   3.281  1.00  0.00     0.263 C 
ATOM     22  O   UNL     1       0.178   6.050   3.808  1.00  0.00    -0.268 OA
BRANCH  16  23
ATOM     23  C   UNL     1       0.923   1.518   2.002  1.00  0.00     0.340 C 
ATOM     24  O   UNL     1       1.748   0.890   2.648  1.00  0.00    -0.246 OA
BRANCH  23  25
ATOM     25  O   UNL     1       0.496   1.216   0.750  1.00  0.00    -0.465 OA
ATOM     26  C   UNL     1       1.035   0.013   0.203  1.00  0.00     0.282 C 
ENDBRANCH  23  25
ENDBRANCH  16  23
BRANCH  20  27
ATOM     27  C   UNL     1      -2.295   5.320   2.507  1.00  0.00     0.053 A 
ATOM     28  C   UNL     1      -3.604   4.906   2.756  1.00  0.00     0.027 A 
ATOM     29  C   UNL     1      -2.073   6.621   2.021  1.00  0.00     0.073 A 
ATOM     30  C   UNL     1      -4.674   5.760   2.478  1.00  0.00     0.006 A 
ATOM     31  C   UNL     1      -3.135   7.469   1.716  1.00  0.00     0.120 A 
ATOM     32  C   UNL     1      -4.438   7.029   1.947  1.00  0.00     0.046 A 
BRANCH  31  33
ATOM     33  O   UNL     1      -3.023   8.721   1.177  1.00  0.00    -0.497 OA
ATOM     34  C   UNL     1      -1.707   9.156   0.844  1.00  0.00     0.278 C 
ENDBRANCH  31  33
ENDBRANCH  20  27
ENDBRANCH  10  15
ENDBRANCH   7   9
ENDBRANCH   6   7
ENDBRANCH   5   6
ENDBRANCH   4   5
ENDBRANCH   3   4
ENDBRANCH   2   3
ENDBRANCH   1   2
BRANCH   1  35
ATOM     35  O   UNL     1       6.456   7.400   7.872  1.00  0.00    -0.377 OA
BRANCH  35  36
ATOM     36  C   UNL     1       7.257   8.223   8.714  1.00  0.00     0.188 C 
BRANCH  36  37
ATOM     37  C   UNL     1       8.664   8.699   8.279  1.00  0.00     0.188 C 
BRANCH  37  38
ATOM     38  O   UNL     1       9.121   8.147   7.057  1.00  0.00    -0.376 OA
BRANCH  38  39
ATOM     39  C   UNL     1      10.145   7.172   7.116  1.00  0.00     0.202 C 
BRANCH  39  40
ATOM     40  C   UNL     1       9.823   5.863   7.851  1.00  0.00     0.261 C 
BRANCH  40  41
ATOM     41  O   UNL     1       9.310   5.993   9.186  1.00  0.00    -0.460 OA
BRANCH  41  42
ATOM     42  C   UNL     1      10.140   6.488  10.127  1.00  0.00     0.338 C 
ATOM     43  O   UNL     1      11.297   6.847   9.982  1.00  0.00    -0.246 OA
BRANCH  42  44
ATOM     44  C   UNL     1       9.343   6.695  11.353  1.00  0.00     0.060 A 
ATOM     45  C   UNL     1       9.197   7.990  11.870  1.00  0.00     0.016 A 
ATOM     46  C   UNL     1       8.725   5.610  11.978  1.00  0.00     0.016 A 
ATOM     47  C   UNL     1       8.455   8.198  13.034  1.00  0.00     0.010 A 
ATOM     48  C   UNL     1       8.002   5.816  13.154  1.00  0.00     0.010 A 
ATOM     49  C   UNL     1       7.890   7.105  13.705  1.00  0.00    -0.014 A 
BRANCH  49  50
ATOM     50  C   UNL     1       7.355   7.273  15.077  1.00  0.00     0.031 A 
ATOM     51  C   UNL     1       8.239   6.900  16.235  1.00  0.00     0.074 A 
ATOM     52  C   UNL     1       6.116   7.747  15.297  1.00  0.00     0.049 A 
ATOM     53  N   UNL     1       7.976   6.883  17.516  1.00  0.00    -0.248 NA
ATOM     54  C   UNL     1       9.610   6.484  15.896  1.00  0.00     0.031 C 
ATOM     55  C   UNL     1       5.181   8.180  14.263  1.00  0.00     0.029 A 
ATOM     56  N   UNL     1       5.429   7.927  16.473  1.00  0.00    -0.354 N 
ATOM     57  C   UNL     1       9.140   6.444  18.132  1.00  0.00     0.074 A 
ATOM     58  C   UNL     1      10.102   6.177  17.086  1.00  0.00     0.031 C 
ATOM     59  C   UNL     1       4.032   8.562  14.849  1.00  0.00     0.029 A 
ATOM     60  C   UNL     1       4.139   8.362  16.294  1.00  0.00     0.049 A 
ATOM     61  H   UNL     1       5.824   7.760  17.359  1.00  0.00     0.167 HD
ATOM     62  C   UNL     1       9.386   6.286  19.454  1.00  0.00     0.037 A 
ATOM     63  C   UNL     1       3.153   8.547  17.194  1.00  0.00     0.037 A 
ATOM     64  C   UNL     1       8.424   6.550  20.491  1.00  0.00     0.049 A 
ATOM     65  C   UNL     1       3.427   8.287  18.655  1.00  0.00     0.074 A 
ATOM     66  C   UNL     1       8.582   6.441  21.861  1.00  0.00     0.029 A 
ATOM     67  N   UNL     1       7.119   6.965  20.270  1.00  0.00    -0.354 N 
ATOM     68  N   UNL     1       4.538   7.902  19.236  1.00  0.00    -0.248 NA
ATOM     69  C   UNL     1       2.308   8.490  19.587  1.00  0.00     0.031 C 
ATOM     70  C   UNL     1       7.354   6.726  22.466  1.00  0.00     0.029 A 
ATOM     71  C   UNL     1       6.451   7.084  21.478  1.00  0.00     0.049 A 
ATOM     72  H   UNL     1       6.726   7.147  19.386  1.00  0.00     0.167 HD
ATOM     73  C   UNL     1       4.262   7.850  20.598  1.00  0.00     0.074 A 
ATOM     74  C   UNL     1       2.882   8.257  20.758  1.00  0.00     0.031 C 
ATOM     75  C   UNL     1       5.079   7.501  21.623  1.00  0.00     0.037 A 
BRANCH  62  76
ATOM     76  C   UNL     1      10.739   5.769  19.852  1.00  0.00     0.064 A 
ATOM     77  C   UNL     1      11.901   6.543  19.706  1.00  0.00     0.173 A 
ATOM     78  C   UNL     1      10.869   4.491  20.417  1.00  0.00     0.173 A 
ATOM     79  F   UNL     1      11.834   7.765  19.157  1.00  0.00    -0.203 F 
ATOM     80  C   UNL     1      13.145   6.045  20.086  1.00  0.00     0.198 A 
ATOM     81  C   UNL     1      12.110   4.011  20.828  1.00  0.00     0.198 A 
ATOM     82  F   UNL     1       9.791   3.711  20.582  1.00  0.00    -0.203 F 
ATOM     83  F   UNL     1      14.247   6.781  19.890  1.00  0.00    -0.200 F 
ATOM     84  C   UNL     1      13.247   4.784  20.654  1.00  0.00     0.200 A 
ATOM     85  F   UNL     1      12.204   2.798  21.390  1.00  0.00    -0.200 F 
ATOM     86  F   UNL     1      14.444   4.311  21.029  1.00  0.00    -0.200 F 
ENDBRANCH  62  76
BRANCH  63  87
ATOM     87  C   UNL     1       1.803   8.984  16.744  1.00  0.00     0.064 A 
ATOM     88  C   UNL     1       1.288  10.236  17.105  1.00  0.00     0.173 A 
ATOM     89  C   UNL     1       0.987   8.144  15.970  1.00  0.00     0.173 A 
ATOM     90  F   UNL     1       2.016  11.065  17.868  1.00  0.00    -0.203 F 
ATOM     91  C   UNL     1       0.002  10.623  16.730  1.00  0.00     0.198 A 
ATOM     92  C   UNL     1      -0.285   8.544  15.568  1.00  0.00     0.198 A 
ATOM     93  F   UNL     1       1.428   6.932  15.602  1.00  0.00    -0.203 F 
ATOM     94  F   UNL     1      -0.486  11.802  17.139  1.00  0.00    -0.200 F 
ATOM     95  C   UNL     1      -0.781   9.779  15.957  1.00  0.00     0.200 A 
ATOM     96  F   UNL     1      -1.034   7.730  14.812  1.00  0.00    -0.200 F 
ATOM     97  F   UNL     1      -2.017  10.151  15.597  1.00  0.00    -0.200 F 
ENDBRANCH  63  87
BRANCH  75  98
ATOM     98  C   UNL     1       4.522   7.588  23.017  1.00  0.00     0.064 A 
ATOM     99  C   UNL     1       3.545   6.697  23.484  1.00  0.00     0.173 A 
ATOM    100  C   UNL     1       5.015   8.548  23.916  1.00  0.00     0.173 A 
ATOM    101  F   UNL     1       3.031   5.768  22.664  1.00  0.00    -0.203 F 
ATOM    102  C   UNL     1       3.061   6.783  24.787  1.00  0.00     0.198 A 
ATOM    103  C   UNL     1       4.555   8.607  25.229  1.00  0.00     0.198 A 
ATOM    104  F   UNL     1       5.958   9.419  23.526  1.00  0.00    -0.203 F 
ATOM    105  F   UNL     1       2.089   5.954  25.195  1.00  0.00    -0.200 F 
ATOM    106  C   UNL     1       3.572   7.731  25.661  1.00  0.00     0.200 A 
ATOM    107  F   UNL     1       5.066   9.512  26.076  1.00  0.00    -0.200 F 
ATOM    108  F   UNL     1       3.114   7.803  26.918  1.00  0.00    -0.200 F 
ENDBRANCH  75  98
ENDBRANCH  49  50
ENDBRANCH  42  44
ENDBRANCH  41  42
ENDBRANCH  40  41
ENDBRANCH  39  40
ENDBRANCH  38  39
ENDBRANCH  37  38
ENDBRANCH  36  37
ENDBRANCH  35  36
ENDBRANCH   1  35
TORSDOF 25
