REMARK SMILES O=C(C[C@H]1S/C(=[NH+]\N=C\c2cc(Br)ccc2OCc2ccccc2)NC1=O)OCCOCCOCCOCCOC(=O)c1ccc(-c2c3nc(c(-c4c(F)c(F)c(F)c(F)c4F)c4ccc([nH]4)c(-c4c(F)c(F)c(F)c(F)c4F)c4nc(c(-c5c(F)c(F)c(F)c(F)c5F)c5ccc2[nH]5)C=C4)C=C3)cc1
REMARK SMILES IDX 32 1 31 2 30 3 29 4 28 5 2 6 1 7 3 8 4 9 5 10 26 11 6 12
REMARK SMILES IDX 25 13 27 14 7 15 8 18 9 19 10 20 11 21 16 22 12 23 15 24
REMARK SMILES IDX 13 25 14 26 17 27 18 28 19 29 20 30 24 31 21 32 23 33 22 34
REMARK SMILES IDX 33 35 34 36 35 37 36 38 37 39 38 40 39 41 40 42 41 43 42 44
REMARK SMILES IDX 43 45 44 46 105 47 45 48 104 49 46 50 47 51 48 52 98 53
REMARK SMILES IDX 49 54 103 55 97 56 99 57 50 58 102 59 96 60 95 61 51 63
REMARK SMILES IDX 83 64 63 65 82 66 64 67 67 68 81 69 100 70 65 71 66 72 80 74
REMARK SMILES IDX 101 75 68 76 52 77 53 78 61 79 54 80 55 81 59 82 62 83 56 84
REMARK SMILES IDX 57 85 60 86 58 87 84 88 85 89 93 90 86 91 87 92 91 93 94 94
REMARK SMILES IDX 88 95 89 96 92 97 90 98 69 99 70 100 78 101 71 102 72 103
REMARK SMILES IDX 76 104 79 105 73 106 74 107 77 108 75 109
REMARK H PARENT 25 16 7 17 99 62 67 73
REMARK Flexibility Score: inf
ROOT
ATOM      1  C   UNL     1       2.541  -0.931  -1.360  1.00  0.00     0.188 C 
ENDROOT
BRANCH   1   2
ATOM      2  O   UNL     1       3.935  -0.710  -1.263  1.00  0.00    -0.376 OA
BRANCH   2   3
ATOM      3  C   UNL     1       4.709  -0.515  -0.097  1.00  0.00     0.202 C 
BRANCH   3   4
ATOM      4  C   UNL     1       4.130  -0.145   1.264  1.00  0.00     0.261 C 
BRANCH   4   5
ATOM      5  O   UNL     1       2.759   0.244   1.317  1.00  0.00    -0.463 OA
BRANCH   5   6
ATOM      6  C   UNL     1       2.329   1.486   1.009  1.00  0.00     0.307 C 
ATOM      7  O   UNL     1       1.312   1.931   1.531  1.00  0.00    -0.252 OA
BRANCH   6   8
ATOM      8  C   UNL     1       3.011   2.222  -0.108  1.00  0.00     0.150 C 
BRANCH   8   9
ATOM      9  C   UNL     1       3.936   3.341   0.340  1.00  0.00     0.184 C 
ATOM     10  S   UNL     1       5.711   2.897   0.124  1.00  0.00    -0.020 SA
ATOM     11  C   UNL     1       3.756   4.458  -0.668  1.00  0.00     0.322 C 
ATOM     12  C   UNL     1       5.724   3.513  -1.500  1.00  0.00     0.337 C 
ATOM     13  N   UNL     1       4.670   4.348  -1.677  1.00  0.00    -0.202 N 
ATOM     14  O   UNL     1       2.848   5.276  -0.655  1.00  0.00    -0.246 OA
ATOM     15  N   UNL     1       6.542   3.308  -2.473  1.00  0.00    -0.142 N 
ATOM     16  H   UNL     1       4.567   4.861  -2.511  1.00  0.00     0.316 HD
ATOM     17  H   UNL     1       6.409   3.739  -3.348  1.00  0.00     0.343 HD
BRANCH  15  18
ATOM     18  N   UNL     1       7.627   2.452  -2.245  1.00  0.00    -0.093 NA
ATOM     19  C   UNL     1       8.267   2.316  -3.368  1.00  0.00     0.170 C 
BRANCH  19  20
ATOM     20  C   UNL     1       9.490   1.525  -3.554  1.00  0.00     0.040 A 
ATOM     21  C   UNL     1       9.264   0.159  -3.795  1.00  0.00     0.029 A 
ATOM     22  C   UNL     1      10.779   2.062  -3.703  1.00  0.00     0.128 A 
ATOM     23  C   UNL     1      10.321  -0.672  -4.161  1.00  0.00     0.018 A 
ATOM     24  C   UNL     1      11.836   1.185  -4.011  1.00  0.00     0.048 A 
ATOM     25  Br  UNL     1       9.993  -2.483  -4.593  1.00  0.00    -0.051 Br
ATOM     26  C   UNL     1      11.613  -0.170  -4.254  1.00  0.00     0.019 A 
BRANCH  22  27
ATOM     27  O   UNL     1      11.226   3.353  -3.677  1.00  0.00    -0.488 OA
BRANCH  27  28
ATOM     28  C   UNL     1      10.354   4.480  -3.706  1.00  0.00     0.265 C 
BRANCH  28  29
ATOM     29  C   UNL     1       9.522   4.654  -4.963  1.00  0.00    -0.011 A 
ATOM     30  C   UNL     1       8.461   5.574  -4.931  1.00  0.00     0.007 A 
ATOM     31  C   UNL     1       9.688   3.858  -6.106  1.00  0.00     0.007 A 
ATOM     32  C   UNL     1       7.519   5.604  -5.959  1.00  0.00     0.000 A 
ATOM     33  C   UNL     1       8.727   3.867  -7.118  1.00  0.00     0.000 A 
ATOM     34  C   UNL     1       7.633   4.725  -7.034  1.00  0.00     0.000 A 
ENDBRANCH  28  29
ENDBRANCH  27  28
ENDBRANCH  22  27
ENDBRANCH  19  20
ENDBRANCH  15  18
ENDBRANCH   8   9
ENDBRANCH   6   8
ENDBRANCH   5   6
ENDBRANCH   4   5
ENDBRANCH   3   4
ENDBRANCH   2   3
ENDBRANCH   1   2
BRANCH   1  35
ATOM     35  C   UNL     1       1.919  -2.232  -0.845  1.00  0.00     0.188 C 
BRANCH  35  36
ATOM     36  O   UNL     1       2.538  -3.446  -1.238  1.00  0.00    -0.377 OA
BRANCH  36  37
ATOM     37  C   UNL     1       3.897  -3.557  -0.863  1.00  0.00     0.188 C 
BRANCH  37  38
ATOM     38  C   UNL     1       4.890  -3.321  -2.022  1.00  0.00     0.188 C 
BRANCH  38  39
ATOM     39  O   UNL     1       4.450  -2.811  -3.266  1.00  0.00    -0.376 OA
BRANCH  39  40
ATOM     40  C   UNL     1       3.320  -3.353  -3.929  1.00  0.00     0.202 C 
BRANCH  40  41
ATOM     41  C   UNL     1       2.920  -4.844  -3.900  1.00  0.00     0.261 C 
BRANCH  41  42
ATOM     42  O   UNL     1       3.347  -5.632  -2.785  1.00  0.00    -0.460 OA
BRANCH  42  43
ATOM     43  C   UNL     1       4.482  -6.340  -2.963  1.00  0.00     0.338 C 
ATOM     44  O   UNL     1       5.154  -6.419  -3.981  1.00  0.00    -0.246 OA
BRANCH  43  45
ATOM     45  C   UNL     1       4.937  -6.839  -1.648  1.00  0.00     0.060 A 
ATOM     46  C   UNL     1       6.226  -6.485  -1.227  1.00  0.00     0.016 A 
ATOM     47  C   UNL     1       4.114  -7.614  -0.826  1.00  0.00     0.016 A 
ATOM     48  C   UNL     1       6.715  -6.937  -0.008  1.00  0.00     0.010 A 
ATOM     49  C   UNL     1       4.620  -8.102   0.385  1.00  0.00     0.010 A 
ATOM     50  C   UNL     1       5.938  -7.800   0.774  1.00  0.00    -0.014 A 
BRANCH  50  51
ATOM     51  C   UNL     1       6.619  -8.555   1.852  1.00  0.00     0.031 A 
ATOM     52  C   UNL     1       7.120  -9.938   1.537  1.00  0.00     0.074 A 
ATOM     53  C   UNL     1       6.890  -7.987   3.039  1.00  0.00     0.049 A 
ATOM     54  N   UNL     1       7.807 -10.766   2.281  1.00  0.00    -0.248 NA
ATOM     55  C   UNL     1       6.811 -10.454   0.193  1.00  0.00     0.031 C 
ATOM     56  C   UNL     1       6.495  -6.639   3.441  1.00  0.00     0.029 A 
ATOM     57  N   UNL     1       7.575  -8.476   4.123  1.00  0.00    -0.354 N 
ATOM     58  C   UNL     1       8.021 -11.890   1.494  1.00  0.00     0.074 A 
ATOM     59  C   UNL     1       7.350 -11.662   0.233  1.00  0.00     0.031 C 
ATOM     60  C   UNL     1       6.940  -6.410   4.689  1.00  0.00     0.029 A 
ATOM     61  C   UNL     1       7.629  -7.603   5.180  1.00  0.00     0.049 A 
ATOM     62  H   UNL     1       7.988  -9.370   4.140  1.00  0.00     0.167 HD
ATOM     63  C   UNL     1       8.732 -13.004   1.787  1.00  0.00     0.037 A 
ATOM     64  C   UNL     1       8.162  -7.760   6.407  1.00  0.00     0.037 A 
ATOM     65  C   UNL     1       9.386 -13.235   3.047  1.00  0.00     0.049 A 
ATOM     66  C   UNL     1       8.881  -9.045   6.737  1.00  0.00     0.074 A 
ATOM     67  C   UNL     1      10.119 -14.336   3.451  1.00  0.00     0.029 A 
ATOM     68  N   UNL     1       9.380 -12.346   4.113  1.00  0.00    -0.354 N 
ATOM     69  N   UNL     1       9.095 -10.096   5.981  1.00  0.00    -0.248 NA
ATOM     70  C   UNL     1       9.446  -9.158   8.088  1.00  0.00     0.031 C 
ATOM     71  C   UNL     1      10.508 -14.139   4.781  1.00  0.00     0.029 A 
ATOM     72  C   UNL     1      10.077 -12.885   5.183  1.00  0.00     0.049 A 
ATOM     73  H   UNL     1       8.944 -11.463   4.109  1.00  0.00     0.167 HD
ATOM     74  C   UNL     1       9.837 -10.981   6.754  1.00  0.00     0.074 A 
ATOM     75  C   UNL     1      10.064 -10.328   8.027  1.00  0.00     0.031 C 
ATOM     76  C   UNL     1      10.288 -12.223   6.445  1.00  0.00     0.037 A 
BRANCH  63  77
ATOM     77  C   UNL     1       8.818 -14.068   0.730  1.00  0.00     0.064 A 
ATOM     78  C   UNL     1       9.554 -13.877  -0.450  1.00  0.00     0.173 A 
ATOM     79  C   UNL     1       8.182 -15.305   0.911  1.00  0.00     0.173 A 
ATOM     80  F   UNL     1      10.167 -12.706  -0.683  1.00  0.00    -0.203 F 
ATOM     81  C   UNL     1       9.632 -14.877  -1.417  1.00  0.00     0.198 A 
ATOM     82  C   UNL     1       8.289 -16.314  -0.042  1.00  0.00     0.198 A 
ATOM     83  F   UNL     1       7.464 -15.540   2.020  1.00  0.00    -0.203 F 
ATOM     84  F   UNL     1      10.301 -14.655  -2.557  1.00  0.00    -0.200 F 
ATOM     85  C   UNL     1       9.007 -16.097  -1.208  1.00  0.00     0.200 A 
ATOM     86  F   UNL     1       7.695 -17.497   0.168  1.00  0.00    -0.200 F 
ATOM     87  F   UNL     1       9.092 -17.063  -2.133  1.00  0.00    -0.200 F 
ENDBRANCH  63  77
BRANCH  64  88
ATOM     88  C   UNL     1       8.020  -6.686   7.427  1.00  0.00     0.064 A 
ATOM     89  C   UNL     1       9.133  -5.996   7.928  1.00  0.00     0.173 A 
ATOM     90  C   UNL     1       6.761  -6.356   7.953  1.00  0.00     0.173 A 
ATOM     91  F   UNL     1      10.361  -6.290   7.477  1.00  0.00    -0.203 F 
ATOM     92  C   UNL     1       8.996  -5.042   8.935  1.00  0.00     0.198 A 
ATOM     93  C   UNL     1       6.622  -5.376   8.934  1.00  0.00     0.198 A 
ATOM     94  F   UNL     1       5.662  -6.986   7.512  1.00  0.00    -0.203 F 
ATOM     95  F   UNL     1      10.084  -4.444   9.440  1.00  0.00    -0.200 F 
ATOM     96  C   UNL     1       7.740  -4.729   9.433  1.00  0.00     0.200 A 
ATOM     97  F   UNL     1       5.404  -5.067   9.399  1.00  0.00    -0.200 F 
ATOM     98  F   UNL     1       7.610  -3.811  10.400  1.00  0.00    -0.200 F 
ENDBRANCH  64  88
BRANCH  76  99
ATOM     99  C   UNL     1      11.097 -12.939   7.493  1.00  0.00     0.064 A 
ATOM    100  C   UNL     1      10.525 -13.380   8.696  1.00  0.00     0.173 A 
ATOM    101  C   UNL     1      12.463 -13.191   7.288  1.00  0.00     0.173 A 
ATOM    102  F   UNL     1       9.226 -13.158   8.948  1.00  0.00    -0.203 F 
ATOM    103  C   UNL     1      11.300 -13.996   9.675  1.00  0.00     0.198 A 
ATOM    104  C   UNL     1      13.226 -13.844   8.252  1.00  0.00     0.198 A 
ATOM    105  F   UNL     1      13.060 -12.805   6.150  1.00  0.00    -0.203 F 
ATOM    106  F   UNL     1      10.748 -14.337  10.848  1.00  0.00    -0.200 F 
ATOM    107  C   UNL     1      12.648 -14.232   9.451  1.00  0.00     0.200 A 
ATOM    108  F   UNL     1      14.524 -14.089   8.024  1.00  0.00    -0.200 F 
ATOM    109  F   UNL     1      13.393 -14.821  10.396  1.00  0.00    -0.200 F 
ENDBRANCH  76  99
ENDBRANCH  50  51
ENDBRANCH  43  45
ENDBRANCH  42  43
ENDBRANCH  41  42
ENDBRANCH  40  41
ENDBRANCH  39  40
ENDBRANCH  38  39
ENDBRANCH  37  38
ENDBRANCH  36  37
ENDBRANCH  35  36
ENDBRANCH   1  35
TORSDOF 26
