REMARK SMILES CC(=O)N[C@H]1[C@H](OCC(=O)OCCOCCOCCOCCOC(=O)c2ccc(-c3c4nc(c(-c5c(F)c(F)c(F)c(F)c5F)c5ccc([nH]5)c(-c5c(F)c(F)c(F)c(F)c5F)c5nc(c(-c6c(F)c(F)c(F)c(F)c6F)c6ccc3[nH]6)C=C5)C=C4)cc2)[C@H]2O[C@@H](c3ccco3)OC[C@H]2O[C@@H]1Sc1ccc(Cl)cc1
REMARK SMILES IDX 16 1 15 2 14 3 13 4 12 5 11 6 9 7 10 8 8 9 7 10 6 11 5 12
REMARK SMILES IDX 101 13 89 14 100 15 90 16 99 17 91 18 98 19 97 20 4 21 1 22
REMARK SMILES IDX 2 23 3 24 102 26 103 27 104 28 109 29 105 30 108 31 106 32
REMARK SMILES IDX 107 33 92 34 93 35 96 36 94 37 95 38 17 39 18 40 19 41 20 42
REMARK SMILES IDX 21 43 22 44 23 45 24 46 25 47 26 48 27 49 88 50 28 51 87 52
REMARK SMILES IDX 29 53 30 54 31 55 81 56 32 57 86 58 80 59 82 60 33 61 85 62
REMARK SMILES IDX 79 63 78 64 34 66 66 67 46 68 65 69 47 70 50 71 64 72 83 73
REMARK SMILES IDX 48 74 49 75 63 77 84 78 51 79 35 80 36 81 44 82 37 83 38 84
REMARK SMILES IDX 42 85 45 86 39 87 40 88 43 89 41 90 67 91 68 92 76 93 69 94
REMARK SMILES IDX 70 95 74 96 77 97 71 98 72 99 75 100 73 101 52 102 53 103
REMARK SMILES IDX 61 104 54 105 55 106 59 107 62 108 56 109 57 110 60 111
REMARK SMILES IDX 58 112
REMARK H PARENT 4 25 82 65 50 76
REMARK Flexibility Score: inf
ROOT
ATOM      1  C   UNL     1       4.397  -3.054  -3.158  1.00  0.00     0.188 C 
ENDROOT
BRANCH   1   2
ATOM      2  C   UNL     1       4.353  -3.217  -4.694  1.00  0.00     0.188 C 
BRANCH   2   3
ATOM      3  O   UNL     1       5.446  -3.931  -5.257  1.00  0.00    -0.376 OA
BRANCH   3   4
ATOM      4  C   UNL     1       6.735  -3.491  -4.828  1.00  0.00     0.202 C 
BRANCH   4   5
ATOM      5  C   UNL     1       7.039  -2.014  -5.127  1.00  0.00     0.261 C 
BRANCH   5   6
ATOM      6  O   UNL     1       6.458  -1.107  -4.148  1.00  0.00    -0.462 OA
BRANCH   6   7
ATOM      7  C   UNL     1       5.764  -0.039  -4.628  1.00  0.00     0.332 C 
ATOM      8  O   UNL     1       5.588   0.179  -5.820  1.00  0.00    -0.250 OA
BRANCH   7   9
ATOM      9  C   UNL     1       5.197   0.885  -3.513  1.00  0.00     0.283 C 
BRANCH   9  10
ATOM     10  O   UNL     1       4.204   0.553  -2.569  1.00  0.00    -0.361 OA
BRANCH  10  11
ATOM     11  C   UNL     1       2.819   0.358  -2.897  1.00  0.00     0.176 C 
ATOM     12  C   UNL     1       1.835   1.556  -2.769  1.00  0.00     0.153 C 
ATOM     13  C   UNL     1       1.635   2.314  -4.136  1.00  0.00     0.206 C 
ATOM     14  C   UNL     1       2.487  -0.439  -4.146  1.00  0.00     0.184 C 
ATOM     15  O   UNL     1       1.448   1.453  -5.260  1.00  0.00    -0.356 OA
ATOM     16  O   UNL     1       1.267  -1.124  -3.917  1.00  0.00    -0.337 OA
ATOM     17  C   UNL     1       2.408   0.408  -5.389  1.00  0.00     0.177 C 
ATOM     18  C   UNL     1       0.718  -1.823  -5.023  1.00  0.00     0.319 C 
ATOM     19  C   UNL     1       2.026  -0.522  -6.534  1.00  0.00     0.199 C 
ATOM     20  O   UNL     1       0.787  -1.160  -6.276  1.00  0.00    -0.343 OA
BRANCH  12  21
ATOM     21  N   UNL     1       0.504   1.001  -2.335  1.00  0.00    -0.347 N 
ATOM     22  C   UNL     1       0.948   0.765   0.083  1.00  0.00     0.114 C 
ATOM     23  C   UNL     1       0.124   0.472  -1.136  1.00  0.00     0.217 C 
ATOM     24  O   UNL     1      -0.879  -0.236  -1.062  1.00  0.00    -0.275 OA
ATOM     25  H   UNL     1      -0.200   1.024  -3.022  1.00  0.00     0.163 HD
ENDBRANCH  12  21
BRANCH  13  26
ATOM     26  S   UNL     1       2.781   3.746  -4.403  1.00  0.00    -0.092 SA
BRANCH  26  27
ATOM     27  C   UNL     1       3.724   3.449  -5.896  1.00  0.00     0.010 A 
ATOM     28  C   UNL     1       3.189   3.027  -7.119  1.00  0.00     0.016 A 
ATOM     29  C   UNL     1       5.103   3.713  -5.832  1.00  0.00     0.016 A 
ATOM     30  C   UNL     1       4.026   2.787  -8.220  1.00  0.00     0.021 A 
ATOM     31  C   UNL     1       5.939   3.487  -6.930  1.00  0.00     0.021 A 
ATOM     32  C   UNL     1       5.397   3.014  -8.120  1.00  0.00     0.041 A 
ATOM     33  Cl  UNL     1       6.423   2.729  -9.471  1.00  0.00    -0.084 Cl
ENDBRANCH  26  27
ENDBRANCH  13  26
BRANCH  18  34
ATOM     34  C   UNL     1      -0.744  -1.895  -4.739  1.00  0.00     0.159 A 
ATOM     35  C   UNL     1      -1.714  -2.857  -4.940  1.00  0.00     0.051 A 
ATOM     36  O   UNL     1      -1.320  -0.765  -4.218  1.00  0.00    -0.464 OA
ATOM     37  C   UNL     1      -2.941  -2.283  -4.524  1.00  0.00     0.042 A 
ATOM     38  C   UNL     1      -2.643  -1.018  -4.077  1.00  0.00     0.195 A 
ENDBRANCH  18  34
ENDBRANCH  10  11
ENDBRANCH   9  10
ENDBRANCH   7   9
ENDBRANCH   6   7
ENDBRANCH   5   6
ENDBRANCH   4   5
ENDBRANCH   3   4
ENDBRANCH   2   3
ENDBRANCH   1   2
BRANCH   1  39
ATOM     39  O   UNL     1       4.816  -4.242  -2.499  1.00  0.00    -0.377 OA
BRANCH  39  40
ATOM     40  C   UNL     1       4.070  -5.385  -2.904  1.00  0.00     0.188 C 
BRANCH  40  41
ATOM     41  C   UNL     1       2.666  -5.354  -2.325  1.00  0.00     0.188 C 
BRANCH  41  42
ATOM     42  O   UNL     1       1.831  -4.243  -2.631  1.00  0.00    -0.376 OA
BRANCH  42  43
ATOM     43  C   UNL     1       0.667  -4.199  -1.774  1.00  0.00     0.202 C 
BRANCH  43  44
ATOM     44  C   UNL     1       0.883  -3.800  -0.287  1.00  0.00     0.261 C 
BRANCH  44  45
ATOM     45  O   UNL     1       1.810  -4.578   0.507  1.00  0.00    -0.460 OA
BRANCH  45  46
ATOM     46  C   UNL     1       1.706  -5.933   0.544  1.00  0.00     0.338 C 
ATOM     47  O   UNL     1       0.784  -6.607   0.138  1.00  0.00    -0.246 OA
BRANCH  46  48
ATOM     48  C   UNL     1       3.092  -6.445   0.795  1.00  0.00     0.060 A 
ATOM     49  C   UNL     1       3.600  -7.424  -0.078  1.00  0.00     0.016 A 
ATOM     50  C   UNL     1       3.941  -5.831   1.721  1.00  0.00     0.016 A 
ATOM     51  C   UNL     1       4.954  -7.764  -0.048  1.00  0.00     0.010 A 
ATOM     52  C   UNL     1       5.284  -6.214   1.793  1.00  0.00     0.010 A 
ATOM     53  C   UNL     1       5.788  -7.196   0.923  1.00  0.00    -0.014 A 
BRANCH  53  54
ATOM     54  C   UNL     1       7.042  -7.904   1.268  1.00  0.00     0.031 A 
ATOM     55  C   UNL     1       6.900  -9.056   2.224  1.00  0.00     0.074 A 
ATOM     56  C   UNL     1       8.241  -7.562   0.766  1.00  0.00     0.049 A 
ATOM     57  N   UNL     1       7.806  -9.856   2.719  1.00  0.00    -0.248 NA
ATOM     58  C   UNL     1       5.529  -9.341   2.688  1.00  0.00     0.031 C 
ATOM     59  C   UNL     1       8.488  -6.486  -0.190  1.00  0.00     0.029 A 
ATOM     60  N   UNL     1       9.485  -8.091   1.011  1.00  0.00    -0.354 N 
ATOM     61  C   UNL     1       7.113 -10.733   3.543  1.00  0.00     0.074 A 
ATOM     62  C   UNL     1       5.721 -10.356   3.510  1.00  0.00     0.031 C 
ATOM     63  C   UNL     1       9.811  -6.417  -0.432  1.00  0.00     0.029 A 
ATOM     64  C   UNL     1      10.502  -7.428   0.369  1.00  0.00     0.049 A 
ATOM     65  H   UNL     1       9.633  -8.871   1.591  1.00  0.00     0.167 HD
ATOM     66  C   UNL     1       7.596 -11.765   4.269  1.00  0.00     0.037 A 
ATOM     67  C   UNL     1      11.836  -7.612   0.448  1.00  0.00     0.037 A 
ATOM     68  C   UNL     1       8.989 -12.102   4.329  1.00  0.00     0.049 A 
ATOM     69  C   UNL     1      12.365  -8.726   1.322  1.00  0.00     0.074 A 
ATOM     70  C   UNL     1       9.600 -13.128   5.022  1.00  0.00     0.029 A 
ATOM     71  N   UNL     1       9.993 -11.391   3.686  1.00  0.00    -0.354 N 
ATOM     72  N   UNL     1      11.704  -9.585   2.062  1.00  0.00    -0.248 NA
ATOM     73  C   UNL     1      13.824  -8.900   1.366  1.00  0.00     0.031 C 
ATOM     74  C   UNL     1      10.982 -12.994   4.857  1.00  0.00     0.029 A 
ATOM     75  C   UNL     1      11.228 -11.933   3.997  1.00  0.00     0.049 A 
ATOM     76  H   UNL     1       9.849 -10.617   3.095  1.00  0.00     0.167 HD
ATOM     77  C   UNL     1      12.659 -10.414   2.640  1.00  0.00     0.074 A 
ATOM     78  C   UNL     1      13.946  -9.963   2.148  1.00  0.00     0.031 C 
ATOM     79  C   UNL     1      12.493 -11.454   3.497  1.00  0.00     0.037 A 
BRANCH  66  80
ATOM     80  C   UNL     1       6.610 -12.538   5.097  1.00  0.00     0.064 A 
ATOM     81  C   UNL     1       5.610 -13.334   4.514  1.00  0.00     0.173 A 
ATOM     82  C   UNL     1       6.642 -12.449   6.496  1.00  0.00     0.173 A 
ATOM     83  F   UNL     1       5.513 -13.429   3.179  1.00  0.00    -0.203 F 
ATOM     84  C   UNL     1       4.657 -13.978   5.300  1.00  0.00     0.198 A 
ATOM     85  C   UNL     1       5.711 -13.124   7.280  1.00  0.00     0.198 A 
ATOM     86  F   UNL     1       7.568 -11.693   7.104  1.00  0.00    -0.203 F 
ATOM     87  F   UNL     1       3.668 -14.671   4.719  1.00  0.00    -0.200 F 
ATOM     88  C   UNL     1       4.713 -13.878   6.682  1.00  0.00     0.200 A 
ATOM     89  F   UNL     1       5.771 -13.031   8.615  1.00  0.00    -0.200 F 
ATOM     90  F   UNL     1       3.795 -14.496   7.438  1.00  0.00    -0.200 F 
ENDBRANCH  66  80
BRANCH  67  91
ATOM     91  C   UNL     1      12.759  -6.717  -0.303  1.00  0.00     0.064 A 
ATOM     92  C   UNL     1      13.538  -7.192  -1.368  1.00  0.00     0.173 A 
ATOM     93  C   UNL     1      12.884  -5.359   0.032  1.00  0.00     0.173 A 
ATOM     94  F   UNL     1      13.482  -8.487  -1.712  1.00  0.00    -0.203 F 
ATOM     95  C   UNL     1      14.407  -6.350  -2.061  1.00  0.00     0.198 A 
ATOM     96  C   UNL     1      13.730  -4.511  -0.680  1.00  0.00     0.198 A 
ATOM     97  F   UNL     1      12.171  -4.851   1.048  1.00  0.00    -0.203 F 
ATOM     98  F   UNL     1      15.167  -6.840  -3.050  1.00  0.00    -0.200 F 
ATOM     99  C   UNL     1      14.495  -5.008  -1.724  1.00  0.00     0.200 A 
ATOM    100  F   UNL     1      13.802  -3.212  -0.357  1.00  0.00    -0.200 F 
ATOM    101  F   UNL     1      15.319  -4.195  -2.400  1.00  0.00    -0.200 F 
ENDBRANCH  67  91
BRANCH  79 102
ATOM    102  C   UNL     1      13.726 -12.191   3.935  1.00  0.00     0.064 A 
ATOM    103  C   UNL     1      14.669 -11.609   4.795  1.00  0.00     0.173 A 
ATOM    104  C   UNL     1      13.938 -13.518   3.530  1.00  0.00     0.173 A 
ATOM    105  F   UNL     1      14.518 -10.341   5.206  1.00  0.00    -0.203 F 
ATOM    106  C   UNL     1      15.796 -12.317   5.205  1.00  0.00     0.198 A 
ATOM    107  C   UNL     1      15.045 -14.236   3.973  1.00  0.00     0.198 A 
ATOM    108  F   UNL     1      13.059 -14.127   2.720  1.00  0.00    -0.203 F 
ATOM    109  F   UNL     1      16.713 -11.722   5.980  1.00  0.00    -0.200 F 
ATOM    110  C   UNL     1      15.979 -13.631   4.800  1.00  0.00     0.200 A 
ATOM    111  F   UNL     1      15.207 -15.513   3.600  1.00  0.00    -0.200 F 
ATOM    112  F   UNL     1      17.059 -14.314   5.204  1.00  0.00    -0.200 F 
ENDBRANCH  79 102
ENDBRANCH  53  54
ENDBRANCH  46  48
ENDBRANCH  45  46
ENDBRANCH  44  45
ENDBRANCH  43  44
ENDBRANCH  42  43
ENDBRANCH  41  42
ENDBRANCH  40  41
ENDBRANCH  39  40
ENDBRANCH   1  39
TORSDOF 26
