REMARK SMILES Cc1coc2cc3c(cc12)[C@@H](C)[C@H](CCC(=O)N[C@@H](Cc1c[nH]c2ccccc12)C(=O)OCCOCCOCCOCCOC(=O)c1ccc(-c2c4nc(c(-c5c(F)c(F)c(F)c(F)c5F)c5ccc([nH]5)c(-c5c(F)c(F)c(F)c(F)c5F)c5nc(c(-c6c(F)c(F)c(F)c(F)c6F)c6ccc2[nH]6)C=C5)C=C4)cc1)C(=O)O3
REMARK SMILES IDX 37 1 36 2 35 3 34 4 33 5 32 6 30 7 31 8 19 9 18 10 16 11
REMARK SMILES IDX 17 12 15 14 14 15 13 16 1 17 2 18 3 19 10 20 4 21 5 22 9 23
REMARK SMILES IDX 6 24 8 25 7 26 11 27 112 28 12 29 110 30 111 31 20 32 21 33
REMARK SMILES IDX 22 34 29 35 23 36 24 37 28 38 25 40 27 41 26 42 38 43 39 44
REMARK SMILES IDX 40 45 41 46 42 47 43 48 44 49 45 50 46 51 47 52 48 53 109 54
REMARK SMILES IDX 49 55 108 56 50 57 51 58 52 59 102 60 53 61 107 62 101 63
REMARK SMILES IDX 103 64 54 65 106 66 100 67 99 68 55 70 87 71 67 72 86 73
REMARK SMILES IDX 68 74 71 75 85 76 104 77 69 78 70 79 84 81 105 82 72 83
REMARK SMILES IDX 56 84 57 85 65 86 58 87 59 88 63 89 66 90 60 91 61 92 64 93
REMARK SMILES IDX 62 94 88 95 89 96 97 97 90 98 91 99 95 100 98 101 92 102
REMARK SMILES IDX 93 103 96 104 94 105 73 106 74 107 82 108 75 109 76 110
REMARK SMILES IDX 80 111 83 112 77 113 78 114 81 115 79 116
REMARK H PARENT 18 13 23 39 103 69 71 80
REMARK Flexibility Score: inf
ROOT
ATOM      1  C   UNL     1      -0.028  -4.900   7.562  1.00  0.00     0.188 C 
ENDROOT
BRANCH   1   2
ATOM      2  C   UNL     1       0.902  -6.062   7.211  1.00  0.00     0.188 C 
BRANCH   2   3
ATOM      3  O   UNL     1       2.231  -5.981   7.730  1.00  0.00    -0.376 OA
BRANCH   3   4
ATOM      4  C   UNL     1       2.973  -4.813   7.411  1.00  0.00     0.202 C 
BRANCH   4   5
ATOM      5  C   UNL     1       3.532  -4.641   5.992  1.00  0.00     0.261 C 
BRANCH   5   6
ATOM      6  O   UNL     1       2.571  -4.537   4.926  1.00  0.00    -0.462 OA
BRANCH   6   7
ATOM      7  C   UNL     1       2.399  -5.666   4.191  1.00  0.00     0.329 C 
ATOM      8  O   UNL     1       2.816  -6.778   4.513  1.00  0.00    -0.250 OA
BRANCH   7   9
ATOM      9  C   UNL     1       1.642  -5.446   2.722  1.00  0.00     0.196 C 
BRANCH   9  10
ATOM     10  N   UNL     1      -0.334  -5.286   2.267  1.00  0.00    -0.342 N 
ATOM     11  C   UNL     1      -1.653  -5.707   1.974  1.00  0.00     0.220 C 
ATOM     12  O   UNL     1      -2.504  -4.822   1.885  1.00  0.00    -0.275 OA
ATOM     13  H   UNL     1      -0.437  -4.308   2.224  1.00  0.00     0.164 HD
BRANCH  11  14
ATOM     14  C   UNL     1      -2.051  -7.148   1.901  1.00  0.00     0.101 C 
BRANCH  14  15
ATOM     15  C   UNL     1      -0.870  -7.914   1.412  1.00  0.00     0.026 C 
BRANCH  15  16
ATOM     16  C   UNL     1       0.338  -7.133   1.902  1.00  0.00     0.107 C 
ATOM     17  C   UNL     1       1.061   0.194  -0.978  1.00  0.00     0.048 C 
ATOM     18  C   UNL     1       0.635  -0.199   0.385  1.00  0.00    -0.005 A 
ATOM     19  C   UNL     1       0.201   0.656   1.374  1.00  0.00     0.199 A 
ATOM     20  C   UNL     1       0.617  -1.524   0.949  1.00  0.00     0.024 A 
ATOM     21  O   UNL     1      -0.001  -0.006   2.531  1.00  0.00    -0.464 OA
ATOM     22  C   UNL     1       0.291  -1.323   2.315  1.00  0.00     0.137 A 
ATOM     23  C   UNL     1       0.851  -2.821   0.364  1.00  0.00     0.020 A 
ATOM     24  C   UNL     1       0.247  -2.245   3.367  1.00  0.00     0.095 A 
ATOM     25  C   UNL     1       0.832  -3.882   1.246  1.00  0.00    -0.001 A 
ATOM     26  C   UNL     1       0.625  -3.470   2.892  1.00  0.00     0.138 A 
ATOM     27  C   UNL     1       0.710  -5.686   0.608  1.00  0.00     0.034 C 
ATOM     28  O   UNL     1       0.164  -4.822   4.010  1.00  0.00    -0.426 OA
ATOM     29  C   UNL     1       1.694  -6.200  -0.452  1.00  0.00     0.014 C 
ATOM     30  C   UNL     1       0.006  -6.578   3.757  1.00  0.00     0.314 C 
ATOM     31  O   UNL     1      -0.409  -7.301   4.668  1.00  0.00    -0.251 OA
ENDBRANCH  15  16
ENDBRANCH  14  15
ENDBRANCH  11  14
ENDBRANCH   9  10
BRANCH   9  32
ATOM     32  C   UNL     1       3.052  -4.826   1.949  1.00  0.00     0.074 C 
BRANCH  32  33
ATOM     33  C   UNL     1       3.804  -3.526   2.138  1.00  0.00    -0.020 A 
ATOM     34  C   UNL     1       3.591  -2.380   2.871  1.00  0.00     0.087 A 
ATOM     35  C   UNL     1       5.038  -3.285   1.414  1.00  0.00     0.003 A 
ATOM     36  N   UNL     1       4.483  -1.417   2.462  1.00  0.00    -0.361 N 
ATOM     37  C   UNL     1       5.391  -1.951   1.582  1.00  0.00     0.046 A 
ATOM     38  C   UNL     1       5.861  -4.095   0.599  1.00  0.00     0.010 A 
ATOM     39  H   UNL     1       4.473  -0.478   2.759  1.00  0.00     0.166 HD
ATOM     40  C   UNL     1       6.481  -1.367   0.925  1.00  0.00     0.026 A 
ATOM     41  C   UNL     1       6.992  -3.545  -0.014  1.00  0.00     0.001 A 
ATOM     42  C   UNL     1       7.286  -2.194   0.135  1.00  0.00     0.002 A 
ENDBRANCH  32  33
ENDBRANCH   9  32
ENDBRANCH   7   9
ENDBRANCH   6   7
ENDBRANCH   5   6
ENDBRANCH   4   5
ENDBRANCH   3   4
ENDBRANCH   2   3
ENDBRANCH   1   2
BRANCH   1  43
ATOM     43  O   UNL     1       0.216  -3.789   6.702  1.00  0.00    -0.377 OA
BRANCH  43  44
ATOM     44  C   UNL     1       0.216  -2.499   7.298  1.00  0.00     0.188 C 
BRANCH  44  45
ATOM     45  C   UNL     1      -0.805  -2.223   8.404  1.00  0.00     0.188 C 
BRANCH  45  46
ATOM     46  O   UNL     1      -2.153  -2.574   8.116  1.00  0.00    -0.376 OA
BRANCH  46  47
ATOM     47  C   UNL     1      -2.699  -2.112   6.877  1.00  0.00     0.202 C 
BRANCH  47  48
ATOM     48  C   UNL     1      -2.879  -0.590   6.774  1.00  0.00     0.261 C 
BRANCH  48  49
ATOM     49  O   UNL     1      -1.611   0.017   6.477  1.00  0.00    -0.460 OA
BRANCH  49  50
ATOM     50  C   UNL     1      -1.256   1.089   7.225  1.00  0.00     0.338 C 
ATOM     51  O   UNL     1      -1.966   1.779   7.932  1.00  0.00    -0.246 OA
BRANCH  50  52
ATOM     52  C   UNL     1       0.217   1.037   7.308  1.00  0.00     0.060 A 
ATOM     53  C   UNL     1       0.997   0.800   6.172  1.00  0.00     0.016 A 
ATOM     54  C   UNL     1       0.779   0.990   8.591  1.00  0.00     0.016 A 
ATOM     55  C   UNL     1       2.335   0.460   6.331  1.00  0.00     0.010 A 
ATOM     56  C   UNL     1       2.110   0.622   8.749  1.00  0.00     0.010 A 
ATOM     57  C   UNL     1       2.885   0.349   7.619  1.00  0.00    -0.014 A 
BRANCH  57  58
ATOM     58  C   UNL     1       4.330   0.145   7.723  1.00  0.00     0.031 A 
ATOM     59  C   UNL     1       5.141   1.351   7.417  1.00  0.00     0.074 A 
ATOM     60  C   UNL     1       4.947  -0.941   8.229  1.00  0.00     0.049 A 
ATOM     61  N   UNL     1       6.067   1.501   6.526  1.00  0.00    -0.248 NA
ATOM     62  C   UNL     1       4.836   2.563   8.194  1.00  0.00     0.031 C 
ATOM     63  C   UNL     1       4.324  -2.047   8.945  1.00  0.00     0.029 A 
ATOM     64  N   UNL     1       6.285  -1.237   8.283  1.00  0.00    -0.354 N 
ATOM     65  C   UNL     1       6.579   2.775   6.744  1.00  0.00     0.074 A 
ATOM     66  C   UNL     1       5.716   3.427   7.696  1.00  0.00     0.031 C 
ATOM     67  C   UNL     1       5.285  -2.834   9.475  1.00  0.00     0.029 A 
ATOM     68  C   UNL     1       6.592  -2.328   9.083  1.00  0.00     0.049 A 
ATOM     69  H   UNL     1       6.968  -0.721   7.797  1.00  0.00     0.167 HD
ATOM     70  C   UNL     1       7.807   3.154   6.310  1.00  0.00     0.037 A 
ATOM     71  C   UNL     1       7.818  -2.773   9.454  1.00  0.00     0.037 A 
ATOM     72  C   UNL     1       8.320   2.319   5.266  1.00  0.00     0.049 A 
ATOM     73  C   UNL     1       8.837  -2.162   8.573  1.00  0.00     0.074 A 
ATOM     74  C   UNL     1       7.934   2.017   3.975  1.00  0.00     0.029 A 
ATOM     75  N   UNL     1       9.272   1.396   5.607  1.00  0.00    -0.354 N 
ATOM     76  N   UNL     1       9.041  -2.492   7.331  1.00  0.00    -0.248 NA
ATOM     77  C   UNL     1       9.507  -0.944   9.009  1.00  0.00     0.031 C 
ATOM     78  C   UNL     1       8.404   0.693   3.732  1.00  0.00     0.029 A 
ATOM     79  C   UNL     1       9.035   0.250   4.891  1.00  0.00     0.049 A 
ATOM     80  H   UNL     1      10.001   1.532   6.255  1.00  0.00     0.167 HD
ATOM     81  C   UNL     1       9.514  -1.336   6.735  1.00  0.00     0.074 A 
ATOM     82  C   UNL     1       9.935  -0.483   7.832  1.00  0.00     0.031 C 
ATOM     83  C   UNL     1       9.237  -1.073   5.427  1.00  0.00     0.037 A 
BRANCH  70  84
ATOM     84  C   UNL     1       8.664   4.100   7.099  1.00  0.00     0.064 A 
ATOM     85  C   UNL     1       9.688   4.830   6.478  1.00  0.00     0.173 A 
ATOM     86  C   UNL     1       8.649   4.125   8.512  1.00  0.00     0.173 A 
ATOM     87  F   UNL     1       9.826   4.804   5.145  1.00  0.00    -0.203 F 
ATOM     88  C   UNL     1      10.627   5.548   7.225  1.00  0.00     0.198 A 
ATOM     89  C   UNL     1       9.551   4.885   9.251  1.00  0.00     0.198 A 
ATOM     90  F   UNL     1       7.818   3.342   9.215  1.00  0.00    -0.203 F 
ATOM     91  F   UNL     1      11.638   6.169   6.602  1.00  0.00    -0.200 F 
ATOM     92  C   UNL     1      10.550   5.585   8.608  1.00  0.00     0.200 A 
ATOM     93  F   UNL     1       9.478   4.882  10.590  1.00  0.00    -0.200 F 
ATOM     94  F   UNL     1      11.464   6.255   9.323  1.00  0.00    -0.200 F 
ENDBRANCH  70  84
BRANCH  71  95
ATOM     95  C   UNL     1       8.199  -3.608  10.619  1.00  0.00     0.064 A 
ATOM     96  C   UNL     1       9.402  -4.334  10.645  1.00  0.00     0.173 A 
ATOM     97  C   UNL     1       7.488  -3.541  11.832  1.00  0.00     0.173 A 
ATOM     98  F   UNL     1      10.174  -4.407   9.550  1.00  0.00    -0.203 F 
ATOM     99  C   UNL     1       9.864  -4.950  11.813  1.00  0.00     0.198 A 
ATOM    100  C   UNL     1       7.937  -4.174  12.991  1.00  0.00     0.198 A 
ATOM    101  F   UNL     1       6.386  -2.786  11.942  1.00  0.00    -0.203 F 
ATOM    102  F   UNL     1      11.047  -5.582  11.813  1.00  0.00    -0.200 F 
ATOM    103  C   UNL     1       9.131  -4.869  12.985  1.00  0.00     0.200 A 
ATOM    104  F   UNL     1       7.232  -4.059  14.125  1.00  0.00    -0.200 F 
ATOM    105  F   UNL     1       9.593  -5.421  14.115  1.00  0.00    -0.200 F 
ENDBRANCH  71  95
BRANCH  83 106
ATOM    106  C   UNL     1       8.874  -2.258   4.586  1.00  0.00     0.064 A 
ATOM    107  C   UNL     1       7.710  -3.023   4.774  1.00  0.00     0.173 A 
ATOM    108  C   UNL     1       9.754  -2.647   3.569  1.00  0.00     0.173 A 
ATOM    109  F   UNL     1       6.782  -2.651   5.670  1.00  0.00    -0.203 F 
ATOM    110  C   UNL     1       7.495  -4.188   4.042  1.00  0.00     0.198 A 
ATOM    111  C   UNL     1       9.517  -3.791   2.814  1.00  0.00     0.198 A 
ATOM    112  F   UNL     1      10.850  -1.915   3.311  1.00  0.00    -0.203 F 
ATOM    113  F   UNL     1       6.411  -4.942   4.282  1.00  0.00    -0.200 F 
ATOM    114  C   UNL     1       8.405  -4.577   3.072  1.00  0.00     0.200 A 
ATOM    115  F   UNL     1      10.374  -4.137   1.843  1.00  0.00    -0.200 F 
ATOM    116  F   UNL     1       8.206  -5.704   2.373  1.00  0.00    -0.200 F 
ENDBRANCH  83 106
ENDBRANCH  57  58
ENDBRANCH  50  52
ENDBRANCH  49  50
ENDBRANCH  48  49
ENDBRANCH  47  48
ENDBRANCH  46  47
ENDBRANCH  45  46
ENDBRANCH  44  45
ENDBRANCH  43  44
ENDBRANCH   1  43
TORSDOF 26
