REMARK SMILES O=C(OCCOCCOCCOCCOC(=O)[C@H](c1c[nH]c2cc(F)ccc12)[NH+]1CCN(c2ccccc2)CC1)c1ccc(-c2c3nc(c(-c4c(F)c(F)c(F)c(F)c4F)c4ccc([nH]4)c(-c4c(F)c(F)c(F)c(F)c4F)c4nc(c(-c5c(F)c(F)c(F)c(F)c5F)c5ccc2[nH]5)C=C4)C=C3)cc1
REMARK SMILES IDX 9 1 8 2 7 3 6 4 5 5 4 6 3 7 2 8 1 9 41 10 42 11 103 12 43 13
REMARK SMILES IDX 102 14 44 15 45 16 46 17 96 18 47 19 101 20 95 21 97 22
REMARK SMILES IDX 48 23 100 24 94 25 93 26 49 28 81 29 61 30 80 31 62 32 65 33
REMARK SMILES IDX 79 34 98 35 63 36 64 37 78 39 99 40 66 41 50 42 51 43 59 44
REMARK SMILES IDX 52 45 53 46 57 47 60 48 54 49 55 50 58 51 56 52 82 53 83 54
REMARK SMILES IDX 91 55 84 56 85 57 89 58 92 59 86 60 87 61 90 62 88 63 67 64
REMARK SMILES IDX 68 65 76 66 69 67 70 68 74 69 77 70 71 71 72 72 75 73 73 74
REMARK SMILES IDX 10 75 11 76 12 77 13 78 14 79 15 80 16 81 17 82 18 83 29 84
REMARK SMILES IDX 30 85 40 86 31 88 39 89 32 90 33 91 34 92 38 93 35 94 37 95
REMARK SMILES IDX 36 96 19 97 20 98 28 99 21 100 22 101 27 102 23 104 26 105
REMARK SMILES IDX 24 106 25 107
REMARK H PARENT 97 27 65 38 29 87 21 103
REMARK Flexibility Score: inf
ROOT
ATOM      1  O   UNL     1       6.914  -2.473  -3.726  1.00  0.00    -0.377 OA
ENDROOT
BRANCH   1   2
ATOM      2  C   UNL     1       7.634  -3.162  -2.703  1.00  0.00     0.188 C 
BRANCH   2   3
ATOM      3  C   UNL     1       8.362  -2.240  -1.727  1.00  0.00     0.188 C 
BRANCH   3   4
ATOM      4  O   UNL     1       7.393  -1.540  -0.945  1.00  0.00    -0.376 OA
BRANCH   4   5
ATOM      5  C   UNL     1       7.676  -0.168  -0.688  1.00  0.00     0.202 C 
BRANCH   5   6
ATOM      6  C   UNL     1       8.414   0.038   0.627  1.00  0.00     0.261 C 
BRANCH   6   7
ATOM      7  O   UNL     1       9.217  -1.095   0.986  1.00  0.00    -0.460 OA
BRANCH   7   8
ATOM      8  C   UNL     1       8.808  -2.279   1.506  1.00  0.00     0.338 C 
ATOM      9  O   UNL     1       9.629  -3.198   1.568  1.00  0.00    -0.246 OA
BRANCH   8  10
ATOM     10  C   UNL     1       7.458  -2.530   2.103  1.00  0.00     0.060 A 
ATOM     11  C   UNL     1       6.245  -1.974   1.685  1.00  0.00     0.016 A 
ATOM     12  C   UNL     1       7.420  -3.466   3.152  1.00  0.00     0.016 A 
ATOM     13  C   UNL     1       5.048  -2.270   2.326  1.00  0.00     0.010 A 
ATOM     14  C   UNL     1       6.224  -3.772   3.807  1.00  0.00     0.010 A 
ATOM     15  C   UNL     1       5.045  -3.127   3.422  1.00  0.00    -0.014 A 
BRANCH  15  16
ATOM     16  C   UNL     1       3.876  -3.080   4.318  1.00  0.00     0.031 A 
ATOM     17  C   UNL     1       3.993  -2.209   5.535  1.00  0.00     0.074 A 
ATOM     18  C   UNL     1       2.715  -3.653   3.966  1.00  0.00     0.049 A 
ATOM     19  N   UNL     1       3.152  -2.021   6.514  1.00  0.00    -0.248 NA
ATOM     20  C   UNL     1       5.236  -1.425   5.653  1.00  0.00     0.031 C 
ATOM     21  C   UNL     1       2.476  -4.372   2.714  1.00  0.00     0.029 A 
ATOM     22  N   UNL     1       1.509  -3.686   4.610  1.00  0.00    -0.354 N 
ATOM     23  C   UNL     1       3.785  -1.139   7.382  1.00  0.00     0.074 A 
ATOM     24  C   UNL     1       5.073  -0.821   6.816  1.00  0.00     0.031 C 
ATOM     25  C   UNL     1       1.188  -4.755   2.672  1.00  0.00     0.029 A 
ATOM     26  C   UNL     1       0.539  -4.370   3.921  1.00  0.00     0.049 A 
ATOM     27  H   UNL     1       1.352  -3.260   5.484  1.00  0.00     0.167 HD
ATOM     28  C   UNL     1       3.325  -0.654   8.557  1.00  0.00     0.037 A 
ATOM     29  C   UNL     1      -0.720  -4.668   4.292  1.00  0.00     0.037 A 
ATOM     30  C   UNL     1       2.030  -0.986   9.079  1.00  0.00     0.049 A 
ATOM     31  C   UNL     1      -1.180  -4.198   5.648  1.00  0.00     0.074 A 
ATOM     32  C   UNL     1       1.460  -0.636  10.287  1.00  0.00     0.029 A 
ATOM     33  N   UNL     1       1.095  -1.758   8.397  1.00  0.00    -0.354 N 
ATOM     34  N   UNL     1      -0.547  -3.450   6.523  1.00  0.00    -0.248 NA
ATOM     35  C   UNL     1      -2.515  -4.627   6.079  1.00  0.00     0.031 C 
ATOM     36  C   UNL     1       0.196  -1.234  10.354  1.00  0.00     0.029 A 
ATOM     37  C   UNL     1      -0.044  -1.909   9.164  1.00  0.00     0.049 A 
ATOM     38  H   UNL     1       1.226  -2.141   7.500  1.00  0.00     0.167 HD
ATOM     39  C   UNL     1      -1.411  -3.300   7.598  1.00  0.00     0.074 A 
ATOM     40  C   UNL     1      -2.620  -4.025   7.255  1.00  0.00     0.031 C 
ATOM     41  C   UNL     1      -1.229  -2.630   8.764  1.00  0.00     0.037 A 
BRANCH  28  42
ATOM     42  C   UNL     1       4.277   0.181   9.364  1.00  0.00     0.064 A 
ATOM     43  C   UNL     1       4.669   1.469   8.967  1.00  0.00     0.173 A 
ATOM     44  C   UNL     1       4.878  -0.360  10.511  1.00  0.00     0.173 A 
ATOM     45  F   UNL     1       4.155   2.020   7.857  1.00  0.00    -0.203 F 
ATOM     46  C   UNL     1       5.659   2.163   9.662  1.00  0.00     0.198 A 
ATOM     47  C   UNL     1       5.844   0.348  11.220  1.00  0.00     0.198 A 
ATOM     48  F   UNL     1       4.549  -1.592  10.929  1.00  0.00    -0.203 F 
ATOM     49  F   UNL     1       6.077   3.357   9.216  1.00  0.00    -0.200 F 
ATOM     50  C   UNL     1       6.245   1.603  10.787  1.00  0.00     0.200 A 
ATOM     51  F   UNL     1       6.409  -0.196  12.307  1.00  0.00    -0.200 F 
ATOM     52  F   UNL     1       7.212   2.262  11.441  1.00  0.00    -0.200 F 
ENDBRANCH  28  42
BRANCH  29  53
ATOM     53  C   UNL     1      -1.599  -5.469   3.397  1.00  0.00     0.064 A 
ATOM     54  C   UNL     1      -2.765  -4.924   2.842  1.00  0.00     0.173 A 
ATOM     55  C   UNL     1      -1.290  -6.800   3.072  1.00  0.00     0.173 A 
ATOM     56  F   UNL     1      -3.122  -3.665   3.136  1.00  0.00    -0.203 F 
ATOM     57  C   UNL     1      -3.588  -5.678   2.004  1.00  0.00     0.198 A 
ATOM     58  C   UNL     1      -2.096  -7.543   2.212  1.00  0.00     0.198 A 
ATOM     59  F   UNL     1      -0.190  -7.377   3.579  1.00  0.00    -0.203 F 
ATOM     60  F   UNL     1      -4.716  -5.142   1.517  1.00  0.00    -0.200 F 
ATOM     61  C   UNL     1      -3.248  -6.983   1.683  1.00  0.00     0.200 A 
ATOM     62  F   UNL     1      -1.754  -8.799   1.894  1.00  0.00    -0.200 F 
ATOM     63  F   UNL     1      -4.034  -7.704   0.871  1.00  0.00    -0.200 F 
ENDBRANCH  29  53
BRANCH  41  64
ATOM     64  C   UNL     1      -2.382  -2.613   9.720  1.00  0.00     0.064 A 
ATOM     65  C   UNL     1      -2.737  -3.744  10.467  1.00  0.00     0.173 A 
ATOM     66  C   UNL     1      -3.105  -1.428   9.924  1.00  0.00     0.173 A 
ATOM     67  F   UNL     1      -2.082  -4.901  10.293  1.00  0.00    -0.203 F 
ATOM     68  C   UNL     1      -3.794  -3.695  11.370  1.00  0.00     0.198 A 
ATOM     69  C   UNL     1      -4.140  -1.375  10.850  1.00  0.00     0.198 A 
ATOM     70  F   UNL     1      -2.793  -0.318   9.237  1.00  0.00    -0.203 F 
ATOM     71  F   UNL     1      -4.148  -4.799  12.042  1.00  0.00    -0.200 F 
ATOM     72  C   UNL     1      -4.488  -2.510  11.567  1.00  0.00     0.200 A 
ATOM     73  F   UNL     1      -4.799  -0.226  11.051  1.00  0.00    -0.200 F 
ATOM     74  F   UNL     1      -5.499  -2.463  12.445  1.00  0.00    -0.200 F 
ENDBRANCH  41  64
ENDBRANCH  15  16
ENDBRANCH   8  10
ENDBRANCH   7   8
ENDBRANCH   6   7
ENDBRANCH   5   6
ENDBRANCH   4   5
ENDBRANCH   3   4
ENDBRANCH   2   3
ENDBRANCH   1   2
BRANCH   1  75
ATOM     75  C   UNL     1       6.068  -1.416  -3.291  1.00  0.00     0.188 C 
BRANCH  75  76
ATOM     76  C   UNL     1       4.871  -1.731  -2.373  1.00  0.00     0.188 C 
BRANCH  76  77
ATOM     77  O   UNL     1       4.771  -3.090  -1.971  1.00  0.00    -0.376 OA
BRANCH  77  78
ATOM     78  C   UNL     1       3.747  -3.834  -2.623  1.00  0.00     0.202 C 
BRANCH  78  79
ATOM     79  C   UNL     1       4.077  -4.269  -4.057  1.00  0.00     0.261 C 
BRANCH  79  80
ATOM     80  O   UNL     1       4.427  -3.221  -4.981  1.00  0.00    -0.459 OA
BRANCH  80  81
ATOM     81  C   UNL     1       3.526  -2.222  -5.219  1.00  0.00     0.370 C 
ATOM     82  O   UNL     1       2.406  -2.203  -4.726  1.00  0.00    -0.245 OA
BRANCH  81  83
ATOM     83  C   UNL     1       4.164  -1.156  -6.161  1.00  0.00     0.328 C 
BRANCH  83  84
ATOM     84  N   UNL     1       3.829  -1.283  -7.602  1.00  0.00    -0.316 N 
ATOM     85  C   UNL     1       3.875  -2.681  -8.088  1.00  0.00     0.284 C 
ATOM     86  C   UNL     1       2.566  -0.679  -8.042  1.00  0.00     0.284 C 
ATOM     87  H   UNL     1       4.575  -0.730  -8.024  1.00  0.00     0.349 HD
ATOM     88  C   UNL     1       2.636  -3.567  -7.783  1.00  0.00     0.178 C 
ATOM     89  C   UNL     1       1.301  -1.416  -7.590  1.00  0.00     0.178 C 
ATOM     90  N   UNL     1       1.369  -2.843  -7.931  1.00  0.00    -0.360 N 
BRANCH  90  91
ATOM     91  C   UNL     1       0.179  -3.536  -7.728  1.00  0.00     0.037 A 
ATOM     92  C   UNL     1      -0.028  -4.405  -6.649  1.00  0.00     0.026 A 
ATOM     93  C   UNL     1      -0.876  -3.336  -8.627  1.00  0.00     0.026 A 
ATOM     94  C   UNL     1      -1.242  -5.080  -6.496  1.00  0.00     0.002 A 
ATOM     95  C   UNL     1      -2.087  -4.011  -8.482  1.00  0.00     0.002 A 
ATOM     96  C   UNL     1      -2.268  -4.891  -7.419  1.00  0.00     0.000 A 
ENDBRANCH  90  91
ENDBRANCH  83  84
BRANCH  83  97
ATOM     97  C   UNL     1       3.970   0.268  -5.626  1.00  0.00     0.046 A 
ATOM     98  C   UNL     1       2.808   0.803  -5.089  1.00  0.00     0.094 A 
ATOM     99  C   UNL     1       4.973   1.301  -5.487  1.00  0.00     0.009 A 
ATOM    100  N   UNL     1       3.037   2.097  -4.716  1.00  0.00    -0.361 N 
ATOM    101  C   UNL     1       4.353   2.422  -4.923  1.00  0.00     0.049 A 
ATOM    102  C   UNL     1       6.360   1.383  -5.756  1.00  0.00     0.014 A 
ATOM    103  H   UNL     1       2.356   2.708  -4.353  1.00  0.00     0.166 HD
ATOM    104  C   UNL     1       5.031   3.616  -4.646  1.00  0.00     0.065 A 
ATOM    105  C   UNL     1       7.060   2.562  -5.458  1.00  0.00     0.040 A 
ATOM    106  C   UNL     1       6.394   3.654  -4.922  1.00  0.00     0.125 A 
ATOM    107  F   UNL     1       7.080   4.774  -4.652  1.00  0.00    -0.207 F 
ENDBRANCH  83  97
ENDBRANCH  81  83
ENDBRANCH  80  81
ENDBRANCH  79  80
ENDBRANCH  78  79
ENDBRANCH  77  78
ENDBRANCH  76  77
ENDBRANCH  75  76
ENDBRANCH   1  75
TORSDOF 23
