REMARK SMILES CCCCCCNC(=O)Oc1cccc(-c2ccc([C@@H](C)C(=O)OCCOCCOCCOCCOC(=O)c3ccc(-c4c5nc(c(-c6c(F)c(F)c(F)c(F)c6F)c6ccc([nH]6)c(-c6c(F)c(F)c(F)c(F)c6F)c6nc(c(-c7c(F)c(F)c(F)c(F)c7F)c7ccc4[nH]7)C=C6)C=C5)cc3)cc2O)c1
REMARK SMILES IDX 26 1 25 2 24 3 22 4 23 5 20 6 21 7 19 8 16 9 17 10 103 11
REMARK SMILES IDX 18 12 102 13 15 14 11 15 12 16 105 17 13 18 14 19 10 20 8 21
REMARK SMILES IDX 7 22 9 24 6 25 5 26 4 27 3 28 2 29 1 30 104 31 27 33 28 34
REMARK SMILES IDX 29 35 30 36 31 37 32 38 33 39 34 40 35 41 36 42 37 43 38 44
REMARK SMILES IDX 39 45 40 46 101 47 41 48 100 49 42 50 43 51 44 52 94 53
REMARK SMILES IDX 45 54 99 55 93 56 95 57 46 58 98 59 92 60 91 61 47 63 79 64
REMARK SMILES IDX 59 65 78 66 60 67 63 68 77 69 96 70 61 71 62 72 76 74 97 75
REMARK SMILES IDX 64 76 48 77 49 78 57 79 50 80 51 81 55 82 58 83 52 84 53 85
REMARK SMILES IDX 56 86 54 87 80 88 81 89 89 90 82 91 83 92 87 93 90 94 84 95
REMARK SMILES IDX 85 96 88 97 86 98 65 99 66 100 74 101 67 102 68 103 72 104
REMARK SMILES IDX 75 105 69 106 70 107 73 108 71 109
REMARK H PARENT 7 23 104 32 95 62 63 73
REMARK Flexibility Score: inf
ROOT
ATOM      1  C   UNL     1      -0.681 -14.174  -6.301  1.00  0.00     0.202 C 
ENDROOT
BRANCH   1   2
ATOM      2  C   UNL     1      -2.138 -14.561  -6.622  1.00  0.00     0.261 C 
BRANCH   2   3
ATOM      3  O   UNL     1      -3.177 -13.697  -6.114  1.00  0.00    -0.463 OA
BRANCH   3   4
ATOM      4  C   UNL     1      -3.894 -14.176  -5.072  1.00  0.00     0.313 C 
ATOM      5  O   UNL     1      -3.714 -15.293  -4.587  1.00  0.00    -0.252 OA
BRANCH   4   6
ATOM      6  C   UNL     1      -4.992 -13.261  -4.531  1.00  0.00     0.126 C 
ATOM      7  C   UNL     1      -6.343 -13.861  -4.902  1.00  0.00     0.025 C 
BRANCH   6   8
ATOM      8  C   UNL     1      -4.971 -11.752  -4.780  1.00  0.00    -0.030 A 
ATOM      9  C   UNL     1      -4.931  -8.891  -5.102  1.00  0.00     0.024 A 
ATOM     10  C   UNL     1      -4.962  -9.767  -6.205  1.00  0.00     0.013 A 
ATOM     11  C   UNL     1      -4.917  -9.486  -3.832  1.00  0.00     0.123 A 
ATOM     12  C   UNL     1      -4.986 -11.169  -6.052  1.00  0.00     0.005 A 
ATOM     13  C   UNL     1      -4.945 -10.879  -3.673  1.00  0.00     0.051 A 
BRANCH   9  14
ATOM     14  C   UNL     1      -4.978  -7.424  -5.307  1.00  0.00    -0.011 A 
ATOM     15  C   UNL     1      -4.112  -5.173  -4.964  1.00  0.00     0.133 A 
ATOM     16  C   UNL     1      -5.217  -4.618  -5.605  1.00  0.00     0.047 A 
ATOM     17  C   UNL     1      -3.983  -6.559  -4.811  1.00  0.00     0.056 A 
ATOM     18  C   UNL     1      -6.198  -5.459  -6.119  1.00  0.00     0.004 A 
ATOM     19  C   UNL     1      -6.080  -6.845  -5.967  1.00  0.00     0.009 A 
BRANCH  15  20
ATOM     20  O   UNL     1      -3.223  -4.269  -4.353  1.00  0.00    -0.410 OA
BRANCH  20  21
ATOM     21  C   UNL     1      -1.877  -4.344  -4.680  1.00  0.00     0.412 C 
ATOM     22  N   UNL     1      -1.105  -3.421  -4.026  1.00  0.00    -0.321 N 
ATOM     23  H   UNL     1      -0.136  -3.469  -4.191  1.00  0.00     0.167 HD
ATOM     24  O   UNL     1      -1.377  -5.131  -5.475  1.00  0.00    -0.224 OA
BRANCH  22  25
ATOM     25  C   UNL     1      -1.552  -2.382  -3.117  1.00  0.00     0.119 C 
BRANCH  25  26
ATOM     26  C   UNL     1      -0.940  -2.524  -1.723  1.00  0.00     0.021 C 
BRANCH  26  27
ATOM     27  C   UNL     1       0.589  -2.405  -1.668  1.00  0.00     0.002 C 
BRANCH  27  28
ATOM     28  C   UNL     1       1.171  -1.075  -2.160  1.00  0.00    -0.000 C 
BRANCH  28  29
ATOM     29  C   UNL     1       0.706   0.170  -1.401  1.00  0.00    -0.003 C 
ATOM     30  C   UNL     1       1.112   0.171   0.065  1.00  0.00     0.004 C 
ENDBRANCH  28  29
ENDBRANCH  27  28
ENDBRANCH  26  27
ENDBRANCH  25  26
ENDBRANCH  22  25
ENDBRANCH  20  21
ENDBRANCH  15  20
ENDBRANCH   9  14
BRANCH  11  31
ATOM     31  O   UNL     1      -4.899  -8.764  -2.667  1.00  0.00    -0.507 OA
ATOM     32  H   UNL     1      -4.880  -7.827  -2.696  1.00  0.00     0.293 HD
ENDBRANCH  11  31
ENDBRANCH   6   8
ENDBRANCH   4   6
ENDBRANCH   3   4
ENDBRANCH   2   3
ENDBRANCH   1   2
BRANCH   1  33
ATOM     33  O   UNL     1      -0.269 -13.879  -4.974  1.00  0.00    -0.376 OA
BRANCH  33  34
ATOM     34  C   UNL     1      -0.989 -12.947  -4.178  1.00  0.00     0.188 C 
BRANCH  34  35
ATOM     35  C   UNL     1      -1.577 -11.671  -4.796  1.00  0.00     0.188 C 
BRANCH  35  36
ATOM     36  O   UNL     1      -1.526 -11.611  -6.207  1.00  0.00    -0.377 OA
BRANCH  36  37
ATOM     37  C   UNL     1      -0.512 -10.797  -6.771  1.00  0.00     0.188 C 
BRANCH  37  38
ATOM     38  C   UNL     1       0.868 -10.811  -6.088  1.00  0.00     0.188 C 
BRANCH  38  39
ATOM     39  O   UNL     1       0.830 -10.520  -4.696  1.00  0.00    -0.376 OA
BRANCH  39  40
ATOM     40  C   UNL     1       1.058  -9.181  -4.274  1.00  0.00     0.202 C 
BRANCH  40  41
ATOM     41  C   UNL     1       0.036  -8.106  -4.679  1.00  0.00     0.261 C 
BRANCH  41  42
ATOM     42  O   UNL     1      -0.190  -7.932  -6.085  1.00  0.00    -0.460 OA
BRANCH  42  43
ATOM     43  C   UNL     1       0.855  -7.597  -6.872  1.00  0.00     0.338 C 
ATOM     44  O   UNL     1       1.998  -7.388  -6.533  1.00  0.00    -0.246 OA
BRANCH  43  45
ATOM     45  C   UNL     1       0.406  -7.754  -8.277  1.00  0.00     0.060 A 
ATOM     46  C   UNL     1       1.052  -8.692  -9.094  1.00  0.00     0.016 A 
ATOM     47  C   UNL     1      -0.651  -6.993  -8.779  1.00  0.00     0.016 A 
ATOM     48  C   UNL     1       0.663  -8.850 -10.426  1.00  0.00     0.010 A 
ATOM     49  C   UNL     1      -1.021  -7.131 -10.122  1.00  0.00     0.010 A 
ATOM     50  C   UNL     1      -0.346  -8.039 -10.960  1.00  0.00    -0.014 A 
BRANCH  50  51
ATOM     51  C   UNL     1      -0.560  -7.992 -12.429  1.00  0.00     0.031 A 
ATOM     52  C   UNL     1       0.096  -6.885 -13.208  1.00  0.00     0.074 A 
ATOM     53  C   UNL     1      -1.307  -8.911 -13.066  1.00  0.00     0.049 A 
ATOM     54  N   UNL     1      -0.006  -6.581 -14.477  1.00  0.00    -0.248 NA
ATOM     55  C   UNL     1       0.990  -5.998 -12.446  1.00  0.00     0.031 C 
ATOM     56  C   UNL     1      -1.947 -10.064 -12.439  1.00  0.00     0.029 A 
ATOM     57  N   UNL     1      -1.661  -9.006 -14.391  1.00  0.00    -0.354 N 
ATOM     58  C   UNL     1       0.801  -5.465 -14.662  1.00  0.00     0.074 A 
ATOM     59  C   UNL     1       1.363  -5.128 -13.372  1.00  0.00     0.031 C 
ATOM     60  C   UNL     1      -2.633 -10.742 -13.376  1.00  0.00     0.029 A 
ATOM     61  C   UNL     1      -2.514 -10.049 -14.659  1.00  0.00     0.049 A 
ATOM     62  H   UNL     1      -1.334  -8.386 -15.082  1.00  0.00     0.167 HD
ATOM     63  C   UNL     1       1.054  -4.786 -15.805  1.00  0.00     0.037 A 
ATOM     64  C   UNL     1      -3.148 -10.382 -15.801  1.00  0.00     0.037 A 
ATOM     65  C   UNL     1       0.487  -5.119 -17.086  1.00  0.00     0.049 A 
ATOM     66  C   UNL     1      -2.929  -9.549 -17.041  1.00  0.00     0.074 A 
ATOM     67  C   UNL     1       0.691  -4.498 -18.306  1.00  0.00     0.029 A 
ATOM     68  N   UNL     1      -0.405  -6.157 -17.308  1.00  0.00    -0.354 N 
ATOM     69  N   UNL     1      -2.152  -8.507 -17.216  1.00  0.00    -0.248 NA
ATOM     70  C   UNL     1      -3.680  -9.939 -18.245  1.00  0.00     0.031 C 
ATOM     71  C   UNL     1      -0.129  -5.120 -19.253  1.00  0.00     0.029 A 
ATOM     72  C   UNL     1      -0.788  -6.173 -18.640  1.00  0.00     0.049 A 
ATOM     73  H   UNL     1      -0.720  -6.789 -16.622  1.00  0.00     0.167 HD
ATOM     74  C   UNL     1      -2.293  -8.141 -18.550  1.00  0.00     0.074 A 
ATOM     75  C   UNL     1      -3.222  -9.079 -19.143  1.00  0.00     0.031 C 
ATOM     76  C   UNL     1      -1.705  -7.120 -19.222  1.00  0.00     0.037 A 
BRANCH  63  77
ATOM     77  C   UNL     1       1.956  -3.589 -15.716  1.00  0.00     0.064 A 
ATOM     78  C   UNL     1       3.330  -3.714 -15.463  1.00  0.00     0.173 A 
ATOM     79  C   UNL     1       1.441  -2.299 -15.915  1.00  0.00     0.173 A 
ATOM     80  F   UNL     1       3.871  -4.923 -15.251  1.00  0.00    -0.203 F 
ATOM     81  C   UNL     1       4.149  -2.590 -15.385  1.00  0.00     0.198 A 
ATOM     82  C   UNL     1       2.269  -1.180 -15.869  1.00  0.00     0.198 A 
ATOM     83  F   UNL     1       0.134  -2.122 -16.163  1.00  0.00    -0.203 F 
ATOM     84  F   UNL     1       5.449  -2.730 -15.090  1.00  0.00    -0.200 F 
ATOM     85  C   UNL     1       3.620  -1.326 -15.596  1.00  0.00     0.200 A 
ATOM     86  F   UNL     1       1.757   0.039 -16.088  1.00  0.00    -0.200 F 
ATOM     87  F   UNL     1       4.411  -0.246 -15.528  1.00  0.00    -0.200 F 
ENDBRANCH  63  77
BRANCH  64  88
ATOM     88  C   UNL     1      -4.076 -11.546 -15.829  1.00  0.00     0.064 A 
ATOM     89  C   UNL     1      -3.789 -12.683 -16.596  1.00  0.00     0.173 A 
ATOM     90  C   UNL     1      -5.286 -11.530 -15.118  1.00  0.00     0.173 A 
ATOM     91  F   UNL     1      -2.660 -12.736 -17.319  1.00  0.00    -0.203 F 
ATOM     92  C   UNL     1      -4.683 -13.750 -16.668  1.00  0.00     0.198 A 
ATOM     93  C   UNL     1      -6.164 -12.611 -15.164  1.00  0.00     0.198 A 
ATOM     94  F   UNL     1      -5.615 -10.464 -14.375  1.00  0.00    -0.203 F 
ATOM     95  F   UNL     1      -4.408 -14.800 -17.454  1.00  0.00    -0.200 F 
ATOM     96  C   UNL     1      -5.867 -13.716 -15.947  1.00  0.00     0.200 A 
ATOM     97  F   UNL     1      -7.302 -12.578 -14.457  1.00  0.00    -0.200 F 
ATOM     98  F   UNL     1      -6.726 -14.742 -16.015  1.00  0.00    -0.200 F 
ENDBRANCH  64  88
BRANCH  76  99
ATOM     99  C   UNL     1      -2.006  -6.984 -20.689  1.00  0.00     0.064 A 
ATOM    100  C   UNL     1      -3.261  -6.561 -21.152  1.00  0.00     0.173 A 
ATOM    101  C   UNL     1      -1.004  -7.224 -21.642  1.00  0.00     0.173 A 
ATOM    102  F   UNL     1      -4.258  -6.330 -20.285  1.00  0.00    -0.203 F 
ATOM    103  C   UNL     1      -3.507  -6.407 -22.515  1.00  0.00     0.198 A 
ATOM    104  C   UNL     1      -1.242  -7.035 -23.001  1.00  0.00     0.198 A 
ATOM    105  F   UNL     1       0.218  -7.621 -21.254  1.00  0.00    -0.203 F 
ATOM    106  F   UNL     1      -4.727  -6.047 -22.936  1.00  0.00    -0.200 F 
ATOM    107  C   UNL     1      -2.496  -6.634 -23.436  1.00  0.00     0.200 A 
ATOM    108  F   UNL     1      -0.258  -7.237 -23.887  1.00  0.00    -0.200 F 
ATOM    109  F   UNL     1      -2.731  -6.471 -24.746  1.00  0.00    -0.200 F 
ENDBRANCH  76  99
ENDBRANCH  50  51
ENDBRANCH  43  45
ENDBRANCH  42  43
ENDBRANCH  41  42
ENDBRANCH  40  41
ENDBRANCH  39  40
ENDBRANCH  38  39
ENDBRANCH  37  38
ENDBRANCH  36  37
ENDBRANCH  35  36
ENDBRANCH  34  35
ENDBRANCH  33  34
ENDBRANCH   1  33
TORSDOF 30
