REMARK SMILES Cc1ccc(C)c([C@H]2[NH2+][C@@H](C(=O)OCCOCCOCCOCCOC(=O)c3ccc(-c4c5nc(c(-c6c(F)c(F)c(F)c(F)c6F)c6ccc([nH]6)c(-c6c(F)c(F)c(F)c(F)c6F)c6nc(c(-c7c(F)c(F)c(F)c(F)c7F)c7ccc4[nH]7)C=C6)C=C5)cc3)Cc3c2[nH]c2ccccc32)c1
REMARK SMILES IDX 20 1 19 2 18 3 17 4 16 5 15 6 14 7 13 8 11 9 12 10 10 11
REMARK SMILES IDX 8 12 9 13 93 14 92 17 94 18 91 19 100 20 95 21 99 23 96 24
REMARK SMILES IDX 98 25 97 26 7 27 1 28 2 29 3 30 101 31 4 32 5 33 6 34 21 35
REMARK SMILES IDX 22 36 23 37 24 38 25 39 26 40 27 41 28 42 29 43 90 44 30 45
REMARK SMILES IDX 89 46 31 47 32 48 33 49 83 50 34 51 88 52 82 53 84 54 35 55
REMARK SMILES IDX 87 56 81 57 80 58 36 60 68 61 48 62 67 63 49 64 52 65 66 66
REMARK SMILES IDX 85 67 50 68 51 69 65 71 86 72 53 73 37 74 38 75 46 76 39 77
REMARK SMILES IDX 40 78 44 79 47 80 41 81 42 82 45 83 43 84 69 85 70 86 78 87
REMARK SMILES IDX 71 88 72 89 76 90 79 91 73 92 74 93 77 94 75 95 54 96 55 97
REMARK SMILES IDX 63 98 56 99 57 100 61 101 64 102 58 103 59 104 62 105 60 106
REMARK H PARENT 9 15 9 16 94 22 84 59 52 70
REMARK Flexibility Score: inf
ROOT
ATOM      1  C   UNL     1      -0.060  10.413   1.328  1.00  0.00     0.188 C 
ENDROOT
BRANCH   1   2
ATOM      2  O   UNL     1      -0.028   9.144   1.935  1.00  0.00    -0.377 OA
BRANCH   2   3
ATOM      3  C   UNL     1       0.199   8.146   0.978  1.00  0.00     0.188 C 
BRANCH   3   4
ATOM      4  C   UNL     1      -0.307   8.434  -0.460  1.00  0.00     0.188 C 
BRANCH   4   5
ATOM      5  O   UNL     1      -1.252   9.420  -0.753  1.00  0.00    -0.376 OA
BRANCH   5   6
ATOM      6  C   UNL     1      -2.575   8.923  -0.733  1.00  0.00     0.202 C 
BRANCH   6   7
ATOM      7  C   UNL     1      -2.780   7.413  -0.604  1.00  0.00     0.261 C 
BRANCH   7   8
ATOM      8  O   UNL     1      -1.605   6.526   0.019  1.00  0.00    -0.459 OA
BRANCH   8   9
ATOM      9  C   UNL     1      -0.413   5.861  -0.436  1.00  0.00     0.365 C 
ATOM     10  O   UNL     1       0.234   5.955  -1.475  1.00  0.00    -0.245 OA
BRANCH   9  11
ATOM     11  C   UNL     1       0.231   4.831   0.331  1.00  0.00     0.298 C 
ATOM     12  C   UNL     1      -0.575   2.543  -0.541  1.00  0.00     0.262 C 
ATOM     13  N   UNL     1       0.363   3.661  -0.655  1.00  0.00    -0.323 N 
ATOM     14  C   UNL     1      -0.589   2.552   1.396  1.00  0.00     0.083 A 
ATOM     15  H   UNL     1       0.260   4.045  -1.594  1.00  0.00     0.347 HD
ATOM     16  H   UNL     1       1.270   3.249  -0.435  1.00  0.00     0.347 HD
ATOM     17  C   UNL     1      -0.567   3.721   2.183  1.00  0.00    -0.006 A 
ATOM     18  N   UNL     1      -0.733   1.649   2.527  1.00  0.00    -0.353 N 
ATOM     19  C   UNL     1      -0.382   5.010   1.668  1.00  0.00     0.115 C 
ATOM     20  C   UNL     1      -0.991   3.663   3.512  1.00  0.00     0.003 A 
ATOM     21  C   UNL     1      -0.997   2.323   3.780  1.00  0.00     0.046 A 
ATOM     22  H   UNL     1      -0.659   0.671   2.447  1.00  0.00     0.166 HD
ATOM     23  C   UNL     1      -1.335   4.675   4.461  1.00  0.00     0.010 A 
ATOM     24  C   UNL     1      -1.242   1.965   5.132  1.00  0.00     0.026 A 
ATOM     25  C   UNL     1      -1.603   4.333   5.770  1.00  0.00     0.001 A 
ATOM     26  C   UNL     1      -1.528   2.988   6.102  1.00  0.00     0.002 A 
BRANCH  12  27
ATOM     27  C   UNL     1      -1.996   2.035  -1.911  1.00  0.00     0.019 A 
ATOM     28  C   UNL     1      -6.149   0.096  -1.299  1.00  0.00     0.044 C 
ATOM     29  C   UNL     1      -5.000   0.495  -2.194  1.00  0.00    -0.051 A 
ATOM     30  C   UNL     1      -4.472  -0.472  -3.405  1.00  0.00     0.004 A 
ATOM     31  C   UNL     1      -3.889   1.704  -1.525  1.00  0.00     0.014 A 
ATOM     32  C   UNL     1      -2.784  -0.259  -3.858  1.00  0.00     0.004 A 
ATOM     33  C   UNL     1      -1.595   1.272  -3.055  1.00  0.00    -0.042 A 
ATOM     34  C   UNL     1      -0.116   1.983  -3.429  1.00  0.00     0.045 C 
ENDBRANCH  12  27
ENDBRANCH   9  11
ENDBRANCH   8   9
ENDBRANCH   7   8
ENDBRANCH   6   7
ENDBRANCH   5   6
ENDBRANCH   4   5
ENDBRANCH   3   4
ENDBRANCH   2   3
ENDBRANCH   1   2
BRANCH   1  35
ATOM     35  C   UNL     1       1.036  10.697   0.264  1.00  0.00     0.188 C 
BRANCH  35  36
ATOM     36  O   UNL     1       1.584   9.593  -0.453  1.00  0.00    -0.376 OA
BRANCH  36  37
ATOM     37  C   UNL     1       2.868   9.040  -0.592  1.00  0.00     0.202 C 
BRANCH  37  38
ATOM     38  C   UNL     1       3.670  10.242  -0.746  1.00  0.00     0.261 C 
BRANCH  38  39
ATOM     39  O   UNL     1       3.123  10.955  -1.995  1.00  0.00    -0.460 OA
BRANCH  39  40
ATOM     40  C   UNL     1       1.827  11.067  -2.588  1.00  0.00     0.338 C 
ATOM     41  O   UNL     1       1.379  12.213  -2.692  1.00  0.00    -0.246 OA
BRANCH  40  42
ATOM     42  C   UNL     1       0.897   9.875  -3.163  1.00  0.00     0.060 A 
ATOM     43  C   UNL     1      -0.516   9.879  -3.414  1.00  0.00     0.016 A 
ATOM     44  C   UNL     1       1.393   8.625  -3.396  1.00  0.00     0.016 A 
ATOM     45  C   UNL     1      -1.407   8.619  -3.479  1.00  0.00     0.010 A 
ATOM     46  C   UNL     1       0.525   7.457  -3.277  1.00  0.00     0.010 A 
ATOM     47  C   UNL     1      -0.940   7.341  -3.081  1.00  0.00    -0.014 A 
BRANCH  47  48
ATOM     48  C   UNL     1      -1.759   5.700  -2.681  1.00  0.00     0.031 A 
ATOM     49  C   UNL     1      -1.448   5.431  -4.287  1.00  0.00     0.074 A 
ATOM     50  C   UNL     1      -2.363   4.789  -1.409  1.00  0.00     0.049 A 
ATOM     51  N   UNL     1      -2.215   6.008  -5.200  1.00  0.00    -0.248 NA
ATOM     52  C   UNL     1      -0.041   5.337  -4.928  1.00  0.00     0.031 C 
ATOM     53  C   UNL     1      -2.879   4.625   0.277  1.00  0.00     0.029 A 
ATOM     54  N   UNL     1      -2.844   3.508  -1.165  1.00  0.00    -0.354 N 
ATOM     55  C   UNL     1      -1.562   5.822  -6.426  1.00  0.00     0.074 A 
ATOM     56  C   UNL     1      -0.191   5.946  -6.122  1.00  0.00     0.031 C 
ATOM     57  C   UNL     1      -2.947   3.324   0.927  1.00  0.00     0.029 A 
ATOM     58  C   UNL     1      -2.529   2.150   0.054  1.00  0.00     0.049 A 
ATOM     59  H   UNL     1      -3.539   3.255  -1.814  1.00  0.00     0.167 HD
ATOM     60  C   UNL     1      -2.062   4.905  -7.309  1.00  0.00     0.037 A 
ATOM     61  C   UNL     1      -1.789   0.578  -0.338  1.00  0.00     0.037 A 
ATOM     62  C   UNL     1      -3.361   4.529  -6.817  1.00  0.00     0.049 A 
ATOM     63  C   UNL     1      -1.647  -0.367  -2.090  1.00  0.00     0.074 A 
ATOM     64  C   UNL     1      -4.503   5.255  -6.538  1.00  0.00     0.029 A 
ATOM     65  N   UNL     1      -3.279   3.488  -5.923  1.00  0.00    -0.354 N 
ATOM     66  N   UNL     1      -2.981   0.328  -2.259  1.00  0.00    -0.248 NA
ATOM     67  C   UNL     1      -0.824  -0.199  -3.967  1.00  0.00     0.031 C 
ATOM     68  C   UNL     1      -4.961   4.756  -5.289  1.00  0.00     0.029 A 
ATOM     69  C   UNL     1      -4.254   3.591  -4.995  1.00  0.00     0.049 A 
ATOM     70  H   UNL     1      -2.605   2.771  -5.954  1.00  0.00     0.167 HD
ATOM     71  C   UNL     1      -3.296   1.529  -3.799  1.00  0.00     0.074 A 
ATOM     72  C   UNL     1      -1.757   0.943  -4.933  1.00  0.00     0.031 C 
ATOM     73  C   UNL     1      -4.279   2.674  -3.898  1.00  0.00     0.037 A 
BRANCH  60  74
ATOM     74  C   UNL     1      -1.282   3.915  -8.165  1.00  0.00     0.064 A 
ATOM     75  C   UNL     1      -2.049   3.110  -9.032  1.00  0.00     0.173 A 
ATOM     76  C   UNL     1       0.070   3.519  -8.023  1.00  0.00     0.173 A 
ATOM     77  F   UNL     1      -3.349   3.372  -9.230  1.00  0.00    -0.203 F 
ATOM     78  C   UNL     1      -1.527   1.978  -9.658  1.00  0.00     0.198 A 
ATOM     79  C   UNL     1       0.601   2.415  -8.693  1.00  0.00     0.198 A 
ATOM     80  F   UNL     1       0.926   4.102  -7.179  1.00  0.00    -0.203 F 
ATOM     81  F   UNL     1      -2.334   1.192 -10.382  1.00  0.00    -0.200 F 
ATOM     82  C   UNL     1      -0.200   1.635  -9.496  1.00  0.00     0.200 A 
ATOM     83  F   UNL     1       1.885   2.081  -8.497  1.00  0.00    -0.200 F 
ATOM     84  F   UNL     1       0.299   0.542 -10.085  1.00  0.00    -0.200 F 
ENDBRANCH  60  74
BRANCH  61  85
ATOM     85  C   UNL     1      -0.560  -0.536   0.262  1.00  0.00     0.064 A 
ATOM     86  C   UNL     1      -0.659  -1.943  -0.050  1.00  0.00     0.173 A 
ATOM     87  C   UNL     1       0.832  -0.203   0.452  1.00  0.00     0.173 A 
ATOM     88  F   UNL     1      -1.841  -2.467  -0.407  1.00  0.00    -0.203 F 
ATOM     89  C   UNL     1       0.458  -2.852  -0.138  1.00  0.00     0.198 A 
ATOM     90  C   UNL     1       1.936  -1.095   0.329  1.00  0.00     0.198 A 
ATOM     91  F   UNL     1       1.243   1.035   0.725  1.00  0.00    -0.203 F 
ATOM     92  F   UNL     1       0.268  -4.139  -0.475  1.00  0.00    -0.200 F 
ATOM     93  C   UNL     1       1.755  -2.420   0.039  1.00  0.00     0.200 A 
ATOM     94  F   UNL     1       3.188  -0.617   0.435  1.00  0.00    -0.200 F 
ATOM     95  F   UNL     1       2.807  -3.244  -0.103  1.00  0.00    -0.200 F 
ENDBRANCH  61  85
BRANCH  73  96
ATOM     96  C   UNL     1      -5.598   3.143  -2.945  1.00  0.00     0.064 A 
ATOM     97  C   UNL     1      -5.686   4.004  -1.814  1.00  0.00     0.173 A 
ATOM     98  C   UNL     1      -6.872   2.736  -3.328  1.00  0.00     0.173 A 
ATOM     99  F   UNL     1      -4.808   4.985  -1.600  1.00  0.00    -0.203 F 
ATOM    100  C   UNL     1      -6.685   3.905  -0.833  1.00  0.00     0.198 A 
ATOM    101  C   UNL     1      -7.985   2.828  -2.462  1.00  0.00     0.198 A 
ATOM    102  F   UNL     1      -7.064   2.275  -4.568  1.00  0.00    -0.203 F 
ATOM    103  F   UNL     1      -6.498   4.413   0.399  1.00  0.00    -0.200 F 
ATOM    104  C   UNL     1      -7.848   3.272  -1.157  1.00  0.00     0.200 A 
ATOM    105  F   UNL     1      -9.188   2.428  -2.886  1.00  0.00    -0.200 F 
ATOM    106  F   UNL     1      -8.835   3.145  -0.259  1.00  0.00    -0.200 F 
ENDBRANCH  73  96
ENDBRANCH  47  48
ENDBRANCH  40  42
ENDBRANCH  39  40
ENDBRANCH  38  39
ENDBRANCH  37  38
ENDBRANCH  36  37
ENDBRANCH  35  36
ENDBRANCH   1  35
TORSDOF 21
