REMARK SMILES O=C(CCCc1nc(-c2ccc(Cl)c(Cl)c2)c(-c2ccccc2)o1)OCCOCCOCCOCCOC(=O)c1ccc(-c2c3nc(c(-c4c(F)c(F)c(F)c(F)c4F)c4ccc([nH]4)c(-c4c(F)c(F)c(F)c(F)c4F)c4nc(c(-c5c(F)c(F)c(F)c(F)c5F)c5ccc2[nH]5)C=C4)C=C3)cc1
REMARK SMILES IDX 30 1 29 2 28 3 27 4 26 5 25 6 2 7 1 8 3 9 4 10 5 11 6 12
REMARK SMILES IDX 7 13 24 14 8 15 17 16 9 17 10 18 16 19 11 20 14 21 12 22
REMARK SMILES IDX 15 23 13 24 18 25 19 26 23 27 20 28 22 29 21 30 31 31 32 32
REMARK SMILES IDX 33 33 34 34 35 35 36 36 37 37 38 38 39 39 40 40 41 41 102 42
REMARK SMILES IDX 42 43 101 44 43 45 44 46 45 47 95 48 46 49 100 50 94 51
REMARK SMILES IDX 96 52 47 53 99 54 93 55 92 56 48 58 80 59 60 60 79 61 61 62
REMARK SMILES IDX 64 63 78 64 97 65 62 66 63 67 77 69 98 70 65 71 49 72 50 73
REMARK SMILES IDX 58 74 51 75 52 76 56 77 59 78 53 79 54 80 57 81 55 82 81 83
REMARK SMILES IDX 82 84 90 85 83 86 84 87 88 88 91 89 85 90 86 91 89 92 87 93
REMARK SMILES IDX 66 94 67 95 75 96 68 97 69 98 73 99 76 100 70 101 71 102
REMARK SMILES IDX 74 103 72 104
REMARK H PARENT 96 57 64 68
REMARK Flexibility Score: inf
ROOT
ATOM      1  C   UNL     1       1.590   2.020  -1.729  1.00  0.00     0.188 C 
ENDROOT
BRANCH   1   2
ATOM      2  C   UNL     1       2.133   1.235  -0.535  1.00  0.00     0.188 C 
BRANCH   2   3
ATOM      3  O   UNL     1       3.393   0.581  -0.706  1.00  0.00    -0.376 OA
BRANCH   3   4
ATOM      4  C   UNL     1       3.496  -0.349  -1.777  1.00  0.00     0.202 C 
BRANCH   4   5
ATOM      5  C   UNL     1       3.503  -1.826  -1.364  1.00  0.00     0.261 C 
BRANCH   5   6
ATOM      6  O   UNL     1       3.674  -2.035   0.035  1.00  0.00    -0.463 OA
BRANCH   6   7
ATOM      7  C   UNL     1       2.687  -1.597   0.845  1.00  0.00     0.305 C 
ATOM      8  O   UNL     1       1.493  -1.675   0.585  1.00  0.00    -0.252 OA
BRANCH   7   9
ATOM      9  C   UNL     1       3.268  -0.819   2.014  1.00  0.00     0.123 C 
BRANCH   9  10
ATOM     10  C   UNL     1       4.621  -1.288   2.550  1.00  0.00     0.021 C 
BRANCH  10  11
ATOM     11  C   UNL     1       5.843  -1.330   1.631  1.00  0.00     0.098 C 
BRANCH  11  12
ATOM     12  C   UNL     1       6.560  -0.091   1.214  1.00  0.00     0.195 A 
ATOM     13  N   UNL     1       7.742  -0.107   0.623  1.00  0.00    -0.213 NA
ATOM     14  O   UNL     1       6.048   1.168   1.430  1.00  0.00    -0.440 OA
ATOM     15  C   UNL     1       8.062   1.208   0.483  1.00  0.00     0.117 A 
ATOM     16  C   UNL     1       7.024   2.010   0.920  1.00  0.00     0.162 A 
BRANCH  15  17
ATOM     17  C   UNL     1       9.329   1.663  -0.043  1.00  0.00     0.006 A 
ATOM     18  C   UNL     1       9.722   1.309  -1.337  1.00  0.00     0.012 A 
ATOM     19  C   UNL     1      10.143   2.506   0.725  1.00  0.00     0.032 A 
ATOM     20  C   UNL     1      10.900   1.833  -1.875  1.00  0.00     0.023 A 
ATOM     21  C   UNL     1      11.322   3.029   0.188  1.00  0.00     0.060 A 
ATOM     22  C   UNL     1      11.697   2.699  -1.118  1.00  0.00     0.059 A 
ATOM     23  Cl  UNL     1      12.250   4.093   1.183  1.00  0.00    -0.083 Cl
ATOM     24  Cl  UNL     1      13.121   3.336  -1.859  1.00  0.00    -0.083 Cl
ENDBRANCH  15  17
BRANCH  16  25
ATOM     25  C   UNL     1       6.801   3.456   0.912  1.00  0.00     0.020 A 
ATOM     26  C   UNL     1       6.107   4.111   1.932  1.00  0.00     0.012 A 
ATOM     27  C   UNL     1       7.333   4.237  -0.136  1.00  0.00     0.012 A 
ATOM     28  C   UNL     1       5.979   5.508   1.919  1.00  0.00     0.001 A 
ATOM     29  C   UNL     1       7.204   5.626  -0.151  1.00  0.00     0.001 A 
ATOM     30  C   UNL     1       6.532   6.263   0.884  1.00  0.00     0.000 A 
ENDBRANCH  16  25
ENDBRANCH  11  12
ENDBRANCH  10  11
ENDBRANCH   9  10
ENDBRANCH   7   9
ENDBRANCH   6   7
ENDBRANCH   5   6
ENDBRANCH   4   5
ENDBRANCH   3   4
ENDBRANCH   2   3
ENDBRANCH   1   2
BRANCH   1  31
ATOM     31  O   UNL     1       2.469   2.159  -2.827  1.00  0.00    -0.377 OA
BRANCH  31  32
ATOM     32  C   UNL     1       3.704   2.835  -2.648  1.00  0.00     0.188 C 
BRANCH  32  33
ATOM     33  C   UNL     1       4.085   3.532  -1.335  1.00  0.00     0.188 C 
BRANCH  33  34
ATOM     34  O   UNL     1       2.995   4.167  -0.676  1.00  0.00    -0.376 OA
BRANCH  34  35
ATOM     35  C   UNL     1       3.092   5.580  -0.561  1.00  0.00     0.202 C 
BRANCH  35  36
ATOM     36  C   UNL     1       2.515   6.303  -1.778  1.00  0.00     0.261 C 
BRANCH  36  37
ATOM     37  O   UNL     1       3.105   5.912  -3.029  1.00  0.00    -0.460 OA
BRANCH  37  38
ATOM     38  C   UNL     1       4.380   6.288  -3.275  1.00  0.00     0.338 C 
ATOM     39  O   UNL     1       5.095   6.976  -2.567  1.00  0.00    -0.246 OA
BRANCH  38  40
ATOM     40  C   UNL     1       4.837   5.557  -4.483  1.00  0.00     0.060 A 
ATOM     41  C   UNL     1       6.065   4.880  -4.448  1.00  0.00     0.016 A 
ATOM     42  C   UNL     1       4.012   5.451  -5.609  1.00  0.00     0.016 A 
ATOM     43  C   UNL     1       6.477   4.115  -5.546  1.00  0.00     0.010 A 
ATOM     44  C   UNL     1       4.430   4.697  -6.708  1.00  0.00     0.010 A 
ATOM     45  C   UNL     1       5.676   4.047  -6.696  1.00  0.00    -0.014 A 
BRANCH  45  46
ATOM     46  C   UNL     1       6.212   3.507  -7.973  1.00  0.00     0.031 A 
ATOM     47  C   UNL     1       6.806   4.488  -8.946  1.00  0.00     0.074 A 
ATOM     48  C   UNL     1       6.133   2.204  -8.297  1.00  0.00     0.049 A 
ATOM     49  N   UNL     1       7.207   4.306 -10.178  1.00  0.00    -0.248 NA
ATOM     50  C   UNL     1       6.953   5.870  -8.462  1.00  0.00     0.031 C 
ATOM     51  C   UNL     1       5.612   1.144  -7.440  1.00  0.00     0.029 A 
ATOM     52  N   UNL     1       6.473   1.558  -9.463  1.00  0.00    -0.354 N 
ATOM     53  C   UNL     1       7.637   5.551 -10.618  1.00  0.00     0.074 A 
ATOM     54  C   UNL     1       7.431   6.484  -9.532  1.00  0.00     0.031 C 
ATOM     55  C   UNL     1       5.643  -0.019  -8.117  1.00  0.00     0.029 A 
ATOM     56  C   UNL     1       6.148   0.223  -9.470  1.00  0.00     0.049 A 
ATOM     57  H   UNL     1       6.909   2.010 -10.222  1.00  0.00     0.167 HD
ATOM     58  C   UNL     1       8.158   5.889 -11.820  1.00  0.00     0.037 A 
ATOM     59  C   UNL     1       6.215  -0.685 -10.466  1.00  0.00     0.037 A 
ATOM     60  C   UNL     1       8.361   4.967 -12.903  1.00  0.00     0.049 A 
ATOM     61  C   UNL     1       6.729  -0.268 -11.825  1.00  0.00     0.074 A 
ATOM     62  C   UNL     1       8.914   5.209 -14.148  1.00  0.00     0.029 A 
ATOM     63  N   UNL     1       8.006   3.628 -12.874  1.00  0.00    -0.354 N 
ATOM     64  N   UNL     1       7.171   0.901 -12.223  1.00  0.00    -0.248 NA
ATOM     65  C   UNL     1       6.744  -1.297 -12.877  1.00  0.00     0.031 C 
ATOM     66  C   UNL     1       8.841   4.028 -14.894  1.00  0.00     0.029 A 
ATOM     67  C   UNL     1       8.297   3.037 -14.093  1.00  0.00     0.049 A 
ATOM     68  H   UNL     1       7.606   3.165 -12.103  1.00  0.00     0.167 HD
ATOM     69  C   UNL     1       7.541   0.740 -13.553  1.00  0.00     0.074 A 
ATOM     70  C   UNL     1       7.284  -0.641 -13.895  1.00  0.00     0.031 C 
ATOM     71  C   UNL     1       8.048   1.656 -14.415  1.00  0.00     0.037 A 
BRANCH  58  72
ATOM     72  C   UNL     1       8.511   7.330 -12.038  1.00  0.00     0.064 A 
ATOM     73  C   UNL     1       9.609   7.926 -11.400  1.00  0.00     0.173 A 
ATOM     74  C   UNL     1       7.755   8.118 -12.919  1.00  0.00     0.173 A 
ATOM     75  F   UNL     1      10.352   7.220 -10.534  1.00  0.00    -0.203 F 
ATOM     76  C   UNL     1       9.921   9.265 -11.616  1.00  0.00     0.198 A 
ATOM     77  C   UNL     1       8.088   9.448 -13.156  1.00  0.00     0.198 A 
ATOM     78  F   UNL     1       6.695   7.595 -13.553  1.00  0.00    -0.203 F 
ATOM     79  F   UNL     1      10.944   9.827 -10.959  1.00  0.00    -0.200 F 
ATOM     80  C   UNL     1       9.165  10.022 -12.499  1.00  0.00     0.200 A 
ATOM     81  F   UNL     1       7.362  10.175 -14.017  1.00  0.00    -0.200 F 
ATOM     82  F   UNL     1       9.472  11.309 -12.712  1.00  0.00    -0.200 F 
ENDBRANCH  58  72
BRANCH  59  83
ATOM     83  C   UNL     1       5.754  -2.083 -10.241  1.00  0.00     0.064 A 
ATOM     84  C   UNL     1       6.655  -3.157 -10.267  1.00  0.00     0.173 A 
ATOM     85  C   UNL     1       4.396  -2.380 -10.047  1.00  0.00     0.173 A 
ATOM     86  F   UNL     1       7.959  -2.931 -10.484  1.00  0.00    -0.203 F 
ATOM     87  C   UNL     1       6.215  -4.473 -10.127  1.00  0.00     0.198 A 
ATOM     88  C   UNL     1       3.961  -3.693  -9.878  1.00  0.00     0.198 A 
ATOM     89  F   UNL     1       3.489  -1.392 -10.026  1.00  0.00    -0.203 F 
ATOM     90  F   UNL     1       7.092  -5.483 -10.211  1.00  0.00    -0.200 F 
ATOM     91  C   UNL     1       4.869  -4.739  -9.927  1.00  0.00     0.200 A 
ATOM     92  F   UNL     1       2.660  -3.945  -9.678  1.00  0.00    -0.200 F 
ATOM     93  F   UNL     1       4.447  -6.004  -9.795  1.00  0.00    -0.200 F 
ENDBRANCH  59  83
BRANCH  71  94
ATOM     94  C   UNL     1       8.400   1.196 -15.802  1.00  0.00     0.064 A 
ATOM     95  C   UNL     1       7.413   0.903 -16.754  1.00  0.00     0.173 A 
ATOM     96  C   UNL     1       9.743   1.118 -16.203  1.00  0.00     0.173 A 
ATOM     97  F   UNL     1       6.115   0.950 -16.418  1.00  0.00    -0.203 F 
ATOM     98  C   UNL     1       7.758   0.534 -18.052  1.00  0.00     0.198 A 
ATOM     99  C   UNL     1      10.084   0.778 -17.509  1.00  0.00     0.198 A 
ATOM    100  F   UNL     1      10.726   1.397 -15.333  1.00  0.00    -0.203 F 
ATOM    101  F   UNL     1       6.800   0.224 -18.936  1.00  0.00    -0.200 F 
ATOM    102  C   UNL     1       9.092   0.481 -18.431  1.00  0.00     0.200 A 
ATOM    103  F   UNL     1      11.372   0.744 -17.877  1.00  0.00    -0.200 F 
ATOM    104  F   UNL     1       9.421   0.142 -19.685  1.00  0.00    -0.200 F 
ENDBRANCH  71  94
ENDBRANCH  45  46
ENDBRANCH  38  40
ENDBRANCH  37  38
ENDBRANCH  36  37
ENDBRANCH  35  36
ENDBRANCH  34  35
ENDBRANCH  33  34
ENDBRANCH  32  33
ENDBRANCH  31  32
ENDBRANCH   1  31
TORSDOF 25
