REMARK SMILES CCn1nc(C(=O)OCCOCCOCCOCCOC(=O)c2ccc(-c3c4nc(c(-c5c(F)c(F)c(F)c(F)c5F)c5ccc([nH]5)c(-c5c(F)c(F)c(F)c(F)c5F)c5nc(c(-c6c(F)c(F)c(F)c(F)c6F)c6ccc3[nH]6)C=C5)C=C4)cc2)c2c1CC[C@H]([NH2+]Cc1nn(CC)c3ccccc13)C2
REMARK SMILES IDX 13 1 12 2 11 3 10 4 9 5 8 6 6 7 7 8 5 9 3 10 4 11 87 12
REMARK SMILES IDX 86 13 88 14 104 15 89 16 90 17 2 18 1 19 91 20 92 23 93 24
REMARK SMILES IDX 94 25 103 26 95 27 98 28 102 29 99 30 101 31 100 32 96 33
REMARK SMILES IDX 97 34 14 35 15 36 16 37 17 38 18 39 19 40 20 41 21 42 22 43
REMARK SMILES IDX 23 44 24 45 85 46 25 47 84 48 26 49 27 50 28 51 78 52 29 53
REMARK SMILES IDX 83 54 77 55 79 56 30 57 82 58 76 59 75 60 31 62 63 63 43 64
REMARK SMILES IDX 62 65 44 66 47 67 61 68 80 69 45 70 46 71 60 73 81 74 48 75
REMARK SMILES IDX 32 76 33 77 41 78 34 79 35 80 39 81 42 82 36 83 37 84 40 85
REMARK SMILES IDX 38 86 64 87 65 88 73 89 66 90 67 91 71 92 74 93 68 94 69 95
REMARK SMILES IDX 72 96 70 97 49 98 50 99 58 100 51 101 52 102 56 103 59 104
REMARK SMILES IDX 53 105 54 106 57 107 55 108
REMARK H PARENT 91 21 91 22 79 61 47 72
REMARK Flexibility Score: inf
ROOT
ATOM      1  C   UNL     1       0.219   1.246  -6.537  1.00  0.00     0.188 C 
ENDROOT
BRANCH   1   2
ATOM      2  C   UNL     1       1.275   2.350  -6.744  1.00  0.00     0.188 C 
BRANCH   2   3
ATOM      3  O   UNL     1       2.256   1.994  -7.725  1.00  0.00    -0.376 OA
BRANCH   3   4
ATOM      4  C   UNL     1       3.577   2.477  -7.450  1.00  0.00     0.202 C 
BRANCH   4   5
ATOM      5  C   UNL     1       4.514   1.387  -6.881  1.00  0.00     0.261 C 
BRANCH   5   6
ATOM      6  O   UNL     1       3.823   0.448  -6.034  1.00  0.00    -0.458 OA
BRANCH   6   7
ATOM      7  C   UNL     1       3.619   0.924  -4.770  1.00  0.00     0.359 C 
ATOM      8  O   UNL     1       4.119   1.977  -4.385  1.00  0.00    -0.244 OA
BRANCH   7   9
ATOM      9  C   UNL     1       2.660   0.140  -3.967  1.00  0.00     0.174 A 
ATOM     10  N   UNL     1       1.290  -0.153  -2.346  1.00  0.00    -0.269 N 
ATOM     11  N   UNL     1       2.171   0.716  -2.853  1.00  0.00    -0.165 NA
ATOM     12  C   UNL     1       1.255  -1.327  -3.036  1.00  0.00     0.043 A 
ATOM     13  C   UNL     1       2.057  -1.149  -4.144  1.00  0.00     0.014 A 
ATOM     14  C   UNL     1       0.480  -2.550  -2.707  1.00  0.00     0.062 C 
ATOM     15  C   UNL     1       2.165  -2.180  -5.221  1.00  0.00     0.105 C 
ATOM     16  C   UNL     1       0.991  -3.735  -3.561  1.00  0.00     0.072 C 
ATOM     17  C   UNL     1       1.153  -3.378  -5.073  1.00  0.00     0.187 C 
BRANCH  10  18
ATOM     18  C   UNL     1       0.463   0.303  -1.247  1.00  0.00     0.141 C 
ATOM     19  C   UNL     1       0.957  -0.176   0.102  1.00  0.00     0.029 C 
ENDBRANCH  10  18
BRANCH  17  20
ATOM     20  N   UNL     1       1.563  -4.623  -5.785  1.00  0.00    -0.338 N 
ATOM     21  H   UNL     1       1.168  -5.412  -5.272  1.00  0.00     0.346 HD
ATOM     22  H   UNL     1       2.582  -4.583  -5.810  1.00  0.00     0.346 HD
BRANCH  20  23
ATOM     23  C   UNL     1       1.156  -4.771  -7.211  1.00  0.00     0.320 C 
BRANCH  23  24
ATOM     24  C   UNL     1       1.887  -3.818  -8.110  1.00  0.00     0.124 A 
ATOM     25  N   UNL     1       1.425  -2.559  -8.209  1.00  0.00    -0.171 NA
ATOM     26  C   UNL     1       3.100  -3.945  -8.864  1.00  0.00     0.029 A 
ATOM     27  N   UNL     1       2.501  -1.894  -8.648  1.00  0.00    -0.265 N 
ATOM     28  C   UNL     1       3.605  -2.657  -8.823  1.00  0.00     0.069 A 
ATOM     29  C   UNL     1       3.896  -4.902  -9.512  1.00  0.00     0.012 A 
ATOM     30  C   UNL     1       4.926  -2.292  -9.071  1.00  0.00     0.028 A 
ATOM     31  C   UNL     1       5.133  -4.479 -10.053  1.00  0.00     0.001 A 
ATOM     32  C   UNL     1       5.671  -3.224  -9.764  1.00  0.00     0.002 A 
BRANCH  27  33
ATOM     33  C   UNL     1       2.476  -0.481  -8.852  1.00  0.00     0.141 C 
ATOM     34  C   UNL     1       2.292  -0.023 -10.277  1.00  0.00     0.029 C 
ENDBRANCH  27  33
ENDBRANCH  23  24
ENDBRANCH  20  23
ENDBRANCH  17  20
ENDBRANCH   7   9
ENDBRANCH   6   7
ENDBRANCH   5   6
ENDBRANCH   4   5
ENDBRANCH   3   4
ENDBRANCH   2   3
ENDBRANCH   1   2
BRANCH   1  35
ATOM     35  O   UNL     1      -0.856   1.360  -7.455  1.00  0.00    -0.377 OA
BRANCH  35  36
ATOM     36  C   UNL     1      -0.884   0.501  -8.581  1.00  0.00     0.188 C 
BRANCH  36  37
ATOM     37  C   UNL     1      -0.961   1.272  -9.911  1.00  0.00     0.188 C 
BRANCH  37  38
ATOM     38  O   UNL     1      -1.826   2.394 -10.086  1.00  0.00    -0.376 OA
BRANCH  38  39
ATOM     39  C   UNL     1      -2.401   3.036  -8.955  1.00  0.00     0.202 C 
BRANCH  39  40
ATOM     40  C   UNL     1      -3.650   2.350  -8.382  1.00  0.00     0.261 C 
BRANCH  40  41
ATOM     41  O   UNL     1      -3.724   0.971  -8.707  1.00  0.00    -0.460 OA
BRANCH  41  42
ATOM     42  C   UNL     1      -3.987   0.738 -10.013  1.00  0.00     0.338 C 
ATOM     43  O   UNL     1      -4.357   1.541 -10.849  1.00  0.00    -0.246 OA
BRANCH  42  44
ATOM     44  C   UNL     1      -3.846  -0.705 -10.275  1.00  0.00     0.060 A 
ATOM     45  C   UNL     1      -4.058  -1.075 -11.602  1.00  0.00     0.016 A 
ATOM     46  C   UNL     1      -4.008  -1.598  -9.205  1.00  0.00     0.016 A 
ATOM     47  C   UNL     1      -4.854  -2.167 -11.815  1.00  0.00     0.010 A 
ATOM     48  C   UNL     1      -4.794  -2.696  -9.416  1.00  0.00     0.010 A 
ATOM     49  C   UNL     1      -5.332  -2.843 -10.689  1.00  0.00    -0.014 A 
BRANCH  49  50
ATOM     50  C   UNL     1      -6.550  -3.593 -10.854  1.00  0.00     0.031 A 
ATOM     51  C   UNL     1      -6.334  -4.914 -11.449  1.00  0.00     0.074 A 
ATOM     52  C   UNL     1      -7.732  -3.084 -10.458  1.00  0.00     0.049 A 
ATOM     53  N   UNL     1      -6.676  -5.316 -12.625  1.00  0.00    -0.248 NA
ATOM     54  C   UNL     1      -5.466  -5.838 -10.706  1.00  0.00     0.031 C 
ATOM     55  C   UNL     1      -7.990  -1.893  -9.640  1.00  0.00     0.029 A 
ATOM     56  N   UNL     1      -8.975  -3.598 -10.647  1.00  0.00    -0.354 N 
ATOM     57  C   UNL     1      -6.242  -6.631 -12.689  1.00  0.00     0.074 A 
ATOM     58  C   UNL     1      -5.333  -6.825 -11.589  1.00  0.00     0.031 C 
ATOM     59  C   UNL     1      -9.277  -1.909  -9.223  1.00  0.00     0.029 A 
ATOM     60  C   UNL     1      -9.955  -3.030  -9.848  1.00  0.00     0.049 A 
ATOM     61  H   UNL     1      -9.164  -4.314 -11.296  1.00  0.00     0.167 HD
ATOM     62  C   UNL     1      -6.907  -7.538 -13.448  1.00  0.00     0.037 A 
ATOM     63  C   UNL     1     -11.197  -3.535  -9.655  1.00  0.00     0.037 A 
ATOM     64  C   UNL     1      -7.684  -6.900 -14.480  1.00  0.00     0.049 A 
ATOM     65  C   UNL     1     -11.473  -4.470 -10.781  1.00  0.00     0.074 A 
ATOM     66  C   UNL     1      -7.381  -6.069 -15.542  1.00  0.00     0.029 A 
ATOM     67  N   UNL     1      -9.040  -6.780 -14.292  1.00  0.00    -0.354 N 
ATOM     68  N   UNL     1     -11.630  -4.086 -12.019  1.00  0.00    -0.248 NA
ATOM     69  C   UNL     1     -11.105  -5.869 -10.608  1.00  0.00     0.031 C 
ATOM     70  C   UNL     1      -8.475  -5.157 -15.632  1.00  0.00     0.029 A 
ATOM     71  C   UNL     1      -9.400  -5.504 -14.646  1.00  0.00     0.049 A 
ATOM     72  H   UNL     1      -9.645  -7.483 -13.962  1.00  0.00     0.167 HD
ATOM     73  C   UNL     1     -10.991  -5.057 -12.780  1.00  0.00     0.074 A 
ATOM     74  C   UNL     1     -10.763  -6.170 -11.864  1.00  0.00     0.031 C 
ATOM     75  C   UNL     1     -10.450  -4.754 -13.997  1.00  0.00     0.037 A 
BRANCH  62  76
ATOM     76  C   UNL     1      -7.156  -8.945 -12.977  1.00  0.00     0.064 A 
ATOM     77  C   UNL     1      -7.675  -9.884 -13.883  1.00  0.00     0.173 A 
ATOM     78  C   UNL     1      -7.177  -9.329 -11.616  1.00  0.00     0.173 A 
ATOM     79  F   UNL     1      -7.732  -9.606 -15.194  1.00  0.00    -0.203 F 
ATOM     80  C   UNL     1      -8.233 -11.089 -13.449  1.00  0.00     0.198 A 
ATOM     81  C   UNL     1      -7.675 -10.557 -11.194  1.00  0.00     0.198 A 
ATOM     82  F   UNL     1      -6.829  -8.498 -10.626  1.00  0.00    -0.203 F 
ATOM     83  F   UNL     1      -8.832 -11.898 -14.333  1.00  0.00    -0.200 F 
ATOM     84  C   UNL     1      -8.234 -11.423 -12.106  1.00  0.00     0.200 A 
ATOM     85  F   UNL     1      -7.684 -10.849  -9.886  1.00  0.00    -0.200 F 
ATOM     86  F   UNL     1      -8.820 -12.550 -11.684  1.00  0.00    -0.200 F 
ENDBRANCH  62  76
BRANCH  63  87
ATOM     87  C   UNL     1     -11.964  -3.543  -8.387  1.00  0.00     0.064 A 
ATOM     88  C   UNL     1     -13.345  -3.792  -8.369  1.00  0.00     0.173 A 
ATOM     89  C   UNL     1     -11.311  -3.553  -7.137  1.00  0.00     0.173 A 
ATOM     90  F   UNL     1     -14.032  -3.856  -9.518  1.00  0.00    -0.203 F 
ATOM     91  C   UNL     1     -14.028  -4.040  -7.173  1.00  0.00     0.198 A 
ATOM     92  C   UNL     1     -11.994  -3.792  -5.945  1.00  0.00     0.198 A 
ATOM     93  F   UNL     1      -9.979  -3.425  -7.054  1.00  0.00    -0.203 F 
ATOM     94  F   UNL     1     -15.338  -4.326  -7.197  1.00  0.00    -0.200 F 
ATOM     95  C   UNL     1     -13.352  -4.045  -5.963  1.00  0.00     0.200 A 
ATOM     96  F   UNL     1     -11.318  -3.833  -4.788  1.00  0.00    -0.200 F 
ATOM     97  F   UNL     1     -13.996  -4.333  -4.824  1.00  0.00    -0.200 F 
ENDBRANCH  63  87
BRANCH  75  98
ATOM     98  C   UNL     1     -10.784  -3.410 -14.583  1.00  0.00     0.064 A 
ATOM     99  C   UNL     1     -10.362  -2.193 -14.019  1.00  0.00     0.173 A 
ATOM    100  C   UNL     1     -11.425  -3.356 -15.826  1.00  0.00     0.173 A 
ATOM    101  F   UNL     1      -9.654  -2.172 -12.883  1.00  0.00    -0.203 F 
ATOM    102  C   UNL     1     -10.611  -0.976 -14.652  1.00  0.00     0.198 A 
ATOM    103  C   UNL     1     -11.642  -2.142 -16.474  1.00  0.00     0.198 A 
ATOM    104  F   UNL     1     -11.796  -4.490 -16.440  1.00  0.00    -0.203 F 
ATOM    105  F   UNL     1     -10.208   0.172 -14.087  1.00  0.00    -0.200 F 
ATOM    106  C   UNL     1     -11.245  -0.953 -15.883  1.00  0.00     0.200 A 
ATOM    107  F   UNL     1     -12.212  -2.127 -17.687  1.00  0.00    -0.200 F 
ATOM    108  F   UNL     1     -11.449   0.213 -16.513  1.00  0.00    -0.200 F 
ENDBRANCH  75  98
ENDBRANCH  49  50
ENDBRANCH  42  44
ENDBRANCH  41  42
ENDBRANCH  40  41
ENDBRANCH  39  40
ENDBRANCH  38  39
ENDBRANCH  37  38
ENDBRANCH  36  37
ENDBRANCH  35  36
ENDBRANCH   1  35
TORSDOF 25
