REMARK SMILES O=C(OCCOCCOCCOCCOC(=O)[C@H](c1c[nH]c2cc(F)ccc12)[NH+]1CC[NH+](CC(=O)N2CCOCC2)CC1)c1ccc(-c2c3nc(c(-c4c(F)c(F)c(F)c(F)c4F)c4ccc([nH]4)c(-c4c(F)c(F)c(F)c(F)c4F)c4nc(c(-c5c(F)c(F)c(F)c(F)c5F)c5ccc2[nH]5)C=C4)C=C3)cc1
REMARK SMILES IDX 10 1 9 2 8 3 7 4 6 5 5 6 4 7 3 8 2 9 1 10 44 11 45 12 106 13
REMARK SMILES IDX 46 14 105 15 47 16 48 17 49 18 99 19 50 20 104 21 98 22
REMARK SMILES IDX 100 23 51 24 103 25 97 26 96 27 52 29 84 30 64 31 83 32
REMARK SMILES IDX 65 33 68 34 82 35 101 36 66 37 67 38 81 40 102 41 69 42
REMARK SMILES IDX 53 43 54 44 62 45 55 46 56 47 60 48 63 49 57 50 58 51 61 52
REMARK SMILES IDX 59 53 85 54 86 55 94 56 87 57 88 58 92 59 95 60 89 61 90 62
REMARK SMILES IDX 93 63 91 64 70 65 71 66 79 67 72 68 73 69 77 70 80 71 74 72
REMARK SMILES IDX 75 73 78 74 76 75 11 76 12 77 13 78 14 79 15 80 16 81 17 82
REMARK SMILES IDX 18 83 29 84 30 85 43 86 31 88 42 89 32 90 33 92 34 93 35 94
REMARK SMILES IDX 36 95 37 96 41 97 38 98 40 99 39 100 19 101 20 102 28 103
REMARK SMILES IDX 21 104 22 105 27 106 23 108 26 109 24 110 25 111
REMARK H PARENT 100 28 68 39 29 87 32 91 21 107
REMARK Flexibility Score: inf
ROOT
ATOM      1  C   UNL     1       5.056  -0.546  -3.012  1.00  0.00     0.188 C 
ENDROOT
BRANCH   1   2
ATOM      2  O   UNL     1       5.956  -1.577  -2.644  1.00  0.00    -0.377 OA
BRANCH   2   3
ATOM      3  C   UNL     1       5.577  -2.309  -1.494  1.00  0.00     0.188 C 
BRANCH   3   4
ATOM      4  C   UNL     1       5.322  -1.449  -0.260  1.00  0.00     0.188 C 
BRANCH   4   5
ATOM      5  O   UNL     1       4.239  -0.529  -0.438  1.00  0.00    -0.376 OA
BRANCH   5   6
ATOM      6  C   UNL     1       4.529   0.838  -0.132  1.00  0.00     0.202 C 
BRANCH   6   7
ATOM      7  C   UNL     1       4.309   1.194   1.333  1.00  0.00     0.261 C 
BRANCH   7   8
ATOM      8  O   UNL     1       4.534   0.093   2.222  1.00  0.00    -0.460 OA
BRANCH   8   9
ATOM      9  C   UNL     1       3.809  -1.042   2.360  1.00  0.00     0.338 C 
ATOM     10  O   UNL     1       4.315  -1.962   3.014  1.00  0.00    -0.246 OA
BRANCH   9  11
ATOM     11  C   UNL     1       2.429  -1.270   1.805  1.00  0.00     0.060 A 
ATOM     12  C   UNL     1       1.749  -0.448   0.901  1.00  0.00     0.016 A 
ATOM     13  C   UNL     1       1.759  -2.422   2.264  1.00  0.00     0.016 A 
ATOM     14  C   UNL     1       0.435  -0.692   0.536  1.00  0.00     0.010 A 
ATOM     15  C   UNL     1       0.424  -2.664   1.934  1.00  0.00     0.010 A 
ATOM     16  C   UNL     1      -0.251  -1.747   1.127  1.00  0.00    -0.014 A 
BRANCH  16  17
ATOM     17  C   UNL     1      -1.715  -1.606   1.177  1.00  0.00     0.031 A 
ATOM     18  C   UNL     1      -2.281  -0.948   2.404  1.00  0.00     0.074 A 
ATOM     19  C   UNL     1      -2.453  -1.840   0.082  1.00  0.00     0.049 A 
ATOM     20  N   UNL     1      -3.519  -0.668   2.708  1.00  0.00    -0.248 NA
ATOM     21  C   UNL     1      -1.306  -0.514   3.424  1.00  0.00     0.031 C 
ATOM     22  C   UNL     1      -1.929  -2.302  -1.204  1.00  0.00     0.029 A 
ATOM     23  N   UNL     1      -3.791  -1.675  -0.137  1.00  0.00    -0.354 N 
ATOM     24  C   UNL     1      -3.468  -0.068   3.961  1.00  0.00     0.074 A 
ATOM     25  C   UNL     1      -2.086  -0.013   4.365  1.00  0.00     0.031 C 
ATOM     26  C   UNL     1      -2.940  -2.371  -2.086  1.00  0.00     0.029 A 
ATOM     27  C   UNL     1      -4.183  -2.022  -1.405  1.00  0.00     0.049 A 
ATOM     28  H   UNL     1      -4.414  -1.340   0.549  1.00  0.00     0.167 HD
ATOM     29  C   UNL     1      -4.499   0.385   4.709  1.00  0.00     0.037 A 
ATOM     30  C   UNL     1      -5.423  -2.079  -1.924  1.00  0.00     0.037 A 
ATOM     31  C   UNL     1      -5.862   0.312   4.265  1.00  0.00     0.049 A 
ATOM     32  C   UNL     1      -6.568  -1.682  -1.028  1.00  0.00     0.074 A 
ATOM     33  C   UNL     1      -7.016   0.656   4.938  1.00  0.00     0.029 A 
ATOM     34  N   UNL     1      -6.244  -0.148   3.009  1.00  0.00    -0.354 N 
ATOM     35  N   UNL     1      -6.536  -1.200   0.195  1.00  0.00    -0.248 NA
ATOM     36  C   UNL     1      -7.919  -1.846  -1.573  1.00  0.00     0.031 C 
ATOM     37  C   UNL     1      -8.101   0.348   4.109  1.00  0.00     0.029 A 
ATOM     38  C   UNL     1      -7.620  -0.118   2.893  1.00  0.00     0.049 A 
ATOM     39  H   UNL     1      -5.624  -0.451   2.306  1.00  0.00     0.167 HD
ATOM     40  C   UNL     1      -7.857  -0.976   0.555  1.00  0.00     0.074 A 
ATOM     41  C   UNL     1      -8.662  -1.360  -0.589  1.00  0.00     0.031 C 
ATOM     42  C   UNL     1      -8.367  -0.498   1.719  1.00  0.00     0.037 A 
BRANCH  29  43
ATOM     43  C   UNL     1      -4.180   0.877   6.091  1.00  0.00     0.064 A 
ATOM     44  C   UNL     1      -3.474   2.068   6.324  1.00  0.00     0.173 A 
ATOM     45  C   UNL     1      -4.535   0.101   7.205  1.00  0.00     0.173 A 
ATOM     46  F   UNL     1      -3.076   2.831   5.295  1.00  0.00    -0.203 F 
ATOM     47  C   UNL     1      -3.105   2.442   7.616  1.00  0.00     0.198 A 
ATOM     48  C   UNL     1      -4.192   0.493   8.496  1.00  0.00     0.198 A 
ATOM     49  F   UNL     1      -5.197  -1.054   7.041  1.00  0.00    -0.203 F 
ATOM     50  F   UNL     1      -2.367   3.545   7.808  1.00  0.00    -0.200 F 
ATOM     51  C   UNL     1      -3.467   1.657   8.700  1.00  0.00     0.200 A 
ATOM     52  F   UNL     1      -4.545  -0.267   9.542  1.00  0.00    -0.200 F 
ATOM     53  F   UNL     1      -3.102   2.012   9.940  1.00  0.00    -0.200 F 
ENDBRANCH  29  43
BRANCH  30  54
ATOM     54  C   UNL     1      -5.642  -2.569  -3.312  1.00  0.00     0.064 A 
ATOM     55  C   UNL     1      -6.200  -1.745  -4.299  1.00  0.00     0.173 A 
ATOM     56  C   UNL     1      -5.318  -3.886  -3.677  1.00  0.00     0.173 A 
ATOM     57  F   UNL     1      -6.546  -0.484  -4.002  1.00  0.00    -0.203 F 
ATOM     58  C   UNL     1      -6.446  -2.225  -5.586  1.00  0.00     0.198 A 
ATOM     59  C   UNL     1      -5.532  -4.354  -4.972  1.00  0.00     0.198 A 
ATOM     60  F   UNL     1      -4.784  -4.722  -2.774  1.00  0.00    -0.203 F 
ATOM     61  F   UNL     1      -7.030  -1.431  -6.494  1.00  0.00    -0.200 F 
ATOM     62  C   UNL     1      -6.107  -3.526  -5.923  1.00  0.00     0.200 A 
ATOM     63  F   UNL     1      -5.188  -5.608  -5.294  1.00  0.00    -0.200 F 
ATOM     64  F   UNL     1      -6.343  -3.986  -7.159  1.00  0.00    -0.200 F 
ENDBRANCH  30  54
BRANCH  42  65
ATOM     65  C   UNL     1      -9.853  -0.311   1.776  1.00  0.00     0.064 A 
ATOM     66  C   UNL     1     -10.735  -1.399   1.830  1.00  0.00     0.173 A 
ATOM     67  C   UNL     1     -10.393   0.984   1.822  1.00  0.00     0.173 A 
ATOM     68  F   UNL     1     -10.265  -2.654   1.776  1.00  0.00    -0.203 F 
ATOM     69  C   UNL     1     -12.110  -1.196   1.890  1.00  0.00     0.198 A 
ATOM     70  C   UNL     1     -11.764   1.181   1.923  1.00  0.00     0.198 A 
ATOM     71  F   UNL     1      -9.586   2.055   1.786  1.00  0.00    -0.203 F 
ATOM     72  F   UNL     1     -12.940  -2.247   1.879  1.00  0.00    -0.200 F 
ATOM     73  C   UNL     1     -12.622   0.093   1.945  1.00  0.00     0.200 A 
ATOM     74  F   UNL     1     -12.255   2.426   1.997  1.00  0.00    -0.200 F 
ATOM     75  F   UNL     1     -13.946   0.285   2.013  1.00  0.00    -0.200 F 
ENDBRANCH  42  65
ENDBRANCH  16  17
ENDBRANCH   9  11
ENDBRANCH   8   9
ENDBRANCH   7   8
ENDBRANCH   6   7
ENDBRANCH   5   6
ENDBRANCH   4   5
ENDBRANCH   3   4
ENDBRANCH   2   3
ENDBRANCH   1   2
BRANCH   1  76
ATOM     76  C   UNL     1       3.543  -0.903  -3.161  1.00  0.00     0.188 C 
BRANCH  76  77
ATOM     77  O   UNL     1       3.239  -2.287  -3.275  1.00  0.00    -0.376 OA
BRANCH  77  78
ATOM     78  C   UNL     1       3.119  -2.745  -4.622  1.00  0.00     0.202 C 
BRANCH  78  79
ATOM     79  C   UNL     1       4.418  -2.619  -5.435  1.00  0.00     0.261 C 
BRANCH  79  80
ATOM     80  O   UNL     1       4.880  -1.248  -5.547  1.00  0.00    -0.459 OA
BRANCH  80  81
ATOM     81  C   UNL     1       4.106  -0.393  -6.258  1.00  0.00     0.370 C 
ATOM     82  O   UNL     1       3.319  -0.853  -7.088  1.00  0.00    -0.245 OA
BRANCH  81  83
ATOM     83  C   UNL     1       4.379   1.148  -5.944  1.00  0.00     0.328 C 
BRANCH  83  84
ATOM     84  N   UNL     1       3.793   1.971  -7.008  1.00  0.00    -0.310 N 
ATOM     85  C   UNL     1       2.450   1.714  -7.539  1.00  0.00     0.325 C 
ATOM     86  C   UNL     1       4.107   3.379  -6.919  1.00  0.00     0.325 C 
ATOM     87  H   UNL     1       4.327   1.548  -7.768  1.00  0.00     0.349 HD
ATOM     88  C   UNL     1       1.348   2.770  -7.297  1.00  0.00     0.325 C 
ATOM     89  C   UNL     1       2.970   4.302  -6.437  1.00  0.00     0.325 C 
ATOM     90  N   UNL     1       1.757   4.175  -7.227  1.00  0.00    -0.318 N 
ATOM     91  H   UNL     1       0.999   4.657  -6.743  1.00  0.00     0.348 HD
BRANCH  90  92
ATOM     92  C   UNL     1       1.786   4.918  -8.495  1.00  0.00     0.364 C 
BRANCH  92  93
ATOM     93  C   UNL     1       2.783   4.488  -9.581  1.00  0.00     0.277 C 
ATOM     94  O   UNL     1       2.466   3.579 -10.358  1.00  0.00    -0.268 OA
ATOM     95  N   UNL     1       3.980   5.201  -9.755  1.00  0.00    -0.333 N 
ATOM     96  C   UNL     1       4.812   5.799  -8.692  1.00  0.00     0.148 C 
ATOM     97  C   UNL     1       4.723   4.941 -10.984  1.00  0.00     0.148 C 
ATOM     98  C   UNL     1       5.798   6.872  -9.140  1.00  0.00     0.181 C 
ATOM     99  C   UNL     1       5.564   6.159 -11.364  1.00  0.00     0.181 C 
ATOM    100  O   UNL     1       6.497   6.479 -10.323  1.00  0.00    -0.378 OA
ENDBRANCH  92  93
ENDBRANCH  90  92
ENDBRANCH  83  84
BRANCH  83 101
ATOM    101  C   UNL     1       4.016   1.859  -4.587  1.00  0.00     0.046 A 
ATOM    102  C   UNL     1       2.754   2.008  -4.022  1.00  0.00     0.094 A 
ATOM    103  C   UNL     1       4.878   2.764  -3.797  1.00  0.00     0.009 A 
ATOM    104  N   UNL     1       2.788   2.971  -3.046  1.00  0.00    -0.361 N 
ATOM    105  C   UNL     1       4.056   3.481  -2.917  1.00  0.00     0.049 A 
ATOM    106  C   UNL     1       6.255   3.116  -3.809  1.00  0.00     0.014 A 
ATOM    107  H   UNL     1       2.012   3.256  -2.511  1.00  0.00     0.166 HD
ATOM    108  C   UNL     1       4.510   4.545  -2.117  1.00  0.00     0.065 A 
ATOM    109  C   UNL     1       6.733   4.155  -2.986  1.00  0.00     0.040 A 
ATOM    110  C   UNL     1       5.862   4.863  -2.173  1.00  0.00     0.125 A 
ATOM    111  F   UNL     1       6.327   5.878  -1.429  1.00  0.00    -0.207 F 
ENDBRANCH  83 101
ENDBRANCH  81  83
ENDBRANCH  80  81
ENDBRANCH  79  80
ENDBRANCH  78  79
ENDBRANCH  77  78
ENDBRANCH  76  77
ENDBRANCH   1  76
TORSDOF 24
