REMARK SMILES [NH3+][C@@]1(C(=O)OCCOCCOCCOCCOC(=O)c2ccc(-c3c4nc(c(-c5c(F)c(F)c(F)c(F)c5F)c5ccc([nH]5)c(-c5c(F)c(F)c(F)c(F)c5F)c5nc(c(-c6c(F)c(F)c(F)c(F)c6F)c6ccc3[nH]6)C=C5)C=C4)cc2)CC[N@H+](Cc2ccc(OCC(=O)N3CCCCC3)cc2)C1
REMARK SMILES IDX 9 1 8 2 7 3 6 4 5 5 3 6 4 7 2 8 83 9 103 10 84 11 85 12 1 14
REMARK SMILES IDX 86 18 87 19 88 20 102 21 89 22 101 23 90 24 91 25 92 26
REMARK SMILES IDX 93 27 94 28 95 29 96 30 100 31 97 32 99 33 98 34 10 35 11 36
REMARK SMILES IDX 12 37 13 38 14 39 15 40 16 41 17 42 18 43 19 44 20 45 21 46
REMARK SMILES IDX 82 47 22 48 81 49 23 50 24 51 25 52 75 53 26 54 80 55 74 56
REMARK SMILES IDX 76 57 27 58 79 59 73 60 72 61 28 63 60 64 40 65 59 66 41 67
REMARK SMILES IDX 44 68 58 69 77 70 42 71 43 72 57 74 78 75 45 76 29 77 30 78
REMARK SMILES IDX 38 79 31 80 32 81 36 82 39 83 33 84 34 85 37 86 35 87 61 88
REMARK SMILES IDX 62 89 70 90 63 91 64 92 68 93 71 94 65 95 66 96 69 97 67 98
REMARK SMILES IDX 46 99 47 100 55 101 48 102 49 103 53 104 56 105 50 106
REMARK SMILES IDX 51 107 54 108 52 109
REMARK H PARENT 85 13 1 15 1 16 1 17 76 62 44 73
REMARK Flexibility Score: inf
ROOT
ATOM      1  C   UNL     1       3.204   0.211  -1.958  1.00  0.00     0.188 C 
ENDROOT
BRANCH   1   2
ATOM      2  O   UNL     1       1.853  -0.229  -2.084  1.00  0.00    -0.376 OA
BRANCH   2   3
ATOM      3  C   UNL     1       1.178   0.024  -3.310  1.00  0.00     0.202 C 
BRANCH   3   4
ATOM      4  C   UNL     1      -0.266  -0.483  -3.236  1.00  0.00     0.261 C 
BRANCH   4   5
ATOM      5  O   UNL     1      -0.976   0.311  -2.289  1.00  0.00    -0.458 OA
BRANCH   5   6
ATOM      6  C   UNL     1      -0.659   0.003  -1.009  1.00  0.00     0.374 C 
ATOM      7  O   UNL     1      -0.468  -1.137  -0.594  1.00  0.00    -0.244 OA
BRANCH   6   8
ATOM      8  C   UNL     1      -0.549   1.275  -0.136  1.00  0.00     0.246 C 
ATOM      9  C   UNL     1      -1.941   1.870   0.046  1.00  0.00     0.148 C 
ATOM     10  C   UNL     1       0.233   2.420  -0.831  1.00  0.00     0.344 C 
ATOM     11  C   UNL     1      -2.087   2.833  -1.138  1.00  0.00     0.270 C 
ATOM     12  N   UNL     1      -0.756   3.382  -1.318  1.00  0.00    -0.325 N 
ATOM     13  H   UNL     1      -0.677   4.202  -0.717  1.00  0.00     0.348 HD
BRANCH   8  14
ATOM     14  N   UNL     1       0.076   0.859   1.153  1.00  0.00    -0.338 N 
ATOM     15  H   UNL     1      -0.473   0.107   1.570  1.00  0.00     0.345 HD
ATOM     16  H   UNL     1       0.102   1.654   1.791  1.00  0.00     0.345 HD
ATOM     17  H   UNL     1       1.026   0.530   0.980  1.00  0.00     0.345 HD
ENDBRANCH   8  14
BRANCH  12  18
ATOM     18  C   UNL     1      -0.471   4.190  -2.507  1.00  0.00     0.299 C 
BRANCH  18  19
ATOM     19  C   UNL     1      -0.095   3.500  -3.816  1.00  0.00     0.006 A 
ATOM     20  C   UNL     1       1.184   3.689  -4.349  1.00  0.00     0.013 A 
ATOM     21  C   UNL     1      -0.958   2.663  -4.544  1.00  0.00     0.013 A 
ATOM     22  C   UNL     1       1.638   2.895  -5.412  1.00  0.00     0.047 A 
ATOM     23  C   UNL     1      -0.488   1.854  -5.615  1.00  0.00     0.047 A 
ATOM     24  C   UNL     1       0.856   1.873  -5.956  1.00  0.00     0.120 A 
BRANCH  24  25
ATOM     25  O   UNL     1       1.572   0.938  -6.647  1.00  0.00    -0.484 OA
BRANCH  25  26
ATOM     26  C   UNL     1       1.018  -0.249  -7.181  1.00  0.00     0.329 C 
BRANCH  26  27
ATOM     27  C   UNL     1       0.360  -1.440  -6.409  1.00  0.00     0.260 C 
ATOM     28  O   UNL     1      -0.877  -1.486  -6.376  1.00  0.00    -0.271 OA
ATOM     29  N   UNL     1       1.121  -2.473  -5.848  1.00  0.00    -0.340 N 
ATOM     30  C   UNL     1       0.446  -3.721  -5.467  1.00  0.00     0.119 C 
ATOM     31  C   UNL     1       2.574  -2.524  -5.695  1.00  0.00     0.119 C 
ATOM     32  C   UNL     1       0.779  -4.165  -4.045  1.00  0.00     0.022 C 
ATOM     33  C   UNL     1       2.984  -2.966  -4.277  1.00  0.00     0.022 C 
ATOM     34  C   UNL     1       2.284  -4.241  -3.812  1.00  0.00     0.004 C 
ENDBRANCH  26  27
ENDBRANCH  25  26
ENDBRANCH  24  25
ENDBRANCH  18  19
ENDBRANCH  12  18
ENDBRANCH   6   8
ENDBRANCH   5   6
ENDBRANCH   4   5
ENDBRANCH   3   4
ENDBRANCH   2   3
ENDBRANCH   1   2
BRANCH   1  35
ATOM     35  C   UNL     1       3.598   1.585  -2.527  1.00  0.00     0.188 C 
BRANCH  35  36
ATOM     36  O   UNL     1       3.759   1.719  -3.940  1.00  0.00    -0.377 OA
BRANCH  36  37
ATOM     37  C   UNL     1       4.270   0.623  -4.683  1.00  0.00     0.188 C 
BRANCH  37  38
ATOM     38  C   UNL     1       5.737   0.282  -4.482  1.00  0.00     0.188 C 
BRANCH  38  39
ATOM     39  O   UNL     1       6.065   0.384  -3.108  1.00  0.00    -0.376 OA
BRANCH  39  40
ATOM     40  C   UNL     1       7.174   1.228  -2.841  1.00  0.00     0.202 C 
BRANCH  40  41
ATOM     41  C   UNL     1       7.048   2.749  -3.107  1.00  0.00     0.261 C 
BRANCH  41  42
ATOM     42  O   UNL     1       6.134   3.216  -4.120  1.00  0.00    -0.460 OA
BRANCH  42  43
ATOM     43  C   UNL     1       6.605   3.365  -5.379  1.00  0.00     0.338 C 
ATOM     44  O   UNL     1       7.693   3.003  -5.791  1.00  0.00    -0.246 OA
BRANCH  43  45
ATOM     45  C   UNL     1       5.572   3.989  -6.247  1.00  0.00     0.060 A 
ATOM     46  C   UNL     1       5.142   3.322  -7.402  1.00  0.00     0.016 A 
ATOM     47  C   UNL     1       5.106   5.281  -5.986  1.00  0.00     0.016 A 
ATOM     48  C   UNL     1       4.256   3.947  -8.297  1.00  0.00     0.010 A 
ATOM     49  C   UNL     1       4.237   5.912  -6.893  1.00  0.00     0.010 A 
ATOM     50  C   UNL     1       3.818   5.260  -8.066  1.00  0.00    -0.014 A 
BRANCH  50  51
ATOM     51  C   UNL     1       3.024   6.004  -9.089  1.00  0.00     0.031 A 
ATOM     52  C   UNL     1       3.737   6.862 -10.098  1.00  0.00     0.074 A 
ATOM     53  C   UNL     1       1.679   5.958  -9.113  1.00  0.00     0.049 A 
ATOM     54  N   UNL     1       3.241   7.667 -11.005  1.00  0.00    -0.248 NA
ATOM     55  C   UNL     1       5.205   6.804 -10.083  1.00  0.00     0.031 C 
ATOM     56  C   UNL     1       0.855   5.139  -8.236  1.00  0.00     0.029 A 
ATOM     57  N   UNL     1       0.766   6.632  -9.892  1.00  0.00    -0.354 N 
ATOM     58  C   UNL     1       4.332   8.208 -11.671  1.00  0.00     0.074 A 
ATOM     59  C   UNL     1       5.519   7.657 -11.048  1.00  0.00     0.031 C 
ATOM     60  C   UNL     1      -0.442   5.377  -8.493  1.00  0.00     0.029 A 
ATOM     61  C   UNL     1      -0.541   6.395  -9.537  1.00  0.00     0.049 A 
ATOM     62  H   UNL     1       1.025   7.228 -10.632  1.00  0.00     0.167 HD
ATOM     63  C   UNL     1       4.346   9.082 -12.706  1.00  0.00     0.037 A 
ATOM     64  C   UNL     1      -1.687   6.956  -9.976  1.00  0.00     0.037 A 
ATOM     65  C   UNL     1       3.173   9.649 -13.320  1.00  0.00     0.049 A 
ATOM     66  C   UNL     1      -1.639   8.014 -11.051  1.00  0.00     0.074 A 
ATOM     67  C   UNL     1       3.098  10.517 -14.396  1.00  0.00     0.029 A 
ATOM     68  N   UNL     1       1.872   9.424 -12.899  1.00  0.00    -0.354 N 
ATOM     69  N   UNL     1      -0.605   8.485 -11.704  1.00  0.00    -0.248 NA
ATOM     70  C   UNL     1      -2.920   8.623 -11.445  1.00  0.00     0.031 C 
ATOM     71  C   UNL     1       1.757  10.866 -14.588  1.00  0.00     0.029 A 
ATOM     72  C   UNL     1       0.991  10.173 -13.666  1.00  0.00     0.049 A 
ATOM     73  H   UNL     1       1.611   8.823 -12.165  1.00  0.00     0.167 HD
ATOM     74  C   UNL     1      -1.109   9.424 -12.595  1.00  0.00     0.074 A 
ATOM     75  C   UNL     1      -2.544   9.447 -12.413  1.00  0.00     0.031 C 
ATOM     76  C   UNL     1      -0.438  10.198 -13.482  1.00  0.00     0.037 A 
BRANCH  63  77
ATOM     77  C   UNL     1       5.685   9.508 -13.230  1.00  0.00     0.064 A 
ATOM     78  C   UNL     1       6.490   8.642 -13.984  1.00  0.00     0.173 A 
ATOM     79  C   UNL     1       6.148  10.815 -13.013  1.00  0.00     0.173 A 
ATOM     80  F   UNL     1       6.096   7.380 -14.211  1.00  0.00    -0.203 F 
ATOM     81  C   UNL     1       7.721   9.062 -14.482  1.00  0.00     0.198 A 
ATOM     82  C   UNL     1       7.367  11.239 -13.534  1.00  0.00     0.198 A 
ATOM     83  F   UNL     1       5.412  11.684 -12.304  1.00  0.00    -0.203 F 
ATOM     84  F   UNL     1       8.493   8.205 -15.165  1.00  0.00    -0.200 F 
ATOM     85  C   UNL     1       8.155  10.361 -14.262  1.00  0.00     0.200 A 
ATOM     86  F   UNL     1       7.779  12.498 -13.332  1.00  0.00    -0.200 F 
ATOM     87  F   UNL     1       9.337  10.765 -14.747  1.00  0.00    -0.200 F 
ENDBRANCH  63  77
BRANCH  64  88
ATOM     88  C   UNL     1      -2.989   6.562  -9.374  1.00  0.00     0.064 A 
ATOM     89  C   UNL     1      -3.955   5.876 -10.123  1.00  0.00     0.173 A 
ATOM     90  C   UNL     1      -3.311   6.903  -8.052  1.00  0.00     0.173 A 
ATOM     91  F   UNL     1      -3.710   5.560 -11.403  1.00  0.00    -0.203 F 
ATOM     92  C   UNL     1      -5.199   5.561  -9.578  1.00  0.00     0.198 A 
ATOM     93  C   UNL     1      -4.544   6.561  -7.499  1.00  0.00     0.198 A 
ATOM     94  F   UNL     1      -2.429   7.574  -7.297  1.00  0.00    -0.203 F 
ATOM     95  F   UNL     1      -6.125   4.954 -10.334  1.00  0.00    -0.200 F 
ATOM     96  C   UNL     1      -5.490   5.899  -8.265  1.00  0.00     0.200 A 
ATOM     97  F   UNL     1      -4.819   6.887  -6.228  1.00  0.00    -0.200 F 
ATOM     98  F   UNL     1      -6.688   5.600  -7.743  1.00  0.00    -0.200 F 
ENDBRANCH  64  88
BRANCH  76  99
ATOM     99  C   UNL     1      -1.241  11.131 -14.342  1.00  0.00     0.064 A 
ATOM    100  C   UNL     1      -1.829  12.291 -13.816  1.00  0.00     0.173 A 
ATOM    101  C   UNL     1      -1.377  10.896 -15.719  1.00  0.00     0.173 A 
ATOM    102  F   UNL     1      -1.743  12.555 -12.503  1.00  0.00    -0.203 F 
ATOM    103  C   UNL     1      -2.535  13.172 -14.633  1.00  0.00     0.198 A 
ATOM    104  C   UNL     1      -2.059  11.792 -16.538  1.00  0.00     0.198 A 
ATOM    105  F   UNL     1      -0.831   9.804 -16.276  1.00  0.00    -0.203 F 
ATOM    106  F   UNL     1      -3.119  14.254 -14.101  1.00  0.00    -0.200 F 
ATOM    107  C   UNL     1      -2.641  12.927 -15.993  1.00  0.00     0.200 A 
ATOM    108  F   UNL     1      -2.149  11.561 -17.855  1.00  0.00    -0.200 F 
ATOM    109  F   UNL     1      -3.308  13.783 -16.780  1.00  0.00    -0.200 F 
ENDBRANCH  76  99
ENDBRANCH  50  51
ENDBRANCH  43  45
ENDBRANCH  42  43
ENDBRANCH  41  42
ENDBRANCH  40  41
ENDBRANCH  39  40
ENDBRANCH  38  39
ENDBRANCH  37  38
ENDBRANCH  36  37
ENDBRANCH  35  36
ENDBRANCH   1  35
TORSDOF 26
