REMARK SMILES O=C(CNc1nc(-c2ccccc2)c(-c2ccccc2)s1)OCCOCCOCCOCCOC(=O)c1ccc(-c2c3nc(c(-c4c(F)c(F)c(F)c(F)c4F)c4ccc([nH]4)c(-c4c(F)c(F)c(F)c(F)c4F)c4nc(c(-c5c(F)c(F)c(F)c(F)c5F)c5ccc2[nH]5)C=C4)C=C3)cc1
REMARK SMILES IDX 27 1 26 2 25 3 24 4 23 5 22 6 2 7 1 8 3 9 4 10 5 12 6 13
REMARK SMILES IDX 21 14 7 15 14 16 8 17 9 18 13 19 10 20 12 21 11 22 15 23
REMARK SMILES IDX 16 24 20 25 17 26 19 27 18 28 28 29 29 30 30 31 31 32 32 33
REMARK SMILES IDX 33 34 34 35 35 36 36 37 37 38 38 39 99 40 39 41 98 42 40 43
REMARK SMILES IDX 41 44 42 45 92 46 43 47 97 48 91 49 93 50 44 51 96 52 90 53
REMARK SMILES IDX 89 54 45 56 77 57 57 58 76 59 58 60 61 61 75 62 94 63 59 64
REMARK SMILES IDX 60 65 74 67 95 68 62 69 46 70 47 71 55 72 48 73 49 74 53 75
REMARK SMILES IDX 56 76 50 77 51 78 54 79 52 80 78 81 79 82 87 83 80 84 81 85
REMARK SMILES IDX 85 86 88 87 82 88 83 89 86 90 84 91 63 92 64 93 72 94 65 95
REMARK SMILES IDX 66 96 70 97 73 98 67 99 68 100 71 101 69 102
REMARK H PARENT 4 11 93 55 61 66
REMARK Flexibility Score: inf
ROOT
ATOM      1  C   UNL     1       1.970   2.148   0.812  1.00  0.00     0.188 C 
ENDROOT
BRANCH   1   2
ATOM      2  C   UNL     1       2.552   0.829   1.318  1.00  0.00     0.188 C 
BRANCH   2   3
ATOM      3  O   UNL     1       3.939   0.585   1.200  1.00  0.00    -0.376 OA
BRANCH   3   4
ATOM      4  C   UNL     1       4.668   0.359   0.015  1.00  0.00     0.202 C 
BRANCH   4   5
ATOM      5  C   UNL     1       4.039  -0.091  -1.295  1.00  0.00     0.261 C 
BRANCH   5   6
ATOM      6  O   UNL     1       2.717  -0.637  -1.270  1.00  0.00    -0.462 OA
BRANCH   6   7
ATOM      7  C   UNL     1       2.318  -1.786  -0.678  1.00  0.00     0.325 C 
ATOM      8  O   UNL     1       1.175  -2.189  -0.890  1.00  0.00    -0.250 OA
BRANCH   7   9
ATOM      9  C   UNL     1       3.247  -2.513   0.289  1.00  0.00     0.238 C 
BRANCH   9  10
ATOM     10  N   UNL     1       4.400  -3.071  -0.385  1.00  0.00    -0.351 N 
ATOM     11  H   UNL     1       4.267  -3.593  -1.208  1.00  0.00     0.163 HD
BRANCH  10  12
ATOM     12  C   UNL     1       5.649  -2.894   0.085  1.00  0.00     0.184 A 
ATOM     13  N   UNL     1       5.992  -2.547   1.305  1.00  0.00    -0.220 NA
ATOM     14  S   UNL     1       6.942  -3.004  -1.036  1.00  0.00    -0.096 S 
ATOM     15  C   UNL     1       7.355  -2.260   1.359  1.00  0.00     0.091 A 
ATOM     16  C   UNL     1       8.020  -2.403   0.150  1.00  0.00     0.064 A 
BRANCH  15  17
ATOM     17  C   UNL     1       8.044  -1.933   2.606  1.00  0.00     0.002 A 
ATOM     18  C   UNL     1       8.934  -0.850   2.694  1.00  0.00     0.010 A 
ATOM     19  C   UNL     1       7.931  -2.803   3.697  1.00  0.00     0.010 A 
ATOM     20  C   UNL     1       9.755  -0.693   3.815  1.00  0.00     0.001 A 
ATOM     21  C   UNL     1       8.753  -2.644   4.817  1.00  0.00     0.001 A 
ATOM     22  C   UNL     1       9.679  -1.603   4.867  1.00  0.00     0.000 A 
ENDBRANCH  15  17
BRANCH  16  23
ATOM     23  C   UNL     1       9.420  -2.246  -0.215  1.00  0.00    -0.006 A 
ATOM     24  C   UNL     1       9.825  -1.219  -1.078  1.00  0.00     0.009 A 
ATOM     25  C   UNL     1      10.366  -3.151   0.278  1.00  0.00     0.009 A 
ATOM     26  C   UNL     1      11.161  -1.121  -1.467  1.00  0.00     0.001 A 
ATOM     27  C   UNL     1      11.698  -3.053  -0.115  1.00  0.00     0.001 A 
ATOM     28  C   UNL     1      12.092  -2.045  -0.993  1.00  0.00     0.000 A 
ENDBRANCH  16  23
ENDBRANCH  10  12
ENDBRANCH   9  10
ENDBRANCH   7   9
ENDBRANCH   6   7
ENDBRANCH   5   6
ENDBRANCH   4   5
ENDBRANCH   3   4
ENDBRANCH   2   3
ENDBRANCH   1   2
BRANCH   1  29
ATOM     29  O   UNL     1       2.626   3.331   1.245  1.00  0.00    -0.377 OA
BRANCH  29  30
ATOM     30  C   UNL     1       3.969   3.440   0.817  1.00  0.00     0.188 C 
BRANCH  30  31
ATOM     31  C   UNL     1       5.035   3.202   1.913  1.00  0.00     0.188 C 
BRANCH  31  32
ATOM     32  O   UNL     1       4.698   2.756   3.216  1.00  0.00    -0.376 OA
BRANCH  32  33
ATOM     33  C   UNL     1       3.530   3.224   3.867  1.00  0.00     0.202 C 
BRANCH  33  34
ATOM     34  C   UNL     1       3.225   4.727   3.987  1.00  0.00     0.261 C 
BRANCH  34  35
ATOM     35  O   UNL     1       3.509   5.528   2.834  1.00  0.00    -0.460 OA
BRANCH  35  36
ATOM     36  C   UNL     1       4.675   6.213   2.854  1.00  0.00     0.338 C 
ATOM     37  O   UNL     1       5.498   6.265   3.753  1.00  0.00    -0.246 OA
BRANCH  36  38
ATOM     38  C   UNL     1       4.911   6.746   1.496  1.00  0.00     0.060 A 
ATOM     39  C   UNL     1       6.097   6.397   0.829  1.00  0.00     0.016 A 
ATOM     40  C   UNL     1       3.950   7.538   0.868  1.00  0.00     0.016 A 
ATOM     41  C   UNL     1       6.329   6.843  -0.470  1.00  0.00     0.010 A 
ATOM     42  C   UNL     1       4.203   8.025  -0.413  1.00  0.00     0.010 A 
ATOM     43  C   UNL     1       5.405   7.703  -1.072  1.00  0.00    -0.014 A 
BRANCH  43  44
ATOM     44  C   UNL     1       5.793   8.494  -2.259  1.00  0.00     0.031 A 
ATOM     45  C   UNL     1       6.347   9.867  -2.015  1.00  0.00     0.074 A 
ATOM     46  C   UNL     1       5.606   8.040  -3.508  1.00  0.00     0.049 A 
ATOM     47  N   UNL     1       6.582  10.835  -2.859  1.00  0.00    -0.248 NA
ATOM     48  C   UNL     1       6.657  10.194  -0.614  1.00  0.00     0.031 C 
ATOM     49  C   UNL     1       5.122   6.710  -3.861  1.00  0.00     0.029 A 
ATOM     50  N   UNL     1       5.768   8.678  -4.712  1.00  0.00    -0.354 N 
ATOM     51  C   UNL     1       7.036  11.896  -2.088  1.00  0.00     0.074 A 
ATOM     52  C   UNL     1       7.028  11.460  -0.710  1.00  0.00     0.031 C 
ATOM     53  C   UNL     1       4.981   6.643  -5.196  1.00  0.00     0.029 A 
ATOM     54  C   UNL     1       5.321   7.942  -5.779  1.00  0.00     0.049 A 
ATOM     55  H   UNL     1       6.165   9.574  -4.801  1.00  0.00     0.167 HD
ATOM     56  C   UNL     1       7.418  13.128  -2.496  1.00  0.00     0.037 A 
ATOM     57  C   UNL     1       5.157   8.299  -7.068  1.00  0.00     0.037 A 
ATOM     58  C   UNL     1       7.405  13.552  -3.869  1.00  0.00     0.049 A 
ATOM     59  C   UNL     1       5.524   9.697  -7.500  1.00  0.00     0.074 A 
ATOM     60  C   UNL     1       7.797  14.765  -4.401  1.00  0.00     0.029 A 
ATOM     61  N   UNL     1       6.953  12.774  -4.927  1.00  0.00    -0.354 N 
ATOM     62  N   UNL     1       5.978  10.694  -6.778  1.00  0.00    -0.248 NA
ATOM     63  C   UNL     1       5.356  10.019  -8.924  1.00  0.00     0.031 C 
ATOM     64  C   UNL     1       7.518  14.748  -5.771  1.00  0.00     0.029 A 
ATOM     65  C   UNL     1       7.025  13.495  -6.107  1.00  0.00     0.049 A 
ATOM     66  H   UNL     1       6.630  11.848  -4.850  1.00  0.00     0.167 HD
ATOM     67  C   UNL     1       6.180  11.748  -7.660  1.00  0.00     0.074 A 
ATOM     68  C   UNL     1       5.798  11.269  -8.973  1.00  0.00     0.031 C 
ATOM     69  C   UNL     1       6.649  12.996  -7.408  1.00  0.00     0.037 A 
BRANCH  56  70
ATOM     70  C   UNL     1       7.812  14.111  -1.431  1.00  0.00     0.064 A 
ATOM     71  C   UNL     1       8.964  13.940  -0.647  1.00  0.00     0.173 A 
ATOM     72  C   UNL     1       7.004  15.229  -1.172  1.00  0.00     0.173 A 
ATOM     73  F   UNL     1       9.761  12.879  -0.840  1.00  0.00    -0.203 F 
ATOM     74  C   UNL     1       9.265  14.824   0.386  1.00  0.00     0.198 A 
ATOM     75  C   UNL     1       7.330  16.132  -0.165  1.00  0.00     0.198 A 
ATOM     76  F   UNL     1       5.891  15.441  -1.891  1.00  0.00    -0.203 F 
ATOM     77  F   UNL     1      10.327  14.598   1.171  1.00  0.00    -0.200 F 
ATOM     78  C   UNL     1       8.451  15.921   0.623  1.00  0.00     0.200 A 
ATOM     79  F   UNL     1       6.549  17.199   0.054  1.00  0.00    -0.200 F 
ATOM     80  F   UNL     1       8.739  16.769   1.621  1.00  0.00    -0.200 F 
ENDBRANCH  56  70
BRANCH  57  81
ATOM     81  C   UNL     1       4.590   7.319  -8.030  1.00  0.00     0.064 A 
ATOM     82  C   UNL     1       5.381   6.747  -9.034  1.00  0.00     0.173 A 
ATOM     83  C   UNL     1       3.250   6.909  -7.943  1.00  0.00     0.173 A 
ATOM     84  F   UNL     1       6.661   7.123  -9.173  1.00  0.00    -0.203 F 
ATOM     85  C   UNL     1       4.855   5.804  -9.915  1.00  0.00     0.198 A 
ATOM     86  C   UNL     1       2.733   5.946  -8.807  1.00  0.00     0.198 A 
ATOM     87  F   UNL     1       2.450   7.427  -6.999  1.00  0.00    -0.203 F 
ATOM     88  F   UNL     1       5.627   5.292 -10.884  1.00  0.00    -0.200 F 
ATOM     89  C   UNL     1       3.535   5.396  -9.794  1.00  0.00     0.200 A 
ATOM     90  F   UNL     1       1.461   5.545  -8.675  1.00  0.00    -0.200 F 
ATOM     91  F   UNL     1       3.036   4.475 -10.630  1.00  0.00    -0.200 F 
ENDBRANCH  57  81
BRANCH  69  92
ATOM     92  C   UNL     1       6.832  13.926  -8.574  1.00  0.00     0.064 A 
ATOM     93  C   UNL     1       5.745  14.510  -9.239  1.00  0.00     0.173 A 
ATOM     94  C   UNL     1       8.125  14.303  -8.974  1.00  0.00     0.173 A 
ATOM     95  F   UNL     1       4.489  14.175  -8.904  1.00  0.00    -0.203 F 
ATOM     96  C   UNL     1       5.944  15.427 -10.269  1.00  0.00     0.198 A 
ATOM     97  C   UNL     1       8.320  15.243  -9.980  1.00  0.00     0.198 A 
ATOM     98  F   UNL     1       9.200  13.780  -8.365  1.00  0.00    -0.203 F 
ATOM     99  F   UNL     1       4.891  15.946 -10.914  1.00  0.00    -0.200 F 
ATOM    100  C   UNL     1       7.231  15.801 -10.630  1.00  0.00     0.200 A 
ATOM    101  F   UNL     1       9.563  15.617 -10.314  1.00  0.00    -0.200 F 
ATOM    102  F   UNL     1       7.420  16.699 -11.607  1.00  0.00    -0.200 F 
ENDBRANCH  69  92
ENDBRANCH  43  44
ENDBRANCH  36  38
ENDBRANCH  35  36
ENDBRANCH  34  35
ENDBRANCH  33  34
ENDBRANCH  32  33
ENDBRANCH  31  32
ENDBRANCH  30  31
ENDBRANCH  29  30
ENDBRANCH   1  29
TORSDOF 24
