REMARK SMILES Cc1ccc(C)c(-c2cc(C(=O)OCCOCCOCCOCCOC(=O)c3ccc(-c4c5nc(c(-c6c(F)c(F)c(F)c(F)c6F)c6ccc([nH]6)c(-c6c(F)c(F)c(F)c(F)c6F)c6nc(c(-c7c(F)c(F)c(F)c(F)c7F)c7ccc4[nH]7)C=C6)C=C5)cc3)c3cc(C)ccc3n2)c1
REMARK SMILES IDX 20 1 19 2 18 3 17 4 16 5 15 6 14 7 13 8 11 9 12 10 10 11
REMARK SMILES IDX 8 12 9 13 98 14 97 15 91 16 96 17 92 18 95 19 93 20 94 21
REMARK SMILES IDX 7 22 1 23 2 24 3 25 99 26 4 27 5 28 6 29 21 30 22 31 23 32
REMARK SMILES IDX 24 33 25 34 26 35 27 36 28 37 29 38 90 39 30 40 89 41 31 42
REMARK SMILES IDX 32 43 33 44 83 45 34 46 88 47 82 48 84 49 35 50 87 51 81 52
REMARK SMILES IDX 80 53 36 55 68 56 48 57 67 58 49 59 52 60 66 61 85 62 50 63
REMARK SMILES IDX 51 64 65 66 86 67 53 68 37 69 38 70 46 71 39 72 40 73 44 74
REMARK SMILES IDX 47 75 41 76 42 77 45 78 43 79 69 80 70 81 78 82 71 83 72 84
REMARK SMILES IDX 76 85 79 86 73 87 74 88 77 89 75 90 54 91 55 92 63 93 56 94
REMARK SMILES IDX 57 95 61 96 64 97 58 98 59 99 62 100 60 101
REMARK H PARENT 84 54 52 65
REMARK Flexibility Score: inf
ROOT
ATOM      1  C   UNL     1      -0.350  10.071   0.967  1.00  0.00     0.188 C 
ENDROOT
BRANCH   1   2
ATOM      2  O   UNL     1      -0.634   8.756   1.422  1.00  0.00    -0.377 OA
BRANCH   2   3
ATOM      3  C   UNL     1      -0.596   7.751   0.403  1.00  0.00     0.188 C 
BRANCH   3   4
ATOM      4  C   UNL     1      -0.927   8.194  -1.039  1.00  0.00     0.188 C 
BRANCH   4   5
ATOM      5  O   UNL     1      -2.289   8.603  -1.073  1.00  0.00    -0.376 OA
BRANCH   5   6
ATOM      6  C   UNL     1      -3.001   8.225  -2.238  1.00  0.00     0.202 C 
BRANCH   6   7
ATOM      7  C   UNL     1      -3.103   6.713  -2.481  1.00  0.00     0.261 C 
BRANCH   7   8
ATOM      8  O   UNL     1      -3.176   5.919  -1.279  1.00  0.00    -0.460 OA
BRANCH   8   9
ATOM      9  C   UNL     1      -2.039   5.364  -0.790  1.00  0.00     0.338 C 
ATOM     10  O   UNL     1      -0.916   5.436  -1.267  1.00  0.00    -0.246 OA
BRANCH   9  11
ATOM     11  C   UNL     1      -2.206   4.556   0.419  1.00  0.00     0.071 A 
ATOM     12  C   UNL     1      -1.441   2.609   1.578  1.00  0.00     0.072 A 
ATOM     13  C   UNL     1      -1.302   3.504   0.548  1.00  0.00     0.045 A 
ATOM     14  N   UNL     1      -2.417   2.790   2.511  1.00  0.00    -0.248 NA
ATOM     15  C   UNL     1      -3.260   3.868   2.425  1.00  0.00     0.072 A 
ATOM     16  C   UNL     1      -3.160   4.811   1.395  1.00  0.00     0.015 A 
ATOM     17  C   UNL     1      -4.289   4.089   3.345  1.00  0.00     0.029 A 
ATOM     18  C   UNL     1      -3.977   5.964   1.377  1.00  0.00     0.014 A 
ATOM     19  C   UNL     1      -5.169   5.195   3.269  1.00  0.00     0.005 A 
ATOM     20  C   UNL     1      -5.003   6.156   2.283  1.00  0.00    -0.050 A 
ATOM     21  C   UNL     1      -5.878   7.358   2.092  1.00  0.00     0.044 C 
BRANCH  12  22
ATOM     22  C   UNL     1      -0.581   1.390   1.595  1.00  0.00     0.003 A 
ATOM     23  C   UNL     1       3.039   0.485   0.596  1.00  0.00     0.044 C 
ATOM     24  C   UNL     1       1.649   0.374   1.158  1.00  0.00    -0.050 A 
ATOM     25  C   UNL     1       1.135  -0.879   1.472  1.00  0.00     0.004 A 
ATOM     26  C   UNL     1       0.805   1.494   1.272  1.00  0.00     0.014 A 
ATOM     27  C   UNL     1      -0.221  -1.022   1.759  1.00  0.00     0.004 A 
ATOM     28  C   UNL     1      -1.094   0.087   1.762  1.00  0.00    -0.042 A 
ATOM     29  C   UNL     1      -2.568  -0.224   1.744  1.00  0.00     0.045 C 
ENDBRANCH  12  22
ENDBRANCH   9  11
ENDBRANCH   8   9
ENDBRANCH   7   8
ENDBRANCH   6   7
ENDBRANCH   5   6
ENDBRANCH   4   5
ENDBRANCH   3   4
ENDBRANCH   2   3
ENDBRANCH   1   2
BRANCH   1  30
ATOM     30  C   UNL     1       1.116  10.253   0.563  1.00  0.00     0.188 C 
BRANCH  30  31
ATOM     31  O   UNL     1       1.558   9.158  -0.233  1.00  0.00    -0.376 OA
BRANCH  31  32
ATOM     32  C   UNL     1       2.784   8.566   0.159  1.00  0.00     0.202 C 
BRANCH  32  33
ATOM     33  C   UNL     1       3.933   9.341  -0.477  1.00  0.00     0.261 C 
BRANCH  33  34
ATOM     34  O   UNL     1       4.001   9.194  -1.918  1.00  0.00    -0.460 OA
BRANCH  34  35
ATOM     35  C   UNL     1       2.875   9.470  -2.630  1.00  0.00     0.338 C 
ATOM     36  O   UNL     1       2.426  10.594  -2.824  1.00  0.00    -0.246 OA
BRANCH  35  37
ATOM     37  C   UNL     1       2.253   8.197  -3.110  1.00  0.00     0.060 A 
ATOM     38  C   UNL     1       1.015   8.198  -3.758  1.00  0.00     0.016 A 
ATOM     39  C   UNL     1       2.848   6.970  -2.792  1.00  0.00     0.016 A 
ATOM     40  C   UNL     1       0.358   6.975  -4.003  1.00  0.00     0.010 A 
ATOM     41  C   UNL     1       2.165   5.769  -2.967  1.00  0.00     0.010 A 
ATOM     42  C   UNL     1       0.903   5.745  -3.563  1.00  0.00    -0.014 A 
BRANCH  42  43
ATOM     43  C   UNL     1       0.524   4.402  -4.095  1.00  0.00     0.031 A 
ATOM     44  C   UNL     1       0.476   4.550  -5.548  1.00  0.00     0.074 A 
ATOM     45  C   UNL     1      -0.265   3.379  -3.665  1.00  0.00     0.049 A 
ATOM     46  N   UNL     1      -0.621   4.819  -6.180  1.00  0.00    -0.248 NA
ATOM     47  C   UNL     1       1.702   4.724  -6.328  1.00  0.00     0.031 C 
ATOM     48  C   UNL     1      -1.492   3.489  -2.930  1.00  0.00     0.029 A 
ATOM     49  N   UNL     1      -0.116   1.989  -3.741  1.00  0.00    -0.354 N 
ATOM     50  C   UNL     1      -0.262   4.735  -7.498  1.00  0.00     0.074 A 
ATOM     51  C   UNL     1       1.176   4.918  -7.541  1.00  0.00     0.031 C 
ATOM     52  C   UNL     1      -1.822   2.327  -2.354  1.00  0.00     0.029 A 
ATOM     53  C   UNL     1      -0.901   1.288  -2.797  1.00  0.00     0.049 A 
ATOM     54  H   UNL     1       0.477   1.543  -4.388  1.00  0.00     0.167 HD
ATOM     55  C   UNL     1      -1.062   3.942  -8.252  1.00  0.00     0.037 A 
ATOM     56  C   UNL     1      -1.415   0.030  -2.823  1.00  0.00     0.037 A 
ATOM     57  C   UNL     1      -2.432   3.909  -7.795  1.00  0.00     0.049 A 
ATOM     58  C   UNL     1      -2.486  -0.016  -3.855  1.00  0.00     0.074 A 
ATOM     59  C   UNL     1      -3.507   4.777  -7.819  1.00  0.00     0.029 A 
ATOM     60  N   UNL     1      -2.721   2.979  -6.829  1.00  0.00    -0.354 N 
ATOM     61  N   UNL     1      -3.656   0.559  -3.778  1.00  0.00    -0.248 NA
ATOM     62  C   UNL     1      -2.058  -0.404  -5.199  1.00  0.00     0.031 C 
ATOM     63  C   UNL     1      -4.487   4.275  -6.912  1.00  0.00     0.029 A 
ATOM     64  C   UNL     1      -4.006   3.100  -6.354  1.00  0.00     0.049 A 
ATOM     65  H   UNL     1      -2.080   2.302  -6.512  1.00  0.00     0.167 HD
ATOM     66  C   UNL     1      -3.859   1.025  -5.065  1.00  0.00     0.074 A 
ATOM     67  C   UNL     1      -2.936   0.291  -5.917  1.00  0.00     0.031 C 
ATOM     68  C   UNL     1      -4.460   2.222  -5.304  1.00  0.00     0.037 A 
BRANCH  55  69
ATOM     69  C   UNL     1      -0.423   2.795  -8.971  1.00  0.00     0.064 A 
ATOM     70  C   UNL     1      -0.985   2.295 -10.145  1.00  0.00     0.173 A 
ATOM     71  C   UNL     1       0.641   2.046  -8.414  1.00  0.00     0.173 A 
ATOM     72  F   UNL     1      -2.075   2.872 -10.670  1.00  0.00    -0.203 F 
ATOM     73  C   UNL     1      -0.461   1.157 -10.761  1.00  0.00     0.198 A 
ATOM     74  C   UNL     1       1.217   0.971  -9.071  1.00  0.00     0.198 A 
ATOM     75  F   UNL     1       1.080   2.266  -7.166  1.00  0.00    -0.203 F 
ATOM     76  F   UNL     1      -1.066   0.652 -11.844  1.00  0.00    -0.200 F 
ATOM     77  C   UNL     1       0.659   0.519 -10.245  1.00  0.00     0.200 A 
ATOM     78  F   UNL     1       2.269   0.346  -8.523  1.00  0.00    -0.200 F 
ATOM     79  F   UNL     1       1.162  -0.568 -10.843  1.00  0.00    -0.200 F 
ENDBRANCH  55  69
BRANCH  56  80
ATOM     80  C   UNL     1      -0.784  -1.180  -2.264  1.00  0.00     0.064 A 
ATOM     81  C   UNL     1      -1.580  -2.250  -1.813  1.00  0.00     0.173 A 
ATOM     82  C   UNL     1       0.600  -1.309  -2.103  1.00  0.00     0.173 A 
ATOM     83  F   UNL     1      -2.917  -2.184  -1.909  1.00  0.00    -0.203 F 
ATOM     84  C   UNL     1      -1.016  -3.392  -1.238  1.00  0.00     0.198 A 
ATOM     85  C   UNL     1       1.163  -2.454  -1.535  1.00  0.00     0.198 A 
ATOM     86  F   UNL     1       1.424  -0.333  -2.509  1.00  0.00    -0.203 F 
ATOM     87  F   UNL     1      -1.804  -4.392  -0.815  1.00  0.00    -0.200 F 
ATOM     88  C   UNL     1       0.357  -3.494  -1.101  1.00  0.00     0.200 A 
ATOM     89  F   UNL     1       2.494  -2.539  -1.393  1.00  0.00    -0.200 F 
ATOM     90  F   UNL     1       0.904  -4.585  -0.548  1.00  0.00    -0.200 F 
ENDBRANCH  56  80
BRANCH  68  91
ATOM     91  C   UNL     1      -5.620   2.592  -4.446  1.00  0.00     0.064 A 
ATOM     92  C   UNL     1      -5.547   3.193  -3.185  1.00  0.00     0.173 A 
ATOM     93  C   UNL     1      -6.898   2.356  -4.973  1.00  0.00     0.173 A 
ATOM     94  F   UNL     1      -4.371   3.522  -2.644  1.00  0.00    -0.203 F 
ATOM     95  C   UNL     1      -6.700   3.518  -2.470  1.00  0.00     0.198 A 
ATOM     96  C   UNL     1      -8.049   2.702  -4.271  1.00  0.00     0.198 A 
ATOM     97  F   UNL     1      -7.029   1.813  -6.194  1.00  0.00    -0.203 F 
ATOM     98  F   UNL     1      -6.601   4.094  -1.263  1.00  0.00    -0.200 F 
ATOM     99  C   UNL     1      -7.950   3.275  -3.015  1.00  0.00     0.200 A 
ATOM    100  F   UNL     1      -9.253   2.498  -4.824  1.00  0.00    -0.200 F 
ATOM    101  F   UNL     1      -9.058   3.615  -2.342  1.00  0.00    -0.200 F 
ENDBRANCH  68  91
ENDBRANCH  42  43
ENDBRANCH  35  37
ENDBRANCH  34  35
ENDBRANCH  33  34
ENDBRANCH  32  33
ENDBRANCH  31  32
ENDBRANCH  30  31
ENDBRANCH   1  30
TORSDOF 21
