REMARK SMILES Cc1ccc(C2=NN(C(=O)CCC(=O)OCCOCCOCCOCCOC(=O)c3ccc(-c4c5nc(c(-c6c(F)c(F)c(F)c(F)c6F)c6ccc([nH]6)c(-c6c(F)c(F)c(F)c(F)c6F)c6nc(c(-c7c(F)c(F)c(F)c(F)c7F)c7ccc4[nH]7)C=C6)C=C5)cc3)[C@H](C[C@H]3C=c4cccc(C)c4=NC3=O)C2)cc1
REMARK SMILES IDX 19 1 18 2 17 3 16 4 15 5 13 6 14 7 12 8 11 9 9 10 10 11 8 12
REMARK SMILES IDX 6 13 7 14 107 15 93 16 5 17 1 18 2 19 3 20 109 21 4 22
REMARK SMILES IDX 108 23 94 24 95 25 96 26 105 27 97 28 104 29 106 30 98 31
REMARK SMILES IDX 103 32 99 33 101 34 100 35 102 36 20 37 21 38 22 39 23 40
REMARK SMILES IDX 24 41 25 42 26 43 27 44 28 45 29 46 30 47 31 48 92 49 32 50
REMARK SMILES IDX 91 51 33 52 34 53 35 54 85 55 36 56 90 57 84 58 86 59 37 60
REMARK SMILES IDX 89 61 83 62 82 63 38 65 70 66 50 67 69 68 51 69 54 70 68 71
REMARK SMILES IDX 87 72 52 73 53 74 67 76 88 77 55 78 39 79 40 80 48 81 41 82
REMARK SMILES IDX 42 83 46 84 49 85 43 86 44 87 47 88 45 89 71 90 72 91 80 92
REMARK SMILES IDX 73 93 74 94 78 95 81 96 75 97 76 98 79 99 77 100 56 101
REMARK SMILES IDX 57 102 65 103 58 104 59 105 63 106 66 107 60 108 61 109
REMARK SMILES IDX 64 110 62 111
REMARK H PARENT 86 64 54 75
REMARK Flexibility Score: inf
ROOT
ATOM      1  C   UNL     1      -9.070   0.114  -1.396  1.00  0.00     0.188 C 
ENDROOT
BRANCH   1   2
ATOM      2  O   UNL     1      -8.894   0.879  -2.603  1.00  0.00    -0.376 OA
BRANCH   2   3
ATOM      3  C   UNL     1      -8.176   2.094  -2.498  1.00  0.00     0.202 C 
BRANCH   3   4
ATOM      4  C   UNL     1      -8.489   2.941  -1.306  1.00  0.00     0.261 C 
BRANCH   4   5
ATOM      5  O   UNL     1      -8.159   2.146  -0.144  1.00  0.00    -0.463 OA
BRANCH   5   6
ATOM      6  C   UNL     1      -8.909   2.096   0.951  1.00  0.00     0.306 C 
ATOM      7  O   UNL     1      -9.939   2.749   1.077  1.00  0.00    -0.252 OA
BRANCH   6   8
ATOM      8  C   UNL     1      -8.443   1.022   1.979  1.00  0.00     0.132 C 
BRANCH   8   9
ATOM      9  C   UNL     1      -7.248  -0.083   2.198  1.00  0.00     0.114 C 
BRANCH   9  10
ATOM     10  C   UNL     1      -5.945  -1.169   1.743  1.00  0.00     0.243 C 
ATOM     11  O   UNL     1      -6.048  -2.208   2.435  1.00  0.00    -0.273 OA
BRANCH  10  12
ATOM     12  N   UNL     1      -4.776  -1.074   0.688  1.00  0.00    -0.230 N 
ATOM     13  C   UNL     1      -1.847  -0.856  -0.244  1.00  0.00     0.070 C 
ATOM     14  N   UNL     1      -2.740  -1.296   1.029  1.00  0.00    -0.174 NA
ATOM     15  C   UNL     1      -3.019  -0.320  -1.772  1.00  0.00     0.086 C 
ATOM     16  C   UNL     1      -4.951  -0.614  -1.249  1.00  0.00     0.118 C 
BRANCH  13  17
ATOM     17  C   UNL     1      -0.449  -0.530  -0.167  1.00  0.00    -0.002 A 
ATOM     18  C   UNL     1       3.710   0.184   0.018  1.00  0.00     0.044 C 
ATOM     19  C   UNL     1       2.232  -0.029   0.047  1.00  0.00    -0.051 A 
ATOM     20  C   UNL     1       1.751  -1.347   0.109  1.00  0.00     0.004 A 
ATOM     21  C   UNL     1       1.344   1.050  -0.047  1.00  0.00     0.004 A 
ATOM     22  C   UNL     1       0.398  -1.602   0.024  1.00  0.00     0.010 A 
ATOM     23  C   UNL     1      -0.015   0.800  -0.163  1.00  0.00     0.010 A 
ENDBRANCH  13  17
BRANCH  16  24
ATOM     24  C   UNL     1      -6.636  -0.922  -2.272  1.00  0.00     0.045 C 
BRANCH  24  25
ATOM     25  C   UNL     1      -8.106  -2.257  -1.949  1.00  0.00     0.106 C 
ATOM     26  C   UNL     1      -8.476  -2.814  -0.373  1.00  0.00    -0.003 C 
ATOM     27  C   UNL     1      -9.546  -2.584  -2.559  1.00  0.00     0.253 C 
ATOM     28  C   UNL     1      -9.473  -3.499   0.155  1.00  0.00    -0.003 A 
ATOM     29  N   UNL     1     -10.028  -3.874  -2.210  1.00  0.00    -0.212 NA
ATOM     30  O   UNL     1     -10.116  -1.884  -3.386  1.00  0.00    -0.272 OA
ATOM     31  C   UNL     1      -9.271  -3.967   1.524  1.00  0.00     0.010 A 
ATOM     32  C   UNL     1      -9.900  -4.304  -0.980  1.00  0.00     0.077 A 
ATOM     33  C   UNL     1      -9.209  -5.282   1.741  1.00  0.00     0.001 A 
ATOM     34  C   UNL     1      -9.883  -5.768  -0.587  1.00  0.00    -0.025 A 
ATOM     35  C   UNL     1      -9.523  -6.181   0.653  1.00  0.00     0.005 A 
ATOM     36  C   UNL     1     -10.040  -6.702  -1.722  1.00  0.00     0.047 C 
ENDBRANCH  24  25
ENDBRANCH  16  24
ENDBRANCH  10  12
ENDBRANCH   9  10
ENDBRANCH   8   9
ENDBRANCH   6   8
ENDBRANCH   5   6
ENDBRANCH   4   5
ENDBRANCH   3   4
ENDBRANCH   2   3
ENDBRANCH   1   2
BRANCH   1  37
ATOM     37  C   UNL     1      -7.790  -0.518  -0.421  1.00  0.00     0.188 C 
BRANCH  37  38
ATOM     38  O   UNL     1      -6.538  -1.786  -0.472  1.00  0.00    -0.377 OA
BRANCH  38  39
ATOM     39  C   UNL     1      -5.947  -3.021  -1.523  1.00  0.00     0.188 C 
BRANCH  39  40
ATOM     40  C   UNL     1      -5.527  -2.854  -3.095  1.00  0.00     0.188 C 
BRANCH  40  41
ATOM     41  O   UNL     1      -6.539  -2.448  -4.044  1.00  0.00    -0.376 OA
BRANCH  41  42
ATOM     42  C   UNL     1      -7.285  -3.280  -4.885  1.00  0.00     0.202 C 
BRANCH  42  43
ATOM     43  C   UNL     1      -6.273  -4.196  -5.468  1.00  0.00     0.261 C 
BRANCH  43  44
ATOM     44  O   UNL     1      -5.395  -3.268  -6.274  1.00  0.00    -0.460 OA
BRANCH  44  45
ATOM     45  C   UNL     1      -4.286  -2.557  -5.828  1.00  0.00     0.338 C 
ATOM     46  O   UNL     1      -3.196  -3.119  -5.745  1.00  0.00    -0.246 OA
BRANCH  45  47
ATOM     47  C   UNL     1      -4.364  -1.008  -5.447  1.00  0.00     0.060 A 
ATOM     48  C   UNL     1      -3.273  -0.306  -4.897  1.00  0.00     0.016 A 
ATOM     49  C   UNL     1      -5.499  -0.219  -5.412  1.00  0.00     0.016 A 
ATOM     50  C   UNL     1      -3.408   0.933  -4.072  1.00  0.00     0.010 A 
ATOM     51  C   UNL     1      -5.628   0.900  -4.456  1.00  0.00     0.010 A 
ATOM     52  C   UNL     1      -4.641   1.359  -3.529  1.00  0.00    -0.014 A 
BRANCH  52  53
ATOM     53  C   UNL     1      -5.020   2.499  -2.232  1.00  0.00     0.031 A 
ATOM     54  C   UNL     1      -5.383   3.746  -3.020  1.00  0.00     0.074 A 
ATOM     55  C   UNL     1      -5.344   2.483  -0.742  1.00  0.00     0.049 A 
ATOM     56  N   UNL     1      -5.890   4.791  -2.500  1.00  0.00    -0.248 NA
ATOM     57  C   UNL     1      -5.449   3.840  -4.489  1.00  0.00     0.031 C 
ATOM     58  C   UNL     1      -6.054   3.358   0.291  1.00  0.00     0.029 A 
ATOM     59  N   UNL     1      -5.200   1.554   0.309  1.00  0.00    -0.354 N 
ATOM     60  C   UNL     1      -6.786   5.332  -3.409  1.00  0.00     0.074 A 
ATOM     61  C   UNL     1      -6.394   4.773  -4.672  1.00  0.00     0.031 C 
ATOM     62  C   UNL     1      -5.949   3.046   1.624  1.00  0.00     0.029 A 
ATOM     63  C   UNL     1      -5.093   1.934   1.664  1.00  0.00     0.049 A 
ATOM     64  H   UNL     1      -5.175   0.595   0.087  1.00  0.00     0.167 HD
ATOM     65  C   UNL     1      -7.834   6.046  -2.889  1.00  0.00     0.037 A 
ATOM     66  C   UNL     1      -3.887   1.815   2.289  1.00  0.00     0.037 A 
ATOM     67  C   UNL     1      -7.665   6.189  -1.405  1.00  0.00     0.049 A 
ATOM     68  C   UNL     1      -3.284   3.238   1.876  1.00  0.00     0.074 A 
ATOM     69  C   UNL     1      -8.440   5.981  -0.275  1.00  0.00     0.029 A 
ATOM     70  N   UNL     1      -6.367   6.362  -0.901  1.00  0.00    -0.354 N 
ATOM     71  N   UNL     1      -3.749   3.987   0.878  1.00  0.00    -0.248 NA
ATOM     72  C   UNL     1      -2.427   4.075   2.711  1.00  0.00     0.031 C 
ATOM     73  C   UNL     1      -7.555   5.961   0.876  1.00  0.00     0.029 A 
ATOM     74  C   UNL     1      -6.220   6.092   0.448  1.00  0.00     0.049 A 
ATOM     75  H   UNL     1      -5.616   6.654  -1.467  1.00  0.00     0.167 HD
ATOM     76  C   UNL     1      -3.838   5.303   1.284  1.00  0.00     0.074 A 
ATOM     77  C   UNL     1      -2.683   5.301   2.193  1.00  0.00     0.031 C 
ATOM     78  C   UNL     1      -4.867   6.253   1.068  1.00  0.00     0.037 A 
BRANCH  65  79
ATOM     79  C   UNL     1      -9.093   6.520  -3.632  1.00  0.00     0.064 A 
ATOM     80  C   UNL     1      -9.998   7.378  -2.962  1.00  0.00     0.173 A 
ATOM     81  C   UNL     1      -9.503   6.188  -4.947  1.00  0.00     0.173 A 
ATOM     82  F   UNL     1      -9.756   7.800  -1.715  1.00  0.00    -0.203 F 
ATOM     83  C   UNL     1     -11.176   7.869  -3.537  1.00  0.00     0.198 A 
ATOM     84  C   UNL     1     -10.665   6.722  -5.544  1.00  0.00     0.198 A 
ATOM     85  F   UNL     1      -8.820   5.322  -5.704  1.00  0.00    -0.203 F 
ATOM     86  F   UNL     1     -11.984   8.658  -2.816  1.00  0.00    -0.200 F 
ATOM     87  C   UNL     1     -11.500   7.563  -4.838  1.00  0.00     0.200 A 
ATOM     88  F   UNL     1     -10.970   6.415  -6.816  1.00  0.00    -0.200 F 
ATOM     89  F   UNL     1     -12.599   8.082  -5.405  1.00  0.00    -0.200 F 
ENDBRANCH  65  79
BRANCH  66  90
ATOM     90  C   UNL     1      -3.514   0.363   1.945  1.00  0.00     0.064 A 
ATOM     91  C   UNL     1      -3.634  -1.105   2.879  1.00  0.00     0.173 A 
ATOM     92  C   UNL     1      -3.466   0.101   0.222  1.00  0.00     0.173 A 
ATOM     93  F   UNL     1      -3.772  -1.030   4.214  1.00  0.00    -0.203 F 
ATOM     94  C   UNL     1      -3.682  -2.739   2.229  1.00  0.00     0.198 A 
ATOM     95  C   UNL     1      -3.540  -1.835  -0.462  1.00  0.00     0.198 A 
ATOM     96  F   UNL     1      -2.930   1.233  -0.306  1.00  0.00    -0.203 F 
ATOM     97  F   UNL     1      -3.787  -3.793   3.059  1.00  0.00    -0.200 F 
ATOM     98  C   UNL     1      -3.666  -3.099   0.649  1.00  0.00     0.200 A 
ATOM     99  F   UNL     1      -3.153  -2.356  -1.663  1.00  0.00    -0.200 F 
ATOM    100  F   UNL     1      -3.616  -4.356   0.168  1.00  0.00    -0.200 F 
ENDBRANCH  66  90
BRANCH  78 101
ATOM    101  C   UNL     1      -4.636   7.705   1.360  1.00  0.00     0.064 A 
ATOM    102  C   UNL     1      -3.838   8.131   2.401  1.00  0.00     0.173 A 
ATOM    103  C   UNL     1      -5.167   8.729   0.526  1.00  0.00     0.173 A 
ATOM    104  F   UNL     1      -3.591   7.338   3.452  1.00  0.00    -0.203 F 
ATOM    105  C   UNL     1      -3.289   9.400   2.379  1.00  0.00     0.198 A 
ATOM    106  C   UNL     1      -4.699  10.018   0.563  1.00  0.00     0.198 A 
ATOM    107  F   UNL     1      -6.153   8.554  -0.360  1.00  0.00    -0.203 F 
ATOM    108  F   UNL     1      -2.332   9.705   3.261  1.00  0.00    -0.200 F 
ATOM    109  C   UNL     1      -3.694  10.332   1.438  1.00  0.00     0.200 A 
ATOM    110  F   UNL     1      -5.205  10.921  -0.287  1.00  0.00    -0.200 F 
ATOM    111  F   UNL     1      -3.141  11.547   1.398  1.00  0.00    -0.200 F 
ENDBRANCH  78 101
ENDBRANCH  52  53
ENDBRANCH  45  47
ENDBRANCH  44  45
ENDBRANCH  43  44
ENDBRANCH  42  43
ENDBRANCH  41  42
ENDBRANCH  40  41
ENDBRANCH  39  40
ENDBRANCH  38  39
ENDBRANCH  37  38
ENDBRANCH   1  37
TORSDOF 26
