REMARK SMILES C[N@@H+]1CCC[C@@H](C[NH2+]CC(=O)OCCOCCOCCOCCOC(=O)c2ccc(-c3c4nc(c(-c5c(F)c(F)c(F)c(F)c5F)c5ccc([nH]5)c(-c5c(F)c(F)c(F)c(F)c5F)c5nc(c(-c6c(F)c(F)c(F)c(F)c6F)c6ccc3[nH]6)C=C5)C=C4)cc2)C1
REMARK SMILES IDX 17 1 16 2 15 3 14 4 13 5 12 6 10 7 11 8 9 9 8 10 7 13 6 14
REMARK SMILES IDX 1 15 2 16 3 17 90 18 4 20 5 21 18 22 19 23 20 24 21 25 22 26
REMARK SMILES IDX 23 27 24 28 25 29 26 30 27 31 28 32 89 33 29 34 88 35 30 36
REMARK SMILES IDX 31 37 32 38 82 39 33 40 87 41 81 42 83 43 34 44 86 45 80 46
REMARK SMILES IDX 79 47 35 49 67 50 47 51 66 52 48 53 51 54 65 55 84 56 49 57
REMARK SMILES IDX 50 58 64 60 85 61 52 62 36 63 37 64 45 65 38 66 39 67 43 68
REMARK SMILES IDX 46 69 40 70 41 71 44 72 42 73 68 74 69 75 77 76 70 77 71 78
REMARK SMILES IDX 75 79 78 80 72 81 73 82 76 83 74 84 53 85 54 86 62 87 55 88
REMARK SMILES IDX 56 89 60 90 63 91 57 92 58 93 61 94 59 95
REMARK H PARENT 8 11 8 12 2 19 83 48 51 59
REMARK Flexibility Score: inf
ROOT
ATOM      1  C   UNL     1      -1.724  -1.107   2.932  1.00  0.00     0.188 C 
ENDROOT
BRANCH   1   2
ATOM      2  C   UNL     1      -1.988  -1.378   4.417  1.00  0.00     0.188 C 
BRANCH   2   3
ATOM      3  O   UNL     1      -2.257  -0.217   5.173  1.00  0.00    -0.376 OA
BRANCH   3   4
ATOM      4  C   UNL     1      -1.195   0.456   5.837  1.00  0.00     0.202 C 
BRANCH   4   5
ATOM      5  C   UNL     1       0.307   0.357   5.476  1.00  0.00     0.261 C 
BRANCH   5   6
ATOM      6  O   UNL     1       0.739  -0.628   4.528  1.00  0.00    -0.459 OA
BRANCH   6   7
ATOM      7  C   UNL     1       1.343  -1.738   5.004  1.00  0.00     0.361 C 
ATOM      8  O   UNL     1       1.437  -1.994   6.202  1.00  0.00    -0.245 OA
BRANCH   7   9
ATOM      9  C   UNL     1       1.938  -2.662   3.937  1.00  0.00     0.384 C 
BRANCH   9  10
ATOM     10  N   UNL     1       1.577  -2.491   2.512  1.00  0.00    -0.337 N 
ATOM     11  H   UNL     1       1.983  -3.268   1.990  1.00  0.00     0.346 HD
ATOM     12  H   UNL     1       0.558  -2.464   2.483  1.00  0.00     0.346 HD
BRANCH  10  13
ATOM     13  C   UNL     1       2.029  -1.246   1.891  1.00  0.00     0.270 C 
BRANCH  13  14
ATOM     14  C   UNL     1       2.026  -1.320   0.341  1.00  0.00     0.099 C 
ATOM     15  C   UNL     1      -1.444  -0.568  -1.070  1.00  0.00     0.332 C 
ATOM     16  N   UNL     1      -0.216  -0.316  -0.316  1.00  0.00    -0.337 N 
ATOM     17  C   UNL     1       0.447   0.890  -0.817  1.00  0.00     0.262 C 
ATOM     18  C   UNL     1       0.648  -1.505  -0.333  1.00  0.00     0.271 C 
ATOM     19  H   UNL     1      -0.442  -0.139   0.663  1.00  0.00     0.347 HD
ATOM     20  C   UNL     1       1.792   1.151  -0.144  1.00  0.00     0.062 C 
ATOM     21  C   UNL     1       2.699  -0.070  -0.253  1.00  0.00     0.021 C 
ENDBRANCH  13  14
ENDBRANCH  10  13
ENDBRANCH   9  10
ENDBRANCH   7   9
ENDBRANCH   6   7
ENDBRANCH   5   6
ENDBRANCH   4   5
ENDBRANCH   3   4
ENDBRANCH   2   3
ENDBRANCH   1   2
BRANCH   1  22
ATOM     22  O   UNL     1      -1.000   0.075   2.620  1.00  0.00    -0.377 OA
BRANCH  22  23
ATOM     23  C   UNL     1      -1.696   1.314   2.680  1.00  0.00     0.188 C 
BRANCH  23  24
ATOM     24  C   UNL     1      -3.060   1.336   2.017  1.00  0.00     0.188 C 
BRANCH  24  25
ATOM     25  O   UNL     1      -3.999   0.420   2.561  1.00  0.00    -0.376 OA
BRANCH  25  26
ATOM     26  C   UNL     1      -5.233   0.300   1.851  1.00  0.00     0.202 C 
BRANCH  26  27
ATOM     27  C   UNL     1      -5.145   0.074   0.325  1.00  0.00     0.261 C 
BRANCH  27  28
ATOM     28  O   UNL     1      -4.530   1.121  -0.467  1.00  0.00    -0.460 OA
BRANCH  28  29
ATOM     29  C   UNL     1      -4.832   2.419  -0.199  1.00  0.00     0.338 C 
ATOM     30  O   UNL     1      -5.771   2.827   0.435  1.00  0.00    -0.246 OA
BRANCH  29  31
ATOM     31  C   UNL     1      -3.657   3.260  -0.596  1.00  0.00     0.060 A 
ATOM     32  C   UNL     1      -3.304   4.340   0.230  1.00  0.00     0.016 A 
ATOM     33  C   UNL     1      -2.871   2.969  -1.714  1.00  0.00     0.016 A 
ATOM     34  C   UNL     1      -2.213   5.157  -0.091  1.00  0.00     0.010 A 
ATOM     35  C   UNL     1      -1.777   3.785  -2.035  1.00  0.00     0.010 A 
ATOM     36  C   UNL     1      -1.473   4.918  -1.256  1.00  0.00    -0.014 A 
BRANCH  36  37
ATOM     37  C   UNL     1      -0.621   6.001  -1.826  1.00  0.00     0.031 A 
ATOM     38  C   UNL     1      -1.216   6.829  -2.939  1.00  0.00     0.074 A 
ATOM     39  C   UNL     1       0.612   6.300  -1.375  1.00  0.00     0.049 A 
ATOM     40  N   UNL     1      -0.688   7.802  -3.638  1.00  0.00    -0.248 NA
ATOM     41  C   UNL     1      -2.600   6.501  -3.323  1.00  0.00     0.031 C 
ATOM     42  C   UNL     1       1.312   5.628  -0.284  1.00  0.00     0.029 A 
ATOM     43  N   UNL     1       1.499   7.266  -1.798  1.00  0.00    -0.354 N 
ATOM     44  C   UNL     1      -1.666   8.184  -4.546  1.00  0.00     0.074 A 
ATOM     45  C   UNL     1      -2.800   7.311  -4.348  1.00  0.00     0.031 C 
ATOM     46  C   UNL     1       2.519   6.203  -0.121  1.00  0.00     0.029 A 
ATOM     47  C   UNL     1       2.690   7.268  -1.112  1.00  0.00     0.049 A 
ATOM     48  H   UNL     1       1.297   7.898  -2.525  1.00  0.00     0.167 HD
ATOM     49  C   UNL     1      -1.644   9.188  -5.453  1.00  0.00     0.037 A 
ATOM     50  C   UNL     1       3.791   8.034  -1.274  1.00  0.00     0.037 A 
ATOM     51  C   UNL     1      -0.544  10.088  -5.649  1.00  0.00     0.049 A 
ATOM     52  C   UNL     1       3.819   9.109  -2.340  1.00  0.00     0.074 A 
ATOM     53  C   UNL     1      -0.446  11.145  -6.535  1.00  0.00     0.029 A 
ATOM     54  N   UNL     1       0.648  10.038  -4.946  1.00  0.00    -0.354 N 
ATOM     55  N   UNL     1       2.877   9.480  -3.172  1.00  0.00    -0.248 NA
ATOM     56  C   UNL     1       5.069   9.876  -2.483  1.00  0.00     0.031 C 
ATOM     57  C   UNL     1       0.825  11.710  -6.401  1.00  0.00     0.029 A 
ATOM     58  C   UNL     1       1.496  11.037  -5.392  1.00  0.00     0.049 A 
ATOM     59  H   UNL     1       0.861   9.390  -4.236  1.00  0.00     0.167 HD
ATOM     60  C   UNL     1       3.402  10.546  -3.897  1.00  0.00     0.074 A 
ATOM     61  C   UNL     1       4.746  10.765  -3.412  1.00  0.00     0.031 C 
ATOM     62  C   UNL     1       2.817  11.280  -4.875  1.00  0.00     0.037 A 
BRANCH  49  63
ATOM     63  C   UNL     1      -2.857   9.354  -6.317  1.00  0.00     0.064 A 
ATOM     64  C   UNL     1      -4.067   9.842  -5.800  1.00  0.00     0.173 A 
ATOM     65  C   UNL     1      -2.803   9.033  -7.681  1.00  0.00     0.173 A 
ATOM     66  F   UNL     1      -4.173  10.142  -4.497  1.00  0.00    -0.203 F 
ATOM     67  C   UNL     1      -5.189   9.973  -6.613  1.00  0.00     0.198 A 
ATOM     68  C   UNL     1      -3.917   9.196  -8.497  1.00  0.00     0.198 A 
ATOM     69  F   UNL     1      -1.668   8.563  -8.220  1.00  0.00    -0.203 F 
ATOM     70  F   UNL     1      -6.350  10.385  -6.088  1.00  0.00    -0.200 F 
ATOM     71  C   UNL     1      -5.111   9.657  -7.962  1.00  0.00     0.200 A 
ATOM     72  F   UNL     1      -3.838   8.900  -9.802  1.00  0.00    -0.200 F 
ATOM     73  F   UNL     1      -6.190   9.787  -8.744  1.00  0.00    -0.200 F 
ENDBRANCH  49  63
BRANCH  50  74
ATOM     74  C   UNL     1       4.987   7.829  -0.411  1.00  0.00     0.064 A 
ATOM     75  C   UNL     1       5.395   8.810   0.505  1.00  0.00     0.173 A 
ATOM     76  C   UNL     1       5.786   6.684  -0.536  1.00  0.00     0.173 A 
ATOM     77  F   UNL     1       4.685   9.940   0.636  1.00  0.00    -0.203 F 
ATOM     78  C   UNL     1       6.570   8.666   1.242  1.00  0.00     0.198 A 
ATOM     79  C   UNL     1       6.946   6.527   0.222  1.00  0.00     0.198 A 
ATOM     80  F   UNL     1       5.448   5.720  -1.405  1.00  0.00    -0.203 F 
ATOM     81  F   UNL     1       6.970   9.648   2.062  1.00  0.00    -0.200 F 
ATOM     82  C   UNL     1       7.343   7.523   1.102  1.00  0.00     0.200 A 
ATOM     83  F   UNL     1       7.688   5.420   0.086  1.00  0.00    -0.200 F 
ATOM     84  F   UNL     1       8.478   7.389   1.801  1.00  0.00    -0.200 F 
ENDBRANCH  50  74
BRANCH  62  85
ATOM     85  C   UNL     1       3.576  12.442  -5.451  1.00  0.00     0.064 A 
ATOM     86  C   UNL     1       4.655  12.262  -6.327  1.00  0.00     0.173 A 
ATOM     87  C   UNL     1       3.147  13.755  -5.199  1.00  0.00     0.173 A 
ATOM     88  F   UNL     1       5.109  11.029  -6.594  1.00  0.00    -0.203 F 
ATOM     89  C   UNL     1       5.283  13.355  -6.922  1.00  0.00     0.198 A 
ATOM     90  C   UNL     1       3.758  14.842  -5.817  1.00  0.00     0.198 A 
ATOM     91  F   UNL     1       2.111  13.982  -4.377  1.00  0.00    -0.203 F 
ATOM     92  F   UNL     1       6.329  13.161  -7.738  1.00  0.00    -0.200 F 
ATOM     93  C   UNL     1       4.827  14.642  -6.676  1.00  0.00     0.200 A 
ATOM     94  F   UNL     1       3.304  16.083  -5.592  1.00  0.00    -0.200 F 
ATOM     95  F   UNL     1       5.418  15.689  -7.269  1.00  0.00    -0.200 F 
ENDBRANCH  62  85
ENDBRANCH  36  37
ENDBRANCH  29  31
ENDBRANCH  28  29
ENDBRANCH  27  28
ENDBRANCH  26  27
ENDBRANCH  25  26
ENDBRANCH  24  25
ENDBRANCH  23  24
ENDBRANCH  22  23
ENDBRANCH   1  22
TORSDOF 23
