REMARK SMILES COc1cc(NC(=O)CN2C(=O)c3ccccc3C2=O)c(C(=O)OCCOCCOCCOCCOC(=O)c2ccc(-c3c4nc(c(-c5c(F)c(F)c(F)c(F)c5F)c5ccc([nH]5)c(-c5c(F)c(F)c(F)c(F)c5F)c5nc(c(-c6c(F)c(F)c(F)c(F)c6F)c6ccc3[nH]6)C=C5)C=C4)cc2)cc1OC
REMARK SMILES IDX 29 1 28 2 27 3 26 4 25 5 24 6 22 7 23 8 21 9 3 10 4 11
REMARK SMILES IDX 103 12 5 13 102 14 2 15 1 16 104 17 105 18 6 19 7 20 8 22
REMARK SMILES IDX 9 23 10 24 11 25 19 26 12 27 13 28 18 29 20 30 14 31 17 32
REMARK SMILES IDX 15 33 16 34 30 35 31 36 32 37 33 38 34 39 35 40 36 41 37 42
REMARK SMILES IDX 38 43 39 44 40 45 101 46 41 47 100 48 42 49 43 50 44 51
REMARK SMILES IDX 94 52 45 53 99 54 93 55 95 56 46 57 98 58 92 59 91 60 47 62
REMARK SMILES IDX 79 63 59 64 78 65 60 66 63 67 77 68 96 69 61 70 62 71 76 73
REMARK SMILES IDX 97 74 64 75 48 76 49 77 57 78 50 79 51 80 55 81 58 82 52 83
REMARK SMILES IDX 53 84 56 85 54 86 80 87 81 88 89 89 82 90 83 91 87 92 90 93
REMARK SMILES IDX 84 94 85 95 88 96 86 97 65 98 66 99 74 100 67 101 68 102
REMARK SMILES IDX 72 103 75 104 69 105 70 106 73 107 71 108
REMARK H PARENT 6 21 95 61 63 72
REMARK Flexibility Score: inf
ROOT
ATOM      1  C   UNL     1       1.990  -5.825  -4.305  1.00  0.00     0.188 C 
ENDROOT
BRANCH   1   2
ATOM      2  C   UNL     1       0.980  -5.766  -5.470  1.00  0.00     0.188 C 
BRANCH   2   3
ATOM      3  O   UNL     1       1.588  -5.949  -6.738  1.00  0.00    -0.376 OA
BRANCH   3   4
ATOM      4  C   UNL     1       1.781  -4.837  -7.587  1.00  0.00     0.202 C 
BRANCH   4   5
ATOM      5  C   UNL     1       2.572  -3.617  -7.094  1.00  0.00     0.261 C 
BRANCH   5   6
ATOM      6  O   UNL     1       2.373  -3.207  -5.738  1.00  0.00    -0.460 OA
BRANCH   6   7
ATOM      7  C   UNL     1       1.206  -2.611  -5.419  1.00  0.00     0.340 C 
ATOM      8  O   UNL     1       0.263  -2.420  -6.167  1.00  0.00    -0.246 OA
BRANCH   7   9
ATOM      9  C   UNL     1       1.176  -2.337  -3.957  1.00  0.00     0.087 A 
ATOM     10  C   UNL     1       1.181  -1.548  -1.291  1.00  0.00     0.162 A 
ATOM     11  C   UNL     1      -0.007  -1.970  -1.911  1.00  0.00     0.077 A 
ATOM     12  C   UNL     1       2.396  -1.615  -1.970  1.00  0.00     0.161 A 
ATOM     13  C   UNL     1      -0.015  -2.461  -3.210  1.00  0.00     0.059 A 
ATOM     14  C   UNL     1       2.375  -1.973  -3.318  1.00  0.00     0.068 A 
BRANCH  10  15
ATOM     15  O   UNL     1       1.118  -1.158   0.019  1.00  0.00    -0.493 OA
ATOM     16  C   UNL     1       0.382   0.058   0.172  1.00  0.00     0.278 C 
ENDBRANCH  10  15
BRANCH  12  17
ATOM     17  O   UNL     1       3.652  -1.358  -1.500  1.00  0.00    -0.493 OA
ATOM     18  C   UNL     1       3.777  -0.664  -0.268  1.00  0.00     0.278 C 
ENDBRANCH  12  17
BRANCH  13  19
ATOM     19  N   UNL     1      -1.129  -3.123  -3.770  1.00  0.00    -0.324 N 
ATOM     20  C   UNL     1      -2.259  -3.708  -3.275  1.00  0.00     0.244 C 
ATOM     21  H   UNL     1      -1.080  -3.174  -4.752  1.00  0.00     0.170 HD
ATOM     22  O   UNL     1      -3.009  -4.221  -4.119  1.00  0.00    -0.273 OA
BRANCH  20  23
ATOM     23  C   UNL     1      -2.713  -3.694  -1.811  1.00  0.00     0.229 C 
BRANCH  23  24
ATOM     24  N   UNL     1      -1.838  -4.291  -0.818  1.00  0.00    -0.265 N 
ATOM     25  C   UNL     1      -1.481  -5.613  -0.819  1.00  0.00     0.262 C 
ATOM     26  C   UNL     1      -1.546  -3.706   0.385  1.00  0.00     0.262 C 
ATOM     27  O   UNL     1      -1.718  -6.470  -1.641  1.00  0.00    -0.269 OA
ATOM     28  C   UNL     1      -0.746  -5.848   0.426  1.00  0.00     0.053 A 
ATOM     29  C   UNL     1      -0.771  -4.674   1.153  1.00  0.00     0.053 A 
ATOM     30  O   UNL     1      -1.891  -2.616   0.808  1.00  0.00    -0.269 OA
ATOM     31  C   UNL     1      -0.115  -6.983   0.895  1.00  0.00     0.015 A 
ATOM     32  C   UNL     1      -0.154  -4.559   2.384  1.00  0.00     0.015 A 
ATOM     33  C   UNL     1       0.525  -6.892   2.136  1.00  0.00     0.001 A 
ATOM     34  C   UNL     1       0.510  -5.689   2.873  1.00  0.00     0.001 A 
ENDBRANCH  23  24
ENDBRANCH  20  23
ENDBRANCH  13  19
ENDBRANCH   7   9
ENDBRANCH   6   7
ENDBRANCH   5   6
ENDBRANCH   4   5
ENDBRANCH   3   4
ENDBRANCH   2   3
ENDBRANCH   1   2
BRANCH   1  35
ATOM     35  O   UNL     1       3.368  -5.804  -4.650  1.00  0.00    -0.377 OA
BRANCH  35  36
ATOM     36  C   UNL     1       3.898  -6.814  -5.509  1.00  0.00     0.188 C 
BRANCH  36  37
ATOM     37  C   UNL     1       3.098  -8.079  -5.914  1.00  0.00     0.188 C 
BRANCH  37  38
ATOM     38  O   UNL     1       1.981  -8.366  -5.093  1.00  0.00    -0.376 OA
BRANCH  38  39
ATOM     39  C   UNL     1       2.058  -9.463  -4.205  1.00  0.00     0.202 C 
BRANCH  39  40
ATOM     40  C   UNL     1       3.090  -9.357  -3.076  1.00  0.00     0.261 C 
BRANCH  40  41
ATOM     41  O   UNL     1       4.438  -9.077  -3.483  1.00  0.00    -0.460 OA
BRANCH  41  42
ATOM     42  C   UNL     1       5.070 -10.017  -4.219  1.00  0.00     0.338 C 
ATOM     43  O   UNL     1       4.638 -11.097  -4.571  1.00  0.00    -0.246 OA
BRANCH  42  44
ATOM     44  C   UNL     1       6.342  -9.427  -4.686  1.00  0.00     0.060 A 
ATOM     45  C   UNL     1       6.575  -9.300  -6.062  1.00  0.00     0.016 A 
ATOM     46  C   UNL     1       7.290  -8.984  -3.761  1.00  0.00     0.016 A 
ATOM     47  C   UNL     1       7.778  -8.759  -6.518  1.00  0.00     0.010 A 
ATOM     48  C   UNL     1       8.502  -8.464  -4.218  1.00  0.00     0.010 A 
ATOM     49  C   UNL     1       8.765  -8.381  -5.598  1.00  0.00    -0.014 A 
BRANCH  49  50
ATOM     50  C   UNL     1      10.143  -8.101  -6.065  1.00  0.00     0.031 A 
ATOM     51  C   UNL     1      11.157  -9.209  -5.984  1.00  0.00     0.074 A 
ATOM     52  C   UNL     1      10.490  -6.899  -6.557  1.00  0.00     0.049 A 
ATOM     53  N   UNL     1      12.434  -9.197  -6.269  1.00  0.00    -0.248 NA
ATOM     54  C   UNL     1      10.658 -10.510  -5.510  1.00  0.00     0.031 C 
ATOM     55  C   UNL     1       9.589  -5.764  -6.730  1.00  0.00     0.029 A 
ATOM     56  N   UNL     1      11.707  -6.437  -6.995  1.00  0.00    -0.354 N 
ATOM     57  C   UNL     1      12.889 -10.481  -6.002  1.00  0.00     0.074 A 
ATOM     58  C   UNL     1      11.764 -11.236  -5.497  1.00  0.00     0.031 C 
ATOM     59  C   UNL     1      10.286  -4.729  -7.233  1.00  0.00     0.029 A 
ATOM     60  C   UNL     1      11.688  -5.120  -7.379  1.00  0.00     0.049 A 
ATOM     61  H   UNL     1      12.516  -6.998  -7.029  1.00  0.00     0.167 HD
ATOM     62  C   UNL     1      14.133 -10.988  -6.171  1.00  0.00     0.037 A 
ATOM     63  C   UNL     1      12.696  -4.320  -7.780  1.00  0.00     0.037 A 
ATOM     64  C   UNL     1      15.252 -10.230  -6.664  1.00  0.00     0.049 A 
ATOM     65  C   UNL     1      14.094  -4.882  -7.867  1.00  0.00     0.074 A 
ATOM     66  C   UNL     1      16.551 -10.651  -6.885  1.00  0.00     0.029 A 
ATOM     67  N   UNL     1      15.205  -8.884  -7.001  1.00  0.00    -0.354 N 
ATOM     68  N   UNL     1      14.516  -6.103  -7.640  1.00  0.00    -0.248 NA
ATOM     69  C   UNL     1      15.158  -3.949  -8.268  1.00  0.00     0.031 C 
ATOM     70  C   UNL     1      17.305  -9.546  -7.293  1.00  0.00     0.029 A 
ATOM     71  C   UNL     1      16.461  -8.451  -7.396  1.00  0.00     0.049 A 
ATOM     72  H   UNL     1      14.399  -8.320  -6.965  1.00  0.00     0.167 HD
ATOM     73  C   UNL     1      15.880  -6.094  -7.907  1.00  0.00     0.074 A 
ATOM     74  C   UNL     1      16.214  -4.748  -8.323  1.00  0.00     0.031 C 
ATOM     75  C   UNL     1      16.776  -7.110  -7.820  1.00  0.00     0.037 A 
BRANCH  62  76
ATOM     76  C   UNL     1      14.353 -12.422  -5.780  1.00  0.00     0.064 A 
ATOM     77  C   UNL     1      13.777 -13.483  -6.496  1.00  0.00     0.173 A 
ATOM     78  C   UNL     1      15.160 -12.739  -4.676  1.00  0.00     0.173 A 
ATOM     79  F   UNL     1      12.984 -13.235  -7.549  1.00  0.00    -0.203 F 
ATOM     80  C   UNL     1      13.970 -14.804  -6.099  1.00  0.00     0.198 A 
ATOM     81  C   UNL     1      15.380 -14.062  -4.305  1.00  0.00     0.198 A 
ATOM     82  F   UNL     1      15.738 -11.765  -3.958  1.00  0.00    -0.203 F 
ATOM     83  F   UNL     1      13.358 -15.796  -6.761  1.00  0.00    -0.200 F 
ATOM     84  C   UNL     1      14.776 -15.093  -5.009  1.00  0.00     0.200 A 
ATOM     85  F   UNL     1      16.171 -14.340  -3.259  1.00  0.00    -0.200 F 
ATOM     86  F   UNL     1      14.964 -16.365  -4.630  1.00  0.00    -0.200 F 
ENDBRANCH  62  76
BRANCH  63  87
ATOM     87  C   UNL     1      12.430  -2.898  -8.129  1.00  0.00     0.064 A 
ATOM     88  C   UNL     1      12.588  -2.437  -9.443  1.00  0.00     0.173 A 
ATOM     89  C   UNL     1      12.045  -1.966  -7.154  1.00  0.00     0.173 A 
ATOM     90  F   UNL     1      12.983  -3.283 -10.406  1.00  0.00    -0.203 F 
ATOM     91  C   UNL     1      12.390  -1.096  -9.766  1.00  0.00     0.198 A 
ATOM     92  C   UNL     1      11.816  -0.631  -7.484  1.00  0.00     0.198 A 
ATOM     93  F   UNL     1      11.886  -2.352  -5.880  1.00  0.00    -0.203 F 
ATOM     94  F   UNL     1      12.601  -0.672 -11.020  1.00  0.00    -0.200 F 
ATOM     95  C   UNL     1      11.999  -0.195  -8.787  1.00  0.00     0.200 A 
ATOM     96  F   UNL     1      11.428   0.234  -6.537  1.00  0.00    -0.200 F 
ATOM     97  F   UNL     1      11.808   1.094  -9.098  1.00  0.00    -0.200 F 
ENDBRANCH  63  87
BRANCH  75  98
ATOM     98  C   UNL     1      18.194  -6.824  -8.231  1.00  0.00     0.064 A 
ATOM     99  C   UNL     1      19.037  -6.001  -7.470  1.00  0.00     0.173 A 
ATOM    100  C   UNL     1      18.729  -7.420  -9.384  1.00  0.00     0.173 A 
ATOM    101  F   UNL     1      18.573  -5.396  -6.366  1.00  0.00    -0.203 F 
ATOM    102  C   UNL     1      20.351  -5.762  -7.863  1.00  0.00     0.198 A 
ATOM    103  C   UNL     1      20.054  -7.209  -9.754  1.00  0.00     0.198 A 
ATOM    104  F   UNL     1      17.971  -8.224 -10.145  1.00  0.00    -0.203 F 
ATOM    105  F   UNL     1      21.121  -4.929  -7.149  1.00  0.00    -0.200 F 
ATOM    106  C   UNL     1      20.862  -6.373  -8.999  1.00  0.00     0.200 A 
ATOM    107  F   UNL     1      20.550  -7.815 -10.842  1.00  0.00    -0.200 F 
ATOM    108  F   UNL     1      22.130  -6.149  -9.370  1.00  0.00    -0.200 F 
ENDBRANCH  75  98
ENDBRANCH  49  50
ENDBRANCH  42  44
ENDBRANCH  41  42
ENDBRANCH  40  41
ENDBRANCH  39  40
ENDBRANCH  38  39
ENDBRANCH  37  38
ENDBRANCH  36  37
ENDBRANCH  35  36
ENDBRANCH   1  35
TORSDOF 25
