REMARK SMILES CCc1cccc2c3c([nH]c12)[C@](CC)(CC(=O)OCCOCCOCCOCCOC(=O)c1ccc(-c2c4nc(c(-c5c(F)c(F)c(F)c(F)c5F)c5ccc([nH]5)c(-c5c(F)c(F)c(F)c(F)c5F)c5nc(c(-c6c(F)c(F)c(F)c(F)c6F)c6ccc2[nH]6)C=C5)C=C4)cc1)OCC3
REMARK SMILES IDX 24 1 23 2 22 3 21 4 20 5 19 6 18 7 16 8 17 9 15 10 12 11
REMARK SMILES IDX 3 12 4 13 11 14 5 15 7 16 10 17 6 18 8 19 9 20 98 22 97 23
REMARK SMILES IDX 96 24 2 25 1 26 13 27 14 28 25 29 26 30 27 31 28 32 29 33
REMARK SMILES IDX 30 34 31 35 32 36 33 37 34 38 95 39 35 40 94 41 36 42 37 43
REMARK SMILES IDX 38 44 88 45 39 46 93 47 87 48 89 49 40 50 92 51 86 52 85 53
REMARK SMILES IDX 41 55 73 56 53 57 72 58 54 59 57 60 71 61 90 62 55 63 56 64
REMARK SMILES IDX 70 66 91 67 58 68 42 69 43 70 51 71 44 72 45 73 49 74 52 75
REMARK SMILES IDX 46 76 47 77 50 78 48 79 74 80 75 81 83 82 76 83 77 84 81 85
REMARK SMILES IDX 84 86 78 87 79 88 82 89 80 90 59 91 60 92 68 93 61 94 62 95
REMARK SMILES IDX 66 96 69 97 63 98 64 99 67 100 65 101
REMARK H PARENT 10 21 89 54 57 65
REMARK Flexibility Score: inf
ROOT
ATOM      1  O   UNL     1       1.016  -0.131   8.075  1.00  0.00    -0.377 OA
ENDROOT
BRANCH   1   2
ATOM      2  C   UNL     1       0.446  -0.500   6.846  1.00  0.00     0.188 C 
BRANCH   2   3
ATOM      3  C   UNL     1      -0.996  -0.999   6.958  1.00  0.00     0.188 C 
BRANCH   3   4
ATOM      4  O   UNL     1      -1.497  -1.576   8.166  1.00  0.00    -0.376 OA
BRANCH   4   5
ATOM      5  C   UNL     1      -0.822  -1.339   9.392  1.00  0.00     0.202 C 
BRANCH   5   6
ATOM      6  C   UNL     1       0.343  -2.317   9.706  1.00  0.00     0.261 C 
BRANCH   6   7
ATOM      7  O   UNL     1       1.293  -2.618   8.640  1.00  0.00    -0.463 OA
BRANCH   7   8
ATOM      8  C   UNL     1       0.878  -3.517   7.720  1.00  0.00     0.309 C 
ATOM      9  O   UNL     1      -0.195  -4.116   7.808  1.00  0.00    -0.252 OA
BRANCH   8  10
ATOM     10  C   UNL     1       1.867  -3.936   6.638  1.00  0.00     0.164 C 
BRANCH  10  11
ATOM     11  C   UNL     1       2.959  -3.206   5.803  1.00  0.00     0.118 C 
ATOM     12  C   UNL     1       0.841  -0.495   1.996  1.00  0.00    -0.024 A 
ATOM     13  C   UNL     1       0.728   0.900   1.828  1.00  0.00     0.006 A 
ATOM     14  C   UNL     1       1.611  -0.940   3.099  1.00  0.00     0.049 A 
ATOM     15  C   UNL     1       1.656   1.751   2.390  1.00  0.00     0.001 A 
ATOM     16  C   UNL     1       2.499  -0.076   3.746  1.00  0.00     0.003 A 
ATOM     17  N   UNL     1       1.753  -2.180   3.711  1.00  0.00    -0.356 N 
ATOM     18  C   UNL     1       2.636   1.234   3.236  1.00  0.00     0.010 A 
ATOM     19  C   UNL     1       3.087  -0.804   4.824  1.00  0.00    -0.014 A 
ATOM     20  C   UNL     1       2.564  -2.087   4.829  1.00  0.00     0.052 A 
ATOM     21  H   UNL     1       1.333  -3.012   3.392  1.00  0.00     0.166 HD
ATOM     22  C   UNL     1       4.061  -0.382   5.864  1.00  0.00     0.066 C 
ATOM     23  C   UNL     1       4.052  -1.377   7.036  1.00  0.00     0.166 C 
ATOM     24  O   UNL     1       4.064  -2.744   6.621  1.00  0.00    -0.368 OA
BRANCH  12  25
ATOM     25  C   UNL     1       0.306  -1.360   0.878  1.00  0.00     0.034 C 
ATOM     26  C   UNL     1       0.921  -0.891  -0.454  1.00  0.00     0.009 C 
ENDBRANCH  12  25
BRANCH  11  27
ATOM     27  C   UNL     1       3.631  -4.310   4.903  1.00  0.00     0.039 C 
ATOM     28  C   UNL     1       4.286  -5.464   5.660  1.00  0.00     0.007 C 
ENDBRANCH  11  27
ENDBRANCH  10  11
ENDBRANCH   8  10
ENDBRANCH   7   8
ENDBRANCH   6   7
ENDBRANCH   5   6
ENDBRANCH   4   5
ENDBRANCH   3   4
ENDBRANCH   2   3
ENDBRANCH   1   2
BRANCH   1  29
ATOM     29  C   UNL     1       1.435   1.186   8.293  1.00  0.00     0.188 C 
BRANCH  29  30
ATOM     30  C   UNL     1       0.408   2.267   7.980  1.00  0.00     0.188 C 
BRANCH  30  31
ATOM     31  O   UNL     1       0.028   2.264   6.620  1.00  0.00    -0.376 OA
BRANCH  31  32
ATOM     32  C   UNL     1       0.766   3.042   5.687  1.00  0.00     0.202 C 
BRANCH  32  33
ATOM     33  C   UNL     1       2.299   3.161   5.730  1.00  0.00     0.261 C 
BRANCH  33  34
ATOM     34  O   UNL     1       2.860   3.326   7.017  1.00  0.00    -0.460 OA
BRANCH  34  35
ATOM     35  C   UNL     1       3.416   4.478   7.433  1.00  0.00     0.338 C 
ATOM     36  O   UNL     1       3.575   5.511   6.838  1.00  0.00    -0.246 OA
BRANCH  35  37
ATOM     37  C   UNL     1       3.404   4.222   8.886  1.00  0.00     0.060 A 
ATOM     38  C   UNL     1       4.060   3.086   9.385  1.00  0.00     0.016 A 
ATOM     39  C   UNL     1       2.318   4.802   9.552  1.00  0.00     0.016 A 
ATOM     40  C   UNL     1       3.526   2.458  10.498  1.00  0.00     0.010 A 
ATOM     41  C   UNL     1       1.759   4.142  10.635  1.00  0.00     0.010 A 
ATOM     42  C   UNL     1       2.335   2.950  11.078  1.00  0.00    -0.014 A 
BRANCH  42  43
ATOM     43  C   UNL     1       1.942   2.396  12.374  1.00  0.00     0.031 A 
ATOM     44  C   UNL     1       3.003   2.754  13.350  1.00  0.00     0.074 A 
ATOM     45  C   UNL     1       0.781   1.799  12.715  1.00  0.00     0.049 A 
ATOM     46  N   UNL     1       3.831   1.956  13.936  1.00  0.00    -0.248 NA
ATOM     47  C   UNL     1       3.371   4.184  13.441  1.00  0.00     0.031 C 
ATOM     48  C   UNL     1      -0.423   1.621  11.906  1.00  0.00     0.029 A 
ATOM     49  N   UNL     1       0.398   1.284  13.924  1.00  0.00    -0.354 N 
ATOM     50  C   UNL     1       4.694   2.794  14.629  1.00  0.00     0.074 A 
ATOM     51  C   UNL     1       4.532   4.114  14.086  1.00  0.00     0.031 C 
ATOM     52  C   UNL     1      -1.456   1.245  12.698  1.00  0.00     0.029 A 
ATOM     53  C   UNL     1      -0.974   1.062  14.055  1.00  0.00     0.049 A 
ATOM     54  H   UNL     1       1.040   1.084  14.644  1.00  0.00     0.167 HD
ATOM     55  C   UNL     1       5.219   2.414  15.820  1.00  0.00     0.037 A 
ATOM     56  C   UNL     1      -1.655   0.838  15.214  1.00  0.00     0.037 A 
ATOM     57  C   UNL     1       5.195   0.984  15.967  1.00  0.00     0.049 A 
ATOM     58  C   UNL     1      -0.658   0.400  16.225  1.00  0.00     0.074 A 
ATOM     59  C   UNL     1       5.779  -0.065  15.287  1.00  0.00     0.029 A 
ATOM     60  N   UNL     1       4.151   0.448  16.678  1.00  0.00    -0.354 N 
ATOM     61  N   UNL     1      -0.016  -0.733  16.168  1.00  0.00    -0.248 NA
ATOM     62  C   UNL     1      -0.040   1.434  17.038  1.00  0.00     0.031 C 
ATOM     63  C   UNL     1       4.803  -1.103  15.285  1.00  0.00     0.029 A 
ATOM     64  C   UNL     1       3.700  -0.668  16.021  1.00  0.00     0.049 A 
ATOM     65  H   UNL     1       3.787   0.804  17.520  1.00  0.00     0.167 HD
ATOM     66  C   UNL     1       1.278  -0.415  16.551  1.00  0.00     0.074 A 
ATOM     67  C   UNL     1       1.186   0.917  17.142  1.00  0.00     0.031 C 
ATOM     68  C   UNL     1       2.336  -1.140  16.086  1.00  0.00     0.037 A 
BRANCH  55  69
ATOM     69  C   UNL     1       5.342   3.374  16.971  1.00  0.00     0.064 A 
ATOM     70  C   UNL     1       6.103   3.013  18.092  1.00  0.00     0.173 A 
ATOM     71  C   UNL     1       4.533   4.526  17.125  1.00  0.00     0.173 A 
ATOM     72  F   UNL     1       6.854   1.902  18.074  1.00  0.00    -0.203 F 
ATOM     73  C   UNL     1       6.044   3.743  19.282  1.00  0.00     0.198 A 
ATOM     74  C   UNL     1       4.529   5.290  18.286  1.00  0.00     0.198 A 
ATOM     75  F   UNL     1       3.627   4.895  16.212  1.00  0.00    -0.203 F 
ATOM     76  F   UNL     1       6.701   3.303  20.363  1.00  0.00    -0.200 F 
ATOM     77  C   UNL     1       5.266   4.885  19.375  1.00  0.00     0.200 A 
ATOM     78  F   UNL     1       3.742   6.372  18.359  1.00  0.00    -0.200 F 
ATOM     79  F   UNL     1       5.181   5.563  20.526  1.00  0.00    -0.200 F 
ENDBRANCH  55  69
BRANCH  56  80
ATOM     80  C   UNL     1      -2.994   1.353  15.627  1.00  0.00     0.064 A 
ATOM     81  C   UNL     1      -3.608   0.913  16.817  1.00  0.00     0.173 A 
ATOM     82  C   UNL     1      -3.555   2.503  15.039  1.00  0.00     0.173 A 
ATOM     83  F   UNL     1      -3.121  -0.149  17.476  1.00  0.00    -0.203 F 
ATOM     84  C   UNL     1      -4.680   1.605  17.400  1.00  0.00     0.198 A 
ATOM     85  C   UNL     1      -4.628   3.189  15.617  1.00  0.00     0.198 A 
ATOM     86  F   UNL     1      -3.013   3.052  13.944  1.00  0.00    -0.203 F 
ATOM     87  F   UNL     1      -5.185   1.197  18.573  1.00  0.00    -0.200 F 
ATOM     88  C   UNL     1      -5.178   2.752  16.806  1.00  0.00     0.200 A 
ATOM     89  F   UNL     1      -5.075   4.317  15.049  1.00  0.00    -0.200 F 
ATOM     90  F   UNL     1      -6.152   3.458  17.398  1.00  0.00    -0.200 F 
ENDBRANCH  56  80
BRANCH  68  91
ATOM     91  C   UNL     1       2.043  -2.452  15.407  1.00  0.00     0.064 A 
ATOM     92  C   UNL     1       1.339  -2.584  14.197  1.00  0.00     0.173 A 
ATOM     93  C   UNL     1       2.642  -3.605  15.933  1.00  0.00     0.173 A 
ATOM     94  F   UNL     1       0.808  -1.517  13.584  1.00  0.00    -0.203 F 
ATOM     95  C   UNL     1       1.226  -3.822  13.562  1.00  0.00     0.198 A 
ATOM     96  C   UNL     1       2.562  -4.828  15.275  1.00  0.00     0.198 A 
ATOM     97  F   UNL     1       3.360  -3.530  17.065  1.00  0.00    -0.203 F 
ATOM     98  F   UNL     1       0.546  -3.927  12.411  1.00  0.00    -0.200 F 
ATOM     99  C   UNL     1       1.850  -4.939  14.093  1.00  0.00     0.200 A 
ATOM    100  F   UNL     1       3.208  -5.893  15.771  1.00  0.00    -0.200 F 
ATOM    101  F   UNL     1       1.790  -6.114  13.452  1.00  0.00    -0.200 F 
ENDBRANCH  68  91
ENDBRANCH  42  43
ENDBRANCH  35  37
ENDBRANCH  34  35
ENDBRANCH  33  34
ENDBRANCH  32  33
ENDBRANCH  31  32
ENDBRANCH  30  31
ENDBRANCH  29  30
ENDBRANCH   1  29
TORSDOF 23
