REMARK SMILES CC(C)(C)OC(=O)N[C@H](Cc1ccc(N=[N+]=[N-])cc1)C(=O)OCCOCCOCCOCCOC(=O)c1ccc(-c2c3nc(c(-c4c(F)c(F)c(F)c(F)c4F)c4ccc([nH]4)c(-c4c(F)c(F)c(F)c(F)c4F)c4nc(c(-c5c(F)c(F)c(F)c(F)c5F)c5ccc2[nH]5)C=C4)C=C3)cc1
REMARK SMILES IDX 27 1 26 2 25 3 24 4 23 5 22 6 20 7 21 8 9 9 8 10 6 11 7 12
REMARK SMILES IDX 5 14 2 15 1 16 3 17 4 18 10 19 11 20 12 21 19 22 13 23 18 24
REMARK SMILES IDX 14 25 15 26 16 27 17 28 28 29 29 30 30 31 31 32 32 33 33 34
REMARK SMILES IDX 34 35 35 36 36 37 37 38 38 39 99 40 39 41 98 42 40 43 41 44
REMARK SMILES IDX 42 45 92 46 43 47 97 48 91 49 93 50 44 51 96 52 90 53 89 54
REMARK SMILES IDX 45 56 77 57 57 58 76 59 58 60 61 61 75 62 94 63 59 64 60 65
REMARK SMILES IDX 74 67 95 68 62 69 46 70 47 71 55 72 48 73 49 74 53 75 56 76
REMARK SMILES IDX 50 77 51 78 54 79 52 80 78 81 79 82 87 83 80 84 81 85 85 86
REMARK SMILES IDX 88 87 82 88 83 89 86 90 84 91 63 92 64 93 72 94 65 95 66 96
REMARK SMILES IDX 70 97 73 98 67 99 68 100 71 101 69 102
REMARK H PARENT 8 13 93 55 61 66
REMARK Flexibility Score: inf
ROOT
ATOM      1  C   UNL     1      -0.840  -4.918   2.059  1.00  0.00     0.188 C 
ENDROOT
BRANCH   1   2
ATOM      2  C   UNL     1      -0.699  -5.465   0.634  1.00  0.00     0.188 C 
BRANCH   2   3
ATOM      3  O   UNL     1      -0.813  -6.854   0.417  1.00  0.00    -0.376 OA
BRANCH   3   4
ATOM      4  C   UNL     1      -0.060  -7.904   0.980  1.00  0.00     0.202 C 
BRANCH   4   5
ATOM      5  C   UNL     1       1.152  -7.861   1.933  1.00  0.00     0.261 C 
BRANCH   5   6
ATOM      6  O   UNL     1       1.593  -6.652   2.540  1.00  0.00    -0.462 OA
BRANCH   6   7
ATOM      7  C   UNL     1       2.206  -5.768   1.710  1.00  0.00     0.329 C 
ATOM      8  O   UNL     1       2.237  -5.893   0.492  1.00  0.00    -0.250 OA
BRANCH   7   9
ATOM      9  C   UNL     1       2.915  -4.628   2.476  1.00  0.00     0.199 C 
BRANCH   9  10
ATOM     10  N   UNL     1       4.152  -5.121   3.078  1.00  0.00    -0.308 N 
ATOM     11  C   UNL     1       5.139  -5.770   2.393  1.00  0.00     0.408 C 
ATOM     12  O   UNL     1       6.224  -6.006   2.899  1.00  0.00    -0.225 OA
ATOM     13  H   UNL     1       4.282  -4.975   4.043  1.00  0.00     0.168 HD
BRANCH  11  14
ATOM     14  O   UNL     1       4.720  -6.172   1.177  1.00  0.00    -0.444 OA
BRANCH  14  15
ATOM     15  C   UNL     1       5.378  -7.210   0.416  1.00  0.00     0.106 C 
ATOM     16  C   UNL     1       4.452  -7.521  -0.777  1.00  0.00     0.056 C 
ATOM     17  C   UNL     1       5.503  -8.485   1.256  1.00  0.00     0.056 C 
ATOM     18  C   UNL     1       6.709  -6.697  -0.120  1.00  0.00     0.056 C 
ENDBRANCH  14  15
ENDBRANCH  11  14
ENDBRANCH   9  10
BRANCH   9  19
ATOM     19  C   UNL     1       1.956  -3.983   3.498  1.00  0.00     0.072 C 
BRANCH  19  20
ATOM     20  C   UNL     1       2.550  -3.091   4.554  1.00  0.00    -0.045 A 
ATOM     21  C   UNL     1       2.412  -3.443   5.904  1.00  0.00     0.004 A 
ATOM     22  C   UNL     1       3.187  -1.895   4.224  1.00  0.00     0.004 A 
ATOM     23  C   UNL     1       2.934  -2.625   6.905  1.00  0.00     0.010 A 
ATOM     24  C   UNL     1       3.703  -1.076   5.234  1.00  0.00     0.010 A 
ATOM     25  C   UNL     1       3.599  -1.439   6.586  1.00  0.00     0.038 A 
BRANCH  25  26
ATOM     26  N   UNL     1       4.072  -0.657   7.655  1.00  0.00    -0.061 NA
ATOM     27  N   UNL     1       5.064   0.042   7.401  1.00  0.00     0.005 N 
ATOM     28  N   UNL     1       5.972   0.700   7.170  1.00  0.00    -0.003 NA
ENDBRANCH  25  26
ENDBRANCH  19  20
ENDBRANCH   9  19
ENDBRANCH   7   9
ENDBRANCH   6   7
ENDBRANCH   5   6
ENDBRANCH   4   5
ENDBRANCH   3   4
ENDBRANCH   2   3
ENDBRANCH   1   2
BRANCH   1  29
ATOM     29  O   UNL     1      -1.994  -5.133   2.842  1.00  0.00    -0.377 OA
BRANCH  29  30
ATOM     30  C   UNL     1      -2.473  -6.463   2.853  1.00  0.00     0.188 C 
BRANCH  30  31
ATOM     31  C   UNL     1      -3.499  -6.683   1.738  1.00  0.00     0.188 C 
BRANCH  31  32
ATOM     32  O   UNL     1      -3.548  -5.624   0.800  1.00  0.00    -0.376 OA
BRANCH  32  33
ATOM     33  C   UNL     1      -4.238  -4.415   1.084  1.00  0.00     0.202 C 
BRANCH  33  34
ATOM     34  C   UNL     1      -4.402  -3.766   2.480  1.00  0.00     0.261 C 
BRANCH  34  35
ATOM     35  O   UNL     1      -4.549  -4.606   3.632  1.00  0.00    -0.460 OA
BRANCH  35  36
ATOM     36  C   UNL     1      -5.647  -5.376   3.719  1.00  0.00     0.338 C 
ATOM     37  O   UNL     1      -6.583  -5.417   2.944  1.00  0.00    -0.246 OA
BRANCH  36  38
ATOM     38  C   UNL     1      -5.416  -6.342   4.819  1.00  0.00     0.060 A 
ATOM     39  C   UNL     1      -5.476  -7.710   4.521  1.00  0.00     0.016 A 
ATOM     40  C   UNL     1      -5.121  -5.917   6.119  1.00  0.00     0.016 A 
ATOM     41  C   UNL     1      -5.301  -8.654   5.527  1.00  0.00     0.010 A 
ATOM     42  C   UNL     1      -4.984  -6.865   7.139  1.00  0.00     0.010 A 
ATOM     43  C   UNL     1      -5.129  -8.234   6.851  1.00  0.00    -0.014 A 
BRANCH  43  44
ATOM     44  C   UNL     1      -5.403  -9.221   7.923  1.00  0.00     0.031 A 
ATOM     45  C   UNL     1      -6.793  -9.256   8.501  1.00  0.00     0.074 A 
ATOM     46  C   UNL     1      -4.492 -10.140   8.287  1.00  0.00     0.049 A 
ATOM     47  N   UNL     1      -7.311 -10.070   9.385  1.00  0.00    -0.248 NA
ATOM     48  C   UNL     1      -7.730  -8.232   8.007  1.00  0.00     0.031 C 
ATOM     49  C   UNL     1      -3.136 -10.244   7.756  1.00  0.00     0.029 A 
ATOM     50  N   UNL     1      -4.586 -11.174   9.184  1.00  0.00    -0.354 N 
ATOM     51  C   UNL     1      -8.627  -9.658   9.548  1.00  0.00     0.074 A 
ATOM     52  C   UNL     1      -8.819  -8.496   8.710  1.00  0.00     0.031 C 
ATOM     53  C   UNL     1      -2.520 -11.287   8.339  1.00  0.00     0.029 A 
ATOM     54  C   UNL     1      -3.432 -11.908   9.300  1.00  0.00     0.049 A 
ATOM     55  H   UNL     1      -5.403 -11.370   9.697  1.00  0.00     0.167 HD
ATOM     56  C   UNL     1      -9.597 -10.207  10.317  1.00  0.00     0.037 A 
ATOM     57  C   UNL     1      -3.149 -12.954  10.101  1.00  0.00     0.037 A 
ATOM     58  C   UNL     1      -9.402 -11.359  11.156  1.00  0.00     0.049 A 
ATOM     59  C   UNL     1      -4.225 -13.500  11.007  1.00  0.00     0.074 A 
ATOM     60  C   UNL     1     -10.316 -11.994  11.977  1.00  0.00     0.029 A 
ATOM     61  N   UNL     1      -8.202 -12.044  11.288  1.00  0.00    -0.354 N 
ATOM     62  N   UNL     1      -5.473 -13.117  11.144  1.00  0.00    -0.248 NA
ATOM     63  C   UNL     1      -3.853 -14.637  11.860  1.00  0.00     0.031 C 
ATOM     64  C   UNL     1      -9.653 -13.021  12.656  1.00  0.00     0.029 A 
ATOM     65  C   UNL     1      -8.347 -13.080  12.197  1.00  0.00     0.049 A 
ATOM     66  H   UNL     1      -7.371 -11.826  10.807  1.00  0.00     0.167 HD
ATOM     67  C   UNL     1      -6.043 -13.991  12.064  1.00  0.00     0.074 A 
ATOM     68  C   UNL     1      -5.009 -14.932  12.437  1.00  0.00     0.031 C 
ATOM     69  C   UNL     1      -7.309 -14.015  12.553  1.00  0.00     0.037 A 
BRANCH  56  70
ATOM     70  C   UNL     1     -10.942  -9.539  10.314  1.00  0.00     0.064 A 
ATOM     71  C   UNL     1     -11.778  -9.554   9.186  1.00  0.00     0.173 A 
ATOM     72  C   UNL     1     -11.408  -8.885  11.465  1.00  0.00     0.173 A 
ATOM     73  F   UNL     1     -11.374 -10.147   8.053  1.00  0.00    -0.203 F 
ATOM     74  C   UNL     1     -13.015  -8.914   9.202  1.00  0.00     0.198 A 
ATOM     75  C   UNL     1     -12.661  -8.278  11.489  1.00  0.00     0.198 A 
ATOM     76  F   UNL     1     -10.650  -8.838  12.570  1.00  0.00    -0.203 F 
ATOM     77  F   UNL     1     -13.771  -8.891   8.095  1.00  0.00    -0.200 F 
ATOM     78  C   UNL     1     -13.459  -8.284  10.355  1.00  0.00     0.200 A 
ATOM     79  F   UNL     1     -13.093  -7.682  12.609  1.00  0.00    -0.200 F 
ATOM     80  F   UNL     1     -14.653  -7.675  10.372  1.00  0.00    -0.200 F 
ENDBRANCH  56  70
BRANCH  57  81
ATOM     81  C   UNL     1      -1.789 -13.558  10.090  1.00  0.00     0.064 A 
ATOM     82  C   UNL     1      -1.577 -14.872   9.650  1.00  0.00     0.173 A 
ATOM     83  C   UNL     1      -0.677 -12.842  10.559  1.00  0.00     0.173 A 
ATOM     84  F   UNL     1      -2.611 -15.608   9.215  1.00  0.00    -0.203 F 
ATOM     85  C   UNL     1      -0.313 -15.457   9.708  1.00  0.00     0.198 A 
ATOM     86  C   UNL     1       0.592 -13.416  10.584  1.00  0.00     0.198 A 
ATOM     87  F   UNL     1      -0.823 -11.582  10.993  1.00  0.00    -0.203 F 
ATOM     88  F   UNL     1      -0.151 -16.735   9.339  1.00  0.00    -0.200 F 
ATOM     89  C   UNL     1       0.771 -14.727  10.170  1.00  0.00     0.200 A 
ATOM     90  F   UNL     1       1.639 -12.701  11.016  1.00  0.00    -0.200 F 
ATOM     91  F   UNL     1       1.986 -15.289  10.225  1.00  0.00    -0.200 F 
ENDBRANCH  57  81
BRANCH  69  92
ATOM     92  C   UNL     1      -7.663 -15.134  13.495  1.00  0.00     0.064 A 
ATOM     93  C   UNL     1      -7.103 -15.239  14.777  1.00  0.00     0.173 A 
ATOM     94  C   UNL     1      -8.587 -16.118  13.106  1.00  0.00     0.173 A 
ATOM     95  F   UNL     1      -6.210 -14.331  15.200  1.00  0.00    -0.203 F 
ATOM     96  C   UNL     1      -7.409 -16.313  15.609  1.00  0.00     0.198 A 
ATOM     97  C   UNL     1      -8.924 -17.167  13.957  1.00  0.00     0.198 A 
ATOM     98  F   UNL     1      -9.168 -16.062  11.898  1.00  0.00    -0.203 F 
ATOM     99  F   UNL     1      -6.798 -16.433  16.796  1.00  0.00    -0.200 F 
ATOM    100  C   UNL     1      -8.322 -17.273  15.201  1.00  0.00     0.200 A 
ATOM    101  F   UNL     1      -9.824 -18.080  13.568  1.00  0.00    -0.200 F 
ATOM    102  F   UNL     1      -8.613 -18.308  16.001  1.00  0.00    -0.200 F 
ENDBRANCH  69  92
ENDBRANCH  43  44
ENDBRANCH  36  38
ENDBRANCH  35  36
ENDBRANCH  34  35
ENDBRANCH  33  34
ENDBRANCH  32  33
ENDBRANCH  31  32
ENDBRANCH  30  31
ENDBRANCH  29  30
ENDBRANCH   1  29
TORSDOF 26
