REMARK SMILES COC(=O)c1ccc(C)c2c1[C@H]1C=CC[C@H]1[C@@H](c1ccc(C(=O)OCCOCCOCCOCCOC(=O)c3ccc(-c4c5nc(c(-c6c(F)c(F)c(F)c(F)c6F)c6ccc([nH]6)c(-c6c(F)c(F)c(F)c(F)c6F)c6nc(c(-c7c(F)c(F)c(F)c(F)c7F)c7ccc4[nH]7)C=C6)C=C5)cc3)cc1)N2
REMARK SMILES IDX 29 1 28 2 27 3 26 4 25 5 24 6 22 7 23 8 21 9 18 10 19 11
REMARK SMILES IDX 103 12 20 13 102 14 17 15 5 16 6 17 11 18 7 19 10 20 12 21
REMARK SMILES IDX 8 22 104 23 13 24 16 25 9 26 14 28 15 29 3 30 4 31 2 32 1 33
REMARK SMILES IDX 30 34 31 35 32 36 33 37 34 38 35 39 36 40 37 41 38 42 39 43
REMARK SMILES IDX 40 44 101 45 41 46 100 47 42 48 43 49 44 50 94 51 45 52
REMARK SMILES IDX 99 53 93 54 95 55 46 56 98 57 92 58 91 59 47 61 79 62 59 63
REMARK SMILES IDX 78 64 60 65 63 66 77 67 96 68 61 69 62 70 76 72 97 73 64 74
REMARK SMILES IDX 48 75 49 76 57 77 50 78 51 79 55 80 58 81 52 82 53 83 56 84
REMARK SMILES IDX 54 85 80 86 81 87 89 88 82 89 83 90 87 91 90 92 84 93 85 94
REMARK SMILES IDX 88 95 86 96 65 97 66 98 74 99 67 100 68 101 72 102 75 103
REMARK SMILES IDX 69 104 70 105 73 106 71 107
REMARK H PARENT 104 27 95 60 63 71
REMARK Flexibility Score: inf
ROOT
ATOM      1  C   UNL     1       5.662  -5.553   2.135  1.00  0.00     0.188 C 
ENDROOT
BRANCH   1   2
ATOM      2  C   UNL     1       4.694  -5.893   3.289  1.00  0.00     0.188 C 
BRANCH   2   3
ATOM      3  O   UNL     1       5.314  -6.510   4.406  1.00  0.00    -0.376 OA
BRANCH   3   4
ATOM      4  C   UNL     1       4.976  -7.854   4.700  1.00  0.00     0.202 C 
BRANCH   4   5
ATOM      5  C   UNL     1       5.410  -8.930   3.692  1.00  0.00     0.261 C 
BRANCH   5   6
ATOM      6  O   UNL     1       5.133  -8.636   2.317  1.00  0.00    -0.460 OA
BRANCH   6   7
ATOM      7  C   UNL     1       3.844  -8.752   1.930  1.00  0.00     0.338 C 
ATOM      8  O   UNL     1       2.912  -9.132   2.618  1.00  0.00    -0.246 OA
BRANCH   7   9
ATOM      9  C   UNL     1       3.697  -8.106   0.606  1.00  0.00     0.060 A 
ATOM     10  C   UNL     1       3.362  -6.718  -1.839  1.00  0.00    -0.025 A 
ATOM     11  C   UNL     1       2.522  -6.484  -0.735  1.00  0.00     0.007 A 
ATOM     12  C   UNL     1       4.416  -7.634  -1.662  1.00  0.00     0.007 A 
ATOM     13  C   UNL     1       2.663  -7.186   0.460  1.00  0.00     0.016 A 
ATOM     14  C   UNL     1       4.595  -8.313  -0.445  1.00  0.00     0.016 A 
BRANCH  10  15
ATOM     15  C   UNL     1       3.117  -6.079  -3.214  1.00  0.00     0.114 C 
ATOM     16  C   UNL     1       0.404  -2.985  -2.099  1.00  0.00     0.065 A 
ATOM     17  C   UNL     1      -0.926  -3.334  -1.845  1.00  0.00     0.016 A 
ATOM     18  C   UNL     1       1.298  -3.913  -2.678  1.00  0.00    -0.003 A 
ATOM     19  C   UNL     1      -1.386  -4.601  -2.186  1.00  0.00     0.006 A 
ATOM     20  C   UNL     1       0.816  -5.197  -3.049  1.00  0.00     0.042 A 
ATOM     21  C   UNL     1       2.759  -3.559  -2.890  1.00  0.00     0.050 C 
ATOM     22  C   UNL     1      -0.533  -5.538  -2.793  1.00  0.00    -0.028 A 
ATOM     23  N   UNL     1       1.700  -6.148  -3.548  1.00  0.00    -0.377 N 
ATOM     24  C   UNL     1       3.573  -3.270  -1.650  1.00  0.00    -0.023 C 
ATOM     25  C   UNL     1       3.615  -4.659  -3.543  1.00  0.00     0.031 C 
ATOM     26  C   UNL     1      -1.127  -6.897  -3.070  1.00  0.00     0.046 C 
ATOM     27  H   UNL     1       1.367  -6.871  -4.128  1.00  0.00     0.161 HD
ATOM     28  C   UNL     1       4.835  -3.701  -1.774  1.00  0.00    -0.030 C 
ATOM     29  C   UNL     1       5.051  -4.373  -3.089  1.00  0.00     0.034 C 
BRANCH  16  30
ATOM     30  C   UNL     1       0.829  -1.605  -1.763  1.00  0.00     0.338 C 
ATOM     31  O   UNL     1       1.418  -0.858  -2.524  1.00  0.00    -0.246 OA
BRANCH  30  32
ATOM     32  O   UNL     1       0.500  -1.348  -0.471  1.00  0.00    -0.465 OA
ATOM     33  C   UNL     1       0.935  -0.067  -0.014  1.00  0.00     0.282 C 
ENDBRANCH  30  32
ENDBRANCH  16  30
ENDBRANCH  10  15
ENDBRANCH   7   9
ENDBRANCH   6   7
ENDBRANCH   5   6
ENDBRANCH   4   5
ENDBRANCH   3   4
ENDBRANCH   2   3
ENDBRANCH   1   2
BRANCH   1  34
ATOM     34  O   UNL     1       6.976  -6.096   2.151  1.00  0.00    -0.377 OA
BRANCH  34  35
ATOM     35  C   UNL     1       7.744  -6.048   3.349  1.00  0.00     0.188 C 
BRANCH  35  36
ATOM     36  C   UNL     1       7.541  -4.927   4.397  1.00  0.00     0.188 C 
BRANCH  36  37
ATOM     37  O   UNL     1       6.658  -3.898   3.988  1.00  0.00    -0.376 OA
BRANCH  37  38
ATOM     38  C   UNL     1       7.221  -2.637   3.681  1.00  0.00     0.202 C 
BRANCH  38  39
ATOM     39  C   UNL     1       8.219  -2.573   2.517  1.00  0.00     0.261 C 
BRANCH  39  40
ATOM     40  O   UNL     1       9.281  -3.539   2.526  1.00  0.00    -0.460 OA
BRANCH  40  41
ATOM     41  C   UNL     1      10.245  -3.409   3.461  1.00  0.00     0.338 C 
ATOM     42  O   UNL     1      10.326  -2.563   4.335  1.00  0.00    -0.246 OA
BRANCH  41  43
ATOM     43  C   UNL     1      11.122  -4.591   3.343  1.00  0.00     0.060 A 
ATOM     44  C   UNL     1      11.124  -5.561   4.356  1.00  0.00     0.016 A 
ATOM     45  C   UNL     1      11.921  -4.748   2.208  1.00  0.00     0.016 A 
ATOM     46  C   UNL     1      11.935  -6.691   4.237  1.00  0.00     0.010 A 
ATOM     47  C   UNL     1      12.763  -5.857   2.110  1.00  0.00     0.010 A 
ATOM     48  C   UNL     1      12.793  -6.817   3.137  1.00  0.00    -0.014 A 
BRANCH  48  49
ATOM     49  C   UNL     1      13.894  -7.807   3.178  1.00  0.00     0.031 A 
ATOM     50  C   UNL     1      15.202  -7.365   3.772  1.00  0.00     0.074 A 
ATOM     51  C   UNL     1      13.744  -9.058   2.713  1.00  0.00     0.049 A 
ATOM     52  N   UNL     1      16.332  -8.015   3.875  1.00  0.00    -0.248 NA
ATOM     53  C   UNL     1      15.239  -6.000   4.326  1.00  0.00     0.031 C 
ATOM     54  C   UNL     1      12.510  -9.616   2.167  1.00  0.00     0.029 A 
ATOM     55  N   UNL     1      14.650 -10.086   2.622  1.00  0.00    -0.354 N 
ATOM     56  C   UNL     1      17.205  -7.145   4.513  1.00  0.00     0.074 A 
ATOM     57  C   UNL     1      16.492  -5.909   4.741  1.00  0.00     0.031 C 
ATOM     58  C   UNL     1      12.740 -10.886   1.785  1.00  0.00     0.029 A 
ATOM     59  C   UNL     1      14.144 -11.217   2.031  1.00  0.00     0.049 A 
ATOM     60  H   UNL     1      15.576 -10.018   2.951  1.00  0.00     0.167 HD
ATOM     61  C   UNL     1      18.486  -7.364   4.886  1.00  0.00     0.037 A 
ATOM     62  C   UNL     1      14.756 -12.374   1.710  1.00  0.00     0.037 A 
ATOM     63  C   UNL     1      19.199  -8.587   4.639  1.00  0.00     0.049 A 
ATOM     64  C   UNL     1      16.220 -12.552   2.035  1.00  0.00     0.074 A 
ATOM     65  C   UNL     1      20.503  -8.904   4.973  1.00  0.00     0.029 A 
ATOM     66  N   UNL     1      18.669  -9.690   3.988  1.00  0.00    -0.354 N 
ATOM     67  N   UNL     1      17.037 -11.736   2.656  1.00  0.00    -0.248 NA
ATOM     68  C   UNL     1      16.848 -13.813   1.612  1.00  0.00     0.031 C 
ATOM     69  C   UNL     1      20.781 -10.178   4.472  1.00  0.00     0.029 A 
ATOM     70  C   UNL     1      19.631 -10.681   3.883  1.00  0.00     0.049 A 
ATOM     71  H   UNL     1      17.747  -9.759   3.650  1.00  0.00     0.167 HD
ATOM     72  C   UNL     1      18.259 -12.393   2.726  1.00  0.00     0.074 A 
ATOM     73  C   UNL     1      18.076 -13.683   2.095  1.00  0.00     0.031 C 
ATOM     74  C   UNL     1      19.429 -11.966   3.264  1.00  0.00     0.037 A 
BRANCH  61  75
ATOM     75  C   UNL     1      19.208  -6.252   5.587  1.00  0.00     0.064 A 
ATOM     76  C   UNL     1      18.893  -5.894   6.907  1.00  0.00     0.173 A 
ATOM     77  C   UNL     1      20.267  -5.582   4.958  1.00  0.00     0.173 A 
ATOM     78  F   UNL     1      17.876  -6.492   7.545  1.00  0.00    -0.203 F 
ATOM     79  C   UNL     1      19.609  -4.899   7.567  1.00  0.00     0.198 A 
ATOM     80  C   UNL     1      21.000  -4.610   5.632  1.00  0.00     0.198 A 
ATOM     81  F   UNL     1      20.605  -5.887   3.696  1.00  0.00    -0.203 F 
ATOM     82  F   UNL     1      19.271  -4.551   8.816  1.00  0.00    -0.200 F 
ATOM     83  C   UNL     1      20.669  -4.267   6.934  1.00  0.00     0.200 A 
ATOM     84  F   UNL     1      22.032  -4.009   5.023  1.00  0.00    -0.200 F 
ATOM     85  F   UNL     1      21.371  -3.326   7.579  1.00  0.00    -0.200 F 
ENDBRANCH  61  75
BRANCH  62  86
ATOM     86  C   UNL     1      13.990 -13.462   1.044  1.00  0.00     0.064 A 
ATOM     87  C   UNL     1      13.739 -14.674   1.703  1.00  0.00     0.173 A 
ATOM     88  C   UNL     1      13.505 -13.322  -0.266  1.00  0.00     0.173 A 
ATOM     89  F   UNL     1      14.207 -14.870   2.944  1.00  0.00    -0.203 F 
ATOM     90  C   UNL     1      13.042 -15.705   1.076  1.00  0.00     0.198 A 
ATOM     91  C   UNL     1      12.783 -14.342  -0.881  1.00  0.00     0.198 A 
ATOM     92  F   UNL     1      13.725 -12.187  -0.946  1.00  0.00    -0.203 F 
ATOM     93  F   UNL     1      12.854 -16.868   1.714  1.00  0.00    -0.200 F 
ATOM     94  C   UNL     1      12.557 -15.536  -0.212  1.00  0.00     0.200 A 
ATOM     95  F   UNL     1      12.307 -14.170  -2.122  1.00  0.00    -0.200 F 
ATOM     96  F   UNL     1      11.880 -16.524  -0.812  1.00  0.00    -0.200 F 
ENDBRANCH  62  86
BRANCH  74  97
ATOM     97  C   UNL     1      20.605 -12.901   3.227  1.00  0.00     0.064 A 
ATOM     98  C   UNL     1      21.280 -13.185   2.032  1.00  0.00     0.173 A 
ATOM     99  C   UNL     1      21.120 -13.441   4.416  1.00  0.00     0.173 A 
ATOM    100  F   UNL     1      20.824 -12.701   0.866  1.00  0.00    -0.203 F 
ATOM    101  C   UNL     1      22.419 -13.988   2.027  1.00  0.00     0.198 A 
ATOM    102  C   UNL     1      22.277 -14.214   4.412  1.00  0.00     0.198 A 
ATOM    103  F   UNL     1      20.519 -13.189   5.589  1.00  0.00    -0.203 F 
ATOM    104  F   UNL     1      23.028 -14.274   0.868  1.00  0.00    -0.200 F 
ATOM    105  C   UNL     1      22.923 -14.491   3.217  1.00  0.00     0.200 A 
ATOM    106  F   UNL     1      22.774 -14.680   5.566  1.00  0.00    -0.200 F 
ATOM    107  F   UNL     1      24.032 -15.242   3.212  1.00  0.00    -0.200 F 
ENDBRANCH  74  97
ENDBRANCH  48  49
ENDBRANCH  41  43
ENDBRANCH  40  41
ENDBRANCH  39  40
ENDBRANCH  38  39
ENDBRANCH  37  38
ENDBRANCH  36  37
ENDBRANCH  35  36
ENDBRANCH  34  35
ENDBRANCH   1  34
TORSDOF 23
