REMARK SMILES CCc1cc(S(F)(F)(F)(F)F)cc2c1O[C@@H](C(F)(F)F)C(C(=O)OCCOCCOCCOCCOC(=O)c1ccc(-c3c4nc(c(-c5c(F)c(F)c(F)c(F)c5F)c5ccc([nH]5)c(-c5c(F)c(F)c(F)c(F)c5F)c5nc(c(-c6c(F)c(F)c(F)c(F)c6F)c6ccc3[nH]6)C=C5)C=C4)cc1)=C2
REMARK SMILES IDX 31 1 30 2 29 3 28 4 27 5 26 6 25 7 24 8 22 9 23 10 21 11
REMARK SMILES IDX 3 12 4 13 14 14 5 15 13 16 15 17 12 18 102 19 16 20 2 21
REMARK SMILES IDX 1 22 6 23 7 24 8 25 9 26 10 27 11 28 17 29 18 30 19 31 20 32
REMARK SMILES IDX 32 33 33 34 34 35 35 36 36 37 37 38 38 39 39 40 40 41 101 42
REMARK SMILES IDX 41 43 100 44 42 45 43 46 44 47 94 48 45 49 99 50 93 51 95 52
REMARK SMILES IDX 46 53 98 54 92 55 91 56 47 58 79 59 59 60 78 61 60 62 63 63
REMARK SMILES IDX 77 64 96 65 61 66 62 67 76 69 97 70 64 71 48 72 49 73 57 74
REMARK SMILES IDX 50 75 51 76 55 77 58 78 52 79 53 80 56 81 54 82 80 83 81 84
REMARK SMILES IDX 89 85 82 86 83 87 87 88 90 89 84 90 85 91 88 92 86 93 65 94
REMARK SMILES IDX 66 95 74 96 67 97 68 98 72 99 75 100 69 101 70 102 73 103
REMARK SMILES IDX 71 104
REMARK H PARENT 95 57 63 68
REMARK Flexibility Score: inf
ROOT
ATOM      1  C   UNL     1      -2.661  10.167   0.254  1.00  0.00     0.188 C 
ENDROOT
BRANCH   1   2
ATOM      2  O   UNL     1      -2.295   8.919  -0.316  1.00  0.00    -0.377 OA
BRANCH   2   3
ATOM      3  C   UNL     1      -2.945   7.869   0.386  1.00  0.00     0.188 C 
BRANCH   3   4
ATOM      4  C   UNL     1      -2.527   7.902   1.847  1.00  0.00     0.188 C 
BRANCH   4   5
ATOM      5  O   UNL     1      -2.893   9.150   2.416  1.00  0.00    -0.376 OA
BRANCH   5   6
ATOM      6  C   UNL     1      -2.243  10.200   1.715  1.00  0.00     0.202 C 
BRANCH   6   7
ATOM      7  C   UNL     1      -0.737  10.019   1.815  1.00  0.00     0.261 C 
BRANCH   7   8
ATOM      8  O   UNL     1      -0.371   8.771   1.246  1.00  0.00    -0.460 OA
BRANCH   8   9
ATOM      9  C   UNL     1      -0.897   7.565   1.780  1.00  0.00     0.338 C 
ATOM     10  O   UNL     1      -1.696   7.603   2.767  1.00  0.00    -0.246 OA
BRANCH   9  11
ATOM     11  C   UNL     1      -0.504   6.229   1.170  1.00  0.00     0.087 C 
ATOM     12  C   UNL     1       0.909   2.517  -0.121  1.00  0.00    -0.004 A 
ATOM     13  C   UNL     1       1.617   2.421  -1.306  1.00  0.00     0.032 A 
ATOM     14  C   UNL     1       0.502   3.757   0.307  1.00  0.00     0.131 A 
ATOM     15  C   UNL     1       1.913   3.539  -2.041  1.00  0.00     0.108 A 
ATOM     16  C   UNL     1       0.767   4.905  -0.418  1.00  0.00     0.019 A 
ATOM     17  O   UNL     1      -0.099   3.849   1.538  1.00  0.00    -0.475 OA
ATOM     18  C   UNL     1       1.485   4.774  -1.602  1.00  0.00     0.036 A 
ATOM     19  C   UNL     1       0.329   6.174   0.138  1.00  0.00     0.027 C 
ATOM     20  C   UNL     1      -1.059   4.926   1.730  1.00  0.00     0.316 C 
BRANCH  12  21
ATOM     21  C   UNL     1       0.403   1.317   0.663  1.00  0.00     0.036 C 
ATOM     22  C   UNL     1       0.909   0.038   0.017  1.00  0.00     0.009 C 
ENDBRANCH  12  21
BRANCH  15  23
ATOM     23  S   UNL     1       2.861   3.395  -3.576  1.00  0.00     0.310 S 
ATOM     24  F   UNL     1       4.242   3.328  -2.800  1.00  0.00    -0.094 F 
ATOM     25  F   UNL     1       3.024   4.962  -3.591  1.00  0.00    -0.094 F 
ATOM     26  F   UNL     1       3.668   3.271  -4.899  1.00  0.00    -0.094 F 
ATOM     27  F   UNL     1       2.808   1.820  -3.470  1.00  0.00    -0.094 F 
ATOM     28  F   UNL     1       2.138   3.499  -2.174  1.00  0.00    -0.094 F 
ENDBRANCH  15  23
BRANCH  20  29
ATOM     29  C   UNL     1      -1.322   5.097   3.217  1.00  0.00     0.430 C 
ATOM     30  F   UNL     1      -2.202   6.078   3.401  1.00  0.00    -0.167 F 
ATOM     31  F   UNL     1      -1.811   3.964   3.714  1.00  0.00    -0.167 F 
ATOM     32  F   UNL     1      -0.185   5.399   3.837  1.00  0.00    -0.167 F 
ENDBRANCH  20  29
ENDBRANCH   9  11
ENDBRANCH   8   9
ENDBRANCH   7   8
ENDBRANCH   6   7
ENDBRANCH   5   6
ENDBRANCH   4   5
ENDBRANCH   3   4
ENDBRANCH   2   3
ENDBRANCH   1   2
BRANCH   1  33
ATOM     33  C   UNL     1      -4.167  10.347   0.153  1.00  0.00     0.188 C 
BRANCH  33  34
ATOM     34  O   UNL     1      -4.817   9.297   0.855  1.00  0.00    -0.376 OA
BRANCH  34  35
ATOM     35  C   UNL     1      -4.450   8.049   0.285  1.00  0.00     0.202 C 
BRANCH  35  36
ATOM     36  C   UNL     1      -4.868   8.017  -1.176  1.00  0.00     0.261 C 
BRANCH  36  37
ATOM     37  O   UNL     1      -4.218   9.067  -1.877  1.00  0.00    -0.460 OA
BRANCH  37  38
ATOM     38  C   UNL     1      -4.429  10.417  -1.490  1.00  0.00     0.338 C 
ATOM     39  O   UNL     1      -5.199  10.685  -0.515  1.00  0.00    -0.246 OA
BRANCH  38  40
ATOM     40  C   UNL     1      -3.733  11.540  -2.241  1.00  0.00     0.060 A 
ATOM     41  C   UNL     1      -3.027  12.556  -1.618  1.00  0.00     0.016 A 
ATOM     42  C   UNL     1      -3.765  11.434  -3.564  1.00  0.00     0.016 A 
ATOM     43  C   UNL     1      -2.619  13.590  -2.493  1.00  0.00     0.010 A 
ATOM     44  C   UNL     1      -3.226  12.418  -4.358  1.00  0.00     0.010 A 
ATOM     45  C   UNL     1      -2.565  13.481  -3.808  1.00  0.00    -0.014 A 
BRANCH  45  46
ATOM     46  C   UNL     1      -1.809  14.484  -4.664  1.00  0.00     0.031 A 
ATOM     47  C   UNL     1      -2.605  15.151  -5.597  1.00  0.00     0.074 A 
ATOM     48  C   UNL     1      -0.433  14.616  -4.586  1.00  0.00     0.049 A 
ATOM     49  N   UNL     1      -2.212  16.027  -6.524  1.00  0.00    -0.248 NA
ATOM     50  C   UNL     1      -4.062  14.986  -5.705  1.00  0.00     0.031 C 
ATOM     51  C   UNL     1       0.376  13.953  -3.642  1.00  0.00     0.029 A 
ATOM     52  N   UNL     1       0.389  15.386  -5.378  1.00  0.00    -0.354 N 
ATOM     53  C   UNL     1      -3.264  16.467  -7.218  1.00  0.00     0.074 A 
ATOM     54  C   UNL     1      -4.468  15.799  -6.705  1.00  0.00     0.031 C 
ATOM     55  C   UNL     1       1.667  14.309  -3.869  1.00  0.00     0.029 A 
ATOM     56  C   UNL     1       1.688  15.201  -4.958  1.00  0.00     0.049 A 
ATOM     57  H   UNL     1       0.098  15.968  -6.117  1.00  0.00     0.167 HD
ATOM     58  C   UNL     1      -3.266  17.400  -8.256  1.00  0.00     0.037 A 
ATOM     59  C   UNL     1       2.838  15.768  -5.484  1.00  0.00     0.037 A 
ATOM     60  C   UNL     1      -2.119  17.999  -8.753  1.00  0.00     0.049 A 
ATOM     61  C   UNL     1       2.842  16.657  -6.561  1.00  0.00     0.074 A 
ATOM     62  C   UNL     1      -2.105  18.947  -9.793  1.00  0.00     0.029 A 
ATOM     63  N   UNL     1      -0.818  17.796  -8.349  1.00  0.00    -0.354 N 
ATOM     64  N   UNL     1       1.787  17.126  -7.228  1.00  0.00    -0.248 NA
ATOM     65  C   UNL     1       4.057  17.238  -7.147  1.00  0.00     0.031 C 
ATOM     66  C   UNL     1      -0.812  19.304 -10.021  1.00  0.00     0.029 A 
ATOM     67  C   UNL     1       0.002  18.583  -9.126  1.00  0.00     0.049 A 
ATOM     68  H   UNL     1      -0.525  17.191  -7.629  1.00  0.00     0.167 HD
ATOM     69  C   UNL     1       2.185  17.971  -8.182  1.00  0.00     0.074 A 
ATOM     70  C   UNL     1       3.652  18.049  -8.148  1.00  0.00     0.031 C 
ATOM     71  C   UNL     1       1.383  18.682  -9.076  1.00  0.00     0.037 A 
BRANCH  58  72
ATOM     72  C   UNL     1      -4.601  17.780  -8.876  1.00  0.00     0.064 A 
ATOM     73  C   UNL     1      -5.573  18.357  -8.077  1.00  0.00     0.173 A 
ATOM     74  C   UNL     1      -4.810  17.565 -10.170  1.00  0.00     0.173 A 
ATOM     75  F   UNL     1      -5.327  18.820  -6.854  1.00  0.00    -0.203 F 
ATOM     76  C   UNL     1      -6.852  18.411  -8.678  1.00  0.00     0.198 A 
ATOM     77  C   UNL     1      -6.053  17.768 -10.720  1.00  0.00     0.198 A 
ATOM     78  F   UNL     1      -3.808  17.150 -10.940  1.00  0.00    -0.203 F 
ATOM     79  F   UNL     1      -7.902  18.605  -7.885  1.00  0.00    -0.200 F 
ATOM     80  C   UNL     1      -7.077  18.281  -9.973  1.00  0.00     0.200 A 
ATOM     81  F   UNL     1      -6.262  17.461 -11.997  1.00  0.00    -0.200 F 
ATOM     82  F   UNL     1      -8.237  18.631 -10.522  1.00  0.00    -0.200 F 
ENDBRANCH  58  72
BRANCH  59  83
ATOM     83  C   UNL     1       4.171  15.400  -4.852  1.00  0.00     0.064 A 
ATOM     84  C   UNL     1       4.961  16.403  -4.314  1.00  0.00     0.173 A 
ATOM     85  C   UNL     1       4.563  14.132  -4.836  1.00  0.00     0.173 A 
ATOM     86  F   UNL     1       4.511  17.633  -4.079  1.00  0.00    -0.203 F 
ATOM     87  C   UNL     1       6.289  16.001  -4.038  1.00  0.00     0.198 A 
ATOM     88  C   UNL     1       5.830  13.796  -4.425  1.00  0.00     0.198 A 
ATOM     89  F   UNL     1       3.721  13.177  -5.222  1.00  0.00    -0.203 F 
ATOM     90  F   UNL     1       7.201  16.954  -3.868  1.00  0.00    -0.200 F 
ATOM     91  C   UNL     1       6.685  14.745  -3.937  1.00  0.00     0.200 A 
ATOM     92  F   UNL     1       6.231  12.531  -4.502  1.00  0.00    -0.200 F 
ATOM     93  F   UNL     1       7.854  14.421  -3.390  1.00  0.00    -0.200 F 
ENDBRANCH  59  83
BRANCH  71  94
ATOM     94  C   UNL     1       2.067  19.623 -10.055  1.00  0.00     0.064 A 
ATOM     95  C   UNL     1       2.907  19.187 -11.067  1.00  0.00     0.173 A 
ATOM     96  C   UNL     1       1.707  20.897  -9.961  1.00  0.00     0.173 A 
ATOM     97  F   UNL     1       3.091  17.901 -11.353  1.00  0.00    -0.203 F 
ATOM     98  C   UNL     1       3.551  20.233 -11.769  1.00  0.00     0.198 A 
ATOM     99  C   UNL     1       2.279  21.848 -10.772  1.00  0.00     0.198 A 
ATOM    100  F   UNL     1       0.784  21.257  -9.073  1.00  0.00    -0.203 F 
ATOM    101  F   UNL     1       4.622  19.925 -12.493  1.00  0.00    -0.200 F 
ATOM    102  C   UNL     1       3.161  21.495 -11.754  1.00  0.00     0.200 A 
ATOM    103  F   UNL     1       1.968  23.130 -10.598  1.00  0.00    -0.200 F 
ATOM    104  F   UNL     1       3.604  22.375 -12.648  1.00  0.00    -0.200 F 
ENDBRANCH  71  94
ENDBRANCH  45  46
ENDBRANCH  38  40
ENDBRANCH  37  38
ENDBRANCH  36  37
ENDBRANCH  35  36
ENDBRANCH  34  35
ENDBRANCH  33  34
ENDBRANCH   1  33
TORSDOF 23
