REMARK SMILES O=C(CN1CC2(CCC1=O)CC[NH+](Cc1nc3ccccc3[nH]1)CC2)OCCOCCOCCOCCOC(=O)c1ccc(-c2c3nc(c(-c4c(F)c(F)c(F)c(F)c4F)c4ccc([nH]4)c(-c4c(F)c(F)c(F)c(F)c4F)c4nc(c(-c5c(F)c(F)c(F)c(F)c5F)c5ccc2[nH]5)C=C4)C=C3)cc1
REMARK SMILES IDX 31 1 30 2 29 3 28 4 27 5 26 6 2 7 1 8 3 9 4 10 5 11 9 12
REMARK SMILES IDX 6 13 8 14 10 15 7 16 11 17 25 18 12 19 24 20 13 21 14 23
REMARK SMILES IDX 15 24 16 25 23 26 17 27 22 28 18 30 21 31 19 32 20 33 32 34
REMARK SMILES IDX 33 35 34 36 35 37 36 38 37 39 38 40 39 41 40 42 41 43 42 44
REMARK SMILES IDX 103 45 43 46 102 47 44 48 45 49 46 50 96 51 47 52 101 53
REMARK SMILES IDX 95 54 97 55 48 56 100 57 94 58 93 59 49 61 81 62 61 63 80 64
REMARK SMILES IDX 62 65 65 66 79 67 98 68 63 69 64 70 78 72 99 73 66 74 50 75
REMARK SMILES IDX 51 76 59 77 52 78 53 79 57 80 60 81 54 82 55 83 58 84 56 85
REMARK SMILES IDX 82 86 83 87 91 88 84 89 85 90 89 91 92 92 86 93 87 94 90 95
REMARK SMILES IDX 88 96 67 97 68 98 76 99 69 100 70 101 74 102 77 103 71 104
REMARK SMILES IDX 72 105 75 106 73 107
REMARK H PARENT 13 22 23 29 97 60 65 71
REMARK Flexibility Score: inf
ROOT
ATOM      1  C   UNL     1       2.182  -2.029  -1.446  1.00  0.00     0.188 C 
ENDROOT
BRANCH   1   2
ATOM      2  C   UNL     1       2.928  -0.714  -1.681  1.00  0.00     0.188 C 
BRANCH   2   3
ATOM      3  O   UNL     1       4.306  -0.690  -1.336  1.00  0.00    -0.376 OA
BRANCH   3   4
ATOM      4  C   UNL     1       4.819  -0.701  -0.011  1.00  0.00     0.202 C 
BRANCH   4   5
ATOM      5  C   UNL     1       3.991  -1.214   1.171  1.00  0.00     0.261 C 
BRANCH   5   6
ATOM      6  O   UNL     1       2.616  -0.795   1.276  1.00  0.00    -0.462 OA
BRANCH   6   7
ATOM      7  C   UNL     1       2.224   0.458   1.596  1.00  0.00     0.325 C 
ATOM      8  O   UNL     1       1.260   0.650   2.332  1.00  0.00    -0.250 OA
BRANCH   7   9
ATOM      9  C   UNL     1       2.862   1.583   0.816  1.00  0.00     0.242 C 
BRANCH   9  10
ATOM     10  N   UNL     1       3.640   2.565   1.528  1.00  0.00    -0.331 N 
ATOM     11  C   UNL     1       3.294   3.952   1.325  1.00  0.00     0.127 C 
ATOM     12  C   UNL     1       4.904   2.197   1.964  1.00  0.00     0.223 C 
ATOM     13  C   UNL     1       4.349   4.699   0.500  1.00  0.00    -0.001 C 
ATOM     14  C   UNL     1       6.040   3.027   1.410  1.00  0.00     0.101 C 
ATOM     15  O   UNL     1       5.132   1.129   2.525  1.00  0.00    -0.275 OA
ATOM     16  C   UNL     1       5.678   4.491   1.270  1.00  0.00     0.019 C 
ATOM     17  C   UNL     1       4.487   4.146  -0.951  1.00  0.00     0.070 C 
ATOM     18  C   UNL     1       3.974   6.196   0.531  1.00  0.00     0.070 C 
ATOM     19  C   UNL     1       3.558   4.757  -1.999  1.00  0.00     0.263 C 
ATOM     20  C   UNL     1       3.019   6.625  -0.579  1.00  0.00     0.263 C 
ATOM     21  N   UNL     1       3.412   6.199  -1.917  1.00  0.00    -0.329 N 
ATOM     22  H   UNL     1       2.626   6.407  -2.533  1.00  0.00     0.348 HD
BRANCH  21  23
ATOM     23  C   UNL     1       4.431   7.031  -2.588  1.00  0.00     0.338 C 
BRANCH  23  24
ATOM     24  C   UNL     1       5.808   7.046  -1.993  1.00  0.00     0.162 A 
ATOM     25  N   UNL     1       6.264   7.861  -1.059  1.00  0.00    -0.227 NA
ATOM     26  N   UNL     1       6.783   6.137  -2.340  1.00  0.00    -0.337 N 
ATOM     27  C   UNL     1       7.409   7.269  -0.587  1.00  0.00     0.089 A 
ATOM     28  C   UNL     1       7.742   6.160  -1.356  1.00  0.00     0.066 A 
ATOM     29  H   UNL     1       6.791   5.573  -3.147  1.00  0.00     0.168 HD
ATOM     30  C   UNL     1       8.160   7.561   0.561  1.00  0.00     0.030 A 
ATOM     31  C   UNL     1       8.790   5.292  -1.036  1.00  0.00     0.028 A 
ATOM     32  C   UNL     1       9.192   6.686   0.926  1.00  0.00     0.002 A 
ATOM     33  C   UNL     1       9.495   5.569   0.142  1.00  0.00     0.002 A 
ENDBRANCH  23  24
ENDBRANCH  21  23
ENDBRANCH   9  10
ENDBRANCH   7   9
ENDBRANCH   6   7
ENDBRANCH   5   6
ENDBRANCH   4   5
ENDBRANCH   3   4
ENDBRANCH   2   3
ENDBRANCH   1   2
BRANCH   1  34
ATOM     34  O   UNL     1       2.733  -3.158  -2.105  1.00  0.00    -0.377 OA
BRANCH  34  35
ATOM     35  C   UNL     1       4.093  -3.421  -1.805  1.00  0.00     0.188 C 
BRANCH  35  36
ATOM     36  C   UNL     1       5.109  -2.933  -2.860  1.00  0.00     0.188 C 
BRANCH  36  37
ATOM     37  O   UNL     1       4.700  -2.325  -4.074  1.00  0.00    -0.376 OA
BRANCH  37  38
ATOM     38  C   UNL     1       3.493  -2.702  -4.712  1.00  0.00     0.202 C 
BRANCH  38  39
ATOM     39  C   UNL     1       3.141  -4.177  -4.982  1.00  0.00     0.261 C 
BRANCH  39  40
ATOM     40  O   UNL     1       3.568  -5.139  -4.009  1.00  0.00    -0.460 OA
BRANCH  40  41
ATOM     41  C   UNL     1       4.744  -5.756  -4.263  1.00  0.00     0.338 C 
ATOM     42  O   UNL     1       5.446  -5.625  -5.253  1.00  0.00    -0.246 OA
BRANCH  41  43
ATOM     43  C   UNL     1       5.188  -6.471  -3.043  1.00  0.00     0.060 A 
ATOM     44  C   UNL     1       6.483  -6.210  -2.571  1.00  0.00     0.016 A 
ATOM     45  C   UNL     1       4.348  -7.344  -2.344  1.00  0.00     0.016 A 
ATOM     46  C   UNL     1       6.957  -6.850  -1.431  1.00  0.00     0.010 A 
ATOM     47  C   UNL     1       4.838  -8.016  -1.217  1.00  0.00     0.010 A 
ATOM     48  C   UNL     1       6.160  -7.803  -0.785  1.00  0.00    -0.014 A 
BRANCH  48  49
ATOM     49  C   UNL     1       6.824  -8.737   0.154  1.00  0.00     0.031 A 
ATOM     50  C   UNL     1       7.333 -10.041  -0.400  1.00  0.00     0.074 A 
ATOM     51  C   UNL     1       7.070  -8.399   1.432  1.00  0.00     0.049 A 
ATOM     52  N   UNL     1       8.011 -10.992   0.191  1.00  0.00    -0.248 NA
ATOM     53  C   UNL     1       7.046 -10.303  -1.821  1.00  0.00     0.031 C 
ATOM     54  C   UNL     1       6.666  -7.149   2.069  1.00  0.00     0.029 A 
ATOM     55  N   UNL     1       7.732  -9.085   2.420  1.00  0.00    -0.354 N 
ATOM     56  C   UNL     1       8.243 -11.950  -0.787  1.00  0.00     0.074 A 
ATOM     57  C   UNL     1       7.595 -11.494  -1.996  1.00  0.00     0.031 C 
ATOM     58  C   UNL     1       7.081  -7.159   3.349  1.00  0.00     0.029 A 
ATOM     59  C   UNL     1       7.764  -8.424   3.622  1.00  0.00     0.049 A 
ATOM     60  H   UNL     1       8.146  -9.967   2.279  1.00  0.00     0.167 HD
ATOM     61  C   UNL     1       8.950 -13.100  -0.693  1.00  0.00     0.037 A 
ATOM     62  C   UNL     1       8.275  -8.808   4.809  1.00  0.00     0.037 A 
ATOM     63  C   UNL     1       9.580 -13.563   0.514  1.00  0.00     0.049 A 
ATOM     64  C   UNL     1       8.992 -10.133   4.907  1.00  0.00     0.074 A 
ATOM     65  C   UNL     1      10.305 -14.723   0.720  1.00  0.00     0.029 A 
ATOM     66  N   UNL     1       9.552 -12.887   1.725  1.00  0.00    -0.354 N 
ATOM     67  N   UNL     1       9.225 -11.024   3.973  1.00  0.00    -0.248 NA
ATOM     68  C   UNL     1       9.531 -10.497   6.225  1.00  0.00     0.031 C 
ATOM     69  C   UNL     1      10.673 -14.774   2.069  1.00  0.00     0.029 A 
ATOM     70  C   UNL     1      10.230 -13.617   2.689  1.00  0.00     0.049 A 
ATOM     71  H   UNL     1       9.115 -12.018   1.878  1.00  0.00     0.167 HD
ATOM     72  C   UNL     1       9.953 -12.039   4.582  1.00  0.00     0.074 A 
ATOM     73  C   UNL     1      10.151 -11.637   5.959  1.00  0.00     0.031 C 
ATOM     74  C   UNL     1      10.413 -13.202   4.056  1.00  0.00     0.037 A 
BRANCH  61  75
ATOM     75  C   UNL     1       9.063 -13.944  -1.929  1.00  0.00     0.064 A 
ATOM     76  C   UNL     1       9.842 -13.544  -3.025  1.00  0.00     0.173 A 
ATOM     77  C   UNL     1       8.409 -15.183  -2.006  1.00  0.00     0.173 A 
ATOM     78  F   UNL     1      10.470 -12.358  -3.010  1.00  0.00    -0.203 F 
ATOM     79  C   UNL     1       9.947 -14.344  -4.160  1.00  0.00     0.198 A 
ATOM     80  C   UNL     1       8.541 -15.994  -3.130  1.00  0.00     0.198 A 
ATOM     81  F   UNL     1       7.649 -15.612  -0.987  1.00  0.00    -0.203 F 
ATOM     82  F   UNL     1      10.661 -13.921  -5.212  1.00  0.00    -0.200 F 
ATOM     83  C   UNL     1       9.305 -15.572  -4.208  1.00  0.00     0.200 A 
ATOM     84  F   UNL     1       7.928 -17.185  -3.170  1.00  0.00    -0.200 F 
ATOM     85  F   UNL     1       9.417 -16.346  -5.295  1.00  0.00    -0.200 F 
ENDBRANCH  61  75
BRANCH  62  86
ATOM     86  C   UNL     1       8.114  -7.944   6.010  1.00  0.00     0.064 A 
ATOM     87  C   UNL     1       9.217  -7.357   6.645  1.00  0.00     0.173 A 
ATOM     88  C   UNL     1       6.848  -7.729   6.577  1.00  0.00     0.173 A 
ATOM     89  F   UNL     1      10.452  -7.553   6.161  1.00  0.00    -0.203 F 
ATOM     90  C   UNL     1       9.064  -6.615   7.816  1.00  0.00     0.198 A 
ATOM     91  C   UNL     1       6.692  -6.959   7.727  1.00  0.00     0.198 A 
ATOM     92  F   UNL     1       5.759  -8.271   6.012  1.00  0.00    -0.203 F 
ATOM     93  F   UNL     1      10.143  -6.119   8.438  1.00  0.00    -0.200 F 
ATOM     94  C   UNL     1       7.802  -6.412   8.353  1.00  0.00     0.200 A 
ATOM     95  F   UNL     1       5.469  -6.758   8.235  1.00  0.00    -0.200 F 
ATOM     96  F   UNL     1       7.656  -5.703   9.480  1.00  0.00    -0.200 F 
ENDBRANCH  62  86
BRANCH  74  97
ATOM     97  C   UNL     1      11.196 -14.105   4.968  1.00  0.00     0.064 A 
ATOM     98  C   UNL     1      10.589 -14.778   6.040  1.00  0.00     0.173 A 
ATOM     99  C   UNL     1      12.569 -14.307   4.762  1.00  0.00     0.173 A 
ATOM    100  F   UNL     1       9.281 -14.612   6.287  1.00  0.00    -0.203 F 
ATOM    101  C   UNL     1      11.336 -15.580   6.898  1.00  0.00     0.198 A 
ATOM    102  C   UNL     1      13.306 -15.141   5.599  1.00  0.00     0.198 A 
ATOM    103  F   UNL     1      13.198 -13.700   3.744  1.00  0.00    -0.203 F 
ATOM    104  F   UNL     1      10.748 -16.155   7.956  1.00  0.00    -0.200 F 
ATOM    105  C   UNL     1      12.693 -15.764   6.675  1.00  0.00     0.200 A 
ATOM    106  F   UNL     1      14.613 -15.332   5.371  1.00  0.00    -0.200 F 
ATOM    107  F   UNL     1      13.411 -16.534   7.504  1.00  0.00    -0.200 F 
ENDBRANCH  74  97
ENDBRANCH  48  49
ENDBRANCH  41  43
ENDBRANCH  40  41
ENDBRANCH  39  40
ENDBRANCH  38  39
ENDBRANCH  37  38
ENDBRANCH  36  37
ENDBRANCH  35  36
ENDBRANCH  34  35
ENDBRANCH   1  34
TORSDOF 23
