REMARK SMILES O=C(OCCOCCOCCOCCOC(=O)c1ccc(-c2c3nc(c(-c4c(F)c(F)c(F)c(F)c4F)c4ccc([nH]4)c(-c4c(F)c(F)c(F)c(F)c4F)c4nc(c(-c5c(F)c(F)c(F)c(F)c5F)c5ccc2[nH]5)C=C4)C=C3)cc1)C1=Cc2cc(C(F)(F)F)ccc2O[C@@H]1C(F)(F)F
REMARK SMILES IDX 10 1 9 2 8 3 7 4 6 5 5 6 4 7 3 8 2 9 1 10 81 11 82 12 94 13
REMARK SMILES IDX 83 14 93 15 84 16 92 17 85 18 91 19 90 20 95 21 96 22 97 23
REMARK SMILES IDX 98 24 86 25 87 26 88 27 89 28 11 29 12 30 13 31 14 32 15 33
REMARK SMILES IDX 16 34 17 35 18 36 19 37 80 38 20 39 79 40 21 41 22 42 23 43
REMARK SMILES IDX 73 44 24 45 78 46 72 47 74 48 25 49 77 50 71 51 70 52 26 54
REMARK SMILES IDX 58 55 38 56 57 57 39 58 42 59 56 60 75 61 40 62 41 63 55 65
REMARK SMILES IDX 76 66 43 67 27 68 28 69 36 70 29 71 30 72 34 73 37 74 31 75
REMARK SMILES IDX 32 76 35 77 33 78 59 79 60 80 68 81 61 82 62 83 66 84 69 85
REMARK SMILES IDX 63 86 64 87 67 88 65 89 44 90 45 91 53 92 46 93 47 94 51 95
REMARK SMILES IDX 54 96 48 97 49 98 52 99 50 100
REMARK H PARENT 74 53 42 64
REMARK Flexibility Score: inf
ROOT
ATOM      1  C   UNL     1       3.101   3.226  -2.904  1.00  0.00     0.188 C 
ENDROOT
BRANCH   1   2
ATOM      2  O   UNL     1       1.806   3.509  -2.390  1.00  0.00    -0.377 OA
BRANCH   2   3
ATOM      3  C   UNL     1       1.034   2.378  -2.009  1.00  0.00     0.188 C 
BRANCH   3   4
ATOM      4  C   UNL     1       1.424   1.844  -0.638  1.00  0.00     0.188 C 
BRANCH   4   5
ATOM      5  O   UNL     1       2.779   1.436  -0.555  1.00  0.00    -0.376 OA
BRANCH   5   6
ATOM      6  C   UNL     1       3.202   0.300  -1.293  1.00  0.00     0.202 C 
BRANCH   6   7
ATOM      7  C   UNL     1       2.649  -1.046  -0.834  1.00  0.00     0.261 C 
BRANCH   7   8
ATOM      8  O   UNL     1       2.142  -0.994   0.509  1.00  0.00    -0.460 OA
BRANCH   8   9
ATOM      9  C   UNL     1       2.723  -1.833   1.398  1.00  0.00     0.338 C 
ATOM     10  O   UNL     1       2.294  -2.952   1.631  1.00  0.00    -0.246 OA
BRANCH   9  11
ATOM     11  C   UNL     1       3.873  -1.217   2.124  1.00  0.00     0.087 C 
ATOM     12  C   UNL     1       4.949  -2.026   2.113  1.00  0.00     0.027 C 
ATOM     13  C   UNL     1       4.019   0.281   1.998  1.00  0.00     0.316 C 
ATOM     14  C   UNL     1       6.035  -1.565   1.240  1.00  0.00     0.018 A 
ATOM     15  O   UNL     1       5.181   0.711   1.248  1.00  0.00    -0.475 OA
ATOM     16  C   UNL     1       7.028  -2.453   0.803  1.00  0.00     0.025 A 
ATOM     17  C   UNL     1       6.019  -0.255   0.762  1.00  0.00     0.128 A 
ATOM     18  C   UNL     1       7.948  -2.055  -0.182  1.00  0.00     0.056 A 
ATOM     19  C   UNL     1       6.873   0.119  -0.273  1.00  0.00     0.048 A 
ATOM     20  C   UNL     1       7.807  -0.789  -0.770  1.00  0.00     0.017 A 
BRANCH  13  21
ATOM     21  C   UNL     1       3.897   0.991   3.348  1.00  0.00     0.430 C 
ATOM     22  F   UNL     1       3.598   2.303   3.185  1.00  0.00    -0.167 F 
ATOM     23  F   UNL     1       2.889   0.458   4.086  1.00  0.00    -0.167 F 
ATOM     24  F   UNL     1       5.024   0.911   4.086  1.00  0.00    -0.167 F 
ENDBRANCH  13  21
BRANCH  18  25
ATOM     25  C   UNL     1       9.137  -2.910  -0.551  1.00  0.00     0.416 C 
ATOM     26  F   UNL     1      10.284  -2.432   0.007  1.00  0.00    -0.166 F 
ATOM     27  F   UNL     1       9.033  -4.204  -0.144  1.00  0.00    -0.166 F 
ATOM     28  F   UNL     1       9.364  -2.953  -1.893  1.00  0.00    -0.166 F 
ENDBRANCH  18  25
ENDBRANCH   9  11
ENDBRANCH   8   9
ENDBRANCH   7   8
ENDBRANCH   6   7
ENDBRANCH   5   6
ENDBRANCH   4   5
ENDBRANCH   3   4
ENDBRANCH   2   3
ENDBRANCH   1   2
BRANCH   1  29
ATOM     29  C   UNL     1       4.307   3.518  -1.977  1.00  0.00     0.188 C 
BRANCH  29  30
ATOM     30  O   UNL     1       4.373   4.632  -1.094  1.00  0.00    -0.376 OA
BRANCH  30  31
ATOM     31  C   UNL     1       3.287   5.534  -1.025  1.00  0.00     0.202 C 
BRANCH  31  32
ATOM     32  C   UNL     1       3.224   6.561  -2.167  1.00  0.00     0.261 C 
BRANCH  32  33
ATOM     33  O   UNL     1       3.561   6.036  -3.465  1.00  0.00    -0.460 OA
BRANCH  33  34
ATOM     34  C   UNL     1       4.874   6.120  -3.825  1.00  0.00     0.338 C 
ATOM     35  O   UNL     1       5.748   6.727  -3.262  1.00  0.00    -0.246 OA
BRANCH  34  36
ATOM     36  C   UNL     1       5.131   5.167  -4.950  1.00  0.00     0.060 A 
ATOM     37  C   UNL     1       6.288   4.374  -4.884  1.00  0.00     0.016 A 
ATOM     38  C   UNL     1       4.239   4.999  -6.013  1.00  0.00     0.016 A 
ATOM     39  C   UNL     1       6.566   3.432  -5.882  1.00  0.00     0.010 A 
ATOM     40  C   UNL     1       4.529   4.072  -7.025  1.00  0.00     0.010 A 
ATOM     41  C   UNL     1       5.711   3.307  -6.983  1.00  0.00    -0.014 A 
BRANCH  41  42
ATOM     42  C   UNL     1       6.175   2.611  -8.213  1.00  0.00     0.031 A 
ATOM     43  C   UNL     1       6.804   3.461  -9.286  1.00  0.00     0.074 A 
ATOM     44  C   UNL     1       6.046   1.284  -8.402  1.00  0.00     0.049 A 
ATOM     45  N   UNL     1       7.165   3.145 -10.502  1.00  0.00    -0.248 NA
ATOM     46  C   UNL     1       7.049   4.870  -8.933  1.00  0.00     0.031 C 
ATOM     47  C   UNL     1       5.517   0.334  -7.429  1.00  0.00     0.029 A 
ATOM     48  N   UNL     1       6.337   0.511  -9.503  1.00  0.00    -0.354 N 
ATOM     49  C   UNL     1       7.651   4.318 -11.065  1.00  0.00     0.074 A 
ATOM     50  C   UNL     1       7.530   5.356 -10.066  1.00  0.00     0.031 C 
ATOM     51  C   UNL     1       5.491  -0.892  -7.986  1.00  0.00     0.029 A 
ATOM     52  C   UNL     1       5.960  -0.804  -9.370  1.00  0.00     0.049 A 
ATOM     53  H   UNL     1       6.774   0.867 -10.310  1.00  0.00     0.167 HD
ATOM     54  C   UNL     1       8.153   4.516 -12.305  1.00  0.00     0.037 A 
ATOM     55  C   UNL     1       5.955  -1.806 -10.276  1.00  0.00     0.037 A 
ATOM     56  C   UNL     1       8.287   3.484 -13.296  1.00  0.00     0.049 A 
ATOM     57  C   UNL     1       6.443  -1.542 -11.683  1.00  0.00     0.074 A 
ATOM     58  C   UNL     1       8.823   3.577 -14.567  1.00  0.00     0.029 A 
ATOM     59  N   UNL     1       7.869   2.173 -13.130  1.00  0.00    -0.354 N 
ATOM     60  N   UNL     1       6.930  -0.439 -12.199  1.00  0.00    -0.248 NA
ATOM     61  C   UNL     1       6.371  -2.660 -12.638  1.00  0.00     0.031 C 
ATOM     62  C   UNL     1       8.667   2.339 -15.196  1.00  0.00     0.029 A 
ATOM     63  C   UNL     1       8.095   1.458 -14.293  1.00  0.00     0.049 A 
ATOM     64  H   UNL     1       7.471   1.806 -12.308  1.00  0.00     0.167 HD
ATOM     65  C   UNL     1       7.247  -0.738 -13.520  1.00  0.00     0.074 A 
ATOM     66  C   UNL     1       6.911  -2.129 -13.726  1.00  0.00     0.031 C 
ATOM     67  C   UNL     1       7.767   0.068 -14.479  1.00  0.00     0.037 A 
BRANCH  54  68
ATOM     68  C   UNL     1       8.552   5.912 -12.681  1.00  0.00     0.064 A 
ATOM     69  C   UNL     1       9.686   6.533 -12.137  1.00  0.00     0.173 A 
ATOM     70  C   UNL     1       7.806   6.622 -13.634  1.00  0.00     0.173 A 
ATOM     71  F   UNL     1      10.421   5.904 -11.209  1.00  0.00    -0.203 F 
ATOM     72  C   UNL     1      10.046   7.823 -12.520  1.00  0.00     0.198 A 
ATOM     73  C   UNL     1       8.188   7.897 -14.038  1.00  0.00     0.198 A 
ATOM     74  F   UNL     1       6.712   6.072 -14.184  1.00  0.00    -0.203 F 
ATOM     75  F   UNL     1      11.107   8.415 -11.956  1.00  0.00    -0.200 F 
ATOM     76  C   UNL     1       9.303   8.499 -13.477  1.00  0.00     0.200 A 
ATOM     77  F   UNL     1       7.475   8.543 -14.972  1.00  0.00    -0.200 F 
ATOM     78  F   UNL     1       9.660   9.735 -13.854  1.00  0.00    -0.200 F 
ENDBRANCH  54  68
BRANCH  55  79
ATOM     79  C   UNL     1       5.420  -3.150  -9.913  1.00  0.00     0.064 A 
ATOM     80  C   UNL     1       6.245  -4.285  -9.899  1.00  0.00     0.173 A 
ATOM     81  C   UNL     1       4.058  -3.338  -9.632  1.00  0.00     0.173 A 
ATOM     82  F   UNL     1       7.548  -4.168 -10.194  1.00  0.00    -0.203 F 
ATOM     83  C   UNL     1       5.725  -5.553  -9.642  1.00  0.00     0.198 A 
ATOM     84  C   UNL     1       3.546  -4.602  -9.342  1.00  0.00     0.198 A 
ATOM     85  F   UNL     1       3.219  -2.292  -9.641  1.00  0.00    -0.203 F 
ATOM     86  F   UNL     1       6.526  -6.626  -9.695  1.00  0.00    -0.200 F 
ATOM     87  C   UNL     1       4.378  -5.710  -9.358  1.00  0.00     0.200 A 
ATOM     88  F   UNL     1       2.244  -4.745  -9.057  1.00  0.00    -0.200 F 
ATOM     89  F   UNL     1       3.878  -6.929  -9.112  1.00  0.00    -0.200 F 
ENDBRANCH  55  79
BRANCH  67  90
ATOM     90  C   UNL     1       8.043  -0.531 -15.829  1.00  0.00     0.064 A 
ATOM     91  C   UNL     1       7.006  -0.865 -16.712  1.00  0.00     0.173 A 
ATOM     92  C   UNL     1       9.364  -0.696 -16.275  1.00  0.00     0.173 A 
ATOM     93  F   UNL     1       5.726  -0.737 -16.331  1.00  0.00    -0.203 F 
ATOM     94  C   UNL     1       7.282  -1.358 -17.986  1.00  0.00     0.198 A 
ATOM     95  C   UNL     1       9.635  -1.158 -17.560  1.00  0.00     0.198 A 
ATOM     96  F   UNL     1      10.392  -0.382 -15.474  1.00  0.00    -0.203 F 
ATOM     97  F   UNL     1       6.275  -1.705 -18.800  1.00  0.00    -0.200 F 
ATOM     98  C   UNL     1       8.595  -1.493 -18.413  1.00  0.00     0.200 A 
ATOM     99  F   UNL     1      10.904  -1.269 -17.977  1.00  0.00    -0.200 F 
ATOM    100  F   UNL     1       8.857  -1.948 -19.645  1.00  0.00    -0.200 F 
ENDBRANCH  67  90
ENDBRANCH  41  42
ENDBRANCH  34  36
ENDBRANCH  33  34
ENDBRANCH  32  33
ENDBRANCH  31  32
ENDBRANCH  30  31
ENDBRANCH  29  30
ENDBRANCH   1  29
TORSDOF 22
