REMARK SMILES CC(C)Cc1s/c(=N/C(=O)CCC(=O)Nc2nccs2)[nH]c1C(=O)OCCOCCOCCOCCOC(=O)c1ccc(-c2c3nc(c(-c4c(F)c(F)c(F)c(F)c4F)c4ccc([nH]4)c(-c4c(F)c(F)c(F)c(F)c4F)c4nc(c(-c5c(F)c(F)c(F)c(F)c5F)c5ccc2[nH]5)C=C4)C=C3)cc1
REMARK SMILES IDX 29 1 28 2 27 3 26 4 25 5 23 6 24 7 22 8 5 9 6 10 7 11 21 12
REMARK SMILES IDX 8 13 4 15 2 16 1 17 3 18 9 19 10 20 11 21 12 22 13 23 14 24
REMARK SMILES IDX 15 25 16 27 17 28 20 29 18 30 19 31 30 32 31 33 32 34 33 35
REMARK SMILES IDX 34 36 35 37 36 38 37 39 38 40 39 41 40 42 41 43 102 44 42 45
REMARK SMILES IDX 101 46 43 47 44 48 45 49 95 50 46 51 100 52 94 53 96 54
REMARK SMILES IDX 47 55 99 56 93 57 92 58 48 60 80 61 60 62 79 63 61 64 64 65
REMARK SMILES IDX 78 66 97 67 62 68 63 69 77 71 98 72 65 73 49 74 50 75 58 76
REMARK SMILES IDX 51 77 52 78 56 79 59 80 53 81 54 82 57 83 55 84 81 85 82 86
REMARK SMILES IDX 90 87 83 88 84 89 88 90 91 91 85 92 86 93 89 94 87 95 66 96
REMARK SMILES IDX 67 97 75 98 68 99 69 100 73 101 76 102 70 103 71 104 74 105
REMARK SMILES IDX 72 106
REMARK H PARENT 21 14 15 26 96 59 64 70
REMARK Flexibility Score: inf
ROOT
ATOM      1  C   UNL     1      -5.074  -0.203  -2.368  1.00  0.00     0.188 C 
ENDROOT
BRANCH   1   2
ATOM      2  O   UNL     1      -5.705  -1.137  -3.223  1.00  0.00    -0.376 OA
BRANCH   2   3
ATOM      3  C   UNL     1      -4.984  -2.102  -3.973  1.00  0.00     0.202 C 
BRANCH   3   4
ATOM      4  C   UNL     1      -3.461  -2.345  -3.937  1.00  0.00     0.261 C 
BRANCH   4   5
ATOM      5  O   UNL     1      -2.637  -1.379  -3.286  1.00  0.00    -0.459 OA
BRANCH   5   6
ATOM      6  C   UNL     1      -2.290  -0.281  -3.981  1.00  0.00     0.356 C 
ATOM      7  O   UNL     1      -2.616  -0.030  -5.131  1.00  0.00    -0.244 OA
BRANCH   6   8
ATOM      8  C   UNL     1      -1.629   0.716  -3.083  1.00  0.00     0.140 A 
ATOM      9  C   UNL     1      -0.908   0.515  -1.951  1.00  0.00     0.039 A 
ATOM     10  S   UNL     1      -0.441   2.083  -1.257  1.00  0.00    -0.101 S 
ATOM     11  C   UNL     1      -1.326   2.976  -2.510  1.00  0.00     0.190 A 
ATOM     12  N   UNL     1      -1.841   2.059  -3.374  1.00  0.00    -0.325 N 
ATOM     13  N   UNL     1      -1.392   4.248  -2.395  1.00  0.00    -0.185 NA
ATOM     14  H   UNL     1      -2.344   2.335  -4.175  1.00  0.00     0.169 HD
BRANCH   9  15
ATOM     15  C   UNL     1      -0.566  -0.751  -1.198  1.00  0.00     0.052 C 
BRANCH  15  16
ATOM     16  C   UNL     1       0.938  -1.049  -0.986  1.00  0.00    -0.012 C 
ATOM     17  C   UNL     1       1.541  -0.308   0.213  1.00  0.00     0.008 C 
ATOM     18  C   UNL     1       1.141  -2.553  -0.758  1.00  0.00     0.008 C 
ENDBRANCH  15  16
ENDBRANCH   9  15
BRANCH  13  19
ATOM     19  C   UNL     1      -2.229   4.940  -3.224  1.00  0.00     0.248 C 
ATOM     20  O   UNL     1      -2.883   4.441  -4.138  1.00  0.00    -0.273 OA
BRANCH  19  21
ATOM     21  C   UNL     1      -2.232   6.440  -2.972  1.00  0.00     0.112 C 
BRANCH  21  22
ATOM     22  C   UNL     1      -2.597   6.925  -1.571  1.00  0.00     0.110 C 
BRANCH  22  23
ATOM     23  C   UNL     1      -1.787   6.335  -0.430  1.00  0.00     0.226 C 
ATOM     24  O   UNL     1      -0.706   6.844  -0.115  1.00  0.00    -0.275 OA
ATOM     25  N   UNL     1      -2.240   5.273   0.294  1.00  0.00    -0.302 N 
ATOM     26  H   UNL     1      -1.734   5.037   1.105  1.00  0.00     0.172 HD
BRANCH  25  27
ATOM     27  C   UNL     1      -3.329   4.507  -0.000  1.00  0.00     0.189 A 
ATOM     28  N   UNL     1      -4.158   4.624  -1.005  1.00  0.00    -0.229 NA
ATOM     29  S   UNL     1      -3.579   3.173   1.034  1.00  0.00    -0.105 S 
ATOM     30  C   UNL     1      -5.035   3.563  -1.007  1.00  0.00     0.125 A 
ATOM     31  C   UNL     1      -4.889   2.681   0.040  1.00  0.00     0.088 A 
ENDBRANCH  25  27
ENDBRANCH  22  23
ENDBRANCH  21  22
ENDBRANCH  19  21
ENDBRANCH  13  19
ENDBRANCH   6   8
ENDBRANCH   5   6
ENDBRANCH   4   5
ENDBRANCH   3   4
ENDBRANCH   2   3
ENDBRANCH   1   2
BRANCH   1  32
ATOM     32  C   UNL     1      -4.414  -0.772  -1.099  1.00  0.00     0.188 C 
BRANCH  32  33
ATOM     33  O   UNL     1      -4.276  -2.184  -1.137  1.00  0.00    -0.377 OA
BRANCH  33  34
ATOM     34  C   UNL     1      -5.355  -2.937  -0.587  1.00  0.00     0.188 C 
BRANCH  34  35
ATOM     35  C   UNL     1      -6.810  -2.453  -0.782  1.00  0.00     0.188 C 
BRANCH  35  36
ATOM     36  O   UNL     1      -7.000  -1.074  -0.476  1.00  0.00    -0.376 OA
BRANCH  36  37
ATOM     37  C   UNL     1      -7.761  -0.743   0.673  1.00  0.00     0.202 C 
BRANCH  37  38
ATOM     38  C   UNL     1      -7.009  -0.896   2.001  1.00  0.00     0.261 C 
BRANCH  38  39
ATOM     39  O   UNL     1      -6.471  -2.204   2.244  1.00  0.00    -0.460 OA
BRANCH  39  40
ATOM     40  C   UNL     1      -7.364  -3.202   2.413  1.00  0.00     0.338 C 
ATOM     41  O   UNL     1      -8.580  -3.111   2.413  1.00  0.00    -0.246 OA
BRANCH  40  42
ATOM     42  C   UNL     1      -6.622  -4.477   2.407  1.00  0.00     0.060 A 
ATOM     43  C   UNL     1      -6.938  -5.434   1.435  1.00  0.00     0.016 A 
ATOM     44  C   UNL     1      -5.612  -4.720   3.341  1.00  0.00     0.016 A 
ATOM     45  C   UNL     1      -6.262  -6.654   1.415  1.00  0.00     0.010 A 
ATOM     46  C   UNL     1      -4.950  -5.950   3.332  1.00  0.00     0.010 A 
ATOM     47  C   UNL     1      -5.293  -6.933   2.387  1.00  0.00    -0.014 A 
BRANCH  47  48
ATOM     48  C   UNL     1      -4.766  -8.312   2.519  1.00  0.00     0.031 A 
ATOM     49  C   UNL     1      -5.362  -9.212   3.566  1.00  0.00     0.074 A 
ATOM     50  C   UNL     1      -3.797  -8.768   1.706  1.00  0.00     0.049 A 
ATOM     51  N   UNL     1      -5.055 -10.444   3.879  1.00  0.00    -0.248 NA
ATOM     52  C   UNL     1      -6.455  -8.641   4.369  1.00  0.00     0.031 C 
ATOM     53  C   UNL     1      -3.167  -8.004   0.633  1.00  0.00     0.029 A 
ATOM     54  N   UNL     1      -3.171  -9.989   1.666  1.00  0.00    -0.354 N 
ATOM     55  C   UNL     1      -5.911 -10.794   4.915  1.00  0.00     0.074 A 
ATOM     56  C   UNL     1      -6.726  -9.633   5.203  1.00  0.00     0.031 C 
ATOM     57  C   UNL     1      -2.236  -8.772   0.042  1.00  0.00     0.029 A 
ATOM     58  C   UNL     1      -2.182 -10.068   0.717  1.00  0.00     0.049 A 
ATOM     59  H   UNL     1      -3.409 -10.737   2.260  1.00  0.00     0.167 HD
ATOM     60  C   UNL     1      -6.016 -11.980   5.560  1.00  0.00     0.037 A 
ATOM     61  C   UNL     1      -1.319 -11.066   0.444  1.00  0.00     0.037 A 
ATOM     62  C   UNL     1      -5.198 -13.129   5.276  1.00  0.00     0.049 A 
ATOM     63  C   UNL     1      -1.402 -12.350   1.232  1.00  0.00     0.074 A 
ATOM     64  C   UNL     1      -5.238 -14.383   5.859  1.00  0.00     0.029 A 
ATOM     65  N   UNL     1      -4.179 -13.159   4.334  1.00  0.00    -0.354 N 
ATOM     66  N   UNL     1      -2.237 -12.687   2.185  1.00  0.00    -0.248 NA
ATOM     67  C   UNL     1      -0.422 -13.395   0.901  1.00  0.00     0.031 C 
ATOM     68  C   UNL     1      -4.201 -15.150   5.319  1.00  0.00     0.029 A 
ATOM     69  C   UNL     1      -3.561 -14.400   4.346  1.00  0.00     0.049 A 
ATOM     70  H   UNL     1      -3.932 -12.411   3.744  1.00  0.00     0.167 HD
ATOM     71  C   UNL     1      -1.907 -13.989   2.544  1.00  0.00     0.074 A 
ATOM     72  C   UNL     1      -0.804 -14.386   1.693  1.00  0.00     0.031 C 
ATOM     73  C   UNL     1      -2.466 -14.784   3.490  1.00  0.00     0.037 A 
BRANCH  60  74
ATOM     74  C   UNL     1      -7.031 -12.082   6.663  1.00  0.00     0.064 A 
ATOM     75  C   UNL     1      -8.410 -12.066   6.406  1.00  0.00     0.173 A 
ATOM     76  C   UNL     1      -6.615 -12.226   7.996  1.00  0.00     0.173 A 
ATOM     77  F   UNL     1      -8.862 -11.915   5.152  1.00  0.00    -0.203 F 
ATOM     78  C   UNL     1      -9.334 -12.160   7.444  1.00  0.00     0.198 A 
ATOM     79  C   UNL     1      -7.541 -12.354   9.027  1.00  0.00     0.198 A 
ATOM     80  F   UNL     1      -5.308 -12.249   8.299  1.00  0.00    -0.203 F 
ATOM     81  F   UNL     1     -10.646 -12.087   7.180  1.00  0.00    -0.200 F 
ATOM     82  C   UNL     1      -8.899 -12.312   8.752  1.00  0.00     0.200 A 
ATOM     83  F   UNL     1      -7.119 -12.515  10.289  1.00  0.00    -0.200 F 
ATOM     84  F   UNL     1      -9.790 -12.410   9.749  1.00  0.00    -0.200 F 
ENDBRANCH  60  74
BRANCH  61  85
ATOM     85  C   UNL     1      -0.290 -10.893  -0.617  1.00  0.00     0.064 A 
ATOM     86  C   UNL     1      -0.322 -11.659  -1.791  1.00  0.00     0.173 A 
ATOM     87  C   UNL     1       0.759  -9.974  -0.468  1.00  0.00     0.173 A 
ATOM     88  F   UNL     1      -1.289 -12.570  -1.970  1.00  0.00    -0.203 F 
ATOM     89  C   UNL     1       0.668 -11.528  -2.764  1.00  0.00     0.198 A 
ATOM     90  C   UNL     1       1.729  -9.820  -1.457  1.00  0.00     0.198 A 
ATOM     91  F   UNL     1       0.839  -9.218   0.636  1.00  0.00    -0.203 F 
ATOM     92  F   UNL     1       0.643 -12.311  -3.851  1.00  0.00    -0.200 F 
ATOM     93  C   UNL     1       1.689 -10.604  -2.599  1.00  0.00     0.200 A 
ATOM     94  F   UNL     1       2.705  -8.916  -1.299  1.00  0.00    -0.200 F 
ATOM     95  F   UNL     1       2.637 -10.475  -3.537  1.00  0.00    -0.200 F 
ENDBRANCH  61  85
BRANCH  73  96
ATOM     96  C   UNL     1      -1.924 -16.180   3.631  1.00  0.00     0.064 A 
ATOM     97  C   UNL     1      -0.643 -16.431   4.145  1.00  0.00     0.173 A 
ATOM     98  C   UNL     1      -2.716 -17.286   3.282  1.00  0.00     0.173 A 
ATOM     99  F   UNL     1       0.161 -15.411   4.483  1.00  0.00    -0.203 F 
ATOM    100  C   UNL     1      -0.163 -17.733   4.271  1.00  0.00     0.198 A 
ATOM    101  C   UNL     1      -2.248 -18.587   3.445  1.00  0.00     0.198 A 
ATOM    102  F   UNL     1      -3.954 -17.106   2.796  1.00  0.00    -0.203 F 
ATOM    103  F   UNL     1       1.086 -17.944   4.710  1.00  0.00    -0.200 F 
ATOM    104  C   UNL     1      -0.968 -18.809   3.929  1.00  0.00     0.200 A 
ATOM    105  F   UNL     1      -3.035 -19.625   3.132  1.00  0.00    -0.200 F 
ATOM    106  F   UNL     1      -0.507 -20.061   4.060  1.00  0.00    -0.200 F 
ENDBRANCH  73  96
ENDBRANCH  47  48
ENDBRANCH  40  42
ENDBRANCH  39  40
ENDBRANCH  38  39
ENDBRANCH  37  38
ENDBRANCH  36  37
ENDBRANCH  35  36
ENDBRANCH  34  35
ENDBRANCH  33  34
ENDBRANCH  32  33
ENDBRANCH   1  32
TORSDOF 27
