REMARK SMILES O=C(NCCOCC(=O)OCCOCCOCCOCCOC(=O)c1ccc(-c2c3nc(c(-c4c(F)c(F)c(F)c(F)c4F)c4ccc([nH]4)c(-c4c(F)c(F)c(F)c(F)c4F)c4nc(c(-c5c(F)c(F)c(F)c(F)c5F)c5ccc2[nH]5)C=C4)C=C3)cc1)Nc1cccc(F)c1
REMARK SMILES IDX 14 1 13 2 12 3 11 4 10 5 8 6 9 7 7 8 6 9 5 10 4 11 3 12 1 13
REMARK SMILES IDX 2 14 88 15 89 18 90 19 95 20 91 21 93 22 92 23 94 24 15 25
REMARK SMILES IDX 16 26 17 27 18 28 19 29 20 30 21 31 22 32 23 33 24 34 25 35
REMARK SMILES IDX 26 36 87 37 27 38 86 39 28 40 29 41 30 42 80 43 31 44 85 45
REMARK SMILES IDX 79 46 81 47 32 48 84 49 78 50 77 51 33 53 65 54 45 55 64 56
REMARK SMILES IDX 46 57 49 58 63 59 82 60 47 61 48 62 62 64 83 65 50 66 34 67
REMARK SMILES IDX 35 68 43 69 36 70 37 71 41 72 44 73 38 74 39 75 42 76 40 77
REMARK SMILES IDX 66 78 67 79 75 80 68 81 69 82 73 83 76 84 70 85 71 86 74 87
REMARK SMILES IDX 72 88 51 89 52 90 60 91 53 92 54 93 58 94 61 95 55 96 56 97
REMARK SMILES IDX 59 98 57 99
REMARK H PARENT 3 16 88 17 81 52 49 63
REMARK Flexibility Score: inf
ROOT
ATOM      1  C   UNL     1       1.727  -2.685   1.347  1.00  0.00     0.188 C 
ENDROOT
BRANCH   1   2
ATOM      2  O   UNL     1       1.078  -3.776   1.991  1.00  0.00    -0.376 OA
BRANCH   2   3
ATOM      3  C   UNL     1       1.652  -5.067   1.825  1.00  0.00     0.202 C 
BRANCH   3   4
ATOM      4  C   UNL     1       1.768  -5.616   0.391  1.00  0.00     0.261 C 
BRANCH   4   5
ATOM      5  O   UNL     1       2.600  -4.848  -0.519  1.00  0.00    -0.462 OA
BRANCH   5   6
ATOM      6  C   UNL     1       1.953  -4.322  -1.592  1.00  0.00     0.332 C 
ATOM      7  O   UNL     1       0.750  -4.461  -1.805  1.00  0.00    -0.250 OA
BRANCH   6   8
ATOM      8  C   UNL     1       2.830  -3.518  -2.587  1.00  0.00     0.282 C 
BRANCH   8   9
ATOM      9  O   UNL     1       4.190  -3.158  -2.589  1.00  0.00    -0.368 OA
BRANCH   9  10
ATOM     10  C   UNL     1       4.694  -2.304  -1.569  1.00  0.00     0.182 C 
BRANCH  10  11
ATOM     11  C   UNL     1       4.324  -0.800  -1.606  1.00  0.00     0.146 C 
BRANCH  11  12
ATOM     12  N   UNL     1       2.921  -0.503  -1.349  1.00  0.00    -0.336 N 
ATOM     13  O   UNL     1       1.032   0.113  -0.415  1.00  0.00    -0.249 OA
ATOM     14  C   UNL     1       2.258   0.193  -0.394  1.00  0.00     0.319 C 
ATOM     15  N   UNL     1       2.985   0.917   0.506  1.00  0.00    -0.308 N 
ATOM     16  H   UNL     1       2.319  -0.898  -2.021  1.00  0.00     0.165 HD
ATOM     17  H   UNL     1       3.945   1.038   0.325  1.00  0.00     0.171 HD
BRANCH  15  18
ATOM     18  C   UNL     1       2.458   1.509   1.687  1.00  0.00     0.045 A 
ATOM     19  C   UNL     1       3.159   2.570   2.276  1.00  0.00     0.026 A 
ATOM     20  C   UNL     1       1.280   1.071   2.300  1.00  0.00     0.065 A 
ATOM     21  C   UNL     1       2.669   3.199   3.432  1.00  0.00     0.005 A 
ATOM     22  C   UNL     1       0.822   1.674   3.469  1.00  0.00     0.125 A 
ATOM     23  C   UNL     1       1.499   2.743   4.035  1.00  0.00     0.039 A 
ATOM     24  F   UNL     1      -0.291   1.215   4.057  1.00  0.00    -0.207 F 
ENDBRANCH  15  18
ENDBRANCH  11  12
ENDBRANCH  10  11
ENDBRANCH   9  10
ENDBRANCH   8   9
ENDBRANCH   6   8
ENDBRANCH   5   6
ENDBRANCH   4   5
ENDBRANCH   3   4
ENDBRANCH   2   3
ENDBRANCH   1   2
BRANCH   1  25
ATOM     25  C   UNL     1       3.174  -2.435   1.765  1.00  0.00     0.188 C 
BRANCH  25  26
ATOM     26  O   UNL     1       4.000  -3.556   1.481  1.00  0.00    -0.377 OA
BRANCH  26  27
ATOM     27  C   UNL     1       4.950  -3.996   2.444  1.00  0.00     0.188 C 
BRANCH  27  28
ATOM     28  C   UNL     1       4.927  -3.333   3.822  1.00  0.00     0.188 C 
BRANCH  28  29
ATOM     29  O   UNL     1       5.372  -1.978   3.928  1.00  0.00    -0.376 OA
BRANCH  29  30
ATOM     30  C   UNL     1       6.164  -1.418   2.888  1.00  0.00     0.202 C 
BRANCH  30  31
ATOM     31  C   UNL     1       7.666  -1.710   2.941  1.00  0.00     0.261 C 
BRANCH  31  32
ATOM     32  O   UNL     1       7.966  -3.111   2.937  1.00  0.00    -0.460 OA
BRANCH  32  33
ATOM     33  C   UNL     1       8.102  -3.664   4.162  1.00  0.00     0.338 C 
ATOM     34  O   UNL     1       8.046  -3.102   5.247  1.00  0.00    -0.246 OA
BRANCH  33  35
ATOM     35  C   UNL     1       8.185  -5.125   4.019  1.00  0.00     0.060 A 
ATOM     36  C   UNL     1       7.332  -5.923   4.794  1.00  0.00     0.016 A 
ATOM     37  C   UNL     1       9.139  -5.703   3.179  1.00  0.00     0.016 A 
ATOM     38  C   UNL     1       7.446  -7.306   4.751  1.00  0.00     0.010 A 
ATOM     39  C   UNL     1       9.276  -7.089   3.161  1.00  0.00     0.010 A 
ATOM     40  C   UNL     1       8.453  -7.888   3.975  1.00  0.00    -0.014 A 
BRANCH  40  41
ATOM     41  C   UNL     1       8.782  -9.311   4.183  1.00  0.00     0.031 A 
ATOM     42  C   UNL     1       9.908  -9.648   5.115  1.00  0.00     0.074 A 
ATOM     43  C   UNL     1       8.071 -10.272   3.574  1.00  0.00     0.049 A 
ATOM     44  N   UNL     1      10.418 -10.813   5.416  1.00  0.00    -0.248 NA
ATOM     45  C   UNL     1      10.550  -8.513   5.799  1.00  0.00     0.031 C 
ATOM     46  C   UNL     1       6.927 -10.045   2.694  1.00  0.00     0.029 A 
ATOM     47  N   UNL     1       8.217 -11.633   3.601  1.00  0.00    -0.354 N 
ATOM     48  C   UNL     1      11.445 -10.550   6.312  1.00  0.00     0.074 A 
ATOM     49  C   UNL     1      11.508  -9.116   6.485  1.00  0.00     0.031 C 
ATOM     50  C   UNL     1       6.484 -11.231   2.246  1.00  0.00     0.029 A 
ATOM     51  C   UNL     1       7.336 -12.291   2.781  1.00  0.00     0.049 A 
ATOM     52  H   UNL     1       8.888 -12.094   4.154  1.00  0.00     0.167 HD
ATOM     53  C   UNL     1      12.258 -11.434   6.937  1.00  0.00     0.037 A 
ATOM     54  C   UNL     1       7.255 -13.601   2.479  1.00  0.00     0.037 A 
ATOM     55  C   UNL     1      12.184 -12.858   6.747  1.00  0.00     0.049 A 
ATOM     56  C   UNL     1       8.222 -14.557   3.129  1.00  0.00     0.074 A 
ATOM     57  C   UNL     1      12.944 -13.850   7.340  1.00  0.00     0.029 A 
ATOM     58  N   UNL     1      11.300 -13.492   5.884  1.00  0.00    -0.354 N 
ATOM     59  N   UNL     1       9.178 -14.312   3.993  1.00  0.00    -0.248 NA
ATOM     60  C   UNL     1       8.094 -15.974   2.764  1.00  0.00     0.031 C 
ATOM     61  C   UNL     1      12.565 -15.077   6.786  1.00  0.00     0.029 A 
ATOM     62  C   UNL     1      11.519 -14.859   5.903  1.00  0.00     0.049 A 
ATOM     63  H   UNL     1      10.618 -13.036   5.340  1.00  0.00     0.167 HD
ATOM     64  C   UNL     1       9.746 -15.542   4.298  1.00  0.00     0.074 A 
ATOM     65  C   UNL     1       9.015 -16.534   3.536  1.00  0.00     0.031 C 
ATOM     66  C   UNL     1      10.776 -15.828   5.134  1.00  0.00     0.037 A 
BRANCH  53  67
ATOM     67  C   UNL     1      13.320 -10.879   7.843  1.00  0.00     0.064 A 
ATOM     68  C   UNL     1      13.009 -10.251   9.059  1.00  0.00     0.173 A 
ATOM     69  C   UNL     1      14.675 -10.987   7.490  1.00  0.00     0.173 A 
ATOM     70  F   UNL     1      11.730 -10.104   9.435  1.00  0.00    -0.203 F 
ATOM     71  C   UNL     1      14.011  -9.725   9.871  1.00  0.00     0.198 A 
ATOM     72  C   UNL     1      15.675 -10.491   8.322  1.00  0.00     0.198 A 
ATOM     73  F   UNL     1      15.030 -11.575   6.338  1.00  0.00    -0.203 F 
ATOM     74  F   UNL     1      13.686  -9.078  10.999  1.00  0.00    -0.200 F 
ATOM     75  C   UNL     1      15.342  -9.852   9.506  1.00  0.00     0.200 A 
ATOM     76  F   UNL     1      16.962 -10.625   7.972  1.00  0.00    -0.200 F 
ATOM     77  F   UNL     1      16.305  -9.349  10.291  1.00  0.00    -0.200 F 
ENDBRANCH  53  67
BRANCH  54  78
ATOM     78  C   UNL     1       6.235 -14.075   1.509  1.00  0.00     0.064 A 
ATOM     79  C   UNL     1       5.171 -14.890   1.917  1.00  0.00     0.173 A 
ATOM     80  C   UNL     1       6.303 -13.722   0.153  1.00  0.00     0.173 A 
ATOM     81  F   UNL     1       5.074 -15.273   3.198  1.00  0.00    -0.203 F 
ATOM     82  C   UNL     1       4.224 -15.349   1.002  1.00  0.00     0.198 A 
ATOM     83  C   UNL     1       5.339 -14.154  -0.754  1.00  0.00     0.198 A 
ATOM     84  F   UNL     1       7.301 -12.941  -0.289  1.00  0.00    -0.203 F 
ATOM     85  F   UNL     1       3.243 -16.164   1.411  1.00  0.00    -0.200 F 
ATOM     86  C   UNL     1       4.305 -14.975  -0.331  1.00  0.00     0.200 A 
ATOM     87  F   UNL     1       5.412 -13.777  -2.038  1.00  0.00    -0.200 F 
ATOM     88  F   UNL     1       3.390 -15.409  -1.208  1.00  0.00    -0.200 F 
ENDBRANCH  54  78
BRANCH  66  89
ATOM     89  C   UNL     1      11.148 -17.275   5.297  1.00  0.00     0.064 A 
ATOM     90  C   UNL     1      11.761 -18.002   4.266  1.00  0.00     0.173 A 
ATOM     91  C   UNL     1      10.925 -17.929   6.519  1.00  0.00     0.173 A 
ATOM     92  F   UNL     1      11.985 -17.427   3.075  1.00  0.00    -0.203 F 
ATOM     93  C   UNL     1      12.106 -19.340   4.442  1.00  0.00     0.198 A 
ATOM     94  C   UNL     1      11.306 -19.255   6.703  1.00  0.00     0.198 A 
ATOM     95  F   UNL     1      10.352 -17.277   7.541  1.00  0.00    -0.203 F 
ATOM     96  F   UNL     1      12.638 -20.031   3.424  1.00  0.00    -0.200 F 
ATOM     97  C   UNL     1      11.886 -19.962   5.662  1.00  0.00     0.200 A 
ATOM     98  F   UNL     1      11.110 -19.848   7.889  1.00  0.00    -0.200 F 
ATOM     99  F   UNL     1      12.228 -21.246   5.831  1.00  0.00    -0.200 F 
ENDBRANCH  66  89
ENDBRANCH  40  41
ENDBRANCH  33  35
ENDBRANCH  32  33
ENDBRANCH  31  32
ENDBRANCH  30  31
ENDBRANCH  29  30
ENDBRANCH  28  29
ENDBRANCH  27  28
ENDBRANCH  26  27
ENDBRANCH  25  26
ENDBRANCH   1  25
TORSDOF 25
