REMARK SMILES NS(=O)(=O)c1ccc(-c2cc(Cl)cc3c2O[C@@H](C(F)(F)F)C(C(=O)OCCOCCOCCOCCOC(=O)c2ccc(-c4c5nc(c(-c6c(F)c(F)c(F)c(F)c6F)c6ccc([nH]6)c(-c6c(F)c(F)c(F)c(F)c6F)c6nc(c(-c7c(F)c(F)c(F)c(F)c7F)c7ccc4[nH]7)C=C6)C=C5)cc2)=C3)cc1
REMARK SMILES IDX 30 1 29 2 28 3 27 4 26 5 25 6 23 7 24 8 22 9 9 10 10 11
REMARK SMILES IDX 15 12 11 13 14 14 16 15 12 16 13 17 103 18 17 19 8 20 5 21
REMARK SMILES IDX 6 22 105 23 7 24 104 25 2 26 3 27 4 28 1 29 18 32 19 33
REMARK SMILES IDX 20 34 21 35 31 36 32 37 33 38 34 39 35 40 36 41 37 42 38 43
REMARK SMILES IDX 39 44 40 45 41 46 102 47 42 48 101 49 43 50 44 51 45 52
REMARK SMILES IDX 95 53 46 54 100 55 94 56 96 57 47 58 99 59 93 60 92 61 48 63
REMARK SMILES IDX 80 64 60 65 79 66 61 67 64 68 78 69 97 70 62 71 63 72 77 74
REMARK SMILES IDX 98 75 65 76 49 77 50 78 58 79 51 80 52 81 56 82 59 83 53 84
REMARK SMILES IDX 54 85 57 86 55 87 81 88 82 89 90 90 83 91 84 92 88 93 91 94
REMARK SMILES IDX 85 95 86 96 89 97 87 98 66 99 67 100 75 101 68 102 69 103
REMARK SMILES IDX 73 104 76 105 70 106 71 107 74 108 72 109
REMARK H PARENT 1 30 1 31 96 62 64 73
REMARK Flexibility Score: inf
ROOT
ATOM      1  C   UNL     1       0.750   3.210  11.463  1.00  0.00     0.188 C 
ENDROOT
BRANCH   1   2
ATOM      2  C   UNL     1       2.026   3.237  10.611  1.00  0.00     0.188 C 
BRANCH   2   3
ATOM      3  O   UNL     1       3.231   3.184  11.367  1.00  0.00    -0.376 OA
BRANCH   3   4
ATOM      4  C   UNL     1       3.873   4.411  11.701  1.00  0.00     0.202 C 
BRANCH   4   5
ATOM      5  C   UNL     1       3.010   5.566  12.227  1.00  0.00     0.261 C 
BRANCH   5   6
ATOM      6  O   UNL     1       2.048   5.997  11.239  1.00  0.00    -0.460 OA
BRANCH   6   7
ATOM      7  C   UNL     1       2.471   6.912  10.353  1.00  0.00     0.338 C 
ATOM      8  O   UNL     1       3.541   7.504  10.426  1.00  0.00    -0.246 OA
BRANCH   7   9
ATOM      9  C   UNL     1       1.573   7.027   9.173  1.00  0.00     0.087 C 
ATOM     10  C   UNL     1       1.415   3.628   6.774  1.00  0.00     0.026 A 
ATOM     11  C   UNL     1       2.641   2.961   7.005  1.00  0.00     0.033 A 
ATOM     12  C   UNL     1       1.292   4.894   7.395  1.00  0.00     0.135 A 
ATOM     13  C   UNL     1       3.754   3.644   7.494  1.00  0.00     0.042 A 
ATOM     14  C   UNL     1       2.455   5.645   7.642  1.00  0.00     0.019 A 
ATOM     15  O   UNL     1       0.145   5.202   8.148  1.00  0.00    -0.475 OA
ATOM     16  Cl  UNL     1       5.227   2.799   7.750  1.00  0.00    -0.084 Cl
ATOM     17  C   UNL     1       3.692   5.013   7.710  1.00  0.00     0.032 A 
ATOM     18  C   UNL     1       2.310   7.060   8.048  1.00  0.00     0.027 C 
ATOM     19  C   UNL     1       0.180   6.454   8.974  1.00  0.00     0.316 C 
BRANCH  10  20
ATOM     20  C   UNL     1       0.772   3.257   5.455  1.00  0.00    -0.015 A 
ATOM     21  C   UNL     1       0.441   2.538   2.708  1.00  0.00     0.082 A 
ATOM     22  C   UNL     1       0.512   1.546   3.684  1.00  0.00     0.022 A 
ATOM     23  C   UNL     1       0.468   3.881   3.090  1.00  0.00     0.022 A 
ATOM     24  C   UNL     1       0.657   1.907   5.040  1.00  0.00     0.010 A 
ATOM     25  C   UNL     1       0.620   4.232   4.446  1.00  0.00     0.010 A 
BRANCH  21  26
ATOM     26  S   UNL     1       0.400   2.139   0.978  1.00  0.00     0.238 S 
ATOM     27  O   UNL     1       1.269   3.058   0.273  1.00  0.00    -0.207 OA
ATOM     28  O   UNL     1      -0.968   1.912   0.593  1.00  0.00    -0.207 OA
BRANCH  26  29
ATOM     29  N   UNL     1       1.171   0.647   0.847  1.00  0.00    -0.225 NA
ATOM     30  H   UNL     1       1.183   0.355  -0.130  1.00  0.00     0.137 HD
ATOM     31  H   UNL     1       0.668  -0.045   1.403  1.00  0.00     0.137 HD
ENDBRANCH  26  29
ENDBRANCH  21  26
ENDBRANCH  10  20
BRANCH  19  32
ATOM     32  C   UNL     1      -0.792   6.514  10.183  1.00  0.00     0.430 C 
ATOM     33  F   UNL     1      -1.141   7.811  10.412  1.00  0.00    -0.167 F 
ATOM     34  F   UNL     1      -1.942   5.848   9.927  1.00  0.00    -0.167 F 
ATOM     35  F   UNL     1      -0.320   6.050  11.349  1.00  0.00    -0.167 F 
ENDBRANCH  19  32
ENDBRANCH   7   9
ENDBRANCH   6   7
ENDBRANCH   5   6
ENDBRANCH   4   5
ENDBRANCH   3   4
ENDBRANCH   2   3
ENDBRANCH   1   2
BRANCH   1  36
ATOM     36  O   UNL     1       0.986   3.446  12.837  1.00  0.00    -0.377 OA
BRANCH  36  37
ATOM     37  C   UNL     1       1.497   2.368  13.618  1.00  0.00     0.188 C 
BRANCH  37  38
ATOM     38  C   UNL     1       2.147   1.114  12.982  1.00  0.00     0.188 C 
BRANCH  38  39
ATOM     39  O   UNL     1       1.556   0.684  11.762  1.00  0.00    -0.376 OA
BRANCH  39  40
ATOM     40  C   UNL     1       0.789  -0.508  11.776  1.00  0.00     0.202 C 
BRANCH  40  41
ATOM     41  C   UNL     1      -0.605  -0.366  12.399  1.00  0.00     0.261 C 
BRANCH  41  42
ATOM     42  O   UNL     1      -0.617   0.088  13.760  1.00  0.00    -0.460 OA
BRANCH  42  43
ATOM     43  C   UNL     1      -0.023  -0.711  14.673  1.00  0.00     0.338 C 
ATOM     44  O   UNL     1       0.486  -1.800  14.483  1.00  0.00    -0.246 OA
BRANCH  43  45
ATOM     45  C   UNL     1       0.081   0.051  15.933  1.00  0.00     0.060 A 
ATOM     46  C   UNL     1       1.344   0.223  16.515  1.00  0.00     0.016 A 
ATOM     47  C   UNL     1      -1.056   0.612  16.521  1.00  0.00     0.016 A 
ATOM     48  C   UNL     1       1.467   0.922  17.714  1.00  0.00     0.010 A 
ATOM     49  C   UNL     1      -0.934   1.295  17.732  1.00  0.00     0.010 A 
ATOM     50  C   UNL     1       0.322   1.418  18.351  1.00  0.00    -0.014 A 
BRANCH  50  51
ATOM     51  C   UNL     1       0.407   1.856  19.764  1.00  0.00     0.031 A 
ATOM     52  C   UNL     1       0.057   0.859  20.833  1.00  0.00     0.074 A 
ATOM     53  C   UNL     1       0.797   3.098  20.095  1.00  0.00     0.049 A 
ATOM     54  N   UNL     1       0.025   1.003  22.132  1.00  0.00    -0.248 NA
ATOM     55  C   UNL     1      -0.314  -0.488  20.367  1.00  0.00     0.031 C 
ATOM     56  C   UNL     1       1.185   4.143  19.152  1.00  0.00     0.029 A 
ATOM     57  N   UNL     1       0.919   3.690  21.328  1.00  0.00    -0.354 N 
ATOM     58  C   UNL     1      -0.373  -0.228  22.636  1.00  0.00     0.074 A 
ATOM     59  C   UNL     1      -0.607  -1.097  21.505  1.00  0.00     0.031 C 
ATOM     60  C   UNL     1       1.486   5.258  19.840  1.00  0.00     0.029 A 
ATOM     61  C   UNL     1       1.285   5.012  21.268  1.00  0.00     0.049 A 
ATOM     62  H   UNL     1       0.759   3.213  22.174  1.00  0.00     0.167 HD
ATOM     63  C   UNL     1      -0.522  -0.603  23.928  1.00  0.00     0.037 A 
ATOM     64  C   UNL     1       1.417   5.920  22.255  1.00  0.00     0.037 A 
ATOM     65  C   UNL     1      -0.295   0.267  25.050  1.00  0.00     0.049 A 
ATOM     66  C   UNL     1       1.186   5.497  23.685  1.00  0.00     0.074 A 
ATOM     67  C   UNL     1      -0.388  -0.023  26.399  1.00  0.00     0.029 A 
ATOM     68  N   UNL     1       0.056   1.606  24.951  1.00  0.00    -0.354 N 
ATOM     69  N   UNL     1       0.857   4.319  24.159  1.00  0.00    -0.248 NA
ATOM     70  C   UNL     1       1.353   6.530  24.718  1.00  0.00     0.031 C 
ATOM     71  C   UNL     1      -0.154   1.156  27.115  1.00  0.00     0.029 A 
ATOM     72  C   UNL     1       0.151   2.165  26.215  1.00  0.00     0.049 A 
ATOM     73  H   UNL     1       0.215   2.087  24.107  1.00  0.00     0.167 HD
ATOM     74  C   UNL     1       0.804   4.462  25.541  1.00  0.00     0.074 A 
ATOM     75  C   UNL     1       1.150   5.838  25.830  1.00  0.00     0.031 C 
ATOM     76  C   UNL     1       0.500   3.537  26.486  1.00  0.00     0.037 A 
BRANCH  63  77
ATOM     77  C   UNL     1      -0.989  -2.005  24.189  1.00  0.00     0.064 A 
ATOM     78  C   UNL     1      -0.174  -3.118  23.930  1.00  0.00     0.173 A 
ATOM     79  C   UNL     1      -2.268  -2.239  24.716  1.00  0.00     0.173 A 
ATOM     80  F   UNL     1       1.052  -2.952  23.409  1.00  0.00    -0.203 F 
ATOM     81  C   UNL     1      -0.635  -4.412  24.157  1.00  0.00     0.198 A 
ATOM     82  C   UNL     1      -2.713  -3.532  24.974  1.00  0.00     0.198 A 
ATOM     83  F   UNL     1      -3.087  -1.211  24.984  1.00  0.00    -0.203 F 
ATOM     84  F   UNL     1       0.139  -5.462  23.846  1.00  0.00    -0.200 F 
ATOM     85  C   UNL     1      -1.901  -4.618  24.684  1.00  0.00     0.200 A 
ATOM     86  F   UNL     1      -3.932  -3.728  25.495  1.00  0.00    -0.200 F 
ATOM     87  F   UNL     1      -2.342  -5.864  24.905  1.00  0.00    -0.200 F 
ENDBRANCH  63  77
BRANCH  64  88
ATOM     88  C   UNL     1       1.772   7.326  21.925  1.00  0.00     0.064 A 
ATOM     89  C   UNL     1       3.009   7.871  22.297  1.00  0.00     0.173 A 
ATOM     90  C   UNL     1       0.872   8.159  21.244  1.00  0.00     0.173 A 
ATOM     91  F   UNL     1       3.893   7.124  22.975  1.00  0.00    -0.203 F 
ATOM     92  C   UNL     1       3.324   9.199  22.015  1.00  0.00     0.198 A 
ATOM     93  C   UNL     1       1.200   9.477  20.937  1.00  0.00     0.198 A 
ATOM     94  F   UNL     1      -0.327   7.689  20.870  1.00  0.00    -0.203 F 
ATOM     95  F   UNL     1       4.494   9.709  22.425  1.00  0.00    -0.200 F 
ATOM     96  C   UNL     1       2.423   9.999  21.329  1.00  0.00     0.200 A 
ATOM     97  F   UNL     1       0.330  10.243  20.265  1.00  0.00    -0.200 F 
ATOM     98  F   UNL     1       2.729  11.275  21.056  1.00  0.00    -0.200 F 
ENDBRANCH  64  88
BRANCH  76  99
ATOM     99  C   UNL     1       0.560   3.968  27.924  1.00  0.00     0.064 A 
ATOM    100  C   UNL     1      -0.388   4.842  28.476  1.00  0.00     0.173 A 
ATOM    101  C   UNL     1       1.552   3.456  28.776  1.00  0.00     0.173 A 
ATOM    102  F   UNL     1      -1.350   5.369  27.703  1.00  0.00    -0.203 F 
ATOM    103  C   UNL     1      -0.329   5.209  29.818  1.00  0.00     0.198 A 
ATOM    104  C   UNL     1       1.588   3.799  30.125  1.00  0.00     0.198 A 
ATOM    105  F   UNL     1       2.478   2.608  28.303  1.00  0.00    -0.203 F 
ATOM    106  F   UNL     1      -1.216   6.084  30.311  1.00  0.00    -0.200 F 
ATOM    107  C   UNL     1       0.653   4.681  30.643  1.00  0.00     0.200 A 
ATOM    108  F   UNL     1       2.527   3.272  30.923  1.00  0.00    -0.200 F 
ATOM    109  F   UNL     1       0.702   5.027  31.936  1.00  0.00    -0.200 F 
ENDBRANCH  76  99
ENDBRANCH  50  51
ENDBRANCH  43  45
ENDBRANCH  42  43
ENDBRANCH  41  42
ENDBRANCH  40  41
ENDBRANCH  39  40
ENDBRANCH  38  39
ENDBRANCH  37  38
ENDBRANCH  36  37
ENDBRANCH   1  36
TORSDOF 24
