REMARK SMILES COc1cc2ccccc2cc1C(=O)Nc1cc(C(=O)OCCOCCOCCOCCOC(=O)c2ccc(-c3c4nc(c(-c5c(F)c(F)c(F)c(F)c5F)c5ccc([nH]5)c(-c5c(F)c(F)c(F)c(F)c5F)c5nc(c(-c6c(F)c(F)c(F)c(F)c6F)c6ccc3[nH]6)C=C5)C=C4)cc2)ccc1C
REMARK SMILES IDX 26 1 25 2 24 3 23 4 22 5 21 6 19 7 20 8 18 9 16 10 17 11
REMARK SMILES IDX 101 12 100 13 102 14 99 15 15 16 13 17 14 18 12 20 3 21 4 22
REMARK SMILES IDX 5 23 11 24 6 25 10 26 7 27 9 28 8 29 2 30 1 31 27 32 28 33
REMARK SMILES IDX 29 34 30 35 31 36 32 37 33 38 34 39 35 40 36 41 37 42 98 43
REMARK SMILES IDX 38 44 97 45 39 46 40 47 41 48 91 49 42 50 96 51 90 52 92 53
REMARK SMILES IDX 43 54 95 55 89 56 88 57 44 59 76 60 56 61 75 62 57 63 60 64
REMARK SMILES IDX 74 65 93 66 58 67 59 68 73 70 94 71 61 72 45 73 46 74 54 75
REMARK SMILES IDX 47 76 48 77 52 78 55 79 49 80 50 81 53 82 51 83 77 84 78 85
REMARK SMILES IDX 86 86 79 87 80 88 84 89 87 90 81 91 82 92 85 93 83 94 62 95
REMARK SMILES IDX 63 96 71 97 64 98 65 99 69 100 72 101 66 102 67 103 70 104
REMARK SMILES IDX 68 105
REMARK H PARENT 15 19 92 58 60 69
REMARK Flexibility Score: inf
ROOT
ATOM      1  C   UNL     1       0.029  -4.403   0.375  1.00  0.00     0.188 C 
ENDROOT
BRANCH   1   2
ATOM      2  C   UNL     1      -1.433  -4.082   0.709  1.00  0.00     0.188 C 
BRANCH   2   3
ATOM      3  O   UNL     1      -2.505  -4.633  -0.041  1.00  0.00    -0.376 OA
BRANCH   3   4
ATOM      4  C   UNL     1      -2.812  -3.977  -1.271  1.00  0.00     0.202 C 
BRANCH   4   5
ATOM      5  C   UNL     1      -3.195  -2.497  -1.189  1.00  0.00     0.261 C 
BRANCH   5   6
ATOM      6  O   UNL     1      -2.041  -1.693  -0.935  1.00  0.00    -0.460 OA
BRANCH   6   7
ATOM      7  C   UNL     1      -2.187  -0.811   0.072  1.00  0.00     0.338 C 
ATOM      8  O   UNL     1      -3.220  -0.398   0.556  1.00  0.00    -0.246 OA
BRANCH   7   9
ATOM      9  C   UNL     1      -0.874  -0.737   0.746  1.00  0.00     0.062 A 
ATOM     10  C   UNL     1       1.487  -0.312   0.779  1.00  0.00     0.045 A 
ATOM     11  C   UNL     1       0.340  -0.623   0.061  1.00  0.00     0.042 A 
ATOM     12  C   UNL     1       1.451  -0.377   2.194  1.00  0.00    -0.027 A 
ATOM     13  C   UNL     1       0.267  -0.744   2.852  1.00  0.00     0.006 A 
ATOM     14  C   UNL     1       2.523   0.199   3.082  1.00  0.00     0.046 C 
ATOM     15  C   UNL     1      -0.905  -0.864   2.134  1.00  0.00     0.016 A 
BRANCH  10  16
ATOM     16  N   UNL     1       2.671   0.125   0.175  1.00  0.00    -0.322 N 
ATOM     17  C   UNL     1       3.033   0.822  -0.951  1.00  0.00     0.259 C 
ATOM     18  O   UNL     1       4.261   0.934  -1.092  1.00  0.00    -0.269 OA
ATOM     19  H   UNL     1       3.460  -0.138   0.701  1.00  0.00     0.170 HD
BRANCH  17  20
ATOM     20  C   UNL     1       2.169   1.507  -1.962  1.00  0.00     0.082 A 
ATOM     21  C   UNL     1       0.834   1.909  -1.865  1.00  0.00     0.132 A 
ATOM     22  C   UNL     1       0.167   2.411  -2.990  1.00  0.00     0.056 A 
ATOM     23  C   UNL     1       0.831   2.677  -4.187  1.00  0.00    -0.015 A 
ATOM     24  C   UNL     1       2.846   1.828  -3.169  1.00  0.00     0.026 A 
ATOM     25  C   UNL     1       0.153   3.218  -5.284  1.00  0.00     0.009 A 
ATOM     26  C   UNL     1       2.207   2.426  -4.272  1.00  0.00    -0.017 A 
ATOM     27  C   UNL     1       0.840   3.543  -6.452  1.00  0.00     0.001 A 
ATOM     28  C   UNL     1       2.892   2.774  -5.450  1.00  0.00     0.009 A 
ATOM     29  C   UNL     1       2.210   3.332  -6.534  1.00  0.00     0.001 A 
BRANCH  21  30
ATOM     30  O   UNL     1       0.013   1.811  -0.783  1.00  0.00    -0.496 OA
ATOM     31  C   UNL     1       0.355   2.658   0.305  1.00  0.00     0.278 C 
ENDBRANCH  21  30
ENDBRANCH  17  20
ENDBRANCH  10  16
ENDBRANCH   7   9
ENDBRANCH   6   7
ENDBRANCH   5   6
ENDBRANCH   4   5
ENDBRANCH   3   4
ENDBRANCH   2   3
ENDBRANCH   1   2
BRANCH   1  32
ATOM     32  O   UNL     1       0.447  -4.181  -0.966  1.00  0.00    -0.377 OA
BRANCH  32  33
ATOM     33  C   UNL     1       1.075  -5.343  -1.512  1.00  0.00     0.188 C 
BRANCH  33  34
ATOM     34  C   UNL     1       0.013  -6.282  -2.041  1.00  0.00     0.188 C 
BRANCH  34  35
ATOM     35  O   UNL     1      -0.900  -6.834  -1.104  1.00  0.00    -0.376 OA
BRANCH  35  36
ATOM     36  C   UNL     1      -0.486  -7.916  -0.279  1.00  0.00     0.202 C 
BRANCH  36  37
ATOM     37  C   UNL     1       0.234  -9.056  -1.007  1.00  0.00     0.261 C 
BRANCH  37  38
ATOM     38  O   UNL     1      -0.633  -9.570  -2.038  1.00  0.00    -0.460 OA
BRANCH  38  39
ATOM     39  C   UNL     1      -0.147  -9.494  -3.308  1.00  0.00     0.338 C 
ATOM     40  O   UNL     1       0.986  -9.797  -3.643  1.00  0.00    -0.246 OA
BRANCH  39  41
ATOM     41  C   UNL     1      -1.059  -8.639  -4.138  1.00  0.00     0.060 A 
ATOM     42  C   UNL     1      -0.533  -8.007  -5.279  1.00  0.00     0.016 A 
ATOM     43  C   UNL     1      -2.220  -8.139  -3.556  1.00  0.00     0.016 A 
ATOM     44  C   UNL     1      -1.030  -6.759  -5.693  1.00  0.00     0.010 A 
ATOM     45  C   UNL     1      -2.639  -6.865  -3.910  1.00  0.00     0.010 A 
ATOM     46  C   UNL     1      -2.006  -6.120  -4.929  1.00  0.00    -0.014 A 
BRANCH  46  47
ATOM     47  C   UNL     1      -2.242  -4.647  -4.892  1.00  0.00     0.031 A 
ATOM     48  C   UNL     1      -3.655  -4.150  -4.692  1.00  0.00     0.074 A 
ATOM     49  C   UNL     1      -1.180  -3.828  -4.641  1.00  0.00     0.049 A 
ATOM     50  N   UNL     1      -4.002  -2.946  -4.380  1.00  0.00    -0.248 NA
ATOM     51  C   UNL     1      -4.830  -5.014  -4.839  1.00  0.00     0.031 C 
ATOM     52  C   UNL     1      -1.185  -2.607  -3.837  1.00  0.00     0.029 A 
ATOM     53  N   UNL     1       0.183  -3.950  -4.968  1.00  0.00    -0.354 N 
ATOM     54  C   UNL     1      -5.346  -2.930  -4.022  1.00  0.00     0.074 A 
ATOM     55  C   UNL     1      -5.821  -4.238  -4.385  1.00  0.00     0.031 C 
ATOM     56  C   UNL     1       0.020  -2.030  -3.805  1.00  0.00     0.029 A 
ATOM     57  C   UNL     1       0.767  -2.651  -4.847  1.00  0.00     0.049 A 
ATOM     58  H   UNL     1       0.648  -4.776  -5.232  1.00  0.00     0.167 HD
ATOM     59  C   UNL     1      -5.866  -1.828  -3.386  1.00  0.00     0.037 A 
ATOM     60  C   UNL     1       1.134  -1.953  -5.965  1.00  0.00     0.037 A 
ATOM     61  C   UNL     1      -4.952  -0.672  -3.490  1.00  0.00     0.049 A 
ATOM     62  C   UNL     1       0.108  -0.882  -6.396  1.00  0.00     0.074 A 
ATOM     63  C   UNL     1      -4.436   0.299  -2.647  1.00  0.00     0.029 A 
ATOM     64  N   UNL     1      -4.292  -0.479  -4.696  1.00  0.00    -0.354 N 
ATOM     65  N   UNL     1      -0.913  -0.466  -5.675  1.00  0.00    -0.248 NA
ATOM     66  C   UNL     1       0.120  -0.244  -7.711  1.00  0.00     0.031 C 
ATOM     67  C   UNL     1      -3.468   1.062  -3.377  1.00  0.00     0.029 A 
ATOM     68  C   UNL     1      -3.404   0.566  -4.666  1.00  0.00     0.049 A 
ATOM     69  H   UNL     1      -4.447  -1.035  -5.493  1.00  0.00     0.167 HD
ATOM     70  C   UNL     1      -1.695   0.405  -6.399  1.00  0.00     0.074 A 
ATOM     71  C   UNL     1      -1.004   0.497  -7.675  1.00  0.00     0.031 C 
ATOM     72  C   UNL     1      -2.858   0.982  -5.947  1.00  0.00     0.037 A 
BRANCH  59  73
ATOM     73  C   UNL     1      -7.161  -1.775  -2.554  1.00  0.00     0.064 A 
ATOM     74  C   UNL     1      -7.624  -0.551  -2.004  1.00  0.00     0.173 A 
ATOM     75  C   UNL     1      -7.928  -2.893  -2.155  1.00  0.00     0.173 A 
ATOM     76  F   UNL     1      -7.055   0.618  -2.323  1.00  0.00    -0.203 F 
ATOM     77  C   UNL     1      -8.699  -0.467  -1.104  1.00  0.00     0.198 A 
ATOM     78  C   UNL     1      -9.047  -2.798  -1.310  1.00  0.00     0.198 A 
ATOM     79  F   UNL     1      -7.613  -4.138  -2.524  1.00  0.00    -0.203 F 
ATOM     80  F   UNL     1      -9.030   0.717  -0.567  1.00  0.00    -0.200 F 
ATOM     81  C   UNL     1      -9.418  -1.590  -0.763  1.00  0.00     0.200 A 
ATOM     82  F   UNL     1      -9.750  -3.902  -1.012  1.00  0.00    -0.200 F 
ATOM     83  F   UNL     1     -10.456  -1.512   0.082  1.00  0.00    -0.200 F 
ENDBRANCH  59  73
BRANCH  60  84
ATOM     84  C   UNL     1       2.071  -2.833  -6.749  1.00  0.00     0.064 A 
ATOM     85  C   UNL     1       3.200  -3.247  -5.988  1.00  0.00     0.173 A 
ATOM     86  C   UNL     1       1.524  -3.769  -7.635  1.00  0.00     0.173 A 
ATOM     87  F   UNL     1       3.794  -2.377  -5.154  1.00  0.00    -0.203 F 
ATOM     88  C   UNL     1       3.492  -4.602  -5.833  1.00  0.00     0.198 A 
ATOM     89  C   UNL     1       1.870  -5.121  -7.522  1.00  0.00     0.198 A 
ATOM     90  F   UNL     1       0.500  -3.425  -8.429  1.00  0.00    -0.203 F 
ATOM     91  F   UNL     1       4.325  -5.000  -4.859  1.00  0.00    -0.200 F 
ATOM     92  C   UNL     1       2.785  -5.541  -6.562  1.00  0.00     0.200 A 
ATOM     93  F   UNL     1       1.194  -6.041  -8.226  1.00  0.00    -0.200 F 
ATOM     94  F   UNL     1       2.911  -6.845  -6.276  1.00  0.00    -0.200 F 
ENDBRANCH  60  84
BRANCH  72  95
ATOM     95  C   UNL     1      -3.702   1.984  -6.717  1.00  0.00     0.064 A 
ATOM     96  C   UNL     1      -3.148   3.013  -7.486  1.00  0.00     0.173 A 
ATOM     97  C   UNL     1      -5.116   2.033  -6.581  1.00  0.00     0.173 A 
ATOM     98  F   UNL     1      -1.825   3.122  -7.635  1.00  0.00    -0.203 F 
ATOM     99  C   UNL     1      -3.934   3.986  -8.107  1.00  0.00     0.198 A 
ATOM    100  C   UNL     1      -5.896   3.029  -7.165  1.00  0.00     0.198 A 
ATOM    101  F   UNL     1      -5.798   1.108  -5.891  1.00  0.00    -0.203 F 
ATOM    102  F   UNL     1      -3.345   4.923  -8.862  1.00  0.00    -0.200 F 
ATOM    103  C   UNL     1      -5.305   3.999  -7.942  1.00  0.00     0.200 A 
ATOM    104  F   UNL     1      -7.223   3.035  -6.971  1.00  0.00    -0.200 F 
ATOM    105  F   UNL     1      -6.053   4.942  -8.530  1.00  0.00    -0.200 F 
ENDBRANCH  72  95
ENDBRANCH  46  47
ENDBRANCH  39  41
ENDBRANCH  38  39
ENDBRANCH  37  38
ENDBRANCH  36  37
ENDBRANCH  35  36
ENDBRANCH  34  35
ENDBRANCH  33  34
ENDBRANCH  32  33
ENDBRANCH   1  32
TORSDOF 23
