REMARK SMILES COc1ccccc1N1C(=O)[C@@H]2[C@@H](C1=O)[C@@](Cc1ccccc1)(C(=O)OCCOCCOCCOCCOC(=O)c1ccc(-c3c4nc(c(-c5c(F)c(F)c(F)c(F)c5F)c5ccc([nH]5)c(-c5c(F)c(F)c(F)c(F)c5F)c5nc(c(-c6c(F)c(F)c(F)c(F)c6F)c6ccc3[nH]6)C=C5)C=C4)cc1)[NH2+][C@H]2c1ccc(C)cc1
REMARK SMILES IDX 32 1 31 2 30 3 29 4 28 5 27 6 26 7 24 8 25 9 16 10 9 11
REMARK SMILES IDX 10 12 14 13 11 14 12 15 13 16 15 17 105 18 104 19 8 22 3 23
REMARK SMILES IDX 4 24 5 25 7 26 6 27 2 28 1 29 106 30 107 31 112 32 108 33
REMARK SMILES IDX 111 34 109 35 110 36 17 37 18 38 19 39 23 40 20 41 22 42
REMARK SMILES IDX 21 43 33 44 34 45 35 46 36 47 37 48 38 49 39 50 40 51 41 52
REMARK SMILES IDX 42 53 103 54 43 55 102 56 44 57 45 58 46 59 96 60 47 61
REMARK SMILES IDX 101 62 95 63 97 64 48 65 100 66 94 67 93 68 49 70 81 71
REMARK SMILES IDX 61 72 80 73 62 74 65 75 79 76 98 77 63 78 64 79 78 81 99 82
REMARK SMILES IDX 66 83 50 84 51 85 59 86 52 87 53 88 57 89 60 90 54 91 55 92
REMARK SMILES IDX 58 93 56 94 82 95 83 96 91 97 84 98 85 99 89 100 92 101
REMARK SMILES IDX 86 102 87 103 90 104 88 105 67 106 68 107 76 108 69 109
REMARK SMILES IDX 70 110 74 111 77 112 71 113 72 114 75 115 73 116
REMARK H PARENT 104 20 104 21 97 69 65 80
REMARK Flexibility Score: inf
ROOT
ATOM      1  O   UNL     1       4.873   3.653  -2.528  1.00  0.00    -0.377 OA
ENDROOT
BRANCH   1   2
ATOM      2  C   UNL     1       5.210   2.714  -1.525  1.00  0.00     0.188 C 
BRANCH   2   3
ATOM      3  C   UNL     1       6.627   2.547  -0.933  1.00  0.00     0.188 C 
BRANCH   3   4
ATOM      4  O   UNL     1       7.691   2.990  -1.754  1.00  0.00    -0.376 OA
BRANCH   4   5
ATOM      5  C   UNL     1       8.410   2.025  -2.500  1.00  0.00     0.202 C 
BRANCH   5   6
ATOM      6  C   UNL     1       7.621   1.155  -3.486  1.00  0.00     0.261 C 
BRANCH   6   7
ATOM      7  O   UNL     1       6.381   0.630  -2.972  1.00  0.00    -0.459 OA
BRANCH   7   8
ATOM      8  C   UNL     1       6.424  -0.517  -2.277  1.00  0.00     0.369 C 
ATOM      9  O   UNL     1       7.486  -1.101  -2.072  1.00  0.00    -0.245 OA
BRANCH   8  10
ATOM     10  C   UNL     1       5.012  -1.118  -1.852  1.00  0.00     0.211 C 
ATOM     11  N   UNL     1       3.174   0.512   1.058  1.00  0.00    -0.246 N 
ATOM     12  C   UNL     1       4.090  -0.373   1.607  1.00  0.00     0.244 C 
ATOM     13  C   UNL     1       3.254   0.520  -0.337  1.00  0.00     0.245 C 
ATOM     14  O   UNL     1       4.196  -0.768   2.756  1.00  0.00    -0.273 OA
ATOM     15  C   UNL     1       5.020  -0.725   0.494  1.00  0.00     0.162 C 
ATOM     16  C   UNL     1       4.113  -0.665  -0.702  1.00  0.00     0.172 C 
ATOM     17  O   UNL     1       2.698   1.267  -1.117  1.00  0.00    -0.273 OA
ATOM     18  C   UNL     1       5.607  -2.106   0.360  1.00  0.00     0.228 C 
ATOM     19  N   UNL     1       5.459  -2.426  -1.113  1.00  0.00    -0.324 N 
ATOM     20  H   UNL     1       6.351  -2.748  -1.489  1.00  0.00     0.347 HD
ATOM     21  H   UNL     1       4.766  -3.163  -1.247  1.00  0.00     0.347 HD
BRANCH  11  22
ATOM     22  C   UNL     1       2.273   1.289   1.841  1.00  0.00     0.094 A 
ATOM     23  C   UNL     1       0.959   1.597   1.441  1.00  0.00     0.143 A 
ATOM     24  C   UNL     1       0.148   2.431   2.226  1.00  0.00     0.048 A 
ATOM     25  C   UNL     1       0.615   2.946   3.433  1.00  0.00     0.004 A 
ATOM     26  C   UNL     1       2.712   1.800   3.079  1.00  0.00     0.031 A 
ATOM     27  C   UNL     1       1.898   2.628   3.861  1.00  0.00     0.002 A 
BRANCH  23  28
ATOM     28  O   UNL     1       0.376   1.151   0.284  1.00  0.00    -0.495 OA
ATOM     29  C   UNL     1       0.113  -0.249   0.294  1.00  0.00     0.278 C 
ENDBRANCH  23  28
ENDBRANCH  11  22
BRANCH  18  30
ATOM     30  C   UNL     1       7.023  -2.244   0.901  1.00  0.00     0.010 A 
ATOM     31  C   UNL     1       7.989  -1.225   0.830  1.00  0.00     0.010 A 
ATOM     32  C   UNL     1       7.403  -3.443   1.519  1.00  0.00     0.010 A 
ATOM     33  C   UNL     1       9.273  -1.389   1.355  1.00  0.00     0.004 A 
ATOM     34  C   UNL     1       8.688  -3.610   2.054  1.00  0.00     0.004 A 
ATOM     35  C   UNL     1       9.632  -2.582   1.977  1.00  0.00    -0.051 A 
ATOM     36  C   UNL     1      11.019  -2.745   2.521  1.00  0.00     0.044 C 
ENDBRANCH  18  30
BRANCH  10  37
ATOM     37  C   UNL     1       4.222  -1.445  -3.161  1.00  0.00     0.117 C 
BRANCH  37  38
ATOM     38  C   UNL     1       3.271  -0.378  -3.696  1.00  0.00    -0.041 A 
ATOM     39  C   UNL     1       1.884  -0.520  -3.527  1.00  0.00     0.004 A 
ATOM     40  C   UNL     1       3.723   0.770  -4.368  1.00  0.00     0.004 A 
ATOM     41  C   UNL     1       0.994   0.474  -3.957  1.00  0.00     0.000 A 
ATOM     42  C   UNL     1       2.838   1.779  -4.770  1.00  0.00     0.000 A 
ATOM     43  C   UNL     1       1.473   1.633  -4.561  1.00  0.00     0.000 A 
ENDBRANCH  37  38
ENDBRANCH  10  37
ENDBRANCH   8  10
ENDBRANCH   7   8
ENDBRANCH   6   7
ENDBRANCH   5   6
ENDBRANCH   4   5
ENDBRANCH   3   4
ENDBRANCH   2   3
ENDBRANCH   1   2
BRANCH   1  44
ATOM     44  C   UNL     1       5.874   4.516  -3.009  1.00  0.00     0.188 C 
BRANCH  44  45
ATOM     45  C   UNL     1       6.384   5.539  -1.983  1.00  0.00     0.188 C 
BRANCH  45  46
ATOM     46  O   UNL     1       6.013   5.281  -0.643  1.00  0.00    -0.376 OA
BRANCH  46  47
ATOM     47  C   UNL     1       4.740   5.643  -0.135  1.00  0.00     0.202 C 
BRANCH  47  48
ATOM     48  C   UNL     1       3.452   5.867  -0.955  1.00  0.00     0.261 C 
BRANCH  48  49
ATOM     49  O   UNL     1       3.552   6.139  -2.352  1.00  0.00    -0.460 OA
BRANCH  49  50
ATOM     50  C   UNL     1       3.894   7.388  -2.729  1.00  0.00     0.338 C 
ATOM     51  O   UNL     1       4.176   8.328  -2.022  1.00  0.00    -0.246 OA
BRANCH  50  52
ATOM     52  C   UNL     1       4.051   7.345  -4.200  1.00  0.00     0.060 A 
ATOM     53  C   UNL     1       5.325   7.537  -4.752  1.00  0.00     0.016 A 
ATOM     54  C   UNL     1       2.954   7.072  -5.019  1.00  0.00     0.016 A 
ATOM     55  C   UNL     1       5.504   7.466  -6.131  1.00  0.00     0.010 A 
ATOM     56  C   UNL     1       3.125   7.047  -6.404  1.00  0.00     0.010 A 
ATOM     57  C   UNL     1       4.396   7.271  -6.963  1.00  0.00    -0.014 A 
BRANCH  57  58
ATOM     58  C   UNL     1       4.530   7.536  -8.412  1.00  0.00     0.031 A 
ATOM     59  C   UNL     1       4.170   8.907  -8.907  1.00  0.00     0.074 A 
ATOM     60  C   UNL     1       4.990   6.599  -9.257  1.00  0.00     0.049 A 
ATOM     61  N   UNL     1       4.151   9.374 -10.128  1.00  0.00    -0.248 NA
ATOM     62  C   UNL     1       3.775   9.886  -7.880  1.00  0.00     0.031 C 
ATOM     63  C   UNL     1       5.423   5.257  -8.878  1.00  0.00     0.029 A 
ATOM     64  N   UNL     1       5.160   6.640 -10.618  1.00  0.00    -0.354 N 
ATOM     65  C   UNL     1       3.735  10.694 -10.016  1.00  0.00     0.074 A 
ATOM     66  C   UNL     1       3.484  10.948  -8.615  1.00  0.00     0.031 C 
ATOM     67  C   UNL     1       5.792   4.591  -9.986  1.00  0.00     0.029 A 
ATOM     68  C   UNL     1       5.586   5.450 -11.152  1.00  0.00     0.049 A 
ATOM     69  H   UNL     1       4.993   7.445 -11.159  1.00  0.00     0.167 HD
ATOM     70  C   UNL     1       3.583  11.614 -10.997  1.00  0.00     0.037 A 
ATOM     71  C   UNL     1       5.758   5.094 -12.441  1.00  0.00     0.037 A 
ATOM     72  C   UNL     1       3.825  11.348 -12.389  1.00  0.00     0.049 A 
ATOM     73  C   UNL     1       5.492   6.110 -13.524  1.00  0.00     0.074 A 
ATOM     74  C   UNL     1       3.711  12.210 -13.464  1.00  0.00     0.029 A 
ATOM     75  N   UNL     1       4.219  10.119 -12.899  1.00  0.00    -0.354 N 
ATOM     76  N   UNL     1       5.122   7.364 -13.415  1.00  0.00    -0.248 NA
ATOM     77  C   UNL     1       5.671   5.661 -14.912  1.00  0.00     0.031 C 
ATOM     78  C   UNL     1       3.970  11.486 -14.632  1.00  0.00     0.029 A 
ATOM     79  C   UNL     1       4.319  10.191 -14.279  1.00  0.00     0.049 A 
ATOM     80  H   UNL     1       4.399   9.315 -12.361  1.00  0.00     0.167 HD
ATOM     81  C   UNL     1       5.056   7.860 -14.711  1.00  0.00     0.074 A 
ATOM     82  C   UNL     1       5.438   6.775 -15.591  1.00  0.00     0.031 C 
ATOM     83  C   UNL     1       4.712   9.101 -15.137  1.00  0.00     0.037 A 
BRANCH  70  84
ATOM     84  C   UNL     1       3.093  12.976 -10.600  1.00  0.00     0.064 A 
ATOM     85  C   UNL     1       3.886  13.862  -9.855  1.00  0.00     0.173 A 
ATOM     86  C   UNL     1       1.816  13.409 -10.989  1.00  0.00     0.173 A 
ATOM     87  F   UNL     1       5.108  13.492  -9.442  1.00  0.00    -0.203 F 
ATOM     88  C   UNL     1       3.409  15.120  -9.493  1.00  0.00     0.198 A 
ATOM     89  C   UNL     1       1.356  14.679 -10.655  1.00  0.00     0.198 A 
ATOM     90  F   UNL     1       1.016  12.601 -11.702  1.00  0.00    -0.203 F 
ATOM     91  F   UNL     1       4.163  15.928  -8.736  1.00  0.00    -0.200 F 
ATOM     92  C   UNL     1       2.148  15.530  -9.900  1.00  0.00     0.200 A 
ATOM     93  F   UNL     1       0.143  15.078 -11.062  1.00  0.00    -0.200 F 
ATOM     94  F   UNL     1       1.694  16.743  -9.559  1.00  0.00    -0.200 F 
ENDBRANCH  70  84
BRANCH  71  95
ATOM     95  C   UNL     1       6.180   3.709 -12.783  1.00  0.00     0.064 A 
ATOM     96  C   UNL     1       7.423   3.456 -13.379  1.00  0.00     0.173 A 
ATOM     97  C   UNL     1       5.337   2.612 -12.546  1.00  0.00     0.173 A 
ATOM     98  F   UNL     1       8.255   4.472 -13.651  1.00  0.00    -0.203 F 
ATOM     99  C   UNL     1       7.797   2.164 -13.746  1.00  0.00     0.198 A 
ATOM    100  C   UNL     1       5.726   1.317 -12.882  1.00  0.00     0.198 A 
ATOM    101  F   UNL     1       4.135   2.798 -11.981  1.00  0.00    -0.203 F 
ATOM    102  F   UNL     1       8.968   1.958 -14.364  1.00  0.00    -0.200 F 
ATOM    103  C   UNL     1       6.951   1.095 -13.491  1.00  0.00     0.200 A 
ATOM    104  F   UNL     1       4.911   0.286 -12.622  1.00  0.00    -0.200 F 
ATOM    105  F   UNL     1       7.312  -0.146 -13.841  1.00  0.00    -0.200 F 
ENDBRANCH  71  95
BRANCH  83 106
ATOM    106  C   UNL     1       4.777   9.372 -16.615  1.00  0.00     0.064 A 
ATOM    107  C   UNL     1       3.865   8.801 -17.514  1.00  0.00     0.173 A 
ATOM    108  C   UNL     1       5.737  10.259 -17.129  1.00  0.00     0.173 A 
ATOM    109  F   UNL     1       2.936   7.938 -17.078  1.00  0.00    -0.203 F 
ATOM    110  C   UNL     1       3.930   9.085 -18.876  1.00  0.00     0.198 A 
ATOM    111  C   UNL     1       5.774  10.569 -18.485  1.00  0.00     0.198 A 
ATOM    112  F   UNL     1       6.627  10.841 -16.311  1.00  0.00    -0.203 F 
ATOM    113  F   UNL     1       3.081   8.487 -19.724  1.00  0.00    -0.200 F 
ATOM    114  C   UNL     1       4.877   9.976 -19.359  1.00  0.00     0.200 A 
ATOM    115  F   UNL     1       6.678  11.445 -18.945  1.00  0.00    -0.200 F 
ATOM    116  F   UNL     1       4.930  10.257 -20.668  1.00  0.00    -0.200 F 
ENDBRANCH  83 106
ENDBRANCH  57  58
ENDBRANCH  50  52
ENDBRANCH  49  50
ENDBRANCH  48  49
ENDBRANCH  47  48
ENDBRANCH  46  47
ENDBRANCH  45  46
ENDBRANCH  44  45
ENDBRANCH   1  44
TORSDOF 25
