REMARK SMILES Cc1ccc(C)c(S(=O)(=O)N[C@@H](CC2=c3ccccc3=NC2)C(=O)OCCOCCOCCOCCOC(=O)c2ccc(-c3c4nc(c(-c5c(F)c(F)c(F)c(F)c5F)c5ccc([nH]5)c(-c5c(F)c(F)c(F)c(F)c5F)c5nc(c(-c6c(F)c(F)c(F)c(F)c6F)c6ccc3[nH]6)C=C5)C=C4)cc2)c1
REMARK SMILES IDX 30 1 29 2 28 3 27 4 26 5 25 6 23 7 24 8 12 9 11 10 8 12 9 13
REMARK SMILES IDX 10 14 7 15 1 16 2 17 3 18 103 19 4 20 5 21 6 22 13 23 14 24
REMARK SMILES IDX 15 25 22 26 16 27 20 28 21 29 17 30 19 31 18 32 31 33 32 34
REMARK SMILES IDX 33 35 34 36 35 37 36 38 37 39 38 40 39 41 40 42 41 43 102 44
REMARK SMILES IDX 42 45 101 46 43 47 44 48 45 49 95 50 46 51 100 52 94 53
REMARK SMILES IDX 96 54 47 55 99 56 93 57 92 58 48 60 80 61 60 62 79 63 61 64
REMARK SMILES IDX 64 65 78 66 97 67 62 68 63 69 77 71 98 72 65 73 49 74 50 75
REMARK SMILES IDX 58 76 51 77 52 78 56 79 59 80 53 81 54 82 57 83 55 84 81 85
REMARK SMILES IDX 82 86 90 87 83 88 84 89 88 90 91 91 85 92 86 93 89 94 87 95
REMARK SMILES IDX 66 96 67 97 75 98 68 99 69 100 73 101 76 102 70 103 71 104
REMARK SMILES IDX 74 105 72 106
REMARK H PARENT 11 11 96 59 64 70
REMARK Flexibility Score: inf
ROOT
ATOM      1  C   UNL     1       0.398   6.682   2.216  1.00  0.00     0.188 C 
ENDROOT
BRANCH   1   2
ATOM      2  C   UNL     1       1.443   6.926   1.168  1.00  0.00     0.188 C 
BRANCH   2   3
ATOM      3  O   UNL     1       1.734   8.129   0.477  1.00  0.00    -0.376 OA
BRANCH   3   4
ATOM      4  C   UNL     1       0.794   8.683  -0.433  1.00  0.00     0.202 C 
BRANCH   4   5
ATOM      5  C   UNL     1       0.817   8.144  -1.901  1.00  0.00     0.261 C 
BRANCH   5   6
ATOM      6  O   UNL     1      -0.225   7.231  -2.364  1.00  0.00    -0.462 OA
BRANCH   6   7
ATOM      7  C   UNL     1      -0.682   6.410  -1.417  1.00  0.00     0.324 C 
ATOM      8  O   UNL     1      -0.510   6.601  -0.235  1.00  0.00    -0.250 OA
BRANCH   7   9
ATOM      9  C   UNL     1      -1.425   5.202  -1.786  1.00  0.00     0.183 C 
BRANCH   9  10
ATOM     10  N   UNL     1      -0.546   4.145  -2.594  1.00  0.00    -0.197 NA
ATOM     11  H   UNL     1      -0.731   3.228  -2.187  1.00  0.00     0.142 HD
BRANCH  10  12
ATOM     12  S   UNL     1       1.450   4.382  -2.638  1.00  0.00     0.241 S 
ATOM     13  O   UNL     1       1.633   5.403  -1.720  1.00  0.00    -0.207 OA
ATOM     14  O   UNL     1       1.600   4.738  -4.071  1.00  0.00    -0.207 OA
BRANCH  12  15
ATOM     15  C   UNL     1       2.699   2.418  -2.144  1.00  0.00     0.085 A 
ATOM     16  C   UNL     1       2.001   0.335   1.208  1.00  0.00     0.044 C 
ATOM     17  C   UNL     1       2.677   0.504  -0.154  1.00  0.00    -0.050 A 
ATOM     18  C   UNL     1       2.506  -0.345  -1.160  1.00  0.00     0.004 A 
ATOM     19  C   UNL     1       3.108   1.712  -0.702  1.00  0.00     0.025 A 
ATOM     20  C   UNL     1       2.618   0.193  -2.514  1.00  0.00     0.005 A 
ATOM     21  C   UNL     1       2.636   1.512  -3.038  1.00  0.00    -0.031 A 
ATOM     22  C   UNL     1       2.038   2.079  -4.201  1.00  0.00     0.046 C 
ENDBRANCH  12  15
ENDBRANCH  10  12
ENDBRANCH   9  10
BRANCH   9  23
ATOM     23  C   UNL     1      -2.155   4.637  -0.390  1.00  0.00     0.065 C 
BRANCH  23  24
ATOM     24  C   UNL     1      -2.671   5.555   0.809  1.00  0.00    -0.037 C 
ATOM     25  C   UNL     1      -2.543   5.373   2.146  1.00  0.00     0.001 A 
ATOM     26  C   UNL     1      -3.161   6.981   0.589  1.00  0.00     0.174 C 
ATOM     27  C   UNL     1      -2.018   4.346   3.012  1.00  0.00     0.010 A 
ATOM     28  C   UNL     1      -2.813   6.722   2.724  1.00  0.00     0.065 A 
ATOM     29  N   UNL     1      -3.271   7.630   1.921  1.00  0.00    -0.280 NA
ATOM     30  C   UNL     1      -1.681   4.639   4.286  1.00  0.00     0.001 A 
ATOM     31  C   UNL     1      -2.430   6.961   4.146  1.00  0.00     0.028 A 
ATOM     32  C   UNL     1      -1.837   5.974   4.837  1.00  0.00     0.002 A 
ENDBRANCH  23  24
ENDBRANCH   9  23
ENDBRANCH   7   9
ENDBRANCH   6   7
ENDBRANCH   5   6
ENDBRANCH   4   5
ENDBRANCH   3   4
ENDBRANCH   2   3
ENDBRANCH   1   2
BRANCH   1  33
ATOM     33  O   UNL     1      -0.053   7.840   2.865  1.00  0.00    -0.377 OA
BRANCH  33  34
ATOM     34  C   UNL     1       0.993   8.613   3.434  1.00  0.00     0.188 C 
BRANCH  34  35
ATOM     35  C   UNL     1       1.778   7.855   4.511  1.00  0.00     0.188 C 
BRANCH  35  36
ATOM     36  O   UNL     1       2.536   6.802   3.927  1.00  0.00    -0.376 OA
BRANCH  36  37
ATOM     37  C   UNL     1       2.842   5.714   4.774  1.00  0.00     0.202 C 
BRANCH  37  38
ATOM     38  C   UNL     1       4.153   5.966   5.510  1.00  0.00     0.261 C 
BRANCH  38  39
ATOM     39  O   UNL     1       5.371   6.149   4.734  1.00  0.00    -0.460 OA
BRANCH  39  40
ATOM     40  C   UNL     1       5.335   6.807   3.550  1.00  0.00     0.338 C 
ATOM     41  O   UNL     1       5.556   8.000   3.416  1.00  0.00    -0.246 OA
BRANCH  40  42
ATOM     42  C   UNL     1       4.990   5.871   2.441  1.00  0.00     0.060 A 
ATOM     43  C   UNL     1       4.587   6.421   1.258  1.00  0.00     0.016 A 
ATOM     44  C   UNL     1       4.742   4.501   2.665  1.00  0.00     0.016 A 
ATOM     45  C   UNL     1       3.649   5.677   0.542  1.00  0.00     0.010 A 
ATOM     46  C   UNL     1       3.716   3.788   1.969  1.00  0.00     0.010 A 
ATOM     47  C   UNL     1       3.005   4.403   0.942  1.00  0.00    -0.014 A 
BRANCH  47  48
ATOM     48  C   UNL     1       2.142   3.696  -0.262  1.00  0.00     0.031 A 
ATOM     49  C   UNL     1       3.757   4.117  -1.305  1.00  0.00     0.074 A 
ATOM     50  C   UNL     1       0.847   2.682  -0.710  1.00  0.00     0.049 A 
ATOM     51  N   UNL     1       3.925   4.652  -2.517  1.00  0.00    -0.248 NA
ATOM     52  C   UNL     1       5.155   3.741  -0.814  1.00  0.00     0.031 C 
ATOM     53  C   UNL     1      -0.209   1.685  -0.162  1.00  0.00     0.029 A 
ATOM     54  N   UNL     1       0.367   2.077  -2.227  1.00  0.00    -0.354 N 
ATOM     55  C   UNL     1       5.247   4.543  -2.939  1.00  0.00     0.074 A 
ATOM     56  C   UNL     1       5.976   4.218  -1.752  1.00  0.00     0.031 C 
ATOM     57  C   UNL     1      -0.609   0.626  -1.054  1.00  0.00     0.029 A 
ATOM     58  C   UNL     1      -0.088   0.665  -2.507  1.00  0.00     0.049 A 
ATOM     59  H   UNL     1       0.389   2.702  -2.988  1.00  0.00     0.167 HD
ATOM     60  C   UNL     1       5.674   4.516  -4.246  1.00  0.00     0.037 A 
ATOM     61  C   UNL     1       0.152  -0.302  -3.748  1.00  0.00     0.037 A 
ATOM     62  C   UNL     1       4.658   4.775  -5.249  1.00  0.00     0.049 A 
ATOM     63  C   UNL     1       0.860   0.082  -5.428  1.00  0.00     0.074 A 
ATOM     64  C   UNL     1       4.021   5.917  -5.660  1.00  0.00     0.029 A 
ATOM     65  N   UNL     1       4.152   3.728  -6.029  1.00  0.00    -0.354 N 
ATOM     66  N   UNL     1       0.486   1.014  -6.324  1.00  0.00    -0.248 NA
ATOM     67  C   UNL     1       2.329  -0.233  -5.696  1.00  0.00     0.031 C 
ATOM     68  C   UNL     1       2.962   5.486  -6.509  1.00  0.00     0.029 A 
ATOM     69  C   UNL     1       2.936   4.071  -6.631  1.00  0.00     0.049 A 
ATOM     70  H   UNL     1       4.597   2.857  -6.141  1.00  0.00     0.167 HD
ATOM     71  C   UNL     1       1.683   1.713  -6.811  1.00  0.00     0.074 A 
ATOM     72  C   UNL     1       2.764   0.777  -6.486  1.00  0.00     0.031 C 
ATOM     73  C   UNL     1       1.758   3.112  -6.996  1.00  0.00     0.037 A 
BRANCH  60  74
ATOM     74  C   UNL     1       7.041   4.041  -4.734  1.00  0.00     0.064 A 
ATOM     75  C   UNL     1       7.501   4.405  -6.024  1.00  0.00     0.173 A 
ATOM     76  C   UNL     1       7.765   3.006  -4.112  1.00  0.00     0.173 A 
ATOM     77  F   UNL     1       6.939   5.422  -6.696  1.00  0.00    -0.203 F 
ATOM     78  C   UNL     1       8.499   3.681  -6.688  1.00  0.00     0.198 A 
ATOM     79  C   UNL     1       8.800   2.327  -4.755  1.00  0.00     0.198 A 
ATOM     80  F   UNL     1       7.433   2.530  -2.909  1.00  0.00    -0.203 F 
ATOM     81  F   UNL     1       8.798   3.963  -7.964  1.00  0.00    -0.200 F 
ATOM     82  C   UNL     1       9.130   2.625  -6.059  1.00  0.00     0.200 A 
ATOM     83  F   UNL     1       9.409   1.315  -4.122  1.00  0.00    -0.200 F 
ATOM     84  F   UNL     1      10.014   1.865  -6.718  1.00  0.00    -0.200 F 
ENDBRANCH  60  74
BRANCH  61  85
ATOM     85  C   UNL     1       0.465  -1.995  -3.655  1.00  0.00     0.064 A 
ATOM     86  C   UNL     1      -0.141  -2.965  -4.477  1.00  0.00     0.173 A 
ATOM     87  C   UNL     1       1.656  -2.597  -3.086  1.00  0.00     0.173 A 
ATOM     88  F   UNL     1      -1.010  -2.597  -5.428  1.00  0.00    -0.203 F 
ATOM     89  C   UNL     1       0.235  -4.359  -4.441  1.00  0.00     0.198 A 
ATOM     90  C   UNL     1       1.904  -3.946  -2.852  1.00  0.00     0.198 A 
ATOM     91  F   UNL     1       2.875  -2.039  -3.208  1.00  0.00    -0.203 F 
ATOM     92  F   UNL     1      -0.284  -5.222  -5.326  1.00  0.00    -0.200 F 
ATOM     93  C   UNL     1       1.190  -4.851  -3.560  1.00  0.00     0.200 A 
ATOM     94  F   UNL     1       3.025  -4.295  -2.199  1.00  0.00    -0.200 F 
ATOM     95  F   UNL     1       1.543  -6.143  -3.515  1.00  0.00    -0.200 F 
ENDBRANCH  61  85
BRANCH  73  96
ATOM     96  C   UNL     1       0.448   3.891  -7.200  1.00  0.00     0.064 A 
ATOM     97  C   UNL     1      -0.649   3.791  -6.329  1.00  0.00     0.173 A 
ATOM     98  C   UNL     1       0.431   5.005  -8.075  1.00  0.00     0.173 A 
ATOM     99  F   UNL     1      -0.763   2.820  -5.416  1.00  0.00    -0.203 F 
ATOM    100  C   UNL     1      -1.631   4.777  -6.260  1.00  0.00     0.198 A 
ATOM    101  C   UNL     1      -0.529   6.019  -7.964  1.00  0.00     0.198 A 
ATOM    102  F   UNL     1       1.438   5.204  -8.944  1.00  0.00    -0.203 F 
ATOM    103  F   UNL     1      -2.603   4.661  -5.343  1.00  0.00    -0.200 F 
ATOM    104  C   UNL     1      -1.551   5.909  -7.043  1.00  0.00     0.200 A 
ATOM    105  F   UNL     1      -0.411   7.141  -8.690  1.00  0.00    -0.200 F 
ATOM    106  F   UNL     1      -2.435   6.902  -6.875  1.00  0.00    -0.200 F 
ENDBRANCH  73  96
ENDBRANCH  47  48
ENDBRANCH  40  42
ENDBRANCH  39  40
ENDBRANCH  38  39
ENDBRANCH  37  38
ENDBRANCH  36  37
ENDBRANCH  35  36
ENDBRANCH  34  35
ENDBRANCH  33  34
ENDBRANCH   1  33
TORSDOF 25
