REMARK SMILES Cn1nc(-c2cccs2)cc1C(=O)N1CC[C@@H](c2ccccc2C(=O)OCCOCCOCCOCCOC(=O)c2ccc(-c3c4nc(c(-c5c(F)c(F)c(F)c(F)c5F)c5ccc([nH]5)c(-c5c(F)c(F)c(F)c(F)c5F)c5nc(c(-c6c(F)c(F)c(F)c(F)c6F)c6ccc3[nH]6)C=C5)C=C4)cc2)C1
REMARK SMILES IDX 31 1 30 2 29 3 28 4 27 5 26 6 24 7 25 8 23 9 18 10 19 11
REMARK SMILES IDX 20 12 22 13 21 14 17 15 14 16 15 17 104 18 16 19 12 20 13 21
REMARK SMILES IDX 11 22 1 23 2 24 3 25 4 26 10 27 5 28 6 29 9 30 7 31 8 32
REMARK SMILES IDX 32 33 33 34 34 35 35 36 36 37 37 38 38 39 39 40 40 41 41 42
REMARK SMILES IDX 42 43 103 44 43 45 102 46 44 47 45 48 46 49 96 50 47 51
REMARK SMILES IDX 101 52 95 53 97 54 48 55 100 56 94 57 93 58 49 60 81 61
REMARK SMILES IDX 61 62 80 63 62 64 65 65 79 66 98 67 63 68 64 69 78 71 99 72
REMARK SMILES IDX 66 73 50 74 51 75 59 76 52 77 53 78 57 79 60 80 54 81 55 82
REMARK SMILES IDX 58 83 56 84 82 85 83 86 91 87 84 88 85 89 89 90 92 91 86 92
REMARK SMILES IDX 87 93 90 94 88 95 67 96 68 97 76 98 69 99 70 100 74 101
REMARK SMILES IDX 77 102 71 103 72 104 75 105 73 106
REMARK H PARENT 97 59 65 70
REMARK Flexibility Score: inf
ROOT
ATOM      1  C   UNL     1      -7.594  -3.503   1.260  1.00  0.00     0.188 C 
ENDROOT
BRANCH   1   2
ATOM      2  C   UNL     1      -8.268  -4.609   2.105  1.00  0.00     0.188 C 
BRANCH   2   3
ATOM      3  O   UNL     1      -8.400  -4.287   3.479  1.00  0.00    -0.376 OA
BRANCH   3   4
ATOM      4  C   UNL     1      -7.589  -4.967   4.418  1.00  0.00     0.202 C 
BRANCH   4   5
ATOM      5  C   UNL     1      -6.064  -4.857   4.279  1.00  0.00     0.261 C 
BRANCH   5   6
ATOM      6  O   UNL     1      -5.572  -4.905   2.933  1.00  0.00    -0.460 OA
BRANCH   6   7
ATOM      7  C   UNL     1      -5.405  -6.125   2.391  1.00  0.00     0.338 C 
ATOM      8  O   UNL     1      -5.622  -7.183   2.963  1.00  0.00    -0.246 OA
BRANCH   7   9
ATOM      9  C   UNL     1      -5.119  -6.044   0.925  1.00  0.00     0.063 A 
ATOM     10  C   UNL     1      -4.205  -5.181   0.279  1.00  0.00    -0.029 A 
ATOM     11  C   UNL     1      -3.898  -5.468  -1.069  1.00  0.00     0.005 A 
ATOM     12  C   UNL     1      -4.630  -6.391  -1.814  1.00  0.00     0.000 A 
ATOM     13  C   UNL     1      -5.868  -6.959   0.154  1.00  0.00     0.016 A 
ATOM     14  C   UNL     1      -5.662  -7.093  -1.216  1.00  0.00     0.001 A 
BRANCH  10  15
ATOM     15  C   UNL     1      -3.655  -3.891   0.877  1.00  0.00     0.041 C 
ATOM     16  N   UNL     1      -1.682  -2.709   0.219  1.00  0.00    -0.337 N 
ATOM     17  C   UNL     1      -2.694  -2.348  -0.748  1.00  0.00     0.120 C 
ATOM     18  C   UNL     1      -2.131  -3.821   1.047  1.00  0.00     0.128 C 
ATOM     19  C   UNL     1      -3.988  -2.658  -0.013  1.00  0.00     0.032 C 
BRANCH  16  20
ATOM     20  C   UNL     1      -0.348  -2.360   0.199  1.00  0.00     0.272 C 
ATOM     21  O   UNL     1       0.498  -3.212   0.475  1.00  0.00    -0.267 OA
BRANCH  20  22
ATOM     22  C   UNL     1       0.043  -0.983  -0.041  1.00  0.00     0.126 A 
ATOM     23  C   UNL     1      -1.991   0.439   0.601  1.00  0.00     0.174 C 
ATOM     24  N   UNL     1      -0.620   0.193   0.225  1.00  0.00    -0.262 N 
ATOM     25  N   UNL     1       0.173   1.278   0.196  1.00  0.00    -0.172 NA
ATOM     26  C   UNL     1       1.371   0.818  -0.164  1.00  0.00     0.103 A 
ATOM     27  C   UNL     1       1.326  -0.571  -0.395  1.00  0.00     0.065 A 
BRANCH  26  28
ATOM     28  C   UNL     1       2.569   1.711  -0.226  1.00  0.00     0.055 A 
ATOM     29  C   UNL     1       3.685   1.489  -1.004  1.00  0.00     0.022 A 
ATOM     30  S   UNL     1       2.710   3.148   0.693  1.00  0.00    -0.142 S 
ATOM     31  C   UNL     1       4.661   2.520  -0.847  1.00  0.00     0.012 A 
ATOM     32  C   UNL     1       4.280   3.453   0.092  1.00  0.00     0.065 A 
ENDBRANCH  26  28
ENDBRANCH  20  22
ENDBRANCH  16  20
ENDBRANCH  10  15
ENDBRANCH   7   9
ENDBRANCH   6   7
ENDBRANCH   5   6
ENDBRANCH   4   5
ENDBRANCH   3   4
ENDBRANCH   2   3
ENDBRANCH   1   2
BRANCH   1  33
ATOM     33  O   UNL     1      -6.964  -2.402   1.908  1.00  0.00    -0.377 OA
BRANCH  33  34
ATOM     34  C   UNL     1      -7.626  -1.745   2.987  1.00  0.00     0.188 C 
BRANCH  34  35
ATOM     35  C   UNL     1      -9.170  -1.697   3.075  1.00  0.00     0.188 C 
BRANCH  35  36
ATOM     36  O   UNL     1      -9.839  -2.248   1.956  1.00  0.00    -0.376 OA
BRANCH  36  37
ATOM     37  C   UNL     1     -10.457  -1.356   1.047  1.00  0.00     0.202 C 
BRANCH  37  38
ATOM     38  C   UNL     1      -9.557  -0.340   0.328  1.00  0.00     0.261 C 
BRANCH  38  39
ATOM     39  O   UNL     1      -8.700   0.457   1.161  1.00  0.00    -0.460 OA
BRANCH  39  40
ATOM     40  C   UNL     1      -9.289   1.344   1.989  1.00  0.00     0.338 C 
ATOM     41  O   UNL     1     -10.486   1.556   2.117  1.00  0.00    -0.246 OA
BRANCH  40  42
ATOM     42  C   UNL     1      -8.239   1.899   2.866  1.00  0.00     0.060 A 
ATOM     43  C   UNL     1      -8.312   1.683   4.249  1.00  0.00     0.016 A 
ATOM     44  C   UNL     1      -7.177   2.621   2.317  1.00  0.00     0.016 A 
ATOM     45  C   UNL     1      -7.336   2.216   5.091  1.00  0.00     0.010 A 
ATOM     46  C   UNL     1      -6.213   3.173   3.163  1.00  0.00     0.010 A 
ATOM     47  C   UNL     1      -6.306   3.001   4.556  1.00  0.00    -0.014 A 
BRANCH  47  48
ATOM     48  C   UNL     1      -5.445   3.805   5.457  1.00  0.00     0.031 A 
ATOM     49  C   UNL     1      -5.781   5.258   5.651  1.00  0.00     0.074 A 
ATOM     50  C   UNL     1      -4.393   3.262   6.093  1.00  0.00     0.049 A 
ATOM     51  N   UNL     1      -5.142   6.180   6.323  1.00  0.00    -0.248 NA
ATOM     52  C   UNL     1      -7.006   5.737   4.989  1.00  0.00     0.031 C 
ATOM     53  C   UNL     1      -3.990   1.860   6.017  1.00  0.00     0.029 A 
ATOM     54  N   UNL     1      -3.458   3.839   6.917  1.00  0.00    -0.354 N 
ATOM     55  C   UNL     1      -5.875   7.347   6.151  1.00  0.00     0.074 A 
ATOM     56  C   UNL     1      -6.994   7.025   5.293  1.00  0.00     0.031 C 
ATOM     57  C   UNL     1      -2.875   1.688   6.749  1.00  0.00     0.029 A 
ATOM     58  C   UNL     1      -2.466   2.975   7.312  1.00  0.00     0.049 A 
ATOM     59  H   UNL     1      -3.496   4.782   7.199  1.00  0.00     0.167 HD
ATOM     60  C   UNL     1      -5.637   8.576   6.667  1.00  0.00     0.037 A 
ATOM     61  C   UNL     1      -1.343   3.208   8.020  1.00  0.00     0.037 A 
ATOM     62  C   UNL     1      -4.525   8.889   7.524  1.00  0.00     0.049 A 
ATOM     63  C   UNL     1      -1.065   4.603   8.526  1.00  0.00     0.074 A 
ATOM     64  C   UNL     1      -4.216  10.095   8.129  1.00  0.00     0.029 A 
ATOM     65  N   UNL     1      -3.530   7.993   7.886  1.00  0.00    -0.354 N 
ATOM     66  N   UNL     1      -1.784   5.692   8.398  1.00  0.00    -0.248 NA
ATOM     67  C   UNL     1       0.181   4.799   9.281  1.00  0.00     0.031 C 
ATOM     68  C   UNL     1      -2.999   9.947   8.799  1.00  0.00     0.029 A 
ATOM     69  C   UNL     1      -2.587   8.630   8.677  1.00  0.00     0.049 A 
ATOM     70  H   UNL     1      -3.499   7.045   7.621  1.00  0.00     0.167 HD
ATOM     71  C   UNL     1      -1.097   6.689   9.081  1.00  0.00     0.074 A 
ATOM     72  C   UNL     1       0.088   6.072   9.637  1.00  0.00     0.031 C 
ATOM     73  C   UNL     1      -1.418   7.998   9.235  1.00  0.00     0.037 A 
BRANCH  60  74
ATOM     74  C   UNL     1      -6.575   9.685   6.289  1.00  0.00     0.064 A 
ATOM     75  C   UNL     1      -7.898   9.733   6.755  1.00  0.00     0.173 A 
ATOM     76  C   UNL     1      -6.128  10.741   5.479  1.00  0.00     0.173 A 
ATOM     77  F   UNL     1      -8.381   8.742   7.520  1.00  0.00    -0.203 F 
ATOM     78  C   UNL     1      -8.743  10.783   6.406  1.00  0.00     0.198 A 
ATOM     79  C   UNL     1      -6.965  11.806   5.160  1.00  0.00     0.198 A 
ATOM     80  F   UNL     1      -4.872  10.746   5.008  1.00  0.00    -0.203 F 
ATOM     81  F   UNL     1     -10.017  10.784   6.823  1.00  0.00    -0.200 F 
ATOM     82  C   UNL     1      -8.273  11.823   5.617  1.00  0.00     0.200 A 
ATOM     83  F   UNL     1      -6.504  12.816   4.410  1.00  0.00    -0.200 F 
ATOM     84  F   UNL     1      -9.084  12.839   5.292  1.00  0.00    -0.200 F 
ENDBRANCH  60  74
BRANCH  61  85
ATOM     85  C   UNL     1      -0.376   2.105   8.274  1.00  0.00     0.064 A 
ATOM     86  C   UNL     1      -0.132   1.637   9.573  1.00  0.00     0.173 A 
ATOM     87  C   UNL     1       0.353   1.522   7.226  1.00  0.00     0.173 A 
ATOM     88  F   UNL     1      -0.784   2.177  10.613  1.00  0.00    -0.203 F 
ATOM     89  C   UNL     1       0.823   0.650   9.816  1.00  0.00     0.198 A 
ATOM     90  C   UNL     1       1.282   0.512   7.467  1.00  0.00     0.198 A 
ATOM     91  F   UNL     1       0.159   1.932   5.964  1.00  0.00    -0.203 F 
ATOM     92  F   UNL     1       1.077   0.265  11.074  1.00  0.00    -0.200 F 
ATOM     93  C   UNL     1       1.525   0.085   8.763  1.00  0.00     0.200 A 
ATOM     94  F   UNL     1       1.947  -0.043   6.444  1.00  0.00    -0.200 F 
ATOM     95  F   UNL     1       2.441  -0.864   8.998  1.00  0.00    -0.200 F 
ENDBRANCH  61  85
BRANCH  73  96
ATOM     96  C   UNL     1      -0.506   8.845  10.079  1.00  0.00     0.064 A 
ATOM     97  C   UNL     1       0.783   9.200   9.655  1.00  0.00     0.173 A 
ATOM     98  C   UNL     1      -0.951   9.349  11.313  1.00  0.00     0.173 A 
ATOM     99  F   UNL     1       1.262   8.737   8.491  1.00  0.00    -0.203 F 
ATOM    100  C   UNL     1       1.603  10.001  10.446  1.00  0.00     0.198 A 
ATOM    101  C   UNL     1      -0.143  10.180  12.083  1.00  0.00     0.198 A 
ATOM    102  F   UNL     1      -2.179   9.051  11.763  1.00  0.00    -0.203 F 
ATOM    103  F   UNL     1       2.850  10.283  10.045  1.00  0.00    -0.200 F 
ATOM    104  C   UNL     1       1.137  10.498  11.654  1.00  0.00     0.200 A 
ATOM    105  F   UNL     1      -0.604  10.675  13.240  1.00  0.00    -0.200 F 
ATOM    106  F   UNL     1       1.923  11.278  12.409  1.00  0.00    -0.200 F 
ENDBRANCH  73  96
ENDBRANCH  47  48
ENDBRANCH  40  42
ENDBRANCH  39  40
ENDBRANCH  38  39
ENDBRANCH  37  38
ENDBRANCH  36  37
ENDBRANCH  35  36
ENDBRANCH  34  35
ENDBRANCH  33  34
ENDBRANCH   1  33
TORSDOF 24
