REMARK SMILES COc1cc(C(=O)OCCOCCOCCOCCOC(=O)c2ccc(-c3c4nc(c(-c5c(F)c(F)c(F)c(F)c5F)c5ccc([nH]5)c(-c5c(F)c(F)c(F)c(F)c5F)c5nc(c(-c6c(F)c(F)c(F)c(F)c6F)c6ccc3[nH]6)C=C5)C=C4)cc2)ccc1OCC(=O)N[C@H]1CCCC[C@H]1C
REMARK SMILES IDX 13 1 12 2 11 3 10 4 9 5 8 6 6 7 7 8 5 9 3 10 4 11 88 12
REMARK SMILES IDX 87 13 86 14 2 15 1 16 89 17 90 18 91 19 92 20 93 21 94 23
REMARK SMILES IDX 95 24 99 25 96 26 98 27 100 28 97 29 14 30 15 31 16 32 17 33
REMARK SMILES IDX 18 34 19 35 20 36 21 37 22 38 23 39 24 40 85 41 25 42 84 43
REMARK SMILES IDX 26 44 27 45 28 46 78 47 29 48 83 49 77 50 79 51 30 52 82 53
REMARK SMILES IDX 76 54 75 55 31 57 63 58 43 59 62 60 44 61 47 62 61 63 80 64
REMARK SMILES IDX 45 65 46 66 60 68 81 69 48 70 32 71 33 72 41 73 34 74 35 75
REMARK SMILES IDX 39 76 42 77 36 78 37 79 40 80 38 81 64 82 65 83 73 84 66 85
REMARK SMILES IDX 67 86 71 87 74 88 68 89 69 90 72 91 70 92 49 93 50 94 58 95
REMARK SMILES IDX 51 96 52 97 56 98 59 99 53 100 54 101 57 102 55 103
REMARK H PARENT 93 22 79 56 47 67
REMARK Flexibility Score: inf
ROOT
ATOM      1  C   UNL     1       0.076  -0.280  -6.467  1.00  0.00     0.188 C 
ENDROOT
BRANCH   1   2
ATOM      2  C   UNL     1      -1.400   0.157  -6.354  1.00  0.00     0.188 C 
BRANCH   2   3
ATOM      3  O   UNL     1      -1.911   0.754  -7.536  1.00  0.00    -0.376 OA
BRANCH   3   4
ATOM      4  C   UNL     1      -2.207   2.138  -7.504  1.00  0.00     0.202 C 
BRANCH   4   5
ATOM      5  C   UNL     1      -1.042   3.116  -7.283  1.00  0.00     0.261 C 
BRANCH   5   6
ATOM      6  O   UNL     1      -0.134   2.784  -6.223  1.00  0.00    -0.460 OA
BRANCH   6   7
ATOM      7  C   UNL     1      -0.551   3.002  -4.956  1.00  0.00     0.338 C 
ATOM      8  O   UNL     1      -1.614   3.486  -4.611  1.00  0.00    -0.246 OA
BRANCH   7   9
ATOM      9  C   UNL     1       0.402   2.325  -4.045  1.00  0.00     0.064 A 
ATOM     10  C   UNL     1       0.754   0.597  -2.371  1.00  0.00     0.161 A 
ATOM     11  C   UNL     1      -0.110   1.380  -3.147  1.00  0.00     0.066 A 
ATOM     12  C   UNL     1       2.138   0.817  -2.433  1.00  0.00     0.161 A 
ATOM     13  C   UNL     1       2.638   1.757  -3.349  1.00  0.00     0.051 A 
ATOM     14  C   UNL     1       1.781   2.498  -4.167  1.00  0.00     0.020 A 
BRANCH  10  15
ATOM     15  O   UNL     1       0.277  -0.485  -1.681  1.00  0.00    -0.493 OA
ATOM     16  C   UNL     1      -0.886  -0.229  -0.896  1.00  0.00     0.278 C 
ENDBRANCH  10  15
BRANCH  12  17
ATOM     17  O   UNL     1       3.120   0.215  -1.695  1.00  0.00    -0.480 OA
BRANCH  17  18
ATOM     18  C   UNL     1       2.779  -0.508  -0.524  1.00  0.00     0.329 C 
BRANCH  18  19
ATOM     19  C   UNL     1       1.968   0.156   0.608  1.00  0.00     0.258 C 
ATOM     20  O   UNL     1       1.109  -0.462   1.242  1.00  0.00    -0.271 OA
ATOM     21  N   UNL     1       2.224   1.444   0.986  1.00  0.00    -0.350 N 
ATOM     22  H   UNL     1       1.475   1.950   1.375  1.00  0.00     0.163 HD
BRANCH  21  23
ATOM     23  C   UNL     1       3.496   2.140   0.869  1.00  0.00     0.085 C 
ATOM     24  C   UNL     1       3.323   3.643   1.133  1.00  0.00     0.025 C 
ATOM     25  C   UNL     1       4.536   1.507   1.824  1.00  0.00     0.008 C 
ATOM     26  C   UNL     1       4.658   4.385   1.074  1.00  0.00     0.002 C 
ATOM     27  C   UNL     1       5.868   2.256   1.714  1.00  0.00     0.005 C 
ATOM     28  C   UNL     1       4.051   1.432   3.281  1.00  0.00     0.010 C 
ATOM     29  C   UNL     1       5.723   3.754   1.968  1.00  0.00     0.000 C 
ENDBRANCH  21  23
ENDBRANCH  18  19
ENDBRANCH  17  18
ENDBRANCH  12  17
ENDBRANCH   7   9
ENDBRANCH   6   7
ENDBRANCH   5   6
ENDBRANCH   4   5
ENDBRANCH   3   4
ENDBRANCH   2   3
ENDBRANCH   1   2
BRANCH   1  30
ATOM     30  O   UNL     1       0.821   0.115  -7.610  1.00  0.00    -0.377 OA
BRANCH  30  31
ATOM     31  C   UNL     1       0.267  -0.065  -8.909  1.00  0.00     0.188 C 
BRANCH  31  32
ATOM     32  C   UNL     1      -0.796  -1.153  -9.201  1.00  0.00     0.188 C 
BRANCH  32  33
ATOM     33  O   UNL     1      -1.046  -2.045  -8.129  1.00  0.00    -0.376 OA
BRANCH  33  34
ATOM     34  C   UNL     1      -0.579  -3.376  -8.255  1.00  0.00     0.202 C 
BRANCH  34  35
ATOM     35  C   UNL     1       0.942  -3.571  -8.309  1.00  0.00     0.261 C 
BRANCH  35  36
ATOM     36  O   UNL     1       1.642  -2.799  -9.296  1.00  0.00    -0.460 OA
BRANCH  36  37
ATOM     37  C   UNL     1       1.401  -3.075 -10.595  1.00  0.00     0.338 C 
ATOM     38  O   UNL     1       0.640  -3.911 -11.050  1.00  0.00    -0.246 OA
BRANCH  37  39
ATOM     39  C   UNL     1       2.109  -2.053 -11.390  1.00  0.00     0.060 A 
ATOM     40  C   UNL     1       1.378  -1.179 -12.209  1.00  0.00     0.016 A 
ATOM     41  C   UNL     1       3.497  -1.945 -11.295  1.00  0.00     0.016 A 
ATOM     42  C   UNL     1       2.043  -0.204 -12.954  1.00  0.00     0.010 A 
ATOM     43  C   UNL     1       4.162  -0.988 -12.060  1.00  0.00     0.010 A 
ATOM     44  C   UNL     1       3.442  -0.134 -12.915  1.00  0.00    -0.014 A 
BRANCH  44  45
ATOM     45  C   UNL     1       4.187   0.661 -13.919  1.00  0.00     0.031 A 
ATOM     46  C   UNL     1       4.721  -0.062 -15.122  1.00  0.00     0.074 A 
ATOM     47  C   UNL     1       4.419   1.975 -13.755  1.00  0.00     0.049 A 
ATOM     48  N   UNL     1       5.538   0.355 -16.054  1.00  0.00    -0.248 NA
ATOM     49  C   UNL     1       4.279  -1.457 -15.287  1.00  0.00     0.031 C 
ATOM     50  C   UNL     1       3.915   2.794 -12.657  1.00  0.00     0.029 A 
ATOM     51  N   UNL     1       5.171   2.843 -14.509  1.00  0.00    -0.354 N 
ATOM     52  C   UNL     1       5.716  -0.727 -16.906  1.00  0.00     0.074 A 
ATOM     53  C   UNL     1       4.950  -1.828 -16.366  1.00  0.00     0.031 C 
ATOM     54  C   UNL     1       4.399   4.042 -12.789  1.00  0.00     0.029 A 
ATOM     55  C   UNL     1       5.281   4.094 -13.954  1.00  0.00     0.049 A 
ATOM     56  H   UNL     1       5.590   2.592 -15.364  1.00  0.00     0.167 HD
ATOM     57  C   UNL     1       6.449  -0.793 -18.041  1.00  0.00     0.037 A 
ATOM     58  C   UNL     1       6.043   5.143 -14.326  1.00  0.00     0.037 A 
ATOM     59  C   UNL     1       7.220   0.303 -18.564  1.00  0.00     0.049 A 
ATOM     60  C   UNL     1       6.924   5.020 -15.547  1.00  0.00     0.074 A 
ATOM     61  C   UNL     1       8.002   0.341 -19.704  1.00  0.00     0.029 A 
ATOM     62  N   UNL     1       7.310   1.554 -17.972  1.00  0.00    -0.354 N 
ATOM     63  N   UNL     1       7.084   4.000 -16.356  1.00  0.00    -0.248 NA
ATOM     64  C   UNL     1       7.733   6.195 -15.905  1.00  0.00     0.031 C 
ATOM     65  C   UNL     1       8.610   1.598 -19.773  1.00  0.00     0.029 A 
ATOM     66  C   UNL     1       8.152   2.366 -18.713  1.00  0.00     0.049 A 
ATOM     67  H   UNL     1       6.845   1.825 -17.148  1.00  0.00     0.167 HD
ATOM     68  C   UNL     1       7.975   4.422 -17.336  1.00  0.00     0.074 A 
ATOM     69  C   UNL     1       8.319   5.792 -17.024  1.00  0.00     0.031 C 
ATOM     70  C   UNL     1       8.463   3.737 -18.401  1.00  0.00     0.037 A 
BRANCH  57  71
ATOM     71  C   UNL     1       6.473  -2.102 -18.774  1.00  0.00     0.064 A 
ATOM     72  C   UNL     1       5.340  -2.593 -19.442  1.00  0.00     0.173 A 
ATOM     73  C   UNL     1       7.649  -2.864 -18.830  1.00  0.00     0.173 A 
ATOM     74  F   UNL     1       4.185  -1.912 -19.405  1.00  0.00    -0.203 F 
ATOM     75  C   UNL     1       5.378  -3.812 -20.115  1.00  0.00     0.198 A 
ATOM     76  C   UNL     1       7.693  -4.065 -19.533  1.00  0.00     0.198 A 
ATOM     77  F   UNL     1       8.761  -2.440 -18.210  1.00  0.00    -0.203 F 
ATOM     78  F   UNL     1       4.270  -4.286 -20.700  1.00  0.00    -0.200 F 
ATOM     79  C   UNL     1       6.556  -4.542 -20.167  1.00  0.00     0.200 A 
ATOM     80  F   UNL     1       8.836  -4.762 -19.593  1.00  0.00    -0.200 F 
ATOM     81  F   UNL     1       6.593  -5.710 -20.822  1.00  0.00    -0.200 F 
ENDBRANCH  57  71
BRANCH  58  82
ATOM     82  C   UNL     1       6.040   6.393 -13.518  1.00  0.00     0.064 A 
ATOM     83  C   UNL     1       5.538   7.593 -14.040  1.00  0.00     0.173 A 
ATOM     84  C   UNL     1       6.571   6.421 -12.220  1.00  0.00     0.173 A 
ATOM     85  F   UNL     1       5.045   7.627 -15.287  1.00  0.00    -0.203 F 
ATOM     86  C   UNL     1       5.591   8.777 -13.305  1.00  0.00     0.198 A 
ATOM     87  C   UNL     1       6.592   7.597 -11.473  1.00  0.00     0.198 A 
ATOM     88  F   UNL     1       7.068   5.302 -11.672  1.00  0.00    -0.203 F 
ATOM     89  F   UNL     1       5.158   9.921 -13.851  1.00  0.00    -0.200 F 
ATOM     90  C   UNL     1       6.112   8.777 -12.020  1.00  0.00     0.200 A 
ATOM     91  F   UNL     1       7.085   7.589 -10.227  1.00  0.00    -0.200 F 
ATOM     92  F   UNL     1       6.162   9.915 -11.315  1.00  0.00    -0.200 F 
ENDBRANCH  58  82
BRANCH  70  93
ATOM     93  C   UNL     1       9.370   4.469 -19.349  1.00  0.00     0.064 A 
ATOM     94  C   UNL     1      10.685   4.812 -19.003  1.00  0.00     0.173 A 
ATOM     95  C   UNL     1       8.936   4.762 -20.652  1.00  0.00     0.173 A 
ATOM     96  F   UNL     1      11.146   4.564 -17.768  1.00  0.00    -0.203 F 
ATOM     97  C   UNL     1      11.526   5.437 -19.922  1.00  0.00     0.198 A 
ATOM     98  C   UNL     1       9.789   5.357 -21.576  1.00  0.00     0.198 A 
ATOM     99  F   UNL     1       7.690   4.447 -21.036  1.00  0.00    -0.203 F 
ATOM    100  F   UNL     1      12.766   5.791 -19.558  1.00  0.00    -0.200 F 
ATOM    101  C   UNL     1      11.082   5.698 -21.209  1.00  0.00     0.200 A 
ATOM    102  F   UNL     1       9.363   5.591 -22.825  1.00  0.00    -0.200 F 
ATOM    103  F   UNL     1      11.898   6.283 -22.096  1.00  0.00    -0.200 F 
ENDBRANCH  70  93
ENDBRANCH  44  45
ENDBRANCH  37  39
ENDBRANCH  36  37
ENDBRANCH  35  36
ENDBRANCH  34  35
ENDBRANCH  33  34
ENDBRANCH  32  33
ENDBRANCH  31  32
ENDBRANCH  30  31
ENDBRANCH   1  30
TORSDOF 25
