REMARK SMILES CCc1cc(C)c2c(c1)C=C(C(=O)OCCOCCOCCOCCOC(=O)c1ccc(-c3c4nc(c(-c5c(F)c(F)c(F)c(F)c5F)c5ccc([nH]5)c(-c5c(F)c(F)c(F)c(F)c5F)c5nc(c(-c6c(F)c(F)c(F)c(F)c6F)c6ccc3[nH]6)C=C5)C=C4)cc1)[C@@H](C(F)(F)F)O2
REMARK SMILES IDX 21 1 20 2 19 3 18 4 17 5 16 6 15 7 14 8 12 9 13 10 11 11
REMARK SMILES IDX 3 12 4 13 9 14 5 15 8 16 6 17 7 18 10 19 97 20 92 21 2 22
REMARK SMILES IDX 1 23 93 24 94 25 95 26 96 27 22 28 23 29 24 30 25 31 26 32
REMARK SMILES IDX 27 33 28 34 29 35 30 36 91 37 31 38 90 39 32 40 33 41 34 42
REMARK SMILES IDX 84 43 35 44 89 45 83 46 85 47 36 48 88 49 82 50 81 51 37 53
REMARK SMILES IDX 69 54 49 55 68 56 50 57 53 58 67 59 86 60 51 61 52 62 66 64
REMARK SMILES IDX 87 65 54 66 38 67 39 68 47 69 40 70 41 71 45 72 48 73 42 74
REMARK SMILES IDX 43 75 46 76 44 77 70 78 71 79 79 80 72 81 73 82 77 83 80 84
REMARK SMILES IDX 74 85 75 86 78 87 76 88 55 89 56 90 64 91 57 92 58 93 62 94
REMARK SMILES IDX 65 95 59 96 60 97 63 98 61 99
REMARK H PARENT 85 52 53 63
REMARK Flexibility Score: inf
ROOT
ATOM      1  C   UNL     1      -1.315  -8.605   6.803  1.00  0.00     0.188 C 
ENDROOT
BRANCH   1   2
ATOM      2  O   UNL     1      -0.435  -7.685   6.154  1.00  0.00    -0.377 OA
BRANCH   2   3
ATOM      3  C   UNL     1      -0.815  -7.184   4.881  1.00  0.00     0.188 C 
BRANCH   3   4
ATOM      4  C   UNL     1      -0.567  -8.183   3.735  1.00  0.00     0.188 C 
BRANCH   4   5
ATOM      5  O   UNL     1      -0.394  -9.516   4.197  1.00  0.00    -0.376 OA
BRANCH   5   6
ATOM      6  C   UNL     1       0.915 -10.053   4.295  1.00  0.00     0.202 C 
BRANCH   6   7
ATOM      7  C   UNL     1       1.989  -9.346   5.140  1.00  0.00     0.261 C 
BRANCH   7   8
ATOM      8  O   UNL     1       2.070  -7.923   5.009  1.00  0.00    -0.460 OA
BRANCH   8   9
ATOM      9  C   UNL     1       2.580  -7.425   3.867  1.00  0.00     0.338 C 
ATOM     10  O   UNL     1       3.024  -8.061   2.929  1.00  0.00    -0.246 OA
BRANCH   9  11
ATOM     11  C   UNL     1       2.352  -5.962   3.875  1.00  0.00     0.087 C 
ATOM     12  C   UNL     1       1.052  -1.963   1.499  1.00  0.00    -0.047 A 
ATOM     13  C   UNL     1       1.421  -1.202   2.616  1.00  0.00     0.011 A 
ATOM     14  C   UNL     1       1.144  -3.361   1.586  1.00  0.00     0.015 A 
ATOM     15  C   UNL     1       1.887  -1.812   3.792  1.00  0.00    -0.008 A 
ATOM     16  C   UNL     1       1.631  -3.982   2.742  1.00  0.00     0.018 A 
ATOM     17  C   UNL     1       2.318  -0.965   4.957  1.00  0.00     0.048 C 
ATOM     18  C   UNL     1       1.966  -3.211   3.856  1.00  0.00     0.130 A 
ATOM     19  C   UNL     1       1.860  -5.418   2.755  1.00  0.00     0.027 C 
ATOM     20  O   UNL     1       2.394  -3.750   5.036  1.00  0.00    -0.475 OA
ATOM     21  C   UNL     1       2.598  -5.183   5.141  1.00  0.00     0.316 C 
BRANCH  12  22
ATOM     22  C   UNL     1       0.546  -1.351   0.212  1.00  0.00     0.032 C 
ATOM     23  C   UNL     1       1.005   0.073  -0.076  1.00  0.00     0.009 C 
ENDBRANCH  12  22
BRANCH  21  24
ATOM     24  C   UNL     1       4.007  -5.411   5.703  1.00  0.00     0.430 C 
ATOM     25  F   UNL     1       4.230  -4.647   6.801  1.00  0.00    -0.167 F 
ATOM     26  F   UNL     1       4.206  -6.694   6.083  1.00  0.00    -0.167 F 
ATOM     27  F   UNL     1       4.965  -5.107   4.797  1.00  0.00    -0.167 F 
ENDBRANCH  21  24
ENDBRANCH   9  11
ENDBRANCH   8   9
ENDBRANCH   7   8
ENDBRANCH   6   7
ENDBRANCH   5   6
ENDBRANCH   4   5
ENDBRANCH   3   4
ENDBRANCH   2   3
ENDBRANCH   1   2
BRANCH   1  28
ATOM     28  C   UNL     1      -2.452  -9.347   6.054  1.00  0.00     0.188 C 
BRANCH  28  29
ATOM     29  O   UNL     1      -3.119  -8.558   5.078  1.00  0.00    -0.376 OA
BRANCH  29  30
ATOM     30  C   UNL     1      -4.442  -8.136   5.366  1.00  0.00     0.202 C 
BRANCH  30  31
ATOM     31  C   UNL     1      -4.566  -7.057   6.447  1.00  0.00     0.261 C 
BRANCH  31  32
ATOM     32  O   UNL     1      -4.006  -7.389   7.727  1.00  0.00    -0.460 OA
BRANCH  32  33
ATOM     33  C   UNL     1      -4.553  -8.420   8.405  1.00  0.00     0.338 C 
ATOM     34  O   UNL     1      -5.496  -9.115   8.073  1.00  0.00    -0.246 OA
BRANCH  33  35
ATOM     35  C   UNL     1      -3.681  -8.674   9.569  1.00  0.00     0.060 A 
ATOM     36  C   UNL     1      -2.958  -9.872   9.644  1.00  0.00     0.016 A 
ATOM     37  C   UNL     1      -3.558  -7.704  10.566  1.00  0.00     0.016 A 
ATOM     38  C   UNL     1      -2.114 -10.107  10.730  1.00  0.00     0.010 A 
ATOM     39  C   UNL     1      -2.740  -7.955  11.669  1.00  0.00     0.010 A 
ATOM     40  C   UNL     1      -2.036  -9.167  11.767  1.00  0.00    -0.014 A 
BRANCH  40  41
ATOM     41  C   UNL     1      -1.411  -9.548  13.053  1.00  0.00     0.031 A 
ATOM     42  C   UNL     1      -2.287 -10.182  14.095  1.00  0.00     0.074 A 
ATOM     43  C   UNL     1      -0.103  -9.348  13.291  1.00  0.00     0.049 A 
ATOM     44  N   UNL     1      -1.988 -10.583  15.303  1.00  0.00    -0.248 NA
ATOM     45  C   UNL     1      -3.696 -10.397  13.721  1.00  0.00     0.031 C 
ATOM     46  C   UNL     1       0.853  -8.783  12.342  1.00  0.00     0.029 A 
ATOM     47  N   UNL     1       0.643  -9.600  14.416  1.00  0.00    -0.354 N 
ATOM     48  C   UNL     1      -3.162 -11.111  15.822  1.00  0.00     0.074 A 
ATOM     49  C   UNL     1      -4.190 -10.943  14.820  1.00  0.00     0.031 C 
ATOM     50  C   UNL     1       2.062  -8.724  12.929  1.00  0.00     0.029 A 
ATOM     51  C   UNL     1       1.958  -9.221  14.301  1.00  0.00     0.049 A 
ATOM     52  H   UNL     1       0.271 -10.012  15.228  1.00  0.00     0.167 HD
ATOM     53  C   UNL     1      -3.360 -11.698  17.024  1.00  0.00     0.037 A 
ATOM     54  C   UNL     1       2.954  -9.261  15.209  1.00  0.00     0.037 A 
ATOM     55  C   UNL     1      -2.342 -11.841  18.028  1.00  0.00     0.049 A 
ATOM     56  C   UNL     1       2.679  -9.815  16.586  1.00  0.00     0.074 A 
ATOM     57  C   UNL     1      -2.445 -12.417  19.280  1.00  0.00     0.029 A 
ATOM     58  N   UNL     1      -1.037 -11.392  17.896  1.00  0.00    -0.354 N 
ATOM     59  N   UNL     1       1.576 -10.342  17.061  1.00  0.00    -0.248 NA
ATOM     60  C   UNL     1       3.786  -9.779  17.554  1.00  0.00     0.031 C 
ATOM     61  C   UNL     1      -1.218 -12.267  19.930  1.00  0.00     0.029 A 
ATOM     62  C   UNL     1      -0.332 -11.651  19.059  1.00  0.00     0.049 A 
ATOM     63  H   UNL     1      -0.667 -10.954  17.096  1.00  0.00     0.167 HD
ATOM     64  C   UNL     1       1.863 -10.726  18.365  1.00  0.00     0.074 A 
ATOM     65  C   UNL     1       3.248 -10.380  18.607  1.00  0.00     0.031 C 
ATOM     66  C   UNL     1       1.052 -11.314  19.279  1.00  0.00     0.037 A 
BRANCH  53  67
ATOM     67  C   UNL     1      -4.732 -12.221  17.325  1.00  0.00     0.064 A 
ATOM     68  C   UNL     1      -5.230 -13.368  16.690  1.00  0.00     0.173 A 
ATOM     69  C   UNL     1      -5.533 -11.606  18.298  1.00  0.00     0.173 A 
ATOM     70  F   UNL     1      -4.509 -13.982  15.739  1.00  0.00    -0.203 F 
ATOM     71  C   UNL     1      -6.487 -13.874  17.011  1.00  0.00     0.198 A 
ATOM     72  C   UNL     1      -6.776 -12.131  18.637  1.00  0.00     0.198 A 
ATOM     73  F   UNL     1      -5.101 -10.506  18.933  1.00  0.00    -0.203 F 
ATOM     74  F   UNL     1      -6.958 -14.951  16.367  1.00  0.00    -0.200 F 
ATOM     75  C   UNL     1      -7.253 -13.262  17.991  1.00  0.00     0.200 A 
ATOM     76  F   UNL     1      -7.511 -11.546  19.593  1.00  0.00    -0.200 F 
ATOM     77  F   UNL     1      -8.455 -13.761  18.312  1.00  0.00    -0.200 F 
ENDBRANCH  53  67
BRANCH  54  78
ATOM     78  C   UNL     1       4.311  -8.771  14.845  1.00  0.00     0.064 A 
ATOM     79  C   UNL     1       5.391  -9.658  14.736  1.00  0.00     0.173 A 
ATOM     80  C   UNL     1       4.558  -7.411  14.605  1.00  0.00     0.173 A 
ATOM     81  F   UNL     1       5.213 -10.963  14.985  1.00  0.00    -0.203 F 
ATOM     82  C   UNL     1       6.667  -9.203  14.409  1.00  0.00     0.198 A 
ATOM     83  C   UNL     1       5.829  -6.961  14.252  1.00  0.00     0.198 A 
ATOM     84  F   UNL     1       3.562  -6.519  14.705  1.00  0.00    -0.203 F 
ATOM     85  F   UNL     1       7.689 -10.067  14.350  1.00  0.00    -0.200 F 
ATOM     86  C   UNL     1       6.884  -7.856  14.159  1.00  0.00     0.200 A 
ATOM     87  F   UNL     1       6.032  -5.660  14.004  1.00  0.00    -0.200 F 
ATOM     88  F   UNL     1       8.109  -7.420  13.838  1.00  0.00    -0.200 F 
ENDBRANCH  54  78
BRANCH  66  89
ATOM     89  C   UNL     1       1.627 -11.653  20.624  1.00  0.00     0.064 A 
ATOM     90  C   UNL     1       1.894 -10.662  21.578  1.00  0.00     0.173 A 
ATOM     91  C   UNL     1       1.798 -12.995  21.003  1.00  0.00     0.173 A 
ATOM     92  F   UNL     1       1.755  -9.366  21.261  1.00  0.00    -0.203 F 
ATOM     93  C   UNL     1       2.313 -11.000  22.862  1.00  0.00     0.198 A 
ATOM     94  C   UNL     1       2.188 -13.330  22.297  1.00  0.00     0.198 A 
ATOM     95  F   UNL     1       1.544 -13.982  20.131  1.00  0.00    -0.203 F 
ATOM     96  F   UNL     1       2.582 -10.035  23.752  1.00  0.00    -0.200 F 
ATOM     97  C   UNL     1       2.446 -12.332  23.224  1.00  0.00     0.200 A 
ATOM     98  F   UNL     1       2.294 -14.618  22.651  1.00  0.00    -0.200 F 
ATOM     99  F   UNL     1       2.819 -12.656  24.470  1.00  0.00    -0.200 F 
ENDBRANCH  66  89
ENDBRANCH  40  41
ENDBRANCH  33  35
ENDBRANCH  32  33
ENDBRANCH  31  32
ENDBRANCH  30  31
ENDBRANCH  29  30
ENDBRANCH  28  29
ENDBRANCH   1  28
TORSDOF 22
