REMARK SMILES Cc1ccccc1NC(=O)CSc1nc(C(=O)OCCOCCOCCOCCOC(=O)c2ccc(-c3c4nc(c(-c5c(F)c(F)c(F)c(F)c5F)c5ccc([nH]5)c(-c5c(F)c(F)c(F)c(F)c5F)c5nc(c(-c6c(F)c(F)c(F)c(F)c6F)c6ccc3[nH]6)C=C5)C=C4)cc2)c2ccccc2n1
REMARK SMILES IDX 23 1 22 2 21 3 20 4 19 5 18 6 16 7 17 8 15 9 13 10 14 11
REMARK SMILES IDX 102 12 101 13 96 14 100 15 97 16 99 17 98 18 12 19 11 20
REMARK SMILES IDX 9 21 8 22 10 24 7 25 1 26 2 27 3 28 4 29 6 30 5 31 24 32
REMARK SMILES IDX 25 33 26 34 27 35 28 36 29 37 30 38 31 39 32 40 33 41 34 42
REMARK SMILES IDX 95 43 35 44 94 45 36 46 37 47 38 48 88 49 39 50 93 51 87 52
REMARK SMILES IDX 89 53 40 54 92 55 86 56 85 57 41 59 73 60 53 61 72 62 54 63
REMARK SMILES IDX 57 64 71 65 90 66 55 67 56 68 70 70 91 71 58 72 42 73 43 74
REMARK SMILES IDX 51 75 44 76 45 77 49 78 52 79 46 80 47 81 50 82 48 83 74 84
REMARK SMILES IDX 75 85 83 86 76 87 77 88 81 89 84 90 78 91 79 92 82 93 80 94
REMARK SMILES IDX 59 95 60 96 68 97 61 98 62 99 66 100 69 101 63 102 64 103
REMARK SMILES IDX 67 104 65 105
REMARK H PARENT 8 23 89 58 57 69
REMARK Flexibility Score: inf
ROOT
ATOM      1  C   UNL     1      -3.937   4.917  -4.888  1.00  0.00     0.188 C 
ENDROOT
BRANCH   1   2
ATOM      2  C   UNL     1      -3.835   5.174  -3.379  1.00  0.00     0.188 C 
BRANCH   2   3
ATOM      3  O   UNL     1      -4.210   6.467  -2.914  1.00  0.00    -0.376 OA
BRANCH   3   4
ATOM      4  C   UNL     1      -3.224   7.493  -3.049  1.00  0.00     0.202 C 
BRANCH   4   5
ATOM      5  C   UNL     1      -1.870   7.158  -2.433  1.00  0.00     0.261 C 
BRANCH   5   6
ATOM      6  O   UNL     1      -1.129   6.332  -3.352  1.00  0.00    -0.458 OA
BRANCH   6   7
ATOM      7  C   UNL     1      -0.106   5.670  -2.773  1.00  0.00     0.357 C 
ATOM      8  O   UNL     1       0.413   5.943  -1.703  1.00  0.00    -0.244 OA
BRANCH   7   9
ATOM      9  C   UNL     1      -0.042   4.296  -3.305  1.00  0.00     0.160 A 
ATOM     10  C   UNL     1      -0.672   2.302  -2.506  1.00  0.00     0.189 A 
ATOM     11  N   UNL     1      -0.121   3.463  -2.266  1.00  0.00    -0.215 NA
ATOM     12  N   UNL     1      -0.667   1.724  -3.708  1.00  0.00    -0.222 NA
ATOM     13  C   UNL     1      -0.300   2.490  -4.748  1.00  0.00     0.076 A 
ATOM     14  C   UNL     1      -0.124   3.870  -4.624  1.00  0.00     0.034 A 
ATOM     15  C   UNL     1      -0.180   1.923  -6.011  1.00  0.00     0.029 A 
ATOM     16  C   UNL     1      -0.055   4.669  -5.784  1.00  0.00     0.013 A 
ATOM     17  C   UNL     1       0.001   2.707  -7.155  1.00  0.00     0.002 A 
ATOM     18  C   UNL     1       0.007   4.090  -7.046  1.00  0.00     0.001 A 
BRANCH  10  19
ATOM     19  S   UNL     1      -2.003   1.963  -1.383  1.00  0.00    -0.076 SA
BRANCH  19  20
ATOM     20  C   UNL     1      -1.605   3.161  -0.022  1.00  0.00     0.178 C 
BRANCH  20  21
ATOM     21  C   UNL     1      -0.177   3.138   0.539  1.00  0.00     0.234 C 
ATOM     22  N   UNL     1       0.561   1.997   0.689  1.00  0.00    -0.325 N 
ATOM     23  H   UNL     1       1.521   2.142   0.852  1.00  0.00     0.169 HD
ATOM     24  O   UNL     1       0.351   4.193   0.917  1.00  0.00    -0.274 OA
BRANCH  22  25
ATOM     25  C   UNL     1       0.165   0.653   0.647  1.00  0.00     0.044 A 
ATOM     26  C   UNL     1       2.503  -0.103  -0.112  1.00  0.00     0.046 C 
ATOM     27  C   UNL     1       1.045  -0.334   0.177  1.00  0.00    -0.027 A 
ATOM     28  C   UNL     1       0.541  -1.631  -0.036  1.00  0.00     0.005 A 
ATOM     29  C   UNL     1      -0.794  -1.941   0.226  1.00  0.00     0.000 A 
ATOM     30  C   UNL     1      -1.129   0.288   1.043  1.00  0.00     0.026 A 
ATOM     31  C   UNL     1      -1.625  -0.987   0.790  1.00  0.00     0.002 A 
ENDBRANCH  22  25
ENDBRANCH  20  21
ENDBRANCH  19  20
ENDBRANCH  10  19
ENDBRANCH   7   9
ENDBRANCH   6   7
ENDBRANCH   5   6
ENDBRANCH   4   5
ENDBRANCH   3   4
ENDBRANCH   2   3
ENDBRANCH   1   2
BRANCH   1  32
ATOM     32  O   UNL     1      -3.104   5.721  -5.710  1.00  0.00    -0.377 OA
BRANCH  32  33
ATOM     33  C   UNL     1      -3.699   6.705  -6.561  1.00  0.00     0.188 C 
BRANCH  33  34
ATOM     34  C   UNL     1      -5.219   6.760  -6.726  1.00  0.00     0.188 C 
BRANCH  34  35
ATOM     35  O   UNL     1      -5.789   7.228  -5.506  1.00  0.00    -0.376 OA
BRANCH  35  36
ATOM     36  C   UNL     1      -7.122   6.793  -5.239  1.00  0.00     0.202 C 
BRANCH  36  37
ATOM     37  C   UNL     1      -8.163   7.304  -6.244  1.00  0.00     0.261 C 
BRANCH  37  38
ATOM     38  O   UNL     1      -8.256   8.739  -6.159  1.00  0.00    -0.460 OA
BRANCH  38  39
ATOM     39  C   UNL     1      -7.628   9.415  -7.156  1.00  0.00     0.338 C 
ATOM     40  O   UNL     1      -7.790   9.220  -8.353  1.00  0.00    -0.246 OA
BRANCH  39  41
ATOM     41  C   UNL     1      -6.510  10.221  -6.589  1.00  0.00     0.060 A 
ATOM     42  C   UNL     1      -5.545  10.782  -7.442  1.00  0.00     0.016 A 
ATOM     43  C   UNL     1      -6.251  10.129  -5.228  1.00  0.00     0.016 A 
ATOM     44  C   UNL     1      -4.262  11.091  -6.956  1.00  0.00     0.010 A 
ATOM     45  C   UNL     1      -4.960  10.329  -4.785  1.00  0.00     0.010 A 
ATOM     46  C   UNL     1      -3.935  10.782  -5.634  1.00  0.00    -0.014 A 
BRANCH  46  47
ATOM     47  C   UNL     1      -2.572  10.676  -5.067  1.00  0.00     0.031 A 
ATOM     48  C   UNL     1      -2.326  11.078  -3.630  1.00  0.00     0.074 A 
ATOM     49  C   UNL     1      -1.682   9.845  -5.669  1.00  0.00     0.049 A 
ATOM     50  N   UNL     1      -1.287  10.751  -2.935  1.00  0.00    -0.248 NA
ATOM     51  C   UNL     1      -3.252  11.892  -2.841  1.00  0.00     0.031 C 
ATOM     52  C   UNL     1      -0.739   8.993  -4.953  1.00  0.00     0.029 A 
ATOM     53  N   UNL     1      -1.466   9.492  -7.011  1.00  0.00    -0.354 N 
ATOM     54  C   UNL     1      -1.534  10.998  -1.602  1.00  0.00     0.074 A 
ATOM     55  C   UNL     1      -2.732  11.795  -1.610  1.00  0.00     0.031 C 
ATOM     56  C   UNL     1       0.004   8.281  -5.798  1.00  0.00     0.029 A 
ATOM     57  C   UNL     1      -0.202   8.860  -7.089  1.00  0.00     0.049 A 
ATOM     58  H   UNL     1      -2.082   9.655  -7.761  1.00  0.00     0.167 HD
ATOM     59  C   UNL     1      -0.749  10.396  -0.656  1.00  0.00     0.037 A 
ATOM     60  C   UNL     1       0.856   9.389  -7.771  1.00  0.00     0.037 A 
ATOM     61  C   UNL     1       0.460   9.794  -1.248  1.00  0.00     0.049 A 
ATOM     62  C   UNL     1       2.022   9.745  -6.864  1.00  0.00     0.074 A 
ATOM     63  C   UNL     1       1.096   8.575  -1.114  1.00  0.00     0.029 A 
ATOM     64  N   UNL     1       1.173  10.472  -2.243  1.00  0.00    -0.354 N 
ATOM     65  N   UNL     1       1.860  10.059  -5.597  1.00  0.00    -0.248 NA
ATOM     66  C   UNL     1       3.432   9.634  -7.222  1.00  0.00     0.031 C 
ATOM     67  C   UNL     1       2.092   8.468  -2.125  1.00  0.00     0.029 A 
ATOM     68  C   UNL     1       2.172   9.687  -2.776  1.00  0.00     0.049 A 
ATOM     69  H   UNL     1       0.984  11.395  -2.527  1.00  0.00     0.167 HD
ATOM     70  C   UNL     1       3.075  10.096  -4.967  1.00  0.00     0.074 A 
ATOM     71  C   UNL     1       4.030   9.864  -6.037  1.00  0.00     0.031 C 
ATOM     72  C   UNL     1       3.217  10.252  -3.615  1.00  0.00     0.037 A 
BRANCH  59  73
ATOM     73  C   UNL     1      -1.128  10.180   0.818  1.00  0.00     0.064 A 
ATOM     74  C   UNL     1      -0.193   9.649   1.744  1.00  0.00     0.173 A 
ATOM     75  C   UNL     1      -2.422  10.352   1.358  1.00  0.00     0.173 A 
ATOM     76  F   UNL     1       1.092   9.470   1.411  1.00  0.00    -0.203 F 
ATOM     77  C   UNL     1      -0.533   9.286   3.057  1.00  0.00     0.198 A 
ATOM     78  C   UNL     1      -2.741  10.063   2.694  1.00  0.00     0.198 A 
ATOM     79  F   UNL     1      -3.454  10.757   0.612  1.00  0.00    -0.203 F 
ATOM     80  F   UNL     1       0.385   8.721   3.855  1.00  0.00    -0.200 F 
ATOM     81  C   UNL     1      -1.805   9.507   3.538  1.00  0.00     0.200 A 
ATOM     82  F   UNL     1      -3.979  10.309   3.148  1.00  0.00    -0.200 F 
ATOM     83  F   UNL     1      -2.128   9.188   4.799  1.00  0.00    -0.200 F 
ENDBRANCH  59  73
BRANCH  60  84
ATOM     84  C   UNL     1       0.468   9.814  -9.145  1.00  0.00     0.064 A 
ATOM     85  C   UNL     1       0.106   8.716  -9.959  1.00  0.00     0.173 A 
ATOM     86  C   UNL     1      -0.281  10.993  -9.288  1.00  0.00     0.173 A 
ATOM     87  F   UNL     1       0.818   7.579  -9.891  1.00  0.00    -0.203 F 
ATOM     88  C   UNL     1      -1.127   8.688 -10.607  1.00  0.00     0.198 A 
ATOM     89  C   UNL     1      -1.507  10.968  -9.963  1.00  0.00     0.198 A 
ATOM     90  F   UNL     1       0.046  12.087  -8.585  1.00  0.00    -0.203 F 
ATOM     91  F   UNL     1      -1.574   7.540 -11.137  1.00  0.00    -0.200 F 
ATOM     92  C   UNL     1      -1.958   9.795 -10.556  1.00  0.00     0.200 A 
ATOM     93  F   UNL     1      -2.325  12.029  -9.904  1.00  0.00    -0.200 F 
ATOM     94  F   UNL     1      -3.220   9.705 -11.000  1.00  0.00    -0.200 F 
ENDBRANCH  60  84
BRANCH  72  95
ATOM     95  C   UNL     1       4.399  10.881  -2.892  1.00  0.00     0.064 A 
ATOM     96  C   UNL     1       5.408  11.609  -3.538  1.00  0.00     0.173 A 
ATOM     97  C   UNL     1       4.423  10.967  -1.469  1.00  0.00     0.173 A 
ATOM     98  F   UNL     1       5.468  11.698  -4.871  1.00  0.00    -0.203 F 
ATOM     99  C   UNL     1       6.367  12.340  -2.828  1.00  0.00     0.198 A 
ATOM    100  C   UNL     1       5.351  11.732  -0.768  1.00  0.00     0.198 A 
ATOM    101  F   UNL     1       3.513  10.364  -0.694  1.00  0.00    -0.203 F 
ATOM    102  F   UNL     1       7.310  13.012  -3.501  1.00  0.00    -0.200 F 
ATOM    103  C   UNL     1       6.328  12.417  -1.449  1.00  0.00     0.200 A 
ATOM    104  F   UNL     1       5.262  11.829   0.566  1.00  0.00    -0.200 F 
ATOM    105  F   UNL     1       7.211  13.171  -0.783  1.00  0.00    -0.200 F 
ENDBRANCH  72  95
ENDBRANCH  46  47
ENDBRANCH  39  41
ENDBRANCH  38  39
ENDBRANCH  37  38
ENDBRANCH  36  37
ENDBRANCH  35  36
ENDBRANCH  34  35
ENDBRANCH  33  34
ENDBRANCH  32  33
ENDBRANCH   1  32
TORSDOF 24
