REMARK SMILES Cc1cccc(-n2ncc(C(=O)Nc3cccc(C(=O)OCCOCCOCCOCCOC(=O)c4ccc(-c5c6nc(c(-c7c(F)c(F)c(F)c(F)c7F)c7ccc([nH]7)c(-c7c(F)c(F)c(F)c(F)c7F)c7nc(c(-c8c(F)c(F)c(F)c(F)c8F)c8ccc5[nH]8)C=C7)C=C6)cc4)c3C)c2C)c1
REMARK SMILES IDX 26 1 25 2 24 3 23 4 22 5 21 6 19 7 20 8 18 9 14 10 15 11
REMARK SMILES IDX 99 12 16 13 100 14 17 15 13 16 11 17 12 18 10 20 7 21 8 22
REMARK SMILES IDX 101 23 9 24 102 25 6 26 1 27 2 28 3 29 103 30 4 31 5 32
REMARK SMILES IDX 27 33 28 34 29 35 30 36 31 37 32 38 33 39 34 40 35 41 36 42
REMARK SMILES IDX 37 43 98 44 38 45 97 46 39 47 40 48 41 49 91 50 42 51 96 52
REMARK SMILES IDX 90 53 92 54 43 55 95 56 89 57 88 58 44 60 76 61 56 62 75 63
REMARK SMILES IDX 57 64 60 65 74 66 93 67 58 68 59 69 73 71 94 72 61 73 45 74
REMARK SMILES IDX 46 75 54 76 47 77 48 78 52 79 55 80 49 81 50 82 53 83 51 84
REMARK SMILES IDX 77 85 78 86 86 87 79 88 80 89 84 90 87 91 81 92 82 93 85 94
REMARK SMILES IDX 83 95 62 96 63 97 71 98 64 99 65 100 69 101 72 102 66 103
REMARK SMILES IDX 67 104 70 105 68 106
REMARK H PARENT 13 19 92 59 60 70
REMARK Flexibility Score: inf
ROOT
ATOM      1  C   UNL     1      -5.812   9.878  -2.465  1.00  0.00     0.188 C 
ENDROOT
BRANCH   1   2
ATOM      2  C   UNL     1      -5.710   9.886  -0.923  1.00  0.00     0.188 C 
BRANCH   2   3
ATOM      3  O   UNL     1      -5.243  11.058  -0.254  1.00  0.00    -0.376 OA
BRANCH   3   4
ATOM      4  C   UNL     1      -3.973  11.573  -0.636  1.00  0.00     0.202 C 
BRANCH   4   5
ATOM      5  C   UNL     1      -2.756  10.652  -0.587  1.00  0.00     0.261 C 
BRANCH   5   6
ATOM      6  O   UNL     1      -2.966   9.447  -1.316  1.00  0.00    -0.460 OA
BRANCH   6   7
ATOM      7  C   UNL     1      -2.236   8.379  -0.992  1.00  0.00     0.338 C 
ATOM      8  O   UNL     1      -1.175   8.315  -0.378  1.00  0.00    -0.246 OA
BRANCH   7   9
ATOM      9  C   UNL     1      -3.152   7.254  -1.139  1.00  0.00     0.065 A 
ATOM     10  C   UNL     1      -4.645   5.693  -0.119  1.00  0.00     0.045 A 
ATOM     11  C   UNL     1      -4.840   5.068  -1.356  1.00  0.00     0.026 A 
ATOM     12  C   UNL     1      -3.852   6.835   0.008  1.00  0.00    -0.013 A 
ATOM     13  C   UNL     1      -4.193   5.553  -2.493  1.00  0.00     0.003 A 
ATOM     14  C   UNL     1      -3.662   7.495   1.352  1.00  0.00     0.047 C 
ATOM     15  C   UNL     1      -3.323   6.637  -2.384  1.00  0.00     0.016 A 
BRANCH  10  16
ATOM     16  N   UNL     1      -5.117   5.079   1.039  1.00  0.00    -0.322 N 
ATOM     17  C   UNL     1      -4.428   4.121   1.759  1.00  0.00     0.259 C 
ATOM     18  O   UNL     1      -4.883   3.793   2.855  1.00  0.00    -0.269 OA
ATOM     19  H   UNL     1      -6.006   5.346   1.368  1.00  0.00     0.170 HD
BRANCH  17  20
ATOM     20  C   UNL     1      -3.211   3.519   1.214  1.00  0.00     0.081 A 
ATOM     21  N   UNL     1      -1.652   2.019   0.682  1.00  0.00    -0.237 N 
ATOM     22  N   UNL     1      -1.183   3.189   0.196  1.00  0.00    -0.175 NA
ATOM     23  C   UNL     1      -2.784   2.218   1.457  1.00  0.00     0.054 A 
ATOM     24  C   UNL     1      -2.134   4.070   0.488  1.00  0.00     0.149 A 
ATOM     25  C   UNL     1      -3.333   1.244   2.438  1.00  0.00     0.068 C 
BRANCH  21  26
ATOM     26  C   UNL     1      -0.960   0.822   0.379  1.00  0.00     0.065 A 
ATOM     27  C   UNL     1       2.642  -0.238  -0.230  1.00  0.00     0.044 C 
ATOM     28  C   UNL     1       1.150  -0.288  -0.087  1.00  0.00    -0.049 A 
ATOM     29  C   UNL     1       0.475  -1.514  -0.117  1.00  0.00     0.003 A 
ATOM     30  C   UNL     1       0.420   0.884   0.133  1.00  0.00     0.031 A 
ATOM     31  C   UNL     1      -0.908  -1.569   0.062  1.00  0.00     0.002 A 
ATOM     32  C   UNL     1      -1.629  -0.403   0.312  1.00  0.00     0.028 A 
ENDBRANCH  21  26
ENDBRANCH  17  20
ENDBRANCH  10  16
ENDBRANCH   7   9
ENDBRANCH   6   7
ENDBRANCH   5   6
ENDBRANCH   4   5
ENDBRANCH   3   4
ENDBRANCH   2   3
ENDBRANCH   1   2
BRANCH   1  33
ATOM     33  O   UNL     1      -4.599  10.241  -3.108  1.00  0.00    -0.377 OA
BRANCH  33  34
ATOM     34  C   UNL     1      -4.690  10.834  -4.399  1.00  0.00     0.188 C 
BRANCH  34  35
ATOM     35  C   UNL     1      -5.625  12.046  -4.489  1.00  0.00     0.188 C 
BRANCH  35  36
ATOM     36  O   UNL     1      -5.516  12.823  -3.301  1.00  0.00    -0.376 OA
BRANCH  36  37
ATOM     37  C   UNL     1      -6.751  13.322  -2.784  1.00  0.00     0.202 C 
BRANCH  37  38
ATOM     38  C   UNL     1      -7.226  14.556  -3.549  1.00  0.00     0.261 C 
BRANCH  38  39
ATOM     39  O   UNL     1      -6.238  15.593  -3.405  1.00  0.00    -0.460 OA
BRANCH  39  40
ATOM     40  C   UNL     1      -5.305  15.608  -4.394  1.00  0.00     0.338 C 
ATOM     41  O   UNL     1      -5.548  15.577  -5.590  1.00  0.00    -0.246 OA
BRANCH  40  42
ATOM     42  C   UNL     1      -3.943  15.416  -3.815  1.00  0.00     0.060 A 
ATOM     43  C   UNL     1      -2.863  15.138  -4.667  1.00  0.00     0.016 A 
ATOM     44  C   UNL     1      -3.784  15.257  -2.441  1.00  0.00     0.016 A 
ATOM     45  C   UNL     1      -1.667  14.605  -4.153  1.00  0.00     0.010 A 
ATOM     46  C   UNL     1      -2.627  14.664  -1.953  1.00  0.00     0.010 A 
ATOM     47  C   UNL     1      -1.556  14.300  -2.792  1.00  0.00    -0.014 A 
BRANCH  47  48
ATOM     48  C   UNL     1      -0.503  13.433  -2.198  1.00  0.00     0.031 A 
ATOM     49  C   UNL     1      -0.001  13.654  -0.785  1.00  0.00     0.074 A 
ATOM     50  C   UNL     1      -0.246  12.218  -2.763  1.00  0.00     0.049 A 
ATOM     51  N   UNL     1       0.781  12.830  -0.164  1.00  0.00    -0.248 NA
ATOM     52  C   UNL     1      -0.327  14.800   0.074  1.00  0.00     0.031 C 
ATOM     53  C   UNL     1       0.085  11.006  -2.002  1.00  0.00     0.029 A 
ATOM     54  N   UNL     1      -0.361  11.728  -4.082  1.00  0.00    -0.354 N 
ATOM     55  C   UNL     1       0.661  13.056   1.184  1.00  0.00     0.074 A 
ATOM     56  C   UNL     1       0.101  14.379   1.274  1.00  0.00     0.031 C 
ATOM     57  C   UNL     1       0.219   9.953  -2.809  1.00  0.00     0.029 A 
ATOM     58  C   UNL     1       0.342  10.491  -4.129  1.00  0.00     0.049 A 
ATOM     59  H   UNL     1      -0.836  12.159  -4.828  1.00  0.00     0.167 HD
ATOM     60  C   UNL     1       0.914  12.036   2.055  1.00  0.00     0.037 A 
ATOM     61  C   UNL     1       1.482  10.294  -4.858  1.00  0.00     0.037 A 
ATOM     62  C   UNL     1       1.519  10.868   1.409  1.00  0.00     0.049 A 
ATOM     63  C   UNL     1       2.702   9.945  -4.029  1.00  0.00     0.074 A 
ATOM     64  C   UNL     1       1.197   9.524   1.339  1.00  0.00     0.029 A 
ATOM     65  N   UNL     1       2.614  11.047   0.564  1.00  0.00    -0.354 N 
ATOM     66  N   UNL     1       2.760  10.183  -2.746  1.00  0.00    -0.248 NA
ATOM     67  C   UNL     1       3.919   9.296  -4.507  1.00  0.00     0.031 C 
ATOM     68  C   UNL     1       2.087   8.906   0.416  1.00  0.00     0.029 A 
ATOM     69  C   UNL     1       2.978   9.865  -0.038  1.00  0.00     0.049 A 
ATOM     70  H   UNL     1       3.068  11.908   0.418  1.00  0.00     0.167 HD
ATOM     71  C   UNL     1       3.923   9.705  -2.219  1.00  0.00     0.074 A 
ATOM     72  C   UNL     1       4.640   9.193  -3.370  1.00  0.00     0.031 C 
ATOM     73  C   UNL     1       4.167   9.786  -0.877  1.00  0.00     0.037 A 
BRANCH  60  74
ATOM     74  C   UNL     1       0.508  12.003   3.516  1.00  0.00     0.064 A 
ATOM     75  C   UNL     1       1.102  11.074   4.403  1.00  0.00     0.173 A 
ATOM     76  C   UNL     1      -0.525  12.780   4.079  1.00  0.00     0.173 A 
ATOM     77  F   UNL     1       2.082  10.255   3.994  1.00  0.00    -0.203 F 
ATOM     78  C   UNL     1       0.708  10.950   5.740  1.00  0.00     0.198 A 
ATOM     79  C   UNL     1      -0.875  12.698   5.432  1.00  0.00     0.198 A 
ATOM     80  F   UNL     1      -1.270  13.604   3.332  1.00  0.00    -0.203 F 
ATOM     81  F   UNL     1       1.274  10.019   6.521  1.00  0.00    -0.200 F 
ATOM     82  C   UNL     1      -0.264  11.779   6.261  1.00  0.00     0.200 A 
ATOM     83  F   UNL     1      -1.826  13.507   5.922  1.00  0.00    -0.200 F 
ATOM     84  F   UNL     1      -0.623  11.683   7.549  1.00  0.00    -0.200 F 
ENDBRANCH  60  74
BRANCH  61  85
ATOM     85  C   UNL     1       1.385  10.906  -6.198  1.00  0.00     0.064 A 
ATOM     86  C   UNL     1       0.481  10.271  -7.073  1.00  0.00     0.173 A 
ATOM     87  C   UNL     1       1.594  12.283  -6.354  1.00  0.00     0.173 A 
ATOM     88  F   UNL     1       0.253   8.953  -6.955  1.00  0.00    -0.203 F 
ATOM     89  C   UNL     1      -0.331  11.014  -7.924  1.00  0.00     0.198 A 
ATOM     90  C   UNL     1       0.778  13.022  -7.213  1.00  0.00     0.198 A 
ATOM     91  F   UNL     1       2.446  12.932  -5.547  1.00  0.00    -0.203 F 
ATOM     92  F   UNL     1      -1.309  10.406  -8.612  1.00  0.00    -0.200 F 
ATOM     93  C   UNL     1      -0.212  12.393  -7.958  1.00  0.00     0.200 A 
ATOM     94  F   UNL     1       0.864  14.360  -7.228  1.00  0.00    -0.200 F 
ATOM     95  F   UNL     1      -1.092  13.121  -8.660  1.00  0.00    -0.200 F 
ENDBRANCH  61  85
BRANCH  73  96
ATOM     96  C   UNL     1       5.516   9.745  -0.195  1.00  0.00     0.064 A 
ATOM     97  C   UNL     1       6.726  10.025  -0.849  1.00  0.00     0.173 A 
ATOM     98  C   UNL     1       5.605   9.638   1.219  1.00  0.00     0.173 A 
ATOM     99  F   UNL     1       6.774  10.239  -2.170  1.00  0.00    -0.203 F 
ATOM    100  C   UNL     1       7.930  10.167  -0.151  1.00  0.00     0.198 A 
ATOM    101  C   UNL     1       6.797   9.830   1.915  1.00  0.00     0.198 A 
ATOM    102  F   UNL     1       4.529   9.390   1.980  1.00  0.00    -0.203 F 
ATOM    103  F   UNL     1       9.059  10.424  -0.827  1.00  0.00    -0.200 F 
ATOM    104  C   UNL     1       7.963  10.088   1.228  1.00  0.00     0.200 A 
ATOM    105  F   UNL     1       6.800   9.797   3.255  1.00  0.00    -0.200 F 
ATOM    106  F   UNL     1       9.108  10.285   1.894  1.00  0.00    -0.200 F 
ENDBRANCH  73  96
ENDBRANCH  47  48
ENDBRANCH  40  42
ENDBRANCH  39  40
ENDBRANCH  38  39
ENDBRANCH  37  38
ENDBRANCH  36  37
ENDBRANCH  35  36
ENDBRANCH  34  35
ENDBRANCH  33  34
ENDBRANCH   1  33
TORSDOF 23
