REMARK SMILES CC(C)(C)c1cc(Nc2ccccc2C(=O)OCCOCCOCCOCCOC(=O)c2ccc(-c3c4nc(c(-c5c(F)c(F)c(F)c(F)c5F)c5ccc([nH]5)c(-c5c(F)c(F)c(F)c(F)c5F)c5nc(c(-c6c(F)c(F)c(F)c(F)c6F)c6ccc3[nH]6)C=C5)C=C4)cc2)cc2c1OCC2(C)C
REMARK SMILES IDX 22 1 21 2 20 3 19 4 18 5 17 6 15 7 16 8 14 9 9 10 10 11
REMARK SMILES IDX 11 12 13 13 12 14 8 15 7 17 5 18 6 19 97 20 96 21 98 22
REMARK SMILES IDX 95 23 100 24 99 25 101 26 102 27 2 28 1 29 3 30 4 31 23 32
REMARK SMILES IDX 24 33 25 34 26 35 27 36 28 37 29 38 30 39 31 40 32 41 33 42
REMARK SMILES IDX 94 43 34 44 93 45 35 46 36 47 37 48 87 49 38 50 92 51 86 52
REMARK SMILES IDX 88 53 39 54 91 55 85 56 84 57 40 59 72 60 52 61 71 62 53 63
REMARK SMILES IDX 56 64 70 65 89 66 54 67 55 68 69 70 90 71 57 72 41 73 42 74
REMARK SMILES IDX 50 75 43 76 44 77 48 78 51 79 45 80 46 81 49 82 47 83 73 84
REMARK SMILES IDX 74 85 82 86 75 87 76 88 80 89 83 90 77 91 78 92 81 93 79 94
REMARK SMILES IDX 58 95 59 96 67 97 60 98 61 99 65 100 68 101 62 102 63 103
REMARK SMILES IDX 66 104 64 105
REMARK H PARENT 8 16 88 58 56 69
REMARK Flexibility Score: inf
ROOT
ATOM      1  C   UNL     1       3.071   6.437   0.299  1.00  0.00     0.188 C 
ENDROOT
BRANCH   1   2
ATOM      2  C   UNL     1       2.778   7.453   1.421  1.00  0.00     0.188 C 
BRANCH   2   3
ATOM      3  O   UNL     1       2.396   6.877   2.665  1.00  0.00    -0.376 OA
BRANCH   3   4
ATOM      4  C   UNL     1       1.079   7.161   3.111  1.00  0.00     0.202 C 
BRANCH   4   5
ATOM      5  C   UNL     1      -0.008   6.328   2.419  1.00  0.00     0.261 C 
BRANCH   5   6
ATOM      6  O   UNL     1      -0.018   6.436   0.986  1.00  0.00    -0.460 OA
BRANCH   6   7
ATOM      7  C   UNL     1      -0.382   7.638   0.485  1.00  0.00     0.340 C 
ATOM      8  O   UNL     1      -0.776   8.587   1.144  1.00  0.00    -0.246 OA
BRANCH   7   9
ATOM      9  C   UNL     1      -0.086   7.720  -0.970  1.00  0.00     0.083 A 
ATOM     10  C   UNL     1      -0.142   6.636  -1.869  1.00  0.00     0.053 A 
ATOM     11  C   UNL     1       0.062   6.917  -3.236  1.00  0.00     0.027 A 
ATOM     12  C   UNL     1       0.480   8.172  -3.679  1.00  0.00     0.002 A 
ATOM     13  C   UNL     1       0.336   8.987  -1.425  1.00  0.00     0.018 A 
ATOM     14  C   UNL     1       0.656   9.200  -2.764  1.00  0.00     0.001 A 
BRANCH  10  15
ATOM     15  N   UNL     1      -0.234   5.285  -1.451  1.00  0.00    -0.355 N 
ATOM     16  H   UNL     1      -0.887   5.099  -0.738  1.00  0.00     0.167 HD
BRANCH  15  17
ATOM     17  C   UNL     1       0.495   4.169  -1.932  1.00  0.00     0.039 A 
ATOM     18  C   UNL     1       0.685   1.698  -2.184  1.00  0.00     0.002 A 
ATOM     19  C   UNL     1       0.057   2.858  -1.647  1.00  0.00     0.034 A 
ATOM     20  C   UNL     1       1.770   1.930  -3.027  1.00  0.00     0.127 A 
ATOM     21  C   UNL     1       2.225   3.208  -3.304  1.00  0.00     0.006 A 
ATOM     22  O   UNL     1       2.490   0.970  -3.687  1.00  0.00    -0.492 OA
ATOM     23  C   UNL     1       1.616   4.320  -2.752  1.00  0.00     0.034 A 
ATOM     24  C   UNL     1       3.342   3.175  -4.289  1.00  0.00     0.028 C 
ATOM     25  C   UNL     1       3.589   1.658  -4.324  1.00  0.00     0.240 C 
ATOM     26  C   UNL     1       2.862   3.704  -5.647  1.00  0.00     0.020 C 
ATOM     27  C   UNL     1       4.584   3.938  -3.824  1.00  0.00     0.020 C 
BRANCH  18  28
ATOM     28  C   UNL     1       0.213   0.298  -1.762  1.00  0.00    -0.009 C 
ATOM     29  C   UNL     1       0.716   0.077  -0.332  1.00  0.00     0.016 C 
ATOM     30  C   UNL     1       0.745  -0.876  -2.614  1.00  0.00     0.016 C 
ATOM     31  C   UNL     1      -1.326   0.184  -1.766  1.00  0.00     0.016 C 
ENDBRANCH  18  28
ENDBRANCH  15  17
ENDBRANCH  10  15
ENDBRANCH   7   9
ENDBRANCH   6   7
ENDBRANCH   5   6
ENDBRANCH   4   5
ENDBRANCH   3   4
ENDBRANCH   2   3
ENDBRANCH   1   2
BRANCH   1  32
ATOM     32  O   UNL     1       2.913   5.047   0.538  1.00  0.00    -0.377 OA
BRANCH  32  33
ATOM     33  C   UNL     1       3.324   4.489   1.777  1.00  0.00     0.188 C 
BRANCH  33  34
ATOM     34  C   UNL     1       4.571   5.038   2.502  1.00  0.00     0.188 C 
BRANCH  34  35
ATOM     35  O   UNL     1       5.317   5.990   1.759  1.00  0.00    -0.376 OA
BRANCH  35  36
ATOM     36  C   UNL     1       6.566   5.552   1.244  1.00  0.00     0.202 C 
BRANCH  36  37
ATOM     37  C   UNL     1       6.482   4.529   0.105  1.00  0.00     0.261 C 
BRANCH  37  38
ATOM     38  O   UNL     1       5.827   3.291   0.427  1.00  0.00    -0.460 OA
BRANCH  38  39
ATOM     39  C   UNL     1       6.358   2.524   1.404  1.00  0.00     0.338 C 
ATOM     40  O   UNL     1       7.363   2.742   2.056  1.00  0.00    -0.246 OA
BRANCH  39  41
ATOM     41  C   UNL     1       5.395   1.436   1.675  1.00  0.00     0.060 A 
ATOM     42  C   UNL     1       4.964   0.620   0.630  1.00  0.00     0.016 A 
ATOM     43  C   UNL     1       4.891   1.255   2.970  1.00  0.00     0.016 A 
ATOM     44  C   UNL     1       4.044  -0.394   0.893  1.00  0.00     0.010 A 
ATOM     45  C   UNL     1       3.951   0.248   3.225  1.00  0.00     0.010 A 
ATOM     46  C   UNL     1       3.529  -0.595   2.189  1.00  0.00    -0.014 A 
BRANCH  46  47
ATOM     47  C   UNL     1       2.710  -1.808   2.455  1.00  0.00     0.031 A 
ATOM     48  C   UNL     1       1.225  -1.771   2.664  1.00  0.00     0.074 A 
ATOM     49  C   UNL     1       3.350  -2.993   2.448  1.00  0.00     0.049 A 
ATOM     50  N   UNL     1       0.372  -2.767   2.635  1.00  0.00    -0.248 NA
ATOM     51  C   UNL     1       0.605  -0.462   2.912  1.00  0.00     0.031 C 
ATOM     52  C   UNL     1       4.796  -3.158   2.300  1.00  0.00     0.029 A 
ATOM     53  N   UNL     1       2.873  -4.274   2.551  1.00  0.00    -0.354 N 
ATOM     54  C   UNL     1      -0.887  -2.199   2.766  1.00  0.00     0.074 A 
ATOM     55  C   UNL     1      -0.686  -0.776   2.951  1.00  0.00     0.031 C 
ATOM     56  C   UNL     1       5.089  -4.465   2.296  1.00  0.00     0.029 A 
ATOM     57  C   UNL     1       3.855  -5.228   2.463  1.00  0.00     0.049 A 
ATOM     58  H   UNL     1       1.921  -4.488   2.675  1.00  0.00     0.167 HD
ATOM     59  C   UNL     1      -2.095  -2.812   2.700  1.00  0.00     0.037 A 
ATOM     60  C   UNL     1       3.777  -6.570   2.509  1.00  0.00     0.037 A 
ATOM     61  C   UNL     1      -2.285  -4.239   2.611  1.00  0.00     0.049 A 
ATOM     62  C   UNL     1       2.431  -7.225   2.611  1.00  0.00     0.074 A 
ATOM     63  C   UNL     1      -3.471  -4.949   2.533  1.00  0.00     0.029 A 
ATOM     64  N   UNL     1      -1.263  -5.176   2.634  1.00  0.00    -0.354 N 
ATOM     65  N   UNL     1       1.242  -6.675   2.593  1.00  0.00    -0.248 NA
ATOM     66  C   UNL     1       2.414  -8.689   2.731  1.00  0.00     0.031 C 
ATOM     67  C   UNL     1      -3.171  -6.314   2.591  1.00  0.00     0.029 A 
ATOM     68  C   UNL     1      -1.794  -6.457   2.642  1.00  0.00     0.049 A 
ATOM     69  H   UNL     1      -0.302  -4.963   2.644  1.00  0.00     0.167 HD
ATOM     70  C   UNL     1       0.336  -7.722   2.680  1.00  0.00     0.074 A 
ATOM     71  C   UNL     1       1.113  -8.943   2.734  1.00  0.00     0.031 C 
ATOM     72  C   UNL     1      -1.018  -7.670   2.712  1.00  0.00     0.037 A 
BRANCH  59  73
ATOM     73  C   UNL     1      -3.325  -1.952   2.704  1.00  0.00     0.064 A 
ATOM     74  C   UNL     1      -3.711  -1.252   1.552  1.00  0.00     0.173 A 
ATOM     75  C   UNL     1      -4.191  -1.925   3.807  1.00  0.00     0.173 A 
ATOM     76  F   UNL     1      -2.924  -1.260   0.467  1.00  0.00    -0.203 F 
ATOM     77  C   UNL     1      -4.912  -0.548   1.504  1.00  0.00     0.198 A 
ATOM     78  C   UNL     1      -5.401  -1.235   3.751  1.00  0.00     0.198 A 
ATOM     79  F   UNL     1      -3.879  -2.594   4.926  1.00  0.00    -0.203 F 
ATOM     80  F   UNL     1      -5.252   0.122   0.394  1.00  0.00    -0.200 F 
ATOM     81  C   UNL     1      -5.760  -0.547   2.601  1.00  0.00     0.200 A 
ATOM     82  F   UNL     1      -6.228  -1.249   4.805  1.00  0.00    -0.200 F 
ATOM     83  F   UNL     1      -6.925   0.113   2.548  1.00  0.00    -0.200 F 
ENDBRANCH  59  73
BRANCH  60  84
ATOM     84  C   UNL     1       5.025  -7.370   2.440  1.00  0.00     0.064 A 
ATOM     85  C   UNL     1       5.323  -8.152   1.318  1.00  0.00     0.173 A 
ATOM     86  C   UNL     1       5.963  -7.335   3.483  1.00  0.00     0.173 A 
ATOM     87  F   UNL     1       4.449  -8.230   0.304  1.00  0.00    -0.203 F 
ATOM     88  C   UNL     1       6.513  -8.873   1.243  1.00  0.00     0.198 A 
ATOM     89  C   UNL     1       7.164  -8.032   3.394  1.00  0.00     0.198 A 
ATOM     90  F   UNL     1       5.724  -6.596   4.577  1.00  0.00    -0.203 F 
ATOM     91  F   UNL     1       6.763  -9.637   0.171  1.00  0.00    -0.200 F 
ATOM     92  C   UNL     1       7.436  -8.805   2.276  1.00  0.00     0.200 A 
ATOM     93  F   UNL     1       8.060  -7.948   4.387  1.00  0.00    -0.200 F 
ATOM     94  F   UNL     1       8.587  -9.486   2.196  1.00  0.00    -0.200 F 
ENDBRANCH  60  84
BRANCH  72  95
ATOM     95  C   UNL     1      -1.758  -8.972   2.818  1.00  0.00     0.064 A 
ATOM     96  C   UNL     1      -1.760  -9.715   4.008  1.00  0.00     0.173 A 
ATOM     97  C   UNL     1      -2.520  -9.454   1.743  1.00  0.00     0.173 A 
ATOM     98  F   UNL     1      -1.035  -9.306   5.060  1.00  0.00    -0.203 F 
ATOM     99  C   UNL     1      -2.485 -10.899   4.113  1.00  0.00     0.198 A 
ATOM    100  C   UNL     1      -3.268 -10.623   1.861  1.00  0.00     0.198 A 
ATOM    101  F   UNL     1      -2.556  -8.780   0.584  1.00  0.00    -0.203 F 
ATOM    102  F   UNL     1      -2.440 -11.612   5.247  1.00  0.00    -0.200 F 
ATOM    103  C   UNL     1      -3.246 -11.347   3.043  1.00  0.00     0.200 A 
ATOM    104  F   UNL     1      -4.014 -11.046   0.831  1.00  0.00    -0.200 F 
ATOM    105  F   UNL     1      -3.955 -12.478   3.151  1.00  0.00    -0.200 F 
ENDBRANCH  72  95
ENDBRANCH  46  47
ENDBRANCH  39  41
ENDBRANCH  38  39
ENDBRANCH  37  38
ENDBRANCH  36  37
ENDBRANCH  35  36
ENDBRANCH  34  35
ENDBRANCH  33  34
ENDBRANCH  32  33
ENDBRANCH   1  32
TORSDOF 23
