REMARK SMILES CC1(C)CCC[N@@H+](Cc2ccc(C(=O)OCCOCCOCCOCCOC(=O)c3ccc(-c4c5nc(c(-c6c(F)c(F)c(F)c(F)c6F)c6ccc([nH]6)c(-c6c(F)c(F)c(F)c(F)c6F)c6nc(c(-c7c(F)c(F)c(F)c(F)c7F)c7ccc4[nH]7)C=C6)C=C5)cc3)cn2)C1
REMARK SMILES IDX 21 1 20 2 19 3 18 4 17 5 16 6 15 7 13 8 14 9 12 10 9 11
REMARK SMILES IDX 10 12 94 13 11 14 93 15 8 16 7 17 1 18 2 19 3 20 4 21 95 22
REMARK SMILES IDX 5 23 6 24 22 26 23 27 24 28 25 29 26 30 27 31 28 32 29 33
REMARK SMILES IDX 30 34 31 35 92 36 32 37 91 38 33 39 34 40 35 41 85 42 36 43
REMARK SMILES IDX 90 44 84 45 86 46 37 47 89 48 83 49 82 50 38 52 70 53 50 54
REMARK SMILES IDX 69 55 51 56 54 57 68 58 87 59 52 60 53 61 67 63 88 64 55 65
REMARK SMILES IDX 39 66 40 67 48 68 41 69 42 70 46 71 49 72 43 73 44 74 47 75
REMARK SMILES IDX 45 76 71 77 72 78 80 79 73 80 74 81 78 82 81 83 75 84 76 85
REMARK SMILES IDX 79 86 77 87 56 88 57 89 65 90 58 91 59 92 63 93 66 94 60 95
REMARK SMILES IDX 61 96 64 97 62 98
REMARK H PARENT 7 25 86 51 54 62
REMARK Flexibility Score: inf
ROOT
ATOM      1  O   UNL     1      -0.913   4.391   6.882  1.00  0.00    -0.377 OA
ENDROOT
BRANCH   1   2
ATOM      2  C   UNL     1      -2.199   4.298   6.287  1.00  0.00     0.188 C 
BRANCH   2   3
ATOM      3  C   UNL     1      -3.206   3.394   7.024  1.00  0.00     0.188 C 
BRANCH   3   4
ATOM      4  O   UNL     1      -2.868   3.186   8.384  1.00  0.00    -0.376 OA
BRANCH   4   5
ATOM      5  C   UNL     1      -2.296   1.965   8.814  1.00  0.00     0.202 C 
BRANCH   5   6
ATOM      6  C   UNL     1      -1.079   1.338   8.113  1.00  0.00     0.261 C 
BRANCH   6   7
ATOM      7  O   UNL     1      -0.991   1.529   6.703  1.00  0.00    -0.460 OA
BRANCH   7   8
ATOM      8  C   UNL     1      -1.765   0.749   5.924  1.00  0.00     0.339 C 
ATOM      9  O   UNL     1      -2.480  -0.167   6.288  1.00  0.00    -0.246 OA
BRANCH   8  10
ATOM     10  C   UNL     1      -1.765   1.329   4.568  1.00  0.00     0.078 A 
ATOM     11  C   UNL     1      -1.940   2.320   2.018  1.00  0.00     0.095 A 
ATOM     12  C   UNL     1      -0.816   2.634   2.785  1.00  0.00     0.031 A 
ATOM     13  N   UNL     1      -3.024   1.689   2.543  1.00  0.00    -0.254 NA
ATOM     14  C   UNL     1      -0.708   2.088   4.060  1.00  0.00     0.019 A 
ATOM     15  C   UNL     1      -2.913   1.209   3.803  1.00  0.00     0.127 A 
BRANCH  11  16
ATOM     16  C   UNL     1      -1.838   2.358   0.493  1.00  0.00     0.319 C 
BRANCH  16  17
ATOM     17  N   UNL     1      -1.165   1.164  -0.112  1.00  0.00    -0.329 N 
ATOM     18  C   UNL     1       1.243  -0.061  -1.728  1.00  0.00     0.017 C 
ATOM     19  C   UNL     1       1.010  -0.159  -0.213  1.00  0.00     0.014 C 
ATOM     20  C   UNL     1       2.379  -0.202   0.495  1.00  0.00     0.017 C 
ATOM     21  C   UNL     1       0.211  -1.427   0.146  1.00  0.00     0.018 C 
ATOM     22  C   UNL     1       0.243   1.073   0.306  1.00  0.00     0.268 C 
ATOM     23  C   UNL     1      -1.238  -1.332  -0.328  1.00  0.00     0.062 C 
ATOM     24  C   UNL     1      -1.909  -0.068   0.209  1.00  0.00     0.262 C 
ATOM     25  H   UNL     1      -1.168   1.278  -1.125  1.00  0.00     0.348 HD
ENDBRANCH  16  17
ENDBRANCH  11  16
ENDBRANCH   8  10
ENDBRANCH   7   8
ENDBRANCH   6   7
ENDBRANCH   5   6
ENDBRANCH   4   5
ENDBRANCH   3   4
ENDBRANCH   2   3
ENDBRANCH   1   2
BRANCH   1  26
ATOM     26  C   UNL     1      -0.782   5.073   8.131  1.00  0.00     0.188 C 
BRANCH  26  27
ATOM     27  C   UNL     1      -1.979   5.728   8.871  1.00  0.00     0.188 C 
BRANCH  27  28
ATOM     28  O   UNL     1      -3.085   6.068   8.054  1.00  0.00    -0.376 OA
BRANCH  28  29
ATOM     29  C   UNL     1      -3.302   7.429   7.733  1.00  0.00     0.202 C 
BRANCH  29  30
ATOM     30  C   UNL     1      -2.225   8.125   6.890  1.00  0.00     0.261 C 
BRANCH  30  31
ATOM     31  O   UNL     1      -0.887   8.056   7.403  1.00  0.00    -0.460 OA
BRANCH  31  32
ATOM     32  C   UNL     1      -0.646   8.685   8.576  1.00  0.00     0.338 C 
ATOM     33  O   UNL     1      -1.427   9.319   9.248  1.00  0.00    -0.246 OA
BRANCH  32  34
ATOM     34  C   UNL     1       0.720   8.307   9.003  1.00  0.00     0.060 A 
ATOM     35  C   UNL     1       0.891   7.622  10.213  1.00  0.00     0.016 A 
ATOM     36  C   UNL     1       1.820   8.622   8.204  1.00  0.00     0.016 A 
ATOM     37  C   UNL     1       2.173   7.282  10.646  1.00  0.00     0.010 A 
ATOM     38  C   UNL     1       3.104   8.300   8.647  1.00  0.00     0.010 A 
ATOM     39  C   UNL     1       3.288   7.660   9.886  1.00  0.00    -0.014 A 
BRANCH  39  40
ATOM     40  C   UNL     1       4.647   7.572  10.474  1.00  0.00     0.031 A 
ATOM     41  C   UNL     1       5.245   8.816  11.070  1.00  0.00     0.074 A 
ATOM     42  C   UNL     1       5.332   6.416  10.489  1.00  0.00     0.049 A 
ATOM     43  N   UNL     1       6.432   9.008  11.587  1.00  0.00    -0.248 NA
ATOM     44  C   UNL     1       4.385  10.011  11.078  1.00  0.00     0.031 C 
ATOM     45  C   UNL     1       4.843   5.136   9.986  1.00  0.00     0.029 A 
ATOM     46  N   UNL     1       6.599   6.141  10.942  1.00  0.00    -0.354 N 
ATOM     47  C   UNL     1       6.464  10.343  11.967  1.00  0.00     0.074 A 
ATOM     48  C   UNL     1       5.192  10.923  11.594  1.00  0.00     0.031 C 
ATOM     49  C   UNL     1       5.803   4.209  10.152  1.00  0.00     0.029 A 
ATOM     50  C   UNL     1       6.986   4.840  10.736  1.00  0.00     0.049 A 
ATOM     51  H   UNL     1       7.175   6.813  11.374  1.00  0.00     0.167 HD
ATOM     52  C   UNL     1       7.463  11.023  12.579  1.00  0.00     0.037 A 
ATOM     53  C   UNL     1       8.170   4.240  10.971  1.00  0.00     0.037 A 
ATOM     54  C   UNL     1       8.727  10.441  12.946  1.00  0.00     0.049 A 
ATOM     55  C   UNL     1       9.298   5.042  11.572  1.00  0.00     0.074 A 
ATOM     56  C   UNL     1       9.795  11.036  13.593  1.00  0.00     0.029 A 
ATOM     57  N   UNL     1       9.099   9.130  12.682  1.00  0.00    -0.354 N 
ATOM     58  N   UNL     1       9.313   6.294  11.963  1.00  0.00    -0.248 NA
ATOM     59  C   UNL     1      10.577   4.343  11.767  1.00  0.00     0.031 C 
ATOM     60  C   UNL     1      10.838  10.107  13.658  1.00  0.00     0.029 A 
ATOM     61  C   UNL     1      10.395   8.910  13.120  1.00  0.00     0.049 A 
ATOM     62  H   UNL     1       8.526   8.457  12.249  1.00  0.00     0.167 HD
ATOM     63  C   UNL     1      10.582   6.520  12.482  1.00  0.00     0.074 A 
ATOM     64  C   UNL     1      11.306   5.272  12.367  1.00  0.00     0.031 C 
ATOM     65  C   UNL     1      11.101   7.657  13.010  1.00  0.00     0.037 A 
BRANCH  52  66
ATOM     66  C   UNL     1       7.243  12.485  12.848  1.00  0.00     0.064 A 
ATOM     67  C   UNL     1       6.309  12.935  13.794  1.00  0.00     0.173 A 
ATOM     68  C   UNL     1       7.993  13.450  12.159  1.00  0.00     0.173 A 
ATOM     69  F   UNL     1       5.554  12.056  14.471  1.00  0.00    -0.203 F 
ATOM     70  C   UNL     1       6.110  14.296  14.013  1.00  0.00     0.198 A 
ATOM     71  C   UNL     1       7.817  14.808  12.407  1.00  0.00     0.198 A 
ATOM     72  F   UNL     1       8.902  13.075  11.246  1.00  0.00    -0.203 F 
ATOM     73  F   UNL     1       5.170  14.704  14.877  1.00  0.00    -0.200 F 
ATOM     74  C   UNL     1       6.869  15.231  13.325  1.00  0.00     0.200 A 
ATOM     75  F   UNL     1       8.563  15.709  11.752  1.00  0.00    -0.200 F 
ATOM     76  F   UNL     1       6.680  16.540  13.541  1.00  0.00    -0.200 F 
ENDBRANCH  52  66
BRANCH  53  77
ATOM     77  C   UNL     1       8.361   2.803  10.635  1.00  0.00     0.064 A 
ATOM     78  C   UNL     1       8.574   1.849  11.640  1.00  0.00     0.173 A 
ATOM     79  C   UNL     1       8.366   2.358   9.305  1.00  0.00     0.173 A 
ATOM     80  F   UNL     1       8.605   2.228  12.926  1.00  0.00    -0.203 F 
ATOM     81  C   UNL     1       8.807   0.511  11.328  1.00  0.00     0.198 A 
ATOM     82  C   UNL     1       8.567   1.014   8.995  1.00  0.00     0.198 A 
ATOM     83  F   UNL     1       8.172   3.229   8.303  1.00  0.00    -0.203 F 
ATOM     84  F   UNL     1       9.062  -0.368  12.306  1.00  0.00    -0.200 F 
ATOM     85  C   UNL     1       8.797   0.094  10.005  1.00  0.00     0.200 A 
ATOM     86  F   UNL     1       8.543   0.613   7.716  1.00  0.00    -0.200 F 
ATOM     87  F   UNL     1       9.019  -1.193   9.705  1.00  0.00    -0.200 F 
ENDBRANCH  53  77
BRANCH  65  88
ATOM     88  C   UNL     1      12.502   7.596  13.554  1.00  0.00     0.064 A 
ATOM     89  C   UNL     1      13.619   7.457  12.718  1.00  0.00     0.173 A 
ATOM     90  C   UNL     1      12.730   7.723  14.934  1.00  0.00     0.173 A 
ATOM     91  F   UNL     1      13.458   7.320  11.393  1.00  0.00    -0.203 F 
ATOM     92  C   UNL     1      14.908   7.416  13.244  1.00  0.00     0.198 A 
ATOM     93  C   UNL     1      14.021   7.720  15.453  1.00  0.00     0.198 A 
ATOM     94  F   UNL     1      11.699   7.868  15.780  1.00  0.00    -0.203 F 
ATOM     95  F   UNL     1      15.956   7.227  12.431  1.00  0.00    -0.200 F 
ATOM     96  C   UNL     1      15.109   7.556  14.609  1.00  0.00     0.200 A 
ATOM     97  F   UNL     1      14.213   7.875  16.770  1.00  0.00    -0.200 F 
ATOM     98  F   UNL     1      16.351   7.527  15.113  1.00  0.00    -0.200 F 
ENDBRANCH  65  88
ENDBRANCH  39  40
ENDBRANCH  32  34
ENDBRANCH  31  32
ENDBRANCH  30  31
ENDBRANCH  29  30
ENDBRANCH  28  29
ENDBRANCH  27  28
ENDBRANCH  26  27
ENDBRANCH   1  26
TORSDOF 22
