REMARK SMILES O=C(OCCOCCOCCOCCOC(=O)[C@H]1CC[C@@H](CN2CC(=O)N3CCCC[C@H]3C2=O)O1)c1ccc(-c2c3nc(c(-c4c(F)c(F)c(F)c(F)c4F)c4ccc([nH]4)c(-c4c(F)c(F)c(F)c(F)c4F)c4nc(c(-c5c(F)c(F)c(F)c(F)c5F)c5ccc2[nH]5)C=C4)C=C3)cc1
REMARK SMILES IDX 9 1 8 2 7 3 6 4 5 5 4 6 3 7 2 8 1 9 36 10 37 11 98 12 38 13
REMARK SMILES IDX 97 14 39 15 40 16 41 17 91 18 42 19 96 20 90 21 92 22 43 23
REMARK SMILES IDX 95 24 89 25 88 26 44 28 76 29 56 30 75 31 57 32 60 33 74 34
REMARK SMILES IDX 93 35 58 36 59 37 73 39 94 40 61 41 45 42 46 43 54 44 47 45
REMARK SMILES IDX 48 46 52 47 55 48 49 49 50 50 53 51 51 52 77 53 78 54 86 55
REMARK SMILES IDX 79 56 80 57 84 58 87 59 81 60 82 61 85 62 83 63 62 64 63 65
REMARK SMILES IDX 71 66 64 67 65 68 69 69 72 70 66 71 67 72 70 73 68 74 10 75
REMARK SMILES IDX 11 76 12 77 13 78 14 79 15 80 16 81 17 82 18 83 19 84 35 85
REMARK SMILES IDX 20 86 21 87 22 88 23 89 24 90 33 91 25 92 32 93 34 94 26 95
REMARK SMILES IDX 27 96 31 97 28 98 30 99 29 100
REMARK H PARENT 92 27 60 38
REMARK Flexibility Score: inf
ROOT
ATOM      1  O   UNL     1       6.852  -3.368  -0.799  1.00  0.00    -0.377 OA
ENDROOT
BRANCH   1   2
ATOM      2  C   UNL     1       7.277  -2.229  -0.053  1.00  0.00     0.188 C 
BRANCH   2   3
ATOM      3  C   UNL     1       7.004  -0.865  -0.697  1.00  0.00     0.188 C 
BRANCH   3   4
ATOM      4  O   UNL     1       5.612  -0.588  -0.751  1.00  0.00    -0.376 OA
BRANCH   4   5
ATOM      5  C   UNL     1       5.010  -0.104  -1.938  1.00  0.00     0.202 C 
BRANCH   5   6
ATOM      6  C   UNL     1       5.421   1.268  -2.428  1.00  0.00     0.261 C 
BRANCH   6   7
ATOM      7  O   UNL     1       6.151   2.190  -1.601  1.00  0.00    -0.460 OA
BRANCH   7   8
ATOM      8  C   UNL     1       6.477   2.102  -0.298  1.00  0.00     0.338 C 
ATOM      9  O   UNL     1       7.640   2.255   0.066  1.00  0.00    -0.246 OA
BRANCH   8  10
ATOM     10  C   UNL     1       5.394   2.197   0.711  1.00  0.00     0.060 A 
ATOM     11  C   UNL     1       4.268   1.375   0.768  1.00  0.00     0.016 A 
ATOM     12  C   UNL     1       5.585   3.146   1.722  1.00  0.00     0.016 A 
ATOM     13  C   UNL     1       3.321   1.508   1.760  1.00  0.00     0.010 A 
ATOM     14  C   UNL     1       4.634   3.302   2.725  1.00  0.00     0.010 A 
ATOM     15  C   UNL     1       3.486   2.501   2.709  1.00  0.00    -0.014 A 
BRANCH  15  16
ATOM     16  C   UNL     1       2.304   2.869   3.483  1.00  0.00     0.031 A 
ATOM     17  C   UNL     1       1.555   4.069   3.010  1.00  0.00     0.074 A 
ATOM     18  C   UNL     1       1.868   2.075   4.469  1.00  0.00     0.049 A 
ATOM     19  N   UNL     1       0.617   4.749   3.601  1.00  0.00    -0.248 NA
ATOM     20  C   UNL     1       1.924   4.578   1.675  1.00  0.00     0.031 C 
ATOM     21  C   UNL     1       2.447   0.780   4.829  1.00  0.00     0.029 A 
ATOM     22  N   UNL     1       0.837   2.245   5.345  1.00  0.00    -0.354 N 
ATOM     23  C   UNL     1       0.336   5.803   2.744  1.00  0.00     0.074 A 
ATOM     24  C   UNL     1       1.184   5.668   1.585  1.00  0.00     0.031 C 
ATOM     25  C   UNL     1       1.776   0.284   5.880  1.00  0.00     0.029 A 
ATOM     26  C   UNL     1       0.795   1.273   6.310  1.00  0.00     0.049 A 
ATOM     27  H   UNL     1       0.191   2.986   5.289  1.00  0.00     0.167 HD
ATOM     28  C   UNL     1      -0.544   6.807   2.950  1.00  0.00     0.037 A 
ATOM     29  C   UNL     1       0.091   1.254   7.455  1.00  0.00     0.037 A 
ATOM     30  C   UNL     1      -1.352   6.872   4.135  1.00  0.00     0.049 A 
ATOM     31  C   UNL     1      -0.805   2.432   7.729  1.00  0.00     0.074 A 
ATOM     32  C   UNL     1      -2.244   7.847   4.530  1.00  0.00     0.029 A 
ATOM     33  N   UNL     1      -1.348   5.894   5.127  1.00  0.00    -0.354 N 
ATOM     34  N   UNL     1      -1.010   3.499   6.989  1.00  0.00    -0.248 NA
ATOM     35  C   UNL     1      -1.550   2.421   8.989  1.00  0.00     0.031 C 
ATOM     36  C   UNL     1      -2.731   7.487   5.792  1.00  0.00     0.029 A 
ATOM     37  C   UNL     1      -2.204   6.251   6.149  1.00  0.00     0.049 A 
ATOM     38  H   UNL     1      -0.812   5.069   5.103  1.00  0.00     0.167 HD
ATOM     39  C   UNL     1      -1.930   4.275   7.675  1.00  0.00     0.074 A 
ATOM     40  C   UNL     1      -2.238   3.553   8.897  1.00  0.00     0.031 C 
ATOM     41  C   UNL     1      -2.479   5.469   7.333  1.00  0.00     0.037 A 
BRANCH  28  42
ATOM     42  C   UNL     1      -0.546   7.924   1.947  1.00  0.00     0.064 A 
ATOM     43  C   UNL     1      -0.961   7.745   0.618  1.00  0.00     0.173 A 
ATOM     44  C   UNL     1      -0.021   9.177   2.302  1.00  0.00     0.173 A 
ATOM     45  F   UNL     1      -1.437   6.558   0.212  1.00  0.00    -0.203 F 
ATOM     46  C   UNL     1      -0.797   8.757  -0.328  1.00  0.00     0.198 A 
ATOM     47  C   UNL     1       0.106  10.197   1.364  1.00  0.00     0.198 A 
ATOM     48  F   UNL     1       0.404   9.402   3.554  1.00  0.00    -0.203 F 
ATOM     49  F   UNL     1      -1.110   8.529  -1.611  1.00  0.00    -0.200 F 
ATOM     50  C   UNL     1      -0.265   9.981   0.046  1.00  0.00     0.200 A 
ATOM     51  F   UNL     1       0.619  11.380   1.729  1.00  0.00    -0.200 F 
ATOM     52  F   UNL     1      -0.087  10.945  -0.868  1.00  0.00    -0.200 F 
ENDBRANCH  28  42
BRANCH  29  53
ATOM     53  C   UNL     1       0.284   0.138   8.415  1.00  0.00     0.064 A 
ATOM     54  C   UNL     1      -0.735  -0.789   8.668  1.00  0.00     0.173 A 
ATOM     55  C   UNL     1       1.520  -0.065   9.053  1.00  0.00     0.173 A 
ATOM     56  F   UNL     1      -1.937  -0.635   8.096  1.00  0.00    -0.203 F 
ATOM     57  C   UNL     1      -0.526  -1.873   9.521  1.00  0.00     0.198 A 
ATOM     58  C   UNL     1       1.737  -1.164   9.881  1.00  0.00     0.198 A 
ATOM     59  F   UNL     1       2.533   0.788   8.842  1.00  0.00    -0.203 F 
ATOM     60  F   UNL     1      -1.524  -2.733   9.764  1.00  0.00    -0.200 F 
ATOM     61  C   UNL     1       0.712  -2.066  10.118  1.00  0.00     0.200 A 
ATOM     62  F   UNL     1       2.941  -1.355  10.437  1.00  0.00    -0.200 F 
ATOM     63  F   UNL     1       0.917  -3.119  10.920  1.00  0.00    -0.200 F 
ENDBRANCH  29  53
BRANCH  41  64
ATOM     64  C   UNL     1      -3.514   6.029   8.257  1.00  0.00     0.064 A 
ATOM     65  C   UNL     1      -3.169   6.625   9.476  1.00  0.00     0.173 A 
ATOM     66  C   UNL     1      -4.856   6.070   7.849  1.00  0.00     0.173 A 
ATOM     67  F   UNL     1      -1.899   6.596   9.908  1.00  0.00    -0.203 F 
ATOM     68  C   UNL     1      -4.137   7.243  10.260  1.00  0.00     0.198 A 
ATOM     69  C   UNL     1      -5.813   6.717   8.619  1.00  0.00     0.198 A 
ATOM     70  F   UNL     1      -5.226   5.519   6.683  1.00  0.00    -0.203 F 
ATOM     71  F   UNL     1      -3.796   7.788  11.436  1.00  0.00    -0.200 F 
ATOM     72  C   UNL     1      -5.454   7.302   9.824  1.00  0.00     0.200 A 
ATOM     73  F   UNL     1      -7.079   6.793   8.186  1.00  0.00    -0.200 F 
ATOM     74  F   UNL     1      -6.378   7.926  10.566  1.00  0.00    -0.200 F 
ENDBRANCH  41  64
ENDBRANCH  15  16
ENDBRANCH   8  10
ENDBRANCH   7   8
ENDBRANCH   6   7
ENDBRANCH   5   6
ENDBRANCH   4   5
ENDBRANCH   3   4
ENDBRANCH   2   3
ENDBRANCH   1   2
BRANCH   1  75
ATOM     75  C   UNL     1       5.578  -3.263  -1.418  1.00  0.00     0.188 C 
BRANCH  75  76
ATOM     76  C   UNL     1       4.319  -3.086  -0.529  1.00  0.00     0.188 C 
BRANCH  76  77
ATOM     77  O   UNL     1       4.580  -2.592   0.776  1.00  0.00    -0.376 OA
BRANCH  77  78
ATOM     78  C   UNL     1       4.510  -3.524   1.847  1.00  0.00     0.202 C 
BRANCH  78  79
ATOM     79  C   UNL     1       5.518  -4.684   1.862  1.00  0.00     0.261 C 
BRANCH  79  80
ATOM     80  O   UNL     1       5.723  -5.404   0.638  1.00  0.00    -0.461 OA
BRANCH  80  81
ATOM     81  C   UNL     1       4.674  -6.041   0.080  1.00  0.00     0.335 C 
ATOM     82  O   UNL     1       3.553  -6.088   0.592  1.00  0.00    -0.249 OA
BRANCH  81  83
ATOM     83  C   UNL     1       4.967  -6.534  -1.345  1.00  0.00     0.228 C 
ATOM     84  C   UNL     1       6.428  -6.765  -1.677  1.00  0.00     0.047 C 
ATOM     85  O   UNL     1       4.307  -7.764  -1.631  1.00  0.00    -0.361 OA
ATOM     86  C   UNL     1       6.625  -8.180  -1.196  1.00  0.00     0.037 C 
ATOM     87  C   UNL     1       5.259  -8.821  -1.436  1.00  0.00     0.139 C 
BRANCH  87  88
ATOM     88  C   UNL     1       4.713  -9.759  -0.348  1.00  0.00     0.152 C 
BRANCH  88  89
ATOM     89  N   UNL     1       4.625  -9.170   0.997  1.00  0.00    -0.329 N 
ATOM     90  C   UNL     1       3.301  -8.818   1.529  1.00  0.00     0.219 C 
ATOM     91  C   UNL     1       5.688  -9.326   1.870  1.00  0.00     0.245 C 
ATOM     92  C   UNL     1       3.285  -7.816   2.700  1.00  0.00     0.242 C 
ATOM     93  C   UNL     1       5.507  -8.719   3.265  1.00  0.00     0.174 C 
ATOM     94  O   UNL     1       6.698  -9.968   1.582  1.00  0.00    -0.272 OA
ATOM     95  O   UNL     1       2.248  -7.277   3.085  1.00  0.00    -0.273 OA
ATOM     96  N   UNL     1       4.494  -7.679   3.378  1.00  0.00    -0.329 N 
ATOM     97  C   UNL     1       5.215  -9.776   4.327  1.00  0.00     0.035 C 
ATOM     98  C   UNL     1       4.535  -6.932   4.627  1.00  0.00     0.120 C 
ATOM     99  C   UNL     1       5.197  -9.123   5.719  1.00  0.00     0.004 C 
ATOM    100  C   UNL     1       4.282  -7.889   5.789  1.00  0.00     0.022 C 
ENDBRANCH  88  89
ENDBRANCH  87  88
ENDBRANCH  81  83
ENDBRANCH  80  81
ENDBRANCH  79  80
ENDBRANCH  78  79
ENDBRANCH  77  78
ENDBRANCH  76  77
ENDBRANCH  75  76
ENDBRANCH   1  75
TORSDOF 22
