REMARK SMILES Cc1cc(/C=C2/C(=O)NC(=S)N=C2OCCOCCOCCOCCOC(=O)c2ccc(-c3c4nc(c(-c5c(F)c(F)c(F)c(F)c5F)c5ccc([nH]5)c(-c5c(F)c(F)c(F)c(F)c5F)c5nc(c(-c6c(F)c(F)c(F)c(F)c6F)c6ccc3[nH]6)C=C5)C=C4)cc2)c(C)n1-c1cccc(C(=O)[O-])c1
REMARK SMILES IDX 20 1 19 2 18 3 17 4 16 5 15 6 14 7 13 8 5 9 6 10 7 11 8 12
REMARK SMILES IDX 9 13 12 14 10 15 11 17 4 18 1 19 2 20 3 21 94 22 92 23 93 24
REMARK SMILES IDX 95 25 96 26 103 27 97 28 99 29 98 30 100 31 101 32 102 33
REMARK SMILES IDX 21 34 22 35 23 36 24 37 25 38 26 39 27 40 28 41 29 42 30 43
REMARK SMILES IDX 91 44 31 45 90 46 32 47 33 48 34 49 84 50 35 51 89 52 83 53
REMARK SMILES IDX 85 54 36 55 88 56 82 57 81 58 37 60 69 61 49 62 68 63 50 64
REMARK SMILES IDX 53 65 67 66 86 67 51 68 52 69 66 71 87 72 54 73 38 74 39 75
REMARK SMILES IDX 47 76 40 77 41 78 45 79 48 80 42 81 43 82 46 83 44 84 70 85
REMARK SMILES IDX 71 86 79 87 72 88 73 89 77 90 80 91 74 92 75 93 78 94 76 95
REMARK SMILES IDX 55 96 56 97 64 98 57 99 58 100 62 101 65 102 59 103 60 104
REMARK SMILES IDX 63 105 61 106
REMARK H PARENT 9 16 85 59 53 70
REMARK Flexibility Score: inf
ROOT
ATOM      1  O   UNL     1      -4.175  -0.186   4.063  1.00  0.00    -0.377 OA
ENDROOT
BRANCH   1   2
ATOM      2  C   UNL     1      -3.241  -0.904   4.837  1.00  0.00     0.188 C 
BRANCH   2   3
ATOM      3  C   UNL     1      -3.079  -0.537   6.330  1.00  0.00     0.188 C 
BRANCH   3   4
ATOM      4  O   UNL     1      -2.939   0.789   6.807  1.00  0.00    -0.376 OA
BRANCH   4   5
ATOM      5  C   UNL     1      -1.791   1.622   6.725  1.00  0.00     0.201 C 
BRANCH   5   6
ATOM      6  C   UNL     1      -0.349   1.195   7.096  1.00  0.00     0.260 C 
BRANCH   6   7
ATOM      7  O   UNL     1       0.234   0.166   6.252  1.00  0.00    -0.475 OA
BRANCH   7   8
ATOM      8  C   UNL     1       0.115  -1.098   6.678  1.00  0.00     0.229 C 
ATOM      9  C   UNL     1       0.291  -2.163   4.268  1.00  0.00     0.029 C 
ATOM     10  C   UNL     1       0.124  -2.143   5.617  1.00  0.00     0.103 C 
ATOM     11  C   UNL     1      -0.218  -3.503   6.187  1.00  0.00     0.262 C 
ATOM     12  O   UNL     1      -0.283  -4.535   5.526  1.00  0.00    -0.269 OA
ATOM     13  N   UNL     1      -0.525  -3.537   7.520  1.00  0.00    -0.297 N 
ATOM     14  N   UNL     1      -0.099  -1.284   7.933  1.00  0.00    -0.184 NA
ATOM     15  C   UNL     1      -0.477  -2.497   8.398  1.00  0.00     0.203 C 
ATOM     16  H   UNL     1      -0.811  -4.406   7.883  1.00  0.00     0.172 HD
ATOM     17  S   UNL     1      -0.975  -2.753   9.975  1.00  0.00    -0.038 S 
BRANCH   9  18
ATOM     18  C   UNL     1       0.510  -1.228   3.183  1.00  0.00    -0.003 A 
ATOM     19  C   UNL     1       1.175  -0.476  -0.447  1.00  0.00     0.065 C 
ATOM     20  C   UNL     1       0.873  -0.540   1.007  1.00  0.00     0.020 A 
ATOM     21  C   UNL     1       0.910  -1.633   1.866  1.00  0.00     0.031 A 
ATOM     22  N   UNL     1       0.569   0.557   1.778  1.00  0.00    -0.318 N 
ATOM     23  C   UNL     1       0.197   0.107   3.040  1.00  0.00     0.027 A 
ATOM     24  C   UNL     1      -0.551   1.039   3.890  1.00  0.00     0.065 C 
BRANCH  22  25
ATOM     25  C   UNL     1       0.424   1.927   1.404  1.00  0.00     0.046 A 
ATOM     26  C   UNL     1       1.066   2.877   2.219  1.00  0.00     0.026 A 
ATOM     27  C   UNL     1      -0.642   2.308   0.576  1.00  0.00     0.036 A 
ATOM     28  C   UNL     1       0.608   4.190   2.263  1.00  0.00     0.003 A 
ATOM     29  C   UNL     1      -1.088   3.640   0.613  1.00  0.00    -0.001 A 
ATOM     30  C   UNL     1      -0.475   4.568   1.470  1.00  0.00     0.010 A 
BRANCH  29  31
ATOM     31  C   UNL     1      -2.267   4.126  -0.170  1.00  0.00     0.072 C 
ATOM     32  O   UNL     1      -2.721   5.224  -0.144  1.00  0.00    -0.545 OA
ATOM     33  O   UNL     1      -2.787   3.149  -0.950  1.00  0.00    -0.545 OA
ENDBRANCH  29  31
ENDBRANCH  22  25
ENDBRANCH   9  18
ENDBRANCH   7   8
ENDBRANCH   6   7
ENDBRANCH   5   6
ENDBRANCH   4   5
ENDBRANCH   3   4
ENDBRANCH   2   3
ENDBRANCH   1   2
BRANCH   1  34
ATOM     34  C   UNL     1      -3.951   1.184   3.811  1.00  0.00     0.188 C 
BRANCH  34  35
ATOM     35  C   UNL     1      -5.186   2.064   4.053  1.00  0.00     0.188 C 
BRANCH  35  36
ATOM     36  O   UNL     1      -6.405   1.449   4.422  1.00  0.00    -0.376 OA
BRANCH  36  37
ATOM     37  C   UNL     1      -6.837   0.355   3.644  1.00  0.00     0.202 C 
BRANCH  37  38
ATOM     38  C   UNL     1      -7.247   0.478   2.130  1.00  0.00     0.261 C 
BRANCH  38  39
ATOM     39  O   UNL     1      -6.710   1.345   1.029  1.00  0.00    -0.460 OA
BRANCH  39  40
ATOM     40  C   UNL     1      -7.190   2.626   0.748  1.00  0.00     0.338 C 
ATOM     41  O   UNL     1      -7.600   3.360   1.635  1.00  0.00    -0.246 OA
BRANCH  40  42
ATOM     42  C   UNL     1      -7.266   3.085  -0.785  1.00  0.00     0.060 A 
ATOM     43  C   UNL     1      -7.098   4.372  -1.404  1.00  0.00     0.016 A 
ATOM     44  C   UNL     1      -7.610   2.193  -1.744  1.00  0.00     0.016 A 
ATOM     45  C   UNL     1      -7.246   4.753  -2.962  1.00  0.00     0.010 A 
ATOM     46  C   UNL     1      -7.694   2.610  -3.172  1.00  0.00     0.010 A 
ATOM     47  C   UNL     1      -7.618   3.871  -4.010  1.00  0.00    -0.014 A 
BRANCH  47  48
ATOM     48  C   UNL     1      -7.164   3.926  -5.848  1.00  0.00     0.031 A 
ATOM     49  C   UNL     1      -5.713   3.562  -5.657  1.00  0.00     0.074 A 
ATOM     50  C   UNL     1      -7.623   3.705  -7.337  1.00  0.00     0.049 A 
ATOM     51  N   UNL     1      -5.580   2.733  -4.639  1.00  0.00    -0.248 NA
ATOM     52  C   UNL     1      -4.794   3.160  -6.711  1.00  0.00     0.031 C 
ATOM     53  C   UNL     1      -9.004   3.691  -7.969  1.00  0.00     0.029 A 
ATOM     54  N   UNL     1      -6.915   3.305  -8.724  1.00  0.00    -0.354 N 
ATOM     55  C   UNL     1      -5.825   1.601  -5.361  1.00  0.00     0.074 A 
ATOM     56  C   UNL     1      -4.788   1.849  -6.401  1.00  0.00     0.031 C 
ATOM     57  C   UNL     1      -9.076   3.264  -9.271  1.00  0.00     0.029 A 
ATOM     58  C   UNL     1      -7.778   2.909  -9.908  1.00  0.00     0.049 A 
ATOM     59  H   UNL     1      -5.934   3.316  -8.804  1.00  0.00     0.167 HD
ATOM     60  C   UNL     1      -7.069   0.989  -5.616  1.00  0.00     0.037 A 
ATOM     61  C   UNL     1      -7.809   2.408 -11.303  1.00  0.00     0.037 A 
ATOM     62  C   UNL     1      -6.836  -0.038  -6.525  1.00  0.00     0.049 A 
ATOM     63  C   UNL     1      -7.809   0.997 -10.784  1.00  0.00     0.074 A 
ATOM     64  C   UNL     1      -5.859  -0.938  -6.850  1.00  0.00     0.029 A 
ATOM     65  N   UNL     1      -7.720  -0.024  -7.520  1.00  0.00    -0.354 N 
ATOM     66  N   UNL     1      -8.877   0.254 -10.712  1.00  0.00    -0.248 NA
ATOM     67  C   UNL     1      -6.495   0.296 -10.696  1.00  0.00     0.031 C 
ATOM     68  C   UNL     1      -6.387  -1.649  -7.944  1.00  0.00     0.029 A 
ATOM     69  C   UNL     1      -7.713  -1.235  -8.121  1.00  0.00     0.049 A 
ATOM     70  H   UNL     1      -8.285   0.741  -7.776  1.00  0.00     0.167 HD
ATOM     71  C   UNL     1      -8.365  -0.955 -10.280  1.00  0.00     0.074 A 
ATOM     72  C   UNL     1      -6.944  -0.958 -10.623  1.00  0.00     0.031 C 
ATOM     73  C   UNL     1      -8.792  -1.353  -9.055  1.00  0.00     0.037 A 
BRANCH  60  74
ATOM     74  C   UNL     1      -8.743   1.111  -5.145  1.00  0.00     0.064 A 
ATOM     75  C   UNL     1      -9.668   2.230  -5.086  1.00  0.00     0.173 A 
ATOM     76  C   UNL     1      -9.325  -0.028  -4.555  1.00  0.00     0.173 A 
ATOM     77  F   UNL     1      -9.441   3.428  -5.601  1.00  0.00    -0.203 F 
ATOM     78  C   UNL     1     -10.865   2.278  -4.352  1.00  0.00     0.198 A 
ATOM     79  C   UNL     1     -10.561   0.007  -3.851  1.00  0.00     0.198 A 
ATOM     80  F   UNL     1      -8.679  -1.198  -4.595  1.00  0.00    -0.203 F 
ATOM     81  F   UNL     1     -11.531   3.442  -4.237  1.00  0.00    -0.200 F 
ATOM     82  C   UNL     1     -11.296   1.169  -3.696  1.00  0.00     0.200 A 
ATOM     83  F   UNL     1     -11.024  -1.112  -3.278  1.00  0.00    -0.200 F 
ATOM     84  F   UNL     1     -12.389   1.224  -2.924  1.00  0.00    -0.200 F 
ENDBRANCH  60  74
BRANCH  61  85
ATOM     85  C   UNL     1      -7.503   1.855 -12.963  1.00  0.00     0.064 A 
ATOM     86  C   UNL     1      -7.770   2.622 -14.122  1.00  0.00     0.173 A 
ATOM     87  C   UNL     1      -7.251   0.484 -13.450  1.00  0.00     0.173 A 
ATOM     88  F   UNL     1      -8.348   3.823 -14.000  1.00  0.00    -0.203 F 
ATOM     89  C   UNL     1      -7.586   2.138 -15.491  1.00  0.00     0.198 A 
ATOM     90  C   UNL     1      -6.899   0.045 -14.748  1.00  0.00     0.198 A 
ATOM     91  F   UNL     1      -7.671  -0.594 -12.789  1.00  0.00    -0.203 F 
ATOM     92  F   UNL     1      -7.981   2.891 -16.530  1.00  0.00    -0.200 F 
ATOM     93  C   UNL     1      -7.073   0.885 -15.793  1.00  0.00     0.200 A 
ATOM     94  F   UNL     1      -6.589  -1.249 -14.958  1.00  0.00    -0.200 F 
ATOM     95  F   UNL     1      -6.898   0.444 -17.050  1.00  0.00    -0.200 F 
ENDBRANCH  61  85
BRANCH  73  96
ATOM     96  C   UNL     1     -10.247  -0.973  -8.813  1.00  0.00     0.064 A 
ATOM     97  C   UNL     1     -11.228  -1.708  -9.478  1.00  0.00     0.173 A 
ATOM     98  C   UNL     1     -10.702   0.197  -8.167  1.00  0.00     0.173 A 
ATOM     99  F   UNL     1     -10.880  -2.810 -10.158  1.00  0.00    -0.203 F 
ATOM    100  C   UNL     1     -12.563  -1.294  -9.501  1.00  0.00     0.198 A 
ATOM    101  C   UNL     1     -12.031   0.605  -8.168  1.00  0.00     0.198 A 
ATOM    102  F   UNL     1      -9.859   1.043  -7.580  1.00  0.00    -0.203 F 
ATOM    103  F   UNL     1     -13.464  -2.009 -10.185  1.00  0.00    -0.200 F 
ATOM    104  C   UNL     1     -12.965  -0.138  -8.848  1.00  0.00     0.200 A 
ATOM    105  F   UNL     1     -12.377   1.741  -7.541  1.00  0.00    -0.200 F 
ATOM    106  F   UNL     1     -14.240   0.269  -8.891  1.00  0.00    -0.200 F 
ENDBRANCH  73  96
ENDBRANCH  47  48
ENDBRANCH  40  42
ENDBRANCH  39  40
ENDBRANCH  38  39
ENDBRANCH  37  38
ENDBRANCH  36  37
ENDBRANCH  35  36
ENDBRANCH  34  35
ENDBRANCH   1  34
TORSDOF 22
