REMARK SMILES COC(=O)c1ccc(NC(=O)[C@@H]2CC=CC[C@@H]2C(=O)OCCOCCOCCOCCOC(=O)c2ccc(-c3c4nc(c(-c5c(F)c(F)c(F)c(F)c5F)c5ccc([nH]5)c(-c5c(F)c(F)c(F)c(F)c5F)c5nc(c(-c6c(F)c(F)c(F)c(F)c6F)c6ccc3[nH]6)C=C5)C=C4)cc2)c(C)c1
REMARK SMILES IDX 25 1 24 2 23 3 22 4 21 5 20 6 18 7 19 8 17 9 12 10 13 11
REMARK SMILES IDX 14 12 16 13 15 14 10 15 9 16 11 18 8 19 5 20 6 21 100 22
REMARK SMILES IDX 7 23 98 24 99 25 3 26 4 27 2 28 1 29 26 30 27 31 28 32 29 33
REMARK SMILES IDX 30 34 31 35 32 36 33 37 34 38 35 39 36 40 97 41 37 42 96 43
REMARK SMILES IDX 38 44 39 45 40 46 90 47 41 48 95 49 89 50 91 51 42 52 94 53
REMARK SMILES IDX 88 54 87 55 43 57 75 58 55 59 74 60 56 61 59 62 73 63 92 64
REMARK SMILES IDX 57 65 58 66 72 68 93 69 60 70 44 71 45 72 53 73 46 74 47 75
REMARK SMILES IDX 51 76 54 77 48 78 49 79 52 80 50 81 76 82 77 83 85 84 78 85
REMARK SMILES IDX 79 86 83 87 86 88 80 89 81 90 84 91 82 92 61 93 62 94 70 95
REMARK SMILES IDX 63 96 64 97 68 98 71 99 65 100 66 101 69 102 67 103
REMARK H PARENT 9 17 91 56 59 67
REMARK Flexibility Score: inf
ROOT
ATOM      1  C   UNL     1       4.278   0.843   6.729  1.00  0.00     0.188 C 
ENDROOT
BRANCH   1   2
ATOM      2  C   UNL     1       4.758   1.995   7.634  1.00  0.00     0.188 C 
BRANCH   2   3
ATOM      3  O   UNL     1       3.911   2.877   8.341  1.00  0.00    -0.376 OA
BRANCH   3   4
ATOM      4  C   UNL     1       3.040   3.706   7.605  1.00  0.00     0.202 C 
BRANCH   4   5
ATOM      5  C   UNL     1       3.560   4.881   6.812  1.00  0.00     0.261 C 
BRANCH   5   6
ATOM      6  O   UNL     1       4.115   4.447   5.590  1.00  0.00    -0.463 OA
BRANCH   6   7
ATOM      7  C   UNL     1       5.435   4.463   5.667  1.00  0.00     0.310 C 
ATOM      8  O   UNL     1       6.032   4.968   6.612  1.00  0.00    -0.252 OA
BRANCH   7   9
ATOM      9  C   UNL     1       6.073   3.603   4.604  1.00  0.00     0.116 C 
ATOM     10  C   UNL     1       7.356   4.322   4.188  1.00  0.00     0.097 C 
ATOM     11  C   UNL     1       6.929   5.554   3.343  1.00  0.00     0.041 C 
ATOM     12  C   UNL     1       5.959   5.192   2.241  1.00  0.00    -0.030 C 
ATOM     13  C   UNL     1       5.251   3.120   3.404  1.00  0.00     0.043 C 
ATOM     14  C   UNL     1       5.213   4.079   2.262  1.00  0.00    -0.030 C 
BRANCH  10  15
ATOM     15  C   UNL     1       8.200   4.690   5.430  1.00  0.00     0.228 C 
ATOM     16  N   UNL     1       8.406   3.782   6.457  1.00  0.00    -0.326 N 
ATOM     17  H   UNL     1       8.672   4.209   7.303  1.00  0.00     0.169 HD
ATOM     18  O   UNL     1       8.600   5.848   5.592  1.00  0.00    -0.274 OA
BRANCH  16  19
ATOM     19  C   UNL     1       8.315   2.375   6.550  1.00  0.00     0.044 A 
ATOM     20  C   UNL     1       8.153  -0.442   6.688  1.00  0.00     0.060 A 
ATOM     21  C   UNL     1       8.174   0.188   5.456  1.00  0.00     0.018 A 
ATOM     22  C   UNL     1       8.165   0.331   7.857  1.00  0.00     0.021 A 
ATOM     23  C   UNL     1       8.321   1.572   5.399  1.00  0.00     0.027 A 
ATOM     24  C   UNL     1       8.223   1.740   7.811  1.00  0.00    -0.027 A 
ATOM     25  C   UNL     1       8.057   2.463   9.127  1.00  0.00     0.046 C 
BRANCH  20  26
ATOM     26  C   UNL     1       8.067  -1.925   6.712  1.00  0.00     0.337 C 
ATOM     27  O   UNL     1       7.678  -2.611   5.802  1.00  0.00    -0.246 OA
BRANCH  26  28
ATOM     28  O   UNL     1       8.454  -2.353   7.940  1.00  0.00    -0.465 OA
ATOM     29  C   UNL     1       7.435  -3.071   8.625  1.00  0.00     0.282 C 
ENDBRANCH  26  28
ENDBRANCH  20  26
ENDBRANCH  16  19
ENDBRANCH  10  15
ENDBRANCH   7   9
ENDBRANCH   6   7
ENDBRANCH   5   6
ENDBRANCH   4   5
ENDBRANCH   3   4
ENDBRANCH   2   3
ENDBRANCH   1   2
BRANCH   1  30
ATOM     30  O   UNL     1       3.159   1.050   5.895  1.00  0.00    -0.377 OA
BRANCH  30  31
ATOM     31  C   UNL     1       1.916   0.477   6.303  1.00  0.00     0.188 C 
BRANCH  31  32
ATOM     32  C   UNL     1       1.825  -0.383   7.557  1.00  0.00     0.188 C 
BRANCH  32  33
ATOM     33  O   UNL     1       2.210   0.416   8.670  1.00  0.00    -0.376 OA
BRANCH  33  34
ATOM     34  C   UNL     1       2.690  -0.300   9.802  1.00  0.00     0.202 C 
BRANCH  34  35
ATOM     35  C   UNL     1       1.657  -1.270  10.389  1.00  0.00     0.261 C 
BRANCH  35  36
ATOM     36  O   UNL     1       0.520  -0.522  10.868  1.00  0.00    -0.460 OA
BRANCH  36  37
ATOM     37  C   UNL     1      -0.588  -0.563  10.075  1.00  0.00     0.338 C 
ATOM     38  O   UNL     1      -1.095  -1.579   9.629  1.00  0.00    -0.246 OA
BRANCH  37  39
ATOM     39  C   UNL     1      -0.912   0.809   9.581  1.00  0.00     0.060 A 
ATOM     40  C   UNL     1      -1.845   1.002   8.549  1.00  0.00     0.016 A 
ATOM     41  C   UNL     1      -0.048   1.841   9.900  1.00  0.00     0.016 A 
ATOM     42  C   UNL     1      -1.769   2.138   7.713  1.00  0.00     0.010 A 
ATOM     43  C   UNL     1       0.075   2.894   9.014  1.00  0.00     0.010 A 
ATOM     44  C   UNL     1      -0.727   3.047   7.869  1.00  0.00    -0.014 A 
BRANCH  44  45
ATOM     45  C   UNL     1      -0.271   4.043   6.846  1.00  0.00     0.031 A 
ATOM     46  C   UNL     1       0.174   5.423   7.317  1.00  0.00     0.074 A 
ATOM     47  C   UNL     1       0.105   3.562   5.620  1.00  0.00     0.049 A 
ATOM     48  N   UNL     1       0.676   6.361   6.578  1.00  0.00    -0.248 NA
ATOM     49  C   UNL     1       0.089   5.872   8.713  1.00  0.00     0.031 C 
ATOM     50  C   UNL     1       1.261   3.965   4.820  1.00  0.00     0.029 A 
ATOM     51  N   UNL     1      -0.379   2.484   4.864  1.00  0.00    -0.354 N 
ATOM     52  C   UNL     1       1.335   7.284   7.404  1.00  0.00     0.074 A 
ATOM     53  C   UNL     1       0.814   6.998   8.714  1.00  0.00     0.031 C 
ATOM     54  C   UNL     1       1.381   3.250   3.697  1.00  0.00     0.029 A 
ATOM     55  C   UNL     1       0.142   2.575   3.546  1.00  0.00     0.049 A 
ATOM     56  H   UNL     1      -0.981   1.778   5.193  1.00  0.00     0.167 HD
ATOM     57  C   UNL     1       2.377   8.042   6.906  1.00  0.00     0.037 A 
ATOM     58  C   UNL     1      -0.679   2.816   2.484  1.00  0.00     0.037 A 
ATOM     59  C   UNL     1       2.555   7.819   5.445  1.00  0.00     0.049 A 
ATOM     60  C   UNL     1      -0.603   4.272   1.992  1.00  0.00     0.074 A 
ATOM     61  C   UNL     1       3.632   7.605   4.598  1.00  0.00     0.029 A 
ATOM     62  N   UNL     1       1.434   7.636   4.636  1.00  0.00    -0.354 N 
ATOM     63  N   UNL     1       0.153   5.194   2.553  1.00  0.00    -0.248 NA
ATOM     64  C   UNL     1      -1.331   4.827   0.856  1.00  0.00     0.031 C 
ATOM     65  C   UNL     1       3.138   7.350   3.284  1.00  0.00     0.029 A 
ATOM     66  C   UNL     1       1.758   7.413   3.320  1.00  0.00     0.049 A 
ATOM     67  H   UNL     1       0.509   7.664   4.972  1.00  0.00     0.167 HD
ATOM     68  C   UNL     1       0.021   6.407   1.929  1.00  0.00     0.074 A 
ATOM     69  C   UNL     1      -0.965   6.126   0.894  1.00  0.00     0.031 C 
ATOM     70  C   UNL     1       0.718   7.533   2.307  1.00  0.00     0.037 A 
BRANCH  57  71
ATOM     71  C   UNL     1       3.437   8.861   7.714  1.00  0.00     0.064 A 
ATOM     72  C   UNL     1       4.410   9.653   7.042  1.00  0.00     0.173 A 
ATOM     73  C   UNL     1       3.621   8.854   9.117  1.00  0.00     0.173 A 
ATOM     74  F   UNL     1       4.333   9.880   5.724  1.00  0.00    -0.203 F 
ATOM     75  C   UNL     1       5.494  10.280   7.687  1.00  0.00     0.198 A 
ATOM     76  C   UNL     1       4.669   9.538   9.770  1.00  0.00     0.198 A 
ATOM     77  F   UNL     1       2.817   8.175   9.936  1.00  0.00    -0.203 F 
ATOM     78  F   UNL     1       6.407  10.948   6.965  1.00  0.00    -0.200 F 
ATOM     79  C   UNL     1       5.622  10.226   9.055  1.00  0.00     0.200 A 
ATOM     80  F   UNL     1       4.746   9.511  11.110  1.00  0.00    -0.200 F 
ATOM     81  F   UNL     1       6.636  10.845   9.678  1.00  0.00    -0.200 F 
ENDBRANCH  57  71
BRANCH  58  82
ATOM     82  C   UNL     1      -1.732   1.738   2.503  1.00  0.00     0.064 A 
ATOM     83  C   UNL     1      -1.157   0.437   2.387  1.00  0.00     0.173 A 
ATOM     84  C   UNL     1      -2.791   1.873   3.417  1.00  0.00     0.173 A 
ATOM     85  F   UNL     1      -0.146   0.237   1.523  1.00  0.00    -0.203 F 
ATOM     86  C   UNL     1      -1.365  -0.532   3.373  1.00  0.00     0.198 A 
ATOM     87  C   UNL     1      -3.032   0.871   4.372  1.00  0.00     0.198 A 
ATOM     88  F   UNL     1      -3.383   3.065   3.578  1.00  0.00    -0.203 F 
ATOM     89  F   UNL     1      -0.569  -1.612   3.431  1.00  0.00    -0.200 F 
ATOM     90  C   UNL     1      -2.264  -0.288   4.396  1.00  0.00     0.200 A 
ATOM     91  F   UNL     1      -3.882   1.105   5.383  1.00  0.00    -0.200 F 
ATOM     92  F   UNL     1      -2.308  -1.108   5.458  1.00  0.00    -0.200 F 
ENDBRANCH  58  82
BRANCH  70  93
ATOM     93  C   UNL     1       0.471   8.946   1.808  1.00  0.00     0.064 A 
ATOM     94  C   UNL     1       0.059   9.254   0.512  1.00  0.00     0.173 A 
ATOM     95  C   UNL     1       0.676  10.074   2.656  1.00  0.00     0.173 A 
ATOM     96  F   UNL     1       0.064   8.324  -0.452  1.00  0.00    -0.203 F 
ATOM     97  C   UNL     1      -0.323  10.550   0.153  1.00  0.00     0.198 A 
ATOM     98  C   UNL     1       0.359  11.373   2.276  1.00  0.00     0.198 A 
ATOM     99  F   UNL     1       1.178   9.969   3.892  1.00  0.00    -0.203 F 
ATOM    100  F   UNL     1      -0.827  10.773  -1.069  1.00  0.00    -0.200 F 
ATOM    101  C   UNL     1      -0.194  11.604   1.040  1.00  0.00     0.200 A 
ATOM    102  F   UNL     1       0.573  12.387   3.127  1.00  0.00    -0.200 F 
ATOM    103  F   UNL     1      -0.584  12.838   0.699  1.00  0.00    -0.200 F 
ENDBRANCH  70  93
ENDBRANCH  44  45
ENDBRANCH  37  39
ENDBRANCH  36  37
ENDBRANCH  35  36
ENDBRANCH  34  35
ENDBRANCH  33  34
ENDBRANCH  32  33
ENDBRANCH  31  32
ENDBRANCH  30  31
ENDBRANCH   1  30
TORSDOF 24
