REMARK SMILES COc1ccccc1C(=O)N/C(=C/c1ccc2c(c1)OCO2)C(=O)Nc1ccc(C(=O)OCCOCCOCCOCCOC(=O)c2ccc(-c3c4nc(c(-c5c(F)c(F)c(F)c(F)c5F)c5ccc([nH]5)c(-c5c(F)c(F)c(F)c(F)c5F)c5nc(c(-c6c(F)c(F)c(F)c(F)c6F)c6ccc3[nH]6)C=C5)C=C4)cc2)cc1
REMARK SMILES IDX 36 1 35 2 34 3 33 4 32 5 30 6 31 7 29 8 26 9 27 10 111 11
REMARK SMILES IDX 28 12 110 13 25 14 23 15 24 16 12 18 13 19 11 20 9 21 10 22
REMARK SMILES IDX 8 24 3 25 4 26 5 27 7 28 6 29 2 30 1 31 14 32 15 33 19 34
REMARK SMILES IDX 16 35 18 36 17 37 20 38 22 39 21 40 37 41 38 42 39 43 40 44
REMARK SMILES IDX 41 45 42 46 43 47 44 48 45 49 46 50 47 51 48 52 109 53 49 54
REMARK SMILES IDX 108 55 50 56 51 57 52 58 102 59 53 60 107 61 101 62 103 63
REMARK SMILES IDX 54 64 106 65 100 66 99 67 55 69 87 70 67 71 86 72 68 73
REMARK SMILES IDX 71 74 85 75 104 76 69 77 70 78 84 80 105 81 72 82 56 83
REMARK SMILES IDX 57 84 65 85 58 86 59 87 63 88 66 89 60 90 61 91 64 92 62 93
REMARK SMILES IDX 88 94 89 95 97 96 90 97 91 98 95 99 98 100 92 101 93 102
REMARK SMILES IDX 96 103 94 104 73 105 74 106 82 107 75 108 76 109 80 110
REMARK SMILES IDX 83 111 77 112 78 113 81 114 79 115
REMARK H PARENT 25 17 11 23 103 68 71 79
REMARK Flexibility Score: inf
ROOT
ATOM      1  C   UNL     1      -5.140   1.933   5.160  1.00  0.00     0.188 C 
ENDROOT
BRANCH   1   2
ATOM      2  O   UNL     1      -5.181   2.559   6.429  1.00  0.00    -0.376 OA
BRANCH   2   3
ATOM      3  C   UNL     1      -4.060   2.815   7.269  1.00  0.00     0.202 C 
BRANCH   3   4
ATOM      4  C   UNL     1      -2.574   2.583   6.934  1.00  0.00     0.261 C 
BRANCH   4   5
ATOM      5  O   UNL     1      -2.309   1.909   5.719  1.00  0.00    -0.460 OA
BRANCH   5   6
ATOM      6  C   UNL     1      -2.527   0.579   5.761  1.00  0.00     0.338 C 
ATOM      7  O   UNL     1      -2.693  -0.125   6.739  1.00  0.00    -0.246 OA
BRANCH   6   8
ATOM      8  C   UNL     1      -2.703   0.132   4.362  1.00  0.00     0.060 A 
ATOM      9  C   UNL     1      -1.442  -0.843   1.070  1.00  0.00     0.041 A 
ATOM     10  C   UNL     1      -1.654  -2.021   2.229  1.00  0.00     0.027 A 
ATOM     11  C   UNL     1      -1.940   0.704   1.419  1.00  0.00     0.027 A 
ATOM     12  C   UNL     1      -2.374  -1.539   4.106  1.00  0.00     0.018 A 
ATOM     13  C   UNL     1      -2.521   1.186   2.987  1.00  0.00     0.018 A 
BRANCH   9  14
ATOM     14  N   UNL     1      -0.470  -1.129   0.087  1.00  0.00    -0.321 N 
ATOM     15  C   UNL     1       0.589  -2.019   0.284  1.00  0.00     0.272 C 
ATOM     16  O   UNL     1       0.490  -3.200  -0.054  1.00  0.00    -0.267 OA
ATOM     17  H   UNL     1      -0.542  -0.677  -0.785  1.00  0.00     0.170 HD
BRANCH  15  18
ATOM     18  C   UNL     1       1.966  -1.475   0.694  1.00  0.00     0.108 C 
ATOM     19  C   UNL     1       2.385  -1.341   1.980  1.00  0.00     0.040 C 
BRANCH  18  20
ATOM     20  N   UNL     1       2.963  -1.189  -0.228  1.00  0.00    -0.317 N 
ATOM     21  C   UNL     1       3.168  -1.245  -1.579  1.00  0.00     0.259 C 
ATOM     22  O   UNL     1       4.306  -0.982  -1.978  1.00  0.00    -0.269 OA
ATOM     23  H   UNL     1       3.763  -0.841   0.228  1.00  0.00     0.170 HD
BRANCH  21  24
ATOM     24  C   UNL     1       2.166  -1.660  -2.564  1.00  0.00     0.082 A 
ATOM     25  C   UNL     1       0.858  -1.198  -2.656  1.00  0.00     0.131 A 
ATOM     26  C   UNL     1      -0.054  -1.977  -3.385  1.00  0.00     0.047 A 
ATOM     27  C   UNL     1       0.369  -3.040  -4.184  1.00  0.00     0.004 A 
ATOM     28  C   UNL     1       2.617  -2.639  -3.472  1.00  0.00     0.018 A 
ATOM     29  C   UNL     1       1.723  -3.310  -4.300  1.00  0.00     0.001 A 
BRANCH  25  30
ATOM     30  O   UNL     1       0.277  -0.082  -2.130  1.00  0.00    -0.496 OA
ATOM     31  C   UNL     1       1.039   0.976  -1.559  1.00  0.00     0.278 C 
ENDBRANCH  25  30
ENDBRANCH  21  24
ENDBRANCH  18  20
BRANCH  19  32
ATOM     32  C   UNL     1       1.546  -1.348   3.184  1.00  0.00    -0.019 A 
ATOM     33  C   UNL     1       1.194   0.067   3.388  1.00  0.00     0.012 A 
ATOM     34  C   UNL     1       0.843  -2.547   3.564  1.00  0.00     0.058 A 
ATOM     35  C   UNL     1      -0.103   0.486   3.336  1.00  0.00     0.051 A 
ATOM     36  C   UNL     1      -0.441  -2.244   3.848  1.00  0.00     0.166 A 
ATOM     37  C   UNL     1      -0.930  -0.625   3.321  1.00  0.00     0.165 A 
ATOM     38  O   UNL     1      -1.790  -3.441   3.634  1.00  0.00    -0.454 OA
ATOM     39  O   UNL     1      -2.818  -0.799   2.608  1.00  0.00    -0.454 OA
ATOM     40  C   UNL     1      -3.352  -2.654   2.870  1.00  0.00     0.468 C 
ENDBRANCH  19  32
ENDBRANCH  15  18
ENDBRANCH   9  14
ENDBRANCH   6   8
ENDBRANCH   5   6
ENDBRANCH   4   5
ENDBRANCH   3   4
ENDBRANCH   2   3
ENDBRANCH   1   2
BRANCH   1  41
ATOM     41  C   UNL     1      -4.867   2.754   3.890  1.00  0.00     0.188 C 
BRANCH  41  42
ATOM     42  O   UNL     1      -4.013   3.851   4.063  1.00  0.00    -0.377 OA
BRANCH  42  43
ATOM     43  C   UNL     1      -4.610   4.877   4.841  1.00  0.00     0.188 C 
BRANCH  43  44
ATOM     44  C   UNL     1      -6.121   4.839   5.315  1.00  0.00     0.188 C 
BRANCH  44  45
ATOM     45  O   UNL     1      -7.049   3.806   5.020  1.00  0.00    -0.376 OA
BRANCH  45  46
ATOM     46  C   UNL     1      -7.770   3.631   3.807  1.00  0.00     0.202 C 
BRANCH  46  47
ATOM     47  C   UNL     1      -7.534   4.447   2.514  1.00  0.00     0.261 C 
BRANCH  47  48
ATOM     48  O   UNL     1      -6.616   5.545   2.587  1.00  0.00    -0.460 OA
BRANCH  48  49
ATOM     49  C   UNL     1      -7.135   6.687   3.102  1.00  0.00     0.338 C 
ATOM     50  O   UNL     1      -8.278   6.851   3.489  1.00  0.00    -0.246 OA
BRANCH  49  51
ATOM     51  C   UNL     1      -6.042   7.659   3.349  1.00  0.00     0.060 A 
ATOM     52  C   UNL     1      -5.738   8.043   4.670  1.00  0.00     0.016 A 
ATOM     53  C   UNL     1      -5.338   8.213   2.285  1.00  0.00     0.016 A 
ATOM     54  C   UNL     1      -4.742   8.974   4.933  1.00  0.00     0.010 A 
ATOM     55  C   UNL     1      -4.393   9.210   2.545  1.00  0.00     0.010 A 
ATOM     56  C   UNL     1      -4.118   9.617   3.865  1.00  0.00    -0.014 A 
BRANCH  56  57
ATOM     57  C   UNL     1      -3.358  10.860   4.125  1.00  0.00     0.031 A 
ATOM     58  C   UNL     1      -4.025  12.174   3.830  1.00  0.00     0.074 A 
ATOM     59  C   UNL     1      -2.122  10.828   4.649  1.00  0.00     0.049 A 
ATOM     60  N   UNL     1      -3.538  13.386   3.896  1.00  0.00    -0.248 NA
ATOM     61  C   UNL     1      -5.430  12.112   3.392  1.00  0.00     0.031 C 
ATOM     62  C   UNL     1      -1.403   9.620   5.044  1.00  0.00     0.029 A 
ATOM     63  N   UNL     1      -1.249  11.849   4.925  1.00  0.00    -0.354 N 
ATOM     64  C   UNL     1      -4.566  14.225   3.490  1.00  0.00     0.074 A 
ATOM     65  C   UNL     1      -5.691  13.385   3.142  1.00  0.00     0.031 C 
ATOM     66  C   UNL     1      -0.187   9.969   5.497  1.00  0.00     0.029 A 
ATOM     67  C   UNL     1      -0.028  11.417   5.380  1.00  0.00     0.049 A 
ATOM     68  H   UNL     1      -1.476  12.800   4.809  1.00  0.00     0.167 HD
ATOM     69  C   UNL     1      -4.572  15.577   3.421  1.00  0.00     0.037 A 
ATOM     70  C   UNL     1       1.098  12.111   5.636  1.00  0.00     0.037 A 
ATOM     71  C   UNL     1      -3.443  16.404   3.759  1.00  0.00     0.049 A 
ATOM     72  C   UNL     1       1.100  13.608   5.444  1.00  0.00     0.074 A 
ATOM     73  C   UNL     1      -3.350  17.784   3.732  1.00  0.00     0.029 A 
ATOM     74  N   UNL     1      -2.207  15.928   4.171  1.00  0.00    -0.354 N 
ATOM     75  N   UNL     1       0.122  14.401   5.077  1.00  0.00    -0.248 NA
ATOM     76  C   UNL     1       2.365  14.308   5.709  1.00  0.00     0.031 C 
ATOM     77  C   UNL     1      -2.034  18.139   4.037  1.00  0.00     0.029 A 
ATOM     78  C   UNL     1      -1.333  16.987   4.358  1.00  0.00     0.049 A 
ATOM     79  H   UNL     1      -1.983  14.979   4.309  1.00  0.00     0.167 HD
ATOM     80  C   UNL     1       0.640  15.691   5.109  1.00  0.00     0.074 A 
ATOM     81  C   UNL     1       2.014  15.575   5.548  1.00  0.00     0.031 C 
ATOM     82  C   UNL     1       0.032  16.864   4.805  1.00  0.00     0.037 A 
BRANCH  69  83
ATOM     83  C   UNL     1      -5.821  16.246   2.923  1.00  0.00     0.064 A 
ATOM     84  C   UNL     1      -7.022  16.214   3.649  1.00  0.00     0.173 A 
ATOM     85  C   UNL     1      -5.806  16.963   1.716  1.00  0.00     0.173 A 
ATOM     86  F   UNL     1      -7.095  15.539   4.806  1.00  0.00    -0.203 F 
ATOM     87  C   UNL     1      -8.169  16.839   3.165  1.00  0.00     0.198 A 
ATOM     88  C   UNL     1      -6.942  17.625   1.259  1.00  0.00     0.198 A 
ATOM     89  F   UNL     1      -4.684  17.036   0.985  1.00  0.00    -0.203 F 
ATOM     90  F   UNL     1      -9.320  16.739   3.844  1.00  0.00    -0.200 F 
ATOM     91  C   UNL     1      -8.125  17.552   1.977  1.00  0.00     0.200 A 
ATOM     92  F   UNL     1      -6.889  18.335   0.123  1.00  0.00    -0.200 F 
ATOM     93  F   UNL     1      -9.226  18.163   1.519  1.00  0.00    -0.200 F 
ENDBRANCH  69  83
BRANCH  70  94
ATOM     94  C   UNL     1       2.331  11.405   6.079  1.00  0.00     0.064 A 
ATOM     95  C   UNL     1       2.896  11.660   7.337  1.00  0.00     0.173 A 
ATOM     96  C   UNL     1       2.996  10.499   5.240  1.00  0.00     0.173 A 
ATOM     97  F   UNL     1       2.312  12.533   8.170  1.00  0.00    -0.203 F 
ATOM     98  C   UNL     1       4.098  11.067   7.721  1.00  0.00     0.198 A 
ATOM     99  C   UNL     1       4.172   9.872   5.643  1.00  0.00     0.198 A 
ATOM    100  F   UNL     1       2.501  10.216   4.026  1.00  0.00    -0.203 F 
ATOM    101  F   UNL     1       4.654  11.389   8.896  1.00  0.00    -0.200 F 
ATOM    102  C   UNL     1       4.731  10.169   6.876  1.00  0.00     0.200 A 
ATOM    103  F   UNL     1       4.769   8.988   4.832  1.00  0.00    -0.200 F 
ATOM    104  F   UNL     1       5.886   9.599   7.245  1.00  0.00    -0.200 F 
ENDBRANCH  70  94
BRANCH  82 105
ATOM    105  C   UNL     1       0.822  18.131   4.995  1.00  0.00     0.064 A 
ATOM    106  C   UNL     1       1.941  18.440   4.207  1.00  0.00     0.173 A 
ATOM    107  C   UNL     1       0.426  19.071   5.961  1.00  0.00     0.173 A 
ATOM    108  F   UNL     1       2.368  17.578   3.271  1.00  0.00    -0.203 F 
ATOM    109  C   UNL     1       2.658  19.617   4.410  1.00  0.00     0.198 A 
ATOM    110  C   UNL     1       1.115  20.269   6.126  1.00  0.00     0.198 A 
ATOM    111  F   UNL     1      -0.644  18.837   6.735  1.00  0.00    -0.203 F 
ATOM    112  F   UNL     1       3.766  19.855   3.694  1.00  0.00    -0.200 F 
ATOM    113  C   UNL     1       2.239  20.534   5.361  1.00  0.00     0.200 A 
ATOM    114  F   UNL     1       0.689  21.166   7.027  1.00  0.00    -0.200 F 
ATOM    115  F   UNL     1       2.924  21.671   5.547  1.00  0.00    -0.200 F 
ENDBRANCH  82 105
ENDBRANCH  56  57
ENDBRANCH  49  51
ENDBRANCH  48  49
ENDBRANCH  47  48
ENDBRANCH  46  47
ENDBRANCH  45  46
ENDBRANCH  44  45
ENDBRANCH  43  44
ENDBRANCH  42  43
ENDBRANCH  41  42
ENDBRANCH   1  41
TORSDOF 26
