REMARK SMILES CC[NH2+]C[C@@H](C)C(=O)N1CCO[C@@H](CC(=O)OCCOCCOCCOCCOC(=O)c2ccc(-c3c4nc(c(-c5c(F)c(F)c(F)c(F)c5F)c5ccc([nH]5)c(-c5c(F)c(F)c(F)c(F)c5F)c5nc(c(-c6c(F)c(F)c(F)c(F)c6F)c6ccc3[nH]6)C=C5)C=C4)cc2)C1
REMARK SMILES IDX 21 1 20 2 19 3 18 4 17 5 15 6 16 7 14 8 13 9 9 10 10 11
REMARK SMILES IDX 95 12 11 13 12 14 7 15 8 16 5 17 6 18 4 19 3 20 2 23 1 24
REMARK SMILES IDX 22 25 23 26 24 27 25 28 26 29 27 30 28 31 29 32 30 33 31 34
REMARK SMILES IDX 32 35 33 36 94 37 34 38 93 39 35 40 36 41 37 42 87 43 38 44
REMARK SMILES IDX 92 45 86 46 88 47 39 48 91 49 85 50 84 51 40 53 72 54 52 55
REMARK SMILES IDX 71 56 53 57 56 58 70 59 89 60 54 61 55 62 69 64 90 65 57 66
REMARK SMILES IDX 41 67 42 68 50 69 43 70 44 71 48 72 51 73 45 74 46 75 49 76
REMARK SMILES IDX 47 77 73 78 74 79 82 80 75 81 76 82 80 83 83 84 77 85 78 86
REMARK SMILES IDX 81 87 79 88 58 89 59 90 67 91 60 92 61 93 65 94 68 95 62 96
REMARK SMILES IDX 63 97 66 98 64 99
REMARK H PARENT 3 21 3 22 88 52 56 63
REMARK Flexibility Score: inf
ROOT
ATOM      1  C   UNL     1       5.084   7.732  -5.537  1.00  0.00     0.188 C 
ENDROOT
BRANCH   1   2
ATOM      2  O   UNL     1       4.798   9.015  -5.018  1.00  0.00    -0.376 OA
BRANCH   2   3
ATOM      3  C   UNL     1       3.494   9.574  -5.102  1.00  0.00     0.202 C 
BRANCH   3   4
ATOM      4  C   UNL     1       2.477   9.239  -6.206  1.00  0.00     0.261 C 
BRANCH   4   5
ATOM      5  O   UNL     1       2.296   7.850  -6.529  1.00  0.00    -0.463 OA
BRANCH   5   6
ATOM      6  C   UNL     1       2.602   7.505  -7.796  1.00  0.00     0.308 C 
ATOM      7  O   UNL     1       3.029   8.291  -8.639  1.00  0.00    -0.252 OA
BRANCH   6   8
ATOM      8  C   UNL     1       2.393   6.057  -8.148  1.00  0.00     0.156 C 
BRANCH   8   9
ATOM      9  C   UNL     1       2.074   4.977  -7.123  1.00  0.00     0.148 C 
ATOM     10  N   UNL     1       0.563   3.884  -5.518  1.00  0.00    -0.337 N 
ATOM     11  C   UNL     1       0.603   2.669  -6.324  1.00  0.00     0.148 C 
ATOM     12  C   UNL     1       0.749   5.108  -6.334  1.00  0.00     0.152 C 
ATOM     13  C   UNL     1       1.917   2.584  -7.087  1.00  0.00     0.182 C 
ATOM     14  O   UNL     1       2.076   3.745  -7.908  1.00  0.00    -0.374 OA
BRANCH  10  15
ATOM     15  C   UNL     1       0.372   3.989  -4.154  1.00  0.00     0.231 C 
ATOM     16  O   UNL     1      -0.121   5.016  -3.671  1.00  0.00    -0.274 OA
BRANCH  15  17
ATOM     17  C   UNL     1       0.952   2.940  -3.176  1.00  0.00     0.130 C 
ATOM     18  C   UNL     1       2.476   2.945  -3.276  1.00  0.00     0.024 C 
BRANCH  17  19
ATOM     19  C   UNL     1       0.360   1.523  -3.180  1.00  0.00     0.273 C 
BRANCH  19  20
ATOM     20  N   UNL     1       0.864   0.603  -2.149  1.00  0.00    -0.346 N 
ATOM     21  H   UNL     1       0.534  -0.336  -2.372  1.00  0.00     0.346 HD
ATOM     22  H   UNL     1       1.881   0.681  -2.161  1.00  0.00     0.346 HD
BRANCH  20  23
ATOM     23  C   UNL     1       0.438   0.925  -0.794  1.00  0.00     0.257 C 
ATOM     24  C   UNL     1       0.985  -0.125   0.164  1.00  0.00     0.071 C 
ENDBRANCH  20  23
ENDBRANCH  19  20
ENDBRANCH  17  19
ENDBRANCH  15  17
ENDBRANCH  10  15
ENDBRANCH   8   9
ENDBRANCH   6   8
ENDBRANCH   5   6
ENDBRANCH   4   5
ENDBRANCH   3   4
ENDBRANCH   2   3
ENDBRANCH   1   2
BRANCH   1  25
ATOM     25  C   UNL     1       4.465   6.492  -4.882  1.00  0.00     0.188 C 
BRANCH  25  26
ATOM     26  O   UNL     1       3.158   6.659  -4.374  1.00  0.00    -0.377 OA
BRANCH  26  27
ATOM     27  C   UNL     1       2.986   7.083  -3.023  1.00  0.00     0.188 C 
BRANCH  27  28
ATOM     28  C   UNL     1       4.163   7.692  -2.229  1.00  0.00     0.188 C 
BRANCH  28  29
ATOM     29  O   UNL     1       5.405   7.035  -2.417  1.00  0.00    -0.376 OA
BRANCH  29  30
ATOM     30  C   UNL     1       5.826   6.077  -1.459  1.00  0.00     0.202 C 
BRANCH  30  31
ATOM     31  C   UNL     1       4.945   4.836  -1.257  1.00  0.00     0.261 C 
BRANCH  31  32
ATOM     32  O   UNL     1       3.589   5.079  -0.846  1.00  0.00    -0.460 OA
BRANCH  32  33
ATOM     33  C   UNL     1       3.397   5.723   0.321  1.00  0.00     0.338 C 
ATOM     34  O   UNL     1       4.255   6.065   1.122  1.00  0.00    -0.246 OA
BRANCH  33  35
ATOM     35  C   UNL     1       1.978   6.126   0.406  1.00  0.00     0.060 A 
ATOM     36  C   UNL     1       1.668   7.484   0.549  1.00  0.00     0.016 A 
ATOM     37  C   UNL     1       0.959   5.171   0.375  1.00  0.00     0.016 A 
ATOM     38  C   UNL     1       0.342   7.885   0.714  1.00  0.00     0.010 A 
ATOM     39  C   UNL     1      -0.369   5.572   0.550  1.00  0.00     0.010 A 
ATOM     40  C   UNL     1      -0.680   6.926   0.766  1.00  0.00    -0.014 A 
BRANCH  40  41
ATOM     41  C   UNL     1      -2.026   7.321   1.256  1.00  0.00     0.031 A 
ATOM     42  C   UNL     1      -2.374   7.049   2.694  1.00  0.00     0.074 A 
ATOM     43  C   UNL     1      -2.908   7.951   0.462  1.00  0.00     0.049 A 
ATOM     44  N   UNL     1      -3.479   7.299   3.351  1.00  0.00    -0.248 NA
ATOM     45  C   UNL     1      -1.329   6.402   3.502  1.00  0.00     0.031 C 
ATOM     46  C   UNL     1      -2.680   8.311  -0.934  1.00  0.00     0.029 A 
ATOM     47  N   UNL     1      -4.179   8.400   0.727  1.00  0.00    -0.354 N 
ATOM     48  C   UNL     1      -3.264   6.834   4.642  1.00  0.00     0.074 A 
ATOM     49  C   UNL     1      -1.941   6.250   4.666  1.00  0.00     0.031 C 
ATOM     50  C   UNL     1      -3.776   8.933  -1.405  1.00  0.00     0.029 A 
ATOM     51  C   UNL     1      -4.793   8.980  -0.355  1.00  0.00     0.049 A 
ATOM     52  H   UNL     1      -4.609   8.314   1.608  1.00  0.00     0.167 HD
ATOM     53  C   UNL     1      -4.088   6.899   5.715  1.00  0.00     0.037 A 
ATOM     54  C   UNL     1      -6.040   9.475  -0.485  1.00  0.00     0.037 A 
ATOM     55  C   UNL     1      -5.409   7.472   5.688  1.00  0.00     0.049 A 
ATOM     56  C   UNL     1      -6.976   9.453   0.698  1.00  0.00     0.074 A 
ATOM     57  C   UNL     1      -6.315   7.602   6.726  1.00  0.00     0.029 A 
ATOM     58  N   UNL     1      -6.018   7.998   4.558  1.00  0.00    -0.354 N 
ATOM     59  N   UNL     1      -6.759   9.040   1.923  1.00  0.00    -0.248 NA
ATOM     60  C   UNL     1      -8.335   9.970   0.476  1.00  0.00     0.031 C 
ATOM     61  C   UNL     1      -7.498   8.140   6.208  1.00  0.00     0.029 A 
ATOM     62  C   UNL     1      -7.304   8.418   4.864  1.00  0.00     0.049 A 
ATOM     63  H   UNL     1      -5.599   8.063   3.669  1.00  0.00     0.167 HD
ATOM     64  C   UNL     1      -7.936   9.276   2.624  1.00  0.00     0.074 A 
ATOM     65  C   UNL     1      -8.862   9.880   1.689  1.00  0.00     0.031 C 
ATOM     66  C   UNL     1      -8.220   9.019   3.926  1.00  0.00     0.037 A 
BRANCH  53  67
ATOM     67  C   UNL     1      -3.595   6.287   6.997  1.00  0.00     0.064 A 
ATOM     68  C   UNL     1      -2.517   6.830   7.715  1.00  0.00     0.173 A 
ATOM     69  C   UNL     1      -4.205   5.133   7.512  1.00  0.00     0.173 A 
ATOM     70  F   UNL     1      -1.887   7.926   7.263  1.00  0.00    -0.203 F 
ATOM     71  C   UNL     1      -2.039   6.214   8.869  1.00  0.00     0.198 A 
ATOM     72  C   UNL     1      -3.750   4.542   8.688  1.00  0.00     0.198 A 
ATOM     73  F   UNL     1      -5.243   4.573   6.872  1.00  0.00    -0.203 F 
ATOM     74  F   UNL     1      -0.962   6.709   9.495  1.00  0.00    -0.200 F 
ATOM     75  C   UNL     1      -2.659   5.074   9.357  1.00  0.00     0.200 A 
ATOM     76  F   UNL     1      -4.360   3.449   9.165  1.00  0.00    -0.200 F 
ATOM     77  F   UNL     1      -2.196   4.479  10.466  1.00  0.00    -0.200 F 
ENDBRANCH  53  67
BRANCH  54  78
ATOM     78  C   UNL     1      -6.478  10.042  -1.788  1.00  0.00     0.064 A 
ATOM     79  C   UNL     1      -6.728  11.414  -1.930  1.00  0.00     0.173 A 
ATOM     80  C   UNL     1      -6.658   9.226  -2.915  1.00  0.00     0.173 A 
ATOM     81  F   UNL     1      -6.600  12.231  -0.874  1.00  0.00    -0.203 F 
ATOM     82  C   UNL     1      -7.148  11.947  -3.147  1.00  0.00     0.198 A 
ATOM     83  C   UNL     1      -7.049   9.765  -4.139  1.00  0.00     0.198 A 
ATOM     84  F   UNL     1      -6.442   7.906  -2.830  1.00  0.00    -0.203 F 
ATOM     85  F   UNL     1      -7.419  13.256  -3.245  1.00  0.00    -0.200 F 
ATOM     86  C   UNL     1      -7.299  11.124  -4.253  1.00  0.00     0.200 A 
ATOM     87  F   UNL     1      -7.184   8.967  -5.207  1.00  0.00    -0.200 F 
ATOM     88  F   UNL     1      -7.693  11.639  -5.426  1.00  0.00    -0.200 F 
ENDBRANCH  54  78
BRANCH  66  89
ATOM     89  C   UNL     1      -9.577   9.427   4.435  1.00  0.00     0.064 A 
ATOM     90  C   UNL     1     -10.750   8.774   4.029  1.00  0.00     0.173 A 
ATOM     91  C   UNL     1      -9.698  10.461   5.377  1.00  0.00     0.173 A 
ATOM     92  F   UNL     1     -10.695   7.786   3.123  1.00  0.00    -0.203 F 
ATOM     93  C   UNL     1     -11.995   9.162   4.522  1.00  0.00     0.198 A 
ATOM     94  C   UNL     1     -10.939  10.822   5.896  1.00  0.00     0.198 A 
ATOM     95  F   UNL     1      -8.609  11.115   5.809  1.00  0.00    -0.203 F 
ATOM     96  F   UNL     1     -13.107   8.560   4.077  1.00  0.00    -0.200 F 
ATOM     97  C   UNL     1     -12.087  10.179   5.460  1.00  0.00     0.200 A 
ATOM     98  F   UNL     1     -11.024  11.792   6.816  1.00  0.00    -0.200 F 
ATOM     99  F   UNL     1     -13.284  10.544   5.940  1.00  0.00    -0.200 F 
ENDBRANCH  66  89
ENDBRANCH  40  41
ENDBRANCH  33  35
ENDBRANCH  32  33
ENDBRANCH  31  32
ENDBRANCH  30  31
ENDBRANCH  29  30
ENDBRANCH  28  29
ENDBRANCH  27  28
ENDBRANCH  26  27
ENDBRANCH  25  26
ENDBRANCH   1  25
TORSDOF 26
