REMARK SMILES CN(C)S(=O)(=O)c1ccc(-n2c(CCC(=O)OCCOCCOCCOCCOC(=O)c3ccc(-c4c5nc(c(-c6c(F)c(F)c(F)c(F)c6F)c6ccc([nH]6)c(-c6c(F)c(F)c(F)c(F)c6F)c6nc(c(-c7c(F)c(F)c(F)c(F)c7F)c7ccc4[nH]7)C=C6)C=C5)cc3)ccc2-c2ccc(F)cc2)cc1
REMARK SMILES IDX 21 1 20 2 19 3 18 4 17 5 15 6 16 7 14 8 13 9 12 10 11 11
REMARK SMILES IDX 97 12 95 13 96 14 10 15 7 16 8 17 106 18 9 19 105 20 4 21
REMARK SMILES IDX 5 22 6 23 2 24 1 25 3 26 98 27 99 28 104 29 100 30 103 31
REMARK SMILES IDX 101 32 102 33 22 34 23 35 24 36 25 37 26 38 27 39 28 40
REMARK SMILES IDX 29 41 30 42 31 43 32 44 33 45 94 46 34 47 93 48 35 49 36 50
REMARK SMILES IDX 37 51 87 52 38 53 92 54 86 55 88 56 39 57 91 58 85 59 84 60
REMARK SMILES IDX 40 62 72 63 52 64 71 65 53 66 56 67 70 68 89 69 54 70 55 71
REMARK SMILES IDX 69 73 90 74 57 75 41 76 42 77 50 78 43 79 44 80 48 81 51 82
REMARK SMILES IDX 45 83 46 84 49 85 47 86 73 87 74 88 82 89 75 90 76 91 80 92
REMARK SMILES IDX 83 93 77 94 78 95 81 96 79 97 58 98 59 99 67 100 60 101
REMARK SMILES IDX 61 102 65 103 68 104 62 105 63 106 66 107 64 108
REMARK H PARENT 88 61 56 72
REMARK Flexibility Score: inf
ROOT
ATOM      1  C   UNL     1       1.956  -2.612   5.207  1.00  0.00     0.188 C 
ENDROOT
BRANCH   1   2
ATOM      2  O   UNL     1       0.456  -2.576   4.819  1.00  0.00    -0.376 OA
BRANCH   2   3
ATOM      3  C   UNL     1      -1.217  -3.593   4.428  1.00  0.00     0.202 C 
BRANCH   3   4
ATOM      4  C   UNL     1      -1.805  -5.115   5.022  1.00  0.00     0.261 C 
BRANCH   4   5
ATOM      5  O   UNL     1      -1.665  -5.433   6.439  1.00  0.00    -0.463 OA
BRANCH   5   6
ATOM      6  C   UNL     1      -0.938  -6.547   6.748  1.00  0.00     0.306 C 
ATOM      7  O   UNL     1      -0.835  -7.515   6.001  1.00  0.00    -0.252 OA
BRANCH   6   8
ATOM      8  C   UNL     1      -0.166  -6.467   8.068  1.00  0.00     0.129 C 
BRANCH   8   9
ATOM      9  C   UNL     1       0.529  -5.165   8.493  1.00  0.00     0.066 C 
BRANCH   9  10
ATOM     10  C   UNL     1      -0.411  -4.045   8.754  1.00  0.00     0.024 A 
ATOM     11  N   UNL     1      -0.904  -3.170   7.792  1.00  0.00    -0.314 N 
ATOM     12  C   UNL     1      -1.943  -2.432   8.408  1.00  0.00     0.053 A 
ATOM     13  C   UNL     1      -0.914  -3.669   9.985  1.00  0.00     0.024 A 
ATOM     14  C   UNL     1      -1.865  -2.663   9.771  1.00  0.00     0.029 A 
BRANCH  11  15
ATOM     15  C   UNL     1      -0.497  -3.073   6.416  1.00  0.00     0.046 A 
ATOM     16  C   UNL     1       0.196  -2.627   2.895  1.00  0.00     0.082 A 
ATOM     17  C   UNL     1      -0.699  -1.386   3.807  1.00  0.00     0.024 A 
ATOM     18  C   UNL     1       0.745  -4.148   3.698  1.00  0.00     0.024 A 
ATOM     19  C   UNL     1      -1.014  -1.580   5.552  1.00  0.00     0.028 A 
ATOM     20  C   UNL     1       0.429  -4.368   5.487  1.00  0.00     0.028 A 
BRANCH  16  21
ATOM     21  S   UNL     1       0.821  -2.236   1.291  1.00  0.00     0.242 S 
ATOM     22  O   UNL     1       0.233  -3.143   0.361  1.00  0.00    -0.207 OA
ATOM     23  O   UNL     1       2.273  -2.131   1.456  1.00  0.00    -0.207 OA
BRANCH  21  24
ATOM     24  N   UNL     1       0.237  -0.650   0.936  1.00  0.00    -0.204 NA
ATOM     25  C   UNL     1       1.036   0.036  -0.115  1.00  0.00     0.124 C 
ATOM     26  C   UNL     1      -1.209  -0.576   0.604  1.00  0.00     0.124 C 
ENDBRANCH  21  24
ENDBRANCH  16  21
ENDBRANCH  11  15
BRANCH  12  27
ATOM     27  C   UNL     1      -2.992  -1.631   7.752  1.00  0.00    -0.001 A 
ATOM     28  C   UNL     1      -3.148  -0.271   8.071  1.00  0.00     0.013 A 
ATOM     29  C   UNL     1      -3.844  -2.204   6.794  1.00  0.00     0.013 A 
ATOM     30  C   UNL     1      -4.081   0.515   7.387  1.00  0.00     0.040 A 
ATOM     31  C   UNL     1      -4.767  -1.414   6.101  1.00  0.00     0.040 A 
ATOM     32  C   UNL     1      -4.869  -0.061   6.397  1.00  0.00     0.123 A 
ATOM     33  F   UNL     1      -5.734   0.701   5.716  1.00  0.00    -0.207 F 
ENDBRANCH  12  27
ENDBRANCH   9  10
ENDBRANCH   8   9
ENDBRANCH   6   8
ENDBRANCH   5   6
ENDBRANCH   4   5
ENDBRANCH   3   4
ENDBRANCH   2   3
ENDBRANCH   1   2
BRANCH   1  34
ATOM     34  C   UNL     1       2.205  -1.629   6.357  1.00  0.00     0.188 C 
BRANCH  34  35
ATOM     35  O   UNL     1       2.052  -0.238   6.089  1.00  0.00    -0.377 OA
BRANCH  35  36
ATOM     36  C   UNL     1       2.007   0.188   4.742  1.00  0.00     0.188 C 
BRANCH  36  37
ATOM     37  C   UNL     1       3.186   1.006   4.208  1.00  0.00     0.188 C 
BRANCH  37  38
ATOM     38  O   UNL     1       4.541   0.699   4.493  1.00  0.00    -0.376 OA
BRANCH  38  39
ATOM     39  C   UNL     1       4.974   0.237   5.761  1.00  0.00     0.202 C 
BRANCH  39  40
ATOM     40  C   UNL     1       4.876   1.127   7.006  1.00  0.00     0.261 C 
BRANCH  40  41
ATOM     41  O   UNL     1       3.543   1.459   7.369  1.00  0.00    -0.460 OA
BRANCH  41  42
ATOM     42  C   UNL     1       3.134   2.593   6.778  1.00  0.00     0.338 C 
ATOM     43  O   UNL     1       3.793   3.356   6.085  1.00  0.00    -0.246 OA
BRANCH  42  44
ATOM     44  C   UNL     1       1.751   2.909   7.158  1.00  0.00     0.060 A 
ATOM     45  C   UNL     1       1.057   3.574   6.133  1.00  0.00     0.016 A 
ATOM     46  C   UNL     1       1.732   3.360   8.476  1.00  0.00     0.016 A 
ATOM     47  C   UNL     1       0.697   4.886   6.340  1.00  0.00     0.010 A 
ATOM     48  C   UNL     1       1.432   4.688   8.673  1.00  0.00     0.010 A 
ATOM     49  C   UNL     1       0.973   5.454   7.585  1.00  0.00    -0.014 A 
BRANCH  49  50
ATOM     50  C   UNL     1       0.536   6.827   7.843  1.00  0.00     0.031 A 
ATOM     51  C   UNL     1      -0.860   6.804   8.483  1.00  0.00     0.074 A 
ATOM     52  C   UNL     1       1.433   7.820   7.552  1.00  0.00     0.049 A 
ATOM     53  N   UNL     1      -1.596   7.785   8.891  1.00  0.00    -0.248 NA
ATOM     54  C   UNL     1      -1.532   5.492   8.752  1.00  0.00     0.031 C 
ATOM     55  C   UNL     1       2.763   7.626   6.922  1.00  0.00     0.029 A 
ATOM     56  N   UNL     1       1.418   9.190   7.727  1.00  0.00    -0.354 N 
ATOM     57  C   UNL     1      -2.625   7.230   9.678  1.00  0.00     0.074 A 
ATOM     58  C   UNL     1      -2.591   5.817   9.489  1.00  0.00     0.031 C 
ATOM     59  C   UNL     1       3.378   8.813   6.706  1.00  0.00     0.029 A 
ATOM     60  C   UNL     1       2.552   9.889   7.222  1.00  0.00     0.049 A 
ATOM     61  H   UNL     1       0.673   9.654   8.173  1.00  0.00     0.167 HD
ATOM     62  C   UNL     1      -3.344   7.976  10.560  1.00  0.00     0.037 A 
ATOM     63  C   UNL     1       2.802  11.237   7.235  1.00  0.00     0.037 A 
ATOM     64  C   UNL     1      -3.033   9.352  10.393  1.00  0.00     0.049 A 
ATOM     65  C   UNL     1       1.827  11.770   8.186  1.00  0.00     0.074 A 
ATOM     66  C   UNL     1      -3.311  10.209   9.361  1.00  0.00     0.029 A 
ATOM     67  N   UNL     1      -2.021   9.868  11.162  1.00  0.00    -0.354 N 
ATOM     68  N   UNL     1       1.940  11.629   9.472  1.00  0.00    -0.248 NA
ATOM     69  C   UNL     1       0.656  12.500   7.696  1.00  0.00     0.031 C 
ATOM     70  C   UNL     1      -2.152  10.997   9.275  1.00  0.00     0.029 A 
ATOM     71  C   UNL     1      -1.325  10.751  10.378  1.00  0.00     0.049 A 
ATOM     72  H   UNL     1      -1.830   9.646  12.102  1.00  0.00     0.167 HD
ATOM     73  C   UNL     1       0.674  11.929   9.899  1.00  0.00     0.074 A 
ATOM     74  C   UNL     1       0.075  12.751   8.868  1.00  0.00     0.031 C 
ATOM     75  C   UNL     1       0.048  11.042  10.713  1.00  0.00     0.037 A 
BRANCH  62  76
ATOM     76  C   UNL     1      -4.175   7.590  11.740  1.00  0.00     0.064 A 
ATOM     77  C   UNL     1      -5.085   8.550  12.242  1.00  0.00     0.173 A 
ATOM     78  C   UNL     1      -3.840   6.533  12.595  1.00  0.00     0.173 A 
ATOM     79  F   UNL     1      -5.496   9.573  11.476  1.00  0.00    -0.203 F 
ATOM     80  C   UNL     1      -5.508   8.536  13.567  1.00  0.00     0.198 A 
ATOM     81  C   UNL     1      -4.309   6.495  13.910  1.00  0.00     0.198 A 
ATOM     82  F   UNL     1      -2.975   5.582  12.217  1.00  0.00    -0.203 F 
ATOM     83  F   UNL     1      -6.243   9.550  14.042  1.00  0.00    -0.200 F 
ATOM     84  C   UNL     1      -5.103   7.518  14.407  1.00  0.00     0.200 A 
ATOM     85  F   UNL     1      -3.920   5.503  14.723  1.00  0.00    -0.200 F 
ATOM     86  F   UNL     1      -5.444   7.540  15.702  1.00  0.00    -0.200 F 
ENDBRANCH  62  76
BRANCH  63  87
ATOM     87  C   UNL     1       3.744  12.282   6.671  1.00  0.00     0.064 A 
ATOM     88  C   UNL     1       4.735  12.065   5.711  1.00  0.00     0.173 A 
ATOM     89  C   UNL     1       3.544  13.662   7.000  1.00  0.00     0.173 A 
ATOM     90  F   UNL     1       5.085  10.823   5.357  1.00  0.00    -0.203 F 
ATOM     91  C   UNL     1       5.389  13.136   5.065  1.00  0.00     0.198 A 
ATOM     92  C   UNL     1       4.142  14.718   6.318  1.00  0.00     0.198 A 
ATOM     93  F   UNL     1       2.729  14.045   7.993  1.00  0.00    -0.203 F 
ATOM     94  F   UNL     1       6.329  12.882   4.143  1.00  0.00    -0.200 F 
ATOM     95  C   UNL     1       5.059  14.456   5.335  1.00  0.00     0.200 A 
ATOM     96  F   UNL     1       3.789  15.980   6.606  1.00  0.00    -0.200 F 
ATOM     97  F   UNL     1       5.619  15.465   4.654  1.00  0.00    -0.200 F 
ENDBRANCH  63  87
BRANCH  75  98
ATOM     98  C   UNL     1       1.009  10.183  11.524  1.00  0.00     0.064 A 
ATOM     99  C   UNL     1       1.960  10.804  12.357  1.00  0.00     0.173 A 
ATOM    100  C   UNL     1       1.139   8.791  11.384  1.00  0.00     0.173 A 
ATOM    101  F   UNL     1       1.891  12.125  12.581  1.00  0.00    -0.203 F 
ATOM    102  C   UNL     1       3.001  10.087  12.956  1.00  0.00     0.198 A 
ATOM    103  C   UNL     1       2.177   8.071  11.985  1.00  0.00     0.198 A 
ATOM    104  F   UNL     1       0.258   8.091  10.672  1.00  0.00    -0.203 F 
ATOM    105  F   UNL     1       3.896  10.725  13.724  1.00  0.00    -0.200 F 
ATOM    106  C   UNL     1       3.115   8.722  12.761  1.00  0.00     0.200 A 
ATOM    107  F   UNL     1       2.258   6.742  11.812  1.00  0.00    -0.200 F 
ATOM    108  F   UNL     1       4.112   8.034  13.338  1.00  0.00    -0.200 F 
ENDBRANCH  75  98
ENDBRANCH  49  50
ENDBRANCH  42  44
ENDBRANCH  41  42
ENDBRANCH  40  41
ENDBRANCH  39  40
ENDBRANCH  38  39
ENDBRANCH  37  38
ENDBRANCH  36  37
ENDBRANCH  35  36
ENDBRANCH  34  35
ENDBRANCH   1  34
TORSDOF 26
