REMARK SMILES CN1C(=O)CC[C@H]([NH2+]Cc2ccc(C(=O)OCCOCCOCCOCCOC(=O)c3ccc(-c4c5nc(c(-c6c(F)c(F)c(F)c(F)c6F)c6ccc([nH]6)c(-c6c(F)c(F)c(F)c(F)c6F)c6nc(c(-c7c(F)c(F)c(F)c(F)c7F)c7ccc4[nH]7)C=C6)C=C5)cc3)cn2)C1=O
REMARK SMILES IDX 21 1 20 2 19 3 18 4 17 5 16 6 14 7 15 8 13 9 10 10 11 11
REMARK SMILES IDX 95 12 12 13 94 14 9 15 8 16 7 19 1 20 2 21 3 22 96 23 4 24
REMARK SMILES IDX 5 25 97 26 6 27 22 28 23 29 24 30 25 31 26 32 27 33 28 34
REMARK SMILES IDX 29 35 30 36 31 37 32 38 93 39 33 40 92 41 34 42 35 43 36 44
REMARK SMILES IDX 86 45 37 46 91 47 85 48 87 49 38 50 90 51 84 52 83 53 39 55
REMARK SMILES IDX 71 56 51 57 70 58 52 59 55 60 69 61 88 62 53 63 54 64 68 66
REMARK SMILES IDX 89 67 56 68 40 69 41 70 49 71 42 72 43 73 47 74 50 75 44 76
REMARK SMILES IDX 45 77 48 78 46 79 72 80 73 81 81 82 74 83 75 84 79 85 82 86
REMARK SMILES IDX 76 87 77 88 80 89 78 90 57 91 58 92 66 93 59 94 60 95 64 96
REMARK SMILES IDX 67 97 61 98 62 99 65 100 63 101
REMARK H PARENT 8 17 8 18 87 54 55 65
REMARK Flexibility Score: inf
ROOT
ATOM      1  C   UNL     1       2.244 -10.132   4.727  1.00  0.00     0.188 C 
ENDROOT
BRANCH   1   2
ATOM      2  C   UNL     1       2.910 -11.233   3.877  1.00  0.00     0.188 C 
BRANCH   2   3
ATOM      3  O   UNL     1       3.561 -12.222   4.656  1.00  0.00    -0.376 OA
BRANCH   3   4
ATOM      4  C   UNL     1       4.972 -12.226   4.757  1.00  0.00     0.202 C 
BRANCH   4   5
ATOM      5  C   UNL     1       5.727 -10.969   5.216  1.00  0.00     0.261 C 
BRANCH   5   6
ATOM      6  O   UNL     1       5.261  -9.716   4.708  1.00  0.00    -0.460 OA
BRANCH   6   7
ATOM      7  C   UNL     1       5.524  -9.431   3.415  1.00  0.00     0.339 C 
ATOM      8  O   UNL     1       6.147 -10.121   2.629  1.00  0.00    -0.246 OA
BRANCH   7   9
ATOM      9  C   UNL     1       4.757  -8.223   3.049  1.00  0.00     0.078 A 
ATOM     10  C   UNL     1       3.262  -6.066   2.223  1.00  0.00     0.094 A 
ATOM     11  C   UNL     1       3.799  -6.071   3.513  1.00  0.00     0.031 A 
ATOM     12  N   UNL     1       3.408  -7.113   1.366  1.00  0.00    -0.254 NA
ATOM     13  C   UNL     1       4.550  -7.166   3.933  1.00  0.00     0.019 A 
ATOM     14  C   UNL     1       4.155  -8.162   1.799  1.00  0.00     0.127 A 
BRANCH  10  15
ATOM     15  C   UNL     1       2.644  -4.787   1.680  1.00  0.00     0.318 C 
BRANCH  15  16
ATOM     16  N   UNL     1       1.302  -4.955   1.108  1.00  0.00    -0.331 N 
ATOM     17  H   UNL     1       1.277  -5.842   0.605  1.00  0.00     0.347 HD
ATOM     18  H   UNL     1       0.644  -4.926   1.888  1.00  0.00     0.347 HD
BRANCH  16  19
ATOM     19  C   UNL     1       0.901  -3.872   0.167  1.00  0.00     0.274 C 
ATOM     20  C   UNL     1       0.913  -0.035   0.340  1.00  0.00     0.156 C 
ATOM     21  N   UNL     1       0.459  -1.399   0.128  1.00  0.00    -0.281 N 
ATOM     22  C   UNL     1      -0.828  -1.555  -0.365  1.00  0.00     0.229 C 
ATOM     23  C   UNL     1       1.267  -2.428   0.609  1.00  0.00     0.287 C 
ATOM     24  O   UNL     1      -1.643  -0.635  -0.428  1.00  0.00    -0.274 OA
ATOM     25  C   UNL     1      -1.168  -2.920  -0.898  1.00  0.00     0.107 C 
ATOM     26  O   UNL     1       2.272  -2.168   1.276  1.00  0.00    -0.267 OA
ATOM     27  C   UNL     1      -0.605  -4.024  -0.031  1.00  0.00     0.085 C 
ENDBRANCH  16  19
ENDBRANCH  15  16
ENDBRANCH  10  15
ENDBRANCH   7   9
ENDBRANCH   6   7
ENDBRANCH   5   6
ENDBRANCH   4   5
ENDBRANCH   3   4
ENDBRANCH   2   3
ENDBRANCH   1   2
BRANCH   1  28
ATOM     28  O   UNL     1       2.644 -10.049   6.087  1.00  0.00    -0.377 OA
BRANCH  28  29
ATOM     29  C   UNL     1       2.424 -11.160   6.957  1.00  0.00     0.188 C 
BRANCH  29  30
ATOM     30  C   UNL     1       1.599 -12.408   6.549  1.00  0.00     0.188 C 
BRANCH  30  31
ATOM     31  O   UNL     1       0.749 -12.224   5.432  1.00  0.00    -0.376 OA
BRANCH  31  32
ATOM     32  C   UNL     1      -0.647 -12.159   5.654  1.00  0.00     0.202 C 
BRANCH  32  33
ATOM     33  C   UNL     1      -1.157 -10.966   6.474  1.00  0.00     0.261 C 
BRANCH  33  34
ATOM     34  O   UNL     1      -0.529 -10.766   7.749  1.00  0.00    -0.460 OA
BRANCH  34  35
ATOM     35  C   UNL     1      -0.743 -11.709   8.696  1.00  0.00     0.338 C 
ATOM     36  O   UNL     1      -1.413 -12.713   8.600  1.00  0.00    -0.246 OA
BRANCH  35  37
ATOM     37  C   UNL     1       0.145 -11.393   9.837  1.00  0.00     0.060 A 
ATOM     38  C   UNL     1       1.125 -12.319  10.216  1.00  0.00     0.016 A 
ATOM     39  C   UNL     1       0.013 -10.181  10.518  1.00  0.00     0.016 A 
ATOM     40  C   UNL     1       1.957 -12.047  11.304  1.00  0.00     0.010 A 
ATOM     41  C   UNL     1       0.831  -9.920  11.619  1.00  0.00     0.010 A 
ATOM     42  C   UNL     1       1.784 -10.867  12.037  1.00  0.00    -0.014 A 
BRANCH  42  43
ATOM     43  C   UNL     1       2.450 -10.709  13.353  1.00  0.00     0.031 A 
ATOM     44  C   UNL     1       1.656 -11.017  14.592  1.00  0.00     0.074 A 
ATOM     45  C   UNL     1       3.731 -10.315  13.451  1.00  0.00     0.049 A 
ATOM     46  N   UNL     1       1.992 -10.895  15.851  1.00  0.00    -0.248 NA
ATOM     47  C   UNL     1       0.293 -11.530  14.380  1.00  0.00     0.031 C 
ATOM     48  C   UNL     1       4.617 -10.030  12.325  1.00  0.00     0.029 A 
ATOM     49  N   UNL     1       4.505 -10.076  14.560  1.00  0.00    -0.354 N 
ATOM     50  C   UNL     1       0.881 -11.307  16.577  1.00  0.00     0.074 A 
ATOM     51  C   UNL     1      -0.149 -11.649  15.621  1.00  0.00     0.031 C 
ATOM     52  C   UNL     1       5.813  -9.640  12.801  1.00  0.00     0.029 A 
ATOM     53  C   UNL     1       5.763  -9.613  14.263  1.00  0.00     0.049 A 
ATOM     54  H   UNL     1       4.189 -10.224  15.480  1.00  0.00     0.167 HD
ATOM     55  C   UNL     1       0.737 -11.399  17.920  1.00  0.00     0.037 A 
ATOM     56  C   UNL     1       6.747  -9.189  15.081  1.00  0.00     0.037 A 
ATOM     57  C   UNL     1       1.764 -11.052  18.867  1.00  0.00     0.049 A 
ATOM     58  C   UNL     1       6.532  -9.220  16.574  1.00  0.00     0.074 A 
ATOM     59  C   UNL     1       1.723 -11.126  20.248  1.00  0.00     0.029 A 
ATOM     60  N   UNL     1       3.013 -10.553  18.529  1.00  0.00    -0.354 N 
ATOM     61  N   UNL     1       5.492  -9.636  17.256  1.00  0.00    -0.248 NA
ATOM     62  C   UNL     1       7.633  -8.723  17.413  1.00  0.00     0.031 C 
ATOM     63  C   UNL     1       2.923 -10.610  20.748  1.00  0.00     0.029 A 
ATOM     64  C   UNL     1       3.740 -10.283  19.678  1.00  0.00     0.049 A 
ATOM     65  H   UNL     1       3.336 -10.412  17.610  1.00  0.00     0.167 HD
ATOM     66  C   UNL     1       5.824  -9.483  18.597  1.00  0.00     0.074 A 
ATOM     67  C   UNL     1       7.170  -8.951  18.634  1.00  0.00     0.031 C 
ATOM     68  C   UNL     1       5.083  -9.760  19.699  1.00  0.00     0.037 A 
BRANCH  55  69
ATOM     69  C   UNL     1      -0.592 -11.860  18.445  1.00  0.00     0.064 A 
ATOM     70  C   UNL     1      -1.038 -13.181  18.278  1.00  0.00     0.173 A 
ATOM     71  C   UNL     1      -1.422 -10.974  19.149  1.00  0.00     0.173 A 
ATOM     72  F   UNL     1      -0.291 -14.065  17.600  1.00  0.00    -0.203 F 
ATOM     73  C   UNL     1      -2.275 -13.587  18.770  1.00  0.00     0.198 A 
ATOM     74  C   UNL     1      -2.643 -11.393  19.669  1.00  0.00     0.198 A 
ATOM     75  F   UNL     1      -1.044  -9.700  19.339  1.00  0.00    -0.203 F 
ATOM     76  F   UNL     1      -2.704 -14.838  18.552  1.00  0.00    -0.200 F 
ATOM     77  C   UNL     1      -3.073 -12.696  19.472  1.00  0.00     0.200 A 
ATOM     78  F   UNL     1      -3.404 -10.534  20.360  1.00  0.00    -0.200 F 
ATOM     79  F   UNL     1      -4.260 -13.091  19.953  1.00  0.00    -0.200 F 
ENDBRANCH  55  69
BRANCH  56  80
ATOM     80  C   UNL     1       8.025  -8.680  14.511  1.00  0.00     0.064 A 
ATOM     81  C   UNL     1       9.233  -9.361  14.717  1.00  0.00     0.173 A 
ATOM     82  C   UNL     1       8.069  -7.484  13.778  1.00  0.00     0.173 A 
ATOM     83  F   UNL     1       9.249 -10.494  15.435  1.00  0.00    -0.203 F 
ATOM     84  C   UNL     1      10.438  -8.855  14.231  1.00  0.00     0.198 A 
ATOM     85  C   UNL     1       9.270  -6.997  13.265  1.00  0.00     0.198 A 
ATOM     86  F   UNL     1       6.944  -6.789  13.556  1.00  0.00    -0.203 F 
ATOM     87  F   UNL     1      11.584  -9.498  14.491  1.00  0.00    -0.200 F 
ATOM     88  C   UNL     1      10.454  -7.677  13.500  1.00  0.00     0.200 A 
ATOM     89  F   UNL     1       9.278  -5.865  12.548  1.00  0.00    -0.200 F 
ATOM     90  F   UNL     1      11.612  -7.192  13.032  1.00  0.00    -0.200 F 
ENDBRANCH  56  80
BRANCH  68  91
ATOM     91  C   UNL     1       5.724  -9.537  21.042  1.00  0.00     0.064 A 
ATOM     92  C   UNL     1       5.997  -8.251  21.529  1.00  0.00     0.173 A 
ATOM     93  C   UNL     1       6.027 -10.629  21.872  1.00  0.00     0.173 A 
ATOM     94  F   UNL     1       5.737  -7.173  20.774  1.00  0.00    -0.203 F 
ATOM     95  C   UNL     1       6.577  -8.067  22.782  1.00  0.00     0.198 A 
ATOM     96  C   UNL     1       6.573 -10.440  23.138  1.00  0.00     0.198 A 
ATOM     97  F   UNL     1       5.778 -11.882  21.460  1.00  0.00    -0.203 F 
ATOM     98  F   UNL     1       6.879  -6.831  23.204  1.00  0.00    -0.200 F 
ATOM     99  C   UNL     1       6.857  -9.160  23.589  1.00  0.00     0.200 A 
ATOM    100  F   UNL     1       6.824 -11.497  23.923  1.00  0.00    -0.200 F 
ATOM    101  F   UNL     1       7.406  -8.981  24.798  1.00  0.00    -0.200 F 
ENDBRANCH  68  91
ENDBRANCH  42  43
ENDBRANCH  35  37
ENDBRANCH  34  35
ENDBRANCH  33  34
ENDBRANCH  32  33
ENDBRANCH  31  32
ENDBRANCH  30  31
ENDBRANCH  29  30
ENDBRANCH  28  29
ENDBRANCH   1  28
TORSDOF 23
