REMARK SMILES C[C@@H](Cc1cccs1)N(C)c1ncc(Br)cc1C(=O)OCCOCCOCCOCCOC(=O)c1ccc(-c2c3nc(c(-c4c(F)c(F)c(F)c(F)c4F)c4ccc([nH]4)c(-c4c(F)c(F)c(F)c(F)c4F)c4nc(c(-c5c(F)c(F)c(F)c(F)c5F)c5ccc2[nH]5)C=C4)C=C3)cc1
REMARK SMILES IDX 25 1 24 2 23 3 22 4 21 5 20 6 18 7 19 8 17 9 11 10 12 11
REMARK SMILES IDX 13 12 16 13 14 14 15 15 9 16 10 17 2 18 1 19 3 20 4 21 5 22
REMARK SMILES IDX 8 23 6 24 7 25 26 26 27 27 28 28 29 29 30 30 31 31 32 32
REMARK SMILES IDX 33 33 34 34 35 35 36 36 97 37 37 38 96 39 38 40 39 41 40 42
REMARK SMILES IDX 90 43 41 44 95 45 89 46 91 47 42 48 94 49 88 50 87 51 43 53
REMARK SMILES IDX 75 54 55 55 74 56 56 57 59 58 73 59 92 60 57 61 58 62 72 64
REMARK SMILES IDX 93 65 60 66 44 67 45 68 53 69 46 70 47 71 51 72 54 73 48 74
REMARK SMILES IDX 49 75 52 76 50 77 76 78 77 79 85 80 78 81 79 82 83 83 86 84
REMARK SMILES IDX 80 85 81 86 84 87 82 88 61 89 62 90 70 91 63 92 64 93 68 94
REMARK SMILES IDX 71 95 65 96 66 97 69 98 67 99
REMARK H PARENT 91 52 59 63
REMARK Flexibility Score: inf
ROOT
ATOM      1  C   UNL     1       1.894   1.714   0.656  1.00  0.00     0.188 C 
ENDROOT
BRANCH   1   2
ATOM      2  C   UNL     1       2.154   0.795  -0.531  1.00  0.00     0.188 C 
BRANCH   2   3
ATOM      3  O   UNL     1       2.607   1.534  -1.660  1.00  0.00    -0.376 OA
BRANCH   3   4
ATOM      4  C   UNL     1       1.638   1.672  -2.688  1.00  0.00     0.202 C 
BRANCH   4   5
ATOM      5  C   UNL     1       0.401   2.527  -2.374  1.00  0.00     0.261 C 
BRANCH   5   6
ATOM      6  O   UNL     1      -0.312   2.249  -1.154  1.00  0.00    -0.460 OA
BRANCH   6   7
ATOM      7  C   UNL     1      -1.065   1.125  -1.053  1.00  0.00     0.342 C 
ATOM      8  O   UNL     1      -1.148   0.255  -1.900  1.00  0.00    -0.246 OA
BRANCH   7   9
ATOM      9  C   UNL     1      -1.817   1.181   0.234  1.00  0.00     0.103 A 
ATOM     10  C   UNL     1      -2.142   0.037   0.977  1.00  0.00     0.143 A 
ATOM     11  N   UNL     1      -3.125   0.087   1.917  1.00  0.00    -0.237 NA
ATOM     12  C   UNL     1      -3.661   1.288   2.241  1.00  0.00     0.129 A 
ATOM     13  C   UNL     1      -2.352   2.423   0.628  1.00  0.00     0.037 A 
ATOM     14  C   UNL     1      -3.265   2.476   1.667  1.00  0.00     0.037 A 
ATOM     15  Br  UNL     1      -3.968   4.119   2.260  1.00  0.00    -0.049 Br
BRANCH  10  16
ATOM     16  N   UNL     1      -1.567  -1.200   0.773  1.00  0.00    -0.356 N 
ATOM     17  C   UNL     1      -2.579  -2.198   0.401  1.00  0.00     0.145 C 
BRANCH  16  18
ATOM     18  C   UNL     1      -0.427  -1.760   1.544  1.00  0.00     0.085 C 
ATOM     19  C   UNL     1       0.562  -2.308   0.476  1.00  0.00     0.031 C 
BRANCH  18  20
ATOM     20  C   UNL     1       0.394  -0.985   2.610  1.00  0.00     0.071 C 
BRANCH  20  21
ATOM     21  C   UNL     1      -0.165   0.087   3.507  1.00  0.00     0.007 A 
ATOM     22  C   UNL     1      -1.333   0.161   4.239  1.00  0.00     0.015 A 
ATOM     23  S   UNL     1       0.846   1.428   3.916  1.00  0.00    -0.149 S 
ATOM     24  C   UNL     1      -1.503   1.433   4.875  1.00  0.00     0.012 A 
ATOM     25  C   UNL     1      -0.401   2.239   4.729  1.00  0.00     0.065 A 
ENDBRANCH  20  21
ENDBRANCH  18  20
ENDBRANCH  16  18
ENDBRANCH  10  16
ENDBRANCH   7   9
ENDBRANCH   6   7
ENDBRANCH   5   6
ENDBRANCH   4   5
ENDBRANCH   3   4
ENDBRANCH   2   3
ENDBRANCH   1   2
BRANCH   1  26
ATOM     26  O   UNL     1       2.400   3.013   0.455  1.00  0.00    -0.377 OA
BRANCH  26  27
ATOM     27  C   UNL     1       3.785   3.180   0.707  1.00  0.00     0.188 C 
BRANCH  27  28
ATOM     28  C   UNL     1       4.807   2.016   0.625  1.00  0.00     0.188 C 
BRANCH  28  29
ATOM     29  O   UNL     1       4.630   0.783   1.303  1.00  0.00    -0.376 OA
BRANCH  29  30
ATOM     30  C   UNL     1       4.499   0.606   2.701  1.00  0.00     0.202 C 
BRANCH  30  31
ATOM     31  C   UNL     1       5.105   1.518   3.769  1.00  0.00     0.261 C 
BRANCH  31  32
ATOM     32  O   UNL     1       5.063   2.906   3.465  1.00  0.00    -0.460 OA
BRANCH  32  33
ATOM     33  C   UNL     1       6.268   3.459   3.199  1.00  0.00     0.338 C 
ATOM     34  O   UNL     1       7.364   2.926   3.239  1.00  0.00    -0.246 OA
BRANCH  33  35
ATOM     35  C   UNL     1       6.038   4.789   2.621  1.00  0.00     0.060 A 
ATOM     36  C   UNL     1       6.560   5.039   1.345  1.00  0.00     0.016 A 
ATOM     37  C   UNL     1       5.296   5.755   3.304  1.00  0.00     0.016 A 
ATOM     38  C   UNL     1       6.370   6.280   0.754  1.00  0.00     0.010 A 
ATOM     39  C   UNL     1       5.144   7.014   2.731  1.00  0.00     0.010 A 
ATOM     40  C   UNL     1       5.721   7.286   1.478  1.00  0.00    -0.014 A 
BRANCH  40  41
ATOM     41  C   UNL     1       5.941   8.688   1.077  1.00  0.00     0.031 A 
ATOM     42  C   UNL     1       7.143   9.377   1.656  1.00  0.00     0.074 A 
ATOM     43  C   UNL     1       5.117   9.312   0.222  1.00  0.00     0.049 A 
ATOM     44  N   UNL     1       7.534  10.617   1.532  1.00  0.00    -0.248 NA
ATOM     45  C   UNL     1       8.026   8.548   2.498  1.00  0.00     0.031 C 
ATOM     46  C   UNL     1       3.961   8.708  -0.436  1.00  0.00     0.029 A 
ATOM     47  N   UNL     1       5.130  10.606  -0.226  1.00  0.00    -0.354 N 
ATOM     48  C   UNL     1       8.700  10.713   2.280  1.00  0.00     0.074 A 
ATOM     49  C   UNL     1       8.943   9.421   2.877  1.00  0.00     0.031 C 
ATOM     50  C   UNL     1       3.357   9.644  -1.191  1.00  0.00     0.029 A 
ATOM     51  C   UNL     1       4.067  10.912  -1.038  1.00  0.00     0.049 A 
ATOM     52  H   UNL     1       5.833  11.253   0.011  1.00  0.00     0.167 HD
ATOM     53  C   UNL     1       9.498  11.790   2.451  1.00  0.00     0.037 A 
ATOM     54  C   UNL     1       3.707  12.098  -1.564  1.00  0.00     0.037 A 
ATOM     55  C   UNL     1       9.231  13.075   1.869  1.00  0.00     0.049 A 
ATOM     56  C   UNL     1       4.566  13.307  -1.287  1.00  0.00     0.074 A 
ATOM     57  C   UNL     1       9.962  14.242   1.978  1.00  0.00     0.029 A 
ATOM     58  N   UNL     1       8.130  13.358   1.072  1.00  0.00    -0.354 N 
ATOM     59  N   UNL     1       5.676  13.397  -0.591  1.00  0.00    -0.248 NA
ATOM     60  C   UNL     1       4.123  14.581  -1.869  1.00  0.00     0.031 C 
ATOM     61  C   UNL     1       9.274  15.247   1.290  1.00  0.00     0.029 A 
ATOM     62  C   UNL     1       8.149  14.690   0.701  1.00  0.00     0.049 A 
ATOM     63  H   UNL     1       7.439  12.707   0.811  1.00  0.00     0.167 HD
ATOM     64  C   UNL     1       6.080  14.723  -0.681  1.00  0.00     0.074 A 
ATOM     65  C   UNL     1       5.100  15.399  -1.506  1.00  0.00     0.031 C 
ATOM     66  C   UNL     1       7.165  15.329  -0.136  1.00  0.00     0.037 A 
BRANCH  53  67
ATOM     67  C   UNL     1      10.697  11.624   3.336  1.00  0.00     0.064 A 
ATOM     68  C   UNL     1      11.801  10.848   2.948  1.00  0.00     0.173 A 
ATOM     69  C   UNL     1      10.742  12.247   4.591  1.00  0.00     0.173 A 
ATOM     70  F   UNL     1      11.796  10.209   1.768  1.00  0.00    -0.203 F 
ATOM     71  C   UNL     1      12.893  10.683   3.796  1.00  0.00     0.198 A 
ATOM     72  C   UNL     1      11.848  12.104   5.423  1.00  0.00     0.198 A 
ATOM     73  F   UNL     1       9.709  12.992   5.014  1.00  0.00    -0.203 F 
ATOM     74  F   UNL     1      13.911   9.893   3.428  1.00  0.00    -0.200 F 
ATOM     75  C   UNL     1      12.919  11.317   5.029  1.00  0.00     0.200 A 
ATOM     76  F   UNL     1      11.875  12.723   6.612  1.00  0.00    -0.200 F 
ATOM     77  F   UNL     1      13.972  11.160   5.842  1.00  0.00    -0.200 F 
ENDBRANCH  53  67
BRANCH  54  78
ATOM     78  C   UNL     1       2.473  12.207  -2.385  1.00  0.00     0.064 A 
ATOM     79  C   UNL     1       2.538  12.499  -3.754  1.00  0.00     0.173 A 
ATOM     80  C   UNL     1       1.202  12.046  -1.813  1.00  0.00     0.173 A 
ATOM     81  F   UNL     1       3.728  12.687  -4.343  1.00  0.00    -0.203 F 
ATOM     82  C   UNL     1       1.379  12.646  -4.515  1.00  0.00     0.198 A 
ATOM     83  C   UNL     1       0.045  12.164  -2.581  1.00  0.00     0.198 A 
ATOM     84  F   UNL     1       1.083  11.769  -0.506  1.00  0.00    -0.203 F 
ATOM     85  F   UNL     1       1.470  12.975  -5.811  1.00  0.00    -0.200 F 
ATOM     86  C   UNL     1       0.135  12.473  -3.929  1.00  0.00     0.200 A 
ATOM     87  F   UNL     1      -1.155  11.986  -2.013  1.00  0.00    -0.200 F 
ATOM     88  F   UNL     1      -0.979  12.616  -4.661  1.00  0.00    -0.200 F 
ENDBRANCH  54  78
BRANCH  66  89
ATOM     89  C   UNL     1       7.378  16.780  -0.455  1.00  0.00     0.064 A 
ATOM     90  C   UNL     1       6.568  17.784   0.092  1.00  0.00     0.173 A 
ATOM     91  C   UNL     1       8.450  17.170  -1.273  1.00  0.00     0.173 A 
ATOM     92  F   UNL     1       5.524  17.461   0.871  1.00  0.00    -0.203 F 
ATOM     93  C   UNL     1       6.808  19.127  -0.188  1.00  0.00     0.198 A 
ATOM     94  C   UNL     1       8.707  18.514  -1.524  1.00  0.00     0.198 A 
ATOM     95  F   UNL     1       9.261  16.247  -1.812  1.00  0.00    -0.203 F 
ATOM     96  F   UNL     1       5.994  20.068   0.308  1.00  0.00    -0.200 F 
ATOM     97  C   UNL     1       7.882  19.491  -0.988  1.00  0.00     0.200 A 
ATOM     98  F   UNL     1       9.756  18.864  -2.281  1.00  0.00    -0.200 F 
ATOM     99  F   UNL     1       8.119  20.784  -1.245  1.00  0.00    -0.200 F 
ENDBRANCH  66  89
ENDBRANCH  40  41
ENDBRANCH  33  35
ENDBRANCH  32  33
ENDBRANCH  31  32
ENDBRANCH  30  31
ENDBRANCH  29  30
ENDBRANCH  28  29
ENDBRANCH  27  28
ENDBRANCH  26  27
ENDBRANCH   1  26
TORSDOF 24
