REMARK SMILES [NH3+][C@H](C(=O)OCCOCCOCCOCCOC(=O)c1ccc(-c2c3nc(c(-c4c(F)c(F)c(F)c(F)c4F)c4ccc([nH]4)c(-c4c(F)c(F)c(F)c(F)c4F)c4nc(c(-c5c(F)c(F)c(F)c(F)c5F)c5ccc2[nH]5)C=C4)C=C3)cc1)c1cc2[nH]ccc2cc1O
REMARK SMILES IDX 11 1 10 2 9 3 8 4 7 5 6 6 5 7 3 8 4 9 2 10 1 11 83 15 84 16
REMARK SMILES IDX 91 17 85 18 90 19 86 20 89 21 87 22 88 24 92 25 12 27 13 28
REMARK SMILES IDX 14 29 15 30 16 31 17 32 18 33 19 34 20 35 21 36 82 37 22 38
REMARK SMILES IDX 81 39 23 40 24 41 25 42 75 43 26 44 80 45 74 46 76 47 27 48
REMARK SMILES IDX 79 49 73 50 72 51 28 53 60 54 40 55 59 56 41 57 44 58 58 59
REMARK SMILES IDX 77 60 42 61 43 62 57 64 78 65 45 66 29 67 30 68 38 69 31 70
REMARK SMILES IDX 32 71 36 72 39 73 33 74 34 75 37 76 35 77 61 78 62 79 70 80
REMARK SMILES IDX 63 81 64 82 68 83 71 84 65 85 66 86 69 87 67 88 46 89 47 90
REMARK SMILES IDX 55 91 48 92 49 93 53 94 56 95 50 96 51 97 54 98 52 99
REMARK H PARENT 1 12 1 13 1 14 86 23 92 26 76 52 44 63
REMARK Flexibility Score: inf
ROOT
ATOM      1  O   UNL     1       3.020  -0.085  -1.731  1.00  0.00    -0.377 OA
ENDROOT
BRANCH   1   2
ATOM      2  C   UNL     1       3.307   0.870  -0.714  1.00  0.00     0.188 C 
BRANCH   2   3
ATOM      3  C   UNL     1       3.406   0.372   0.741  1.00  0.00     0.188 C 
BRANCH   3   4
ATOM      4  O   UNL     1       3.912  -0.941   0.830  1.00  0.00    -0.376 OA
BRANCH   4   5
ATOM      5  C   UNL     1       3.129  -2.010   1.325  1.00  0.00     0.202 C 
BRANCH   5   6
ATOM      6  C   UNL     1       1.663  -2.231   0.919  1.00  0.00     0.261 C 
BRANCH   6   7
ATOM      7  O   UNL     1       1.125  -1.291  -0.002  1.00  0.00    -0.459 OA
BRANCH   7   8
ATOM      8  C   UNL     1       0.298  -0.340   0.523  1.00  0.00     0.369 C 
ATOM      9  O   UNL     1       0.053  -0.221   1.719  1.00  0.00    -0.245 OA
BRANCH   8  10
ATOM     10  C   UNL     1      -0.146   0.663  -0.558  1.00  0.00     0.327 C 
BRANCH  10  11
ATOM     11  N   UNL     1       0.140   0.181  -1.942  1.00  0.00    -0.342 N 
ATOM     12  H   UNL     1      -0.172   0.879  -2.617  1.00  0.00     0.345 HD
ATOM     13  H   UNL     1      -0.356  -0.696  -2.106  1.00  0.00     0.345 HD
ATOM     14  H   UNL     1       1.143   0.029  -2.049  1.00  0.00     0.345 HD
ENDBRANCH  10  11
BRANCH  10  15
ATOM     15  C   UNL     1      -1.610   0.989  -0.449  1.00  0.00     0.065 A 
ATOM     16  C   UNL     1      -2.004   2.265  -0.013  1.00  0.00     0.041 A 
ATOM     17  C   UNL     1      -2.576   0.047  -0.824  1.00  0.00     0.126 A 
ATOM     18  C   UNL     1      -3.358   2.586  -0.128  1.00  0.00     0.046 A 
ATOM     19  C   UNL     1      -3.930   0.354  -0.857  1.00  0.00     0.057 A 
ATOM     20  N   UNL     1      -4.011   3.772   0.119  1.00  0.00    -0.361 N 
ATOM     21  C   UNL     1      -4.315   1.677  -0.581  1.00  0.00     0.003 A 
ATOM     22  C   UNL     1      -5.300   3.695  -0.336  1.00  0.00     0.083 A 
ATOM     23  H   UNL     1      -3.611   4.557   0.557  1.00  0.00     0.166 HD
ATOM     24  C   UNL     1      -5.532   2.395  -0.723  1.00  0.00     0.028 A 
BRANCH  17  25
ATOM     25  O   UNL     1      -2.205  -1.194  -1.274  1.00  0.00    -0.507 OA
ATOM     26  H   UNL     1      -1.302  -1.443  -1.270  1.00  0.00     0.293 HD
ENDBRANCH  17  25
ENDBRANCH  10  15
ENDBRANCH   8  10
ENDBRANCH   7   8
ENDBRANCH   6   7
ENDBRANCH   5   6
ENDBRANCH   4   5
ENDBRANCH   3   4
ENDBRANCH   2   3
ENDBRANCH   1   2
BRANCH   1  27
ATOM     27  C   UNL     1       3.922  -1.179  -1.943  1.00  0.00     0.188 C 
BRANCH  27  28
ATOM     28  C   UNL     1       5.397  -1.112  -1.479  1.00  0.00     0.188 C 
BRANCH  28  29
ATOM     29  O   UNL     1       5.884   0.188  -1.201  1.00  0.00    -0.376 OA
BRANCH  29  30
ATOM     30  C   UNL     1       6.624   0.849  -2.216  1.00  0.00     0.202 C 
BRANCH  30  31
ATOM     31  C   UNL     1       5.927   1.047  -3.571  1.00  0.00     0.261 C 
BRANCH  31  32
ATOM     32  O   UNL     1       5.573  -0.156  -4.275  1.00  0.00    -0.460 OA
BRANCH  32  33
ATOM     33  C   UNL     1       6.562  -1.036  -4.548  1.00  0.00     0.338 C 
ATOM     34  O   UNL     1       7.749  -0.916  -4.326  1.00  0.00    -0.246 OA
BRANCH  33  35
ATOM     35  C   UNL     1       5.925  -2.285  -5.006  1.00  0.00     0.060 A 
ATOM     36  C   UNL     1       6.099  -3.454  -4.253  1.00  0.00     0.016 A 
ATOM     37  C   UNL     1       5.183  -2.301  -6.187  1.00  0.00     0.016 A 
ATOM     38  C   UNL     1       5.561  -4.657  -4.704  1.00  0.00     0.010 A 
ATOM     39  C   UNL     1       4.666  -3.511  -6.651  1.00  0.00     0.010 A 
ATOM     40  C   UNL     1       4.888  -4.699  -5.931  1.00  0.00    -0.014 A 
BRANCH  40  41
ATOM     41  C   UNL     1       4.616  -6.007  -6.569  1.00  0.00     0.031 A 
ATOM     42  C   UNL     1       5.589  -6.506  -7.601  1.00  0.00     0.074 A 
ATOM     43  C   UNL     1       3.550  -6.747  -6.222  1.00  0.00     0.049 A 
ATOM     44  N   UNL     1       5.541  -7.583  -8.341  1.00  0.00    -0.248 NA
ATOM     45  C   UNL     1       6.779  -5.670  -7.830  1.00  0.00     0.031 C 
ATOM     46  C   UNL     1       2.570  -6.390  -5.200  1.00  0.00     0.029 A 
ATOM     47  N   UNL     1       3.111  -7.954  -6.706  1.00  0.00    -0.354 N 
ATOM     48  C   UNL     1       6.687  -7.550  -9.125  1.00  0.00     0.074 A 
ATOM     49  C   UNL     1       7.394  -6.332  -8.797  1.00  0.00     0.031 C 
ATOM     50  C   UNL     1       1.631  -7.351  -5.144  1.00  0.00     0.029 A 
ATOM     51  C   UNL     1       1.926  -8.369  -6.151  1.00  0.00     0.049 A 
ATOM     52  H   UNL     1       3.600  -8.472  -7.386  1.00  0.00     0.167 HD
ATOM     53  C   UNL     1       7.114  -8.460 -10.031  1.00  0.00     0.037 A 
ATOM     54  C   UNL     1       1.158  -9.435  -6.449  1.00  0.00     0.037 A 
ATOM     55  C   UNL     1       6.401  -9.667 -10.356  1.00  0.00     0.049 A 
ATOM     56  C   UNL     1       1.613 -10.392  -7.524  1.00  0.00     0.074 A 
ATOM     57  C   UNL     1       6.748 -10.659 -11.255  1.00  0.00     0.029 A 
ATOM     58  N   UNL     1       5.187 -10.039  -9.797  1.00  0.00    -0.354 N 
ATOM     59  N   UNL     1       2.704 -10.366  -8.252  1.00  0.00    -0.248 NA
ATOM     60  C   UNL     1       0.728 -11.529  -7.816  1.00  0.00     0.031 C 
ATOM     61  C   UNL     1       5.715 -11.601 -11.284  1.00  0.00     0.029 A 
ATOM     62  C   UNL     1       4.757 -11.232 -10.353  1.00  0.00     0.049 A 
ATOM     63  H   UNL     1       4.703  -9.530  -9.107  1.00  0.00     0.167 HD
ATOM     64  C   UNL     1       2.653 -11.494  -9.061  1.00  0.00     0.074 A 
ATOM     65  C   UNL     1       1.429 -12.191  -8.725  1.00  0.00     0.031 C 
ATOM     66  C   UNL     1       3.539 -11.917  -9.998  1.00  0.00     0.037 A 
BRANCH  53  67
ATOM     67  C   UNL     1       8.395  -8.166 -10.758  1.00  0.00     0.064 A 
ATOM     68  C   UNL     1       9.639  -8.192 -10.107  1.00  0.00     0.173 A 
ATOM     69  C   UNL     1       8.380  -7.874 -12.130  1.00  0.00     0.173 A 
ATOM     70  F   UNL     1       9.708  -8.448  -8.792  1.00  0.00    -0.203 F 
ATOM     71  C   UNL     1      10.815  -7.909 -10.798  1.00  0.00     0.198 A 
ATOM     72  C   UNL     1       9.560  -7.625 -12.824  1.00  0.00     0.198 A 
ATOM     73  F   UNL     1       7.219  -7.836 -12.801  1.00  0.00    -0.203 F 
ATOM     74  F   UNL     1      11.985  -7.887 -10.145  1.00  0.00    -0.200 F 
ATOM     75  C   UNL     1      10.775  -7.634 -12.156  1.00  0.00     0.200 A 
ATOM     76  F   UNL     1       9.521  -7.371 -14.139  1.00  0.00    -0.200 F 
ATOM     77  F   UNL     1      11.909  -7.369 -12.821  1.00  0.00    -0.200 F 
ENDBRANCH  53  67
BRANCH  54  78
ATOM     78  C   UNL     1      -0.131  -9.646  -5.738  1.00  0.00     0.064 A 
ATOM     79  C   UNL     1      -0.320 -10.743  -4.886  1.00  0.00     0.173 A 
ATOM     80  C   UNL     1      -1.211  -8.769  -5.918  1.00  0.00     0.173 A 
ATOM     81  F   UNL     1       0.672 -11.627  -4.702  1.00  0.00    -0.203 F 
ATOM     82  C   UNL     1      -1.545 -10.965  -4.258  1.00  0.00     0.198 A 
ATOM     83  C   UNL     1      -2.425  -8.974  -5.264  1.00  0.00     0.198 A 
ATOM     84  F   UNL     1      -1.086  -7.706  -6.726  1.00  0.00    -0.203 F 
ATOM     85  F   UNL     1      -1.714 -12.051  -3.492  1.00  0.00    -0.200 F 
ATOM     86  C   UNL     1      -2.594 -10.077  -4.442  1.00  0.00     0.200 A 
ATOM     87  F   UNL     1      -3.431  -8.107  -5.437  1.00  0.00    -0.200 F 
ATOM     88  F   UNL     1      -3.770 -10.291  -3.837  1.00  0.00    -0.200 F 
ENDBRANCH  54  78
BRANCH  66  89
ATOM     89  C   UNL     1       3.244 -13.216 -10.694  1.00  0.00     0.064 A 
ATOM     90  C   UNL     1       2.198 -13.340 -11.620  1.00  0.00     0.173 A 
ATOM     91  C   UNL     1       4.053 -14.341 -10.465  1.00  0.00     0.173 A 
ATOM     92  F   UNL     1       1.388 -12.300 -11.867  1.00  0.00    -0.203 F 
ATOM     93  C   UNL     1       1.954 -14.549 -12.267  1.00  0.00     0.198 A 
ATOM     94  C   UNL     1       3.829 -15.537 -11.140  1.00  0.00     0.198 A 
ATOM     95  F   UNL     1       5.075 -14.274  -9.598  1.00  0.00    -0.203 F 
ATOM     96  F   UNL     1       0.916 -14.659 -13.107  1.00  0.00    -0.200 F 
ATOM     97  C   UNL     1       2.774 -15.643 -12.033  1.00  0.00     0.200 A 
ATOM     98  F   UNL     1       4.634 -16.586 -10.927  1.00  0.00    -0.200 F 
ATOM     99  F   UNL     1       2.543 -16.802 -12.664  1.00  0.00    -0.200 F 
ENDBRANCH  66  89
ENDBRANCH  40  41
ENDBRANCH  33  35
ENDBRANCH  32  33
ENDBRANCH  31  32
ENDBRANCH  30  31
ENDBRANCH  29  30
ENDBRANCH  28  29
ENDBRANCH  27  28
ENDBRANCH   1  27
TORSDOF 23
