REMARK SMILES C/C=C(\C)[C@H]1C(C)=C[C@H]2CC[C@@H](OS(=O)(=O)[O-])[C@@H](C)[C@H]2[C@H]1/C=C/C=C/C(=O)OCCOCCOCCOCCOC(=O)c1ccc(-c2c3nc(c(-c4c(F)c(F)c(F)c(F)c4F)c4ccc([nH]4)c(-c4c(F)c(F)c(F)c(F)c4F)c4nc(c(-c5c(F)c(F)c(F)c(F)c5F)c5ccc2[nH]5)C=C4)C=C3)cc1
REMARK SMILES IDX 33 1 32 2 31 3 30 4 29 5 28 6 26 7 27 8 25 9 24 10 23 11
REMARK SMILES IDX 22 12 21 13 5 14 6 15 7 16 8 17 20 18 9 19 18 20 10 21 12 22
REMARK SMILES IDX 19 23 11 24 3 25 1 26 2 27 4 28 13 29 14 30 15 31 16 32
REMARK SMILES IDX 17 33 34 34 35 35 36 36 37 37 38 38 39 39 40 40 41 41 42 42
REMARK SMILES IDX 43 43 44 44 105 45 45 46 104 47 46 48 47 49 48 50 98 51
REMARK SMILES IDX 49 52 103 53 97 54 99 55 50 56 102 57 96 58 95 59 51 61
REMARK SMILES IDX 83 62 63 63 82 64 64 65 67 66 81 67 100 68 65 69 66 70 80 72
REMARK SMILES IDX 101 73 68 74 52 75 53 76 61 77 54 78 55 79 59 80 62 81 56 82
REMARK SMILES IDX 57 83 60 84 58 85 84 86 85 87 93 88 86 89 87 90 91 91 94 92
REMARK SMILES IDX 88 93 89 94 92 95 90 96 69 97 70 98 78 99 71 100 72 101
REMARK SMILES IDX 76 102 79 103 73 104 74 105 77 106 75 107
REMARK H PARENT 99 60 67 71
REMARK Flexibility Score: inf
ROOT
ATOM      1  C   UNL     1       6.144   1.672  -4.454  1.00  0.00     0.188 C 
ENDROOT
BRANCH   1   2
ATOM      2  C   UNL     1       7.149   1.811  -3.290  1.00  0.00     0.188 C 
BRANCH   2   3
ATOM      3  O   UNL     1       8.242   0.922  -3.376  1.00  0.00    -0.376 OA
BRANCH   3   4
ATOM      4  C   UNL     1       8.424  -0.155  -2.479  1.00  0.00     0.202 C 
BRANCH   4   5
ATOM      5  C   UNL     1       7.291  -1.083  -2.008  1.00  0.00     0.261 C 
BRANCH   5   6
ATOM      6  O   UNL     1       5.962  -0.681  -2.316  1.00  0.00    -0.460 OA
BRANCH   6   7
ATOM      7  C   UNL     1       5.369  -0.001  -1.319  1.00  0.00     0.330 C 
ATOM      8  O   UNL     1       5.860   0.270  -0.231  1.00  0.00    -0.247 OA
BRANCH   7   9
ATOM      9  C   UNL     1       4.083   0.570  -1.711  1.00  0.00     0.093 C 
ATOM     10  C   UNL     1       3.268   0.346  -2.756  1.00  0.00     0.007 C 
BRANCH  10  11
ATOM     11  C   UNL     1       2.112   1.194  -2.792  1.00  0.00    -0.004 C 
ATOM     12  C   UNL     1       1.207   1.535  -3.709  1.00  0.00    -0.022 C 
BRANCH  12  13
ATOM     13  C   UNL     1       0.190   2.638  -3.360  1.00  0.00     0.027 C 
ATOM     14  C   UNL     1      -0.819   2.381  -2.138  1.00  0.00     0.047 C 
ATOM     15  C   UNL     1      -1.094   3.622  -1.272  1.00  0.00    -0.069 C 
ATOM     16  C   UNL     1      -1.768   3.450   0.065  1.00  0.00     0.040 C 
ATOM     17  C   UNL     1      -0.808   4.870  -1.702  1.00  0.00    -0.024 C 
ATOM     18  C   UNL     1       0.866   4.069  -3.382  1.00  0.00     0.009 C 
ATOM     19  C   UNL     1      -0.165   5.158  -3.031  1.00  0.00     0.016 C 
ATOM     20  C   UNL     1       2.224   4.285  -2.618  1.00  0.00     0.021 C 
ATOM     21  C   UNL     1       0.440   6.576  -3.150  1.00  0.00     0.011 C 
ATOM     22  C   UNL     1       2.798   5.681  -2.930  1.00  0.00     0.141 C 
ATOM     23  C   UNL     1       2.238   4.067  -1.090  1.00  0.00     0.011 C 
ATOM     24  C   UNL     1       1.811   6.769  -2.504  1.00  0.00     0.034 C 
BRANCH  14  25
ATOM     25  C   UNL     1      -0.578   1.044  -1.383  1.00  0.00    -0.070 C 
ATOM     26  C   UNL     1       0.704  -0.302   0.396  1.00  0.00     0.035 C 
ATOM     27  C   UNL     1       0.191   0.933  -0.276  1.00  0.00    -0.031 C 
ATOM     28  C   UNL     1      -1.209  -0.150  -2.067  1.00  0.00     0.040 C 
ENDBRANCH  14  25
BRANCH  22  29
ATOM     29  O   UNL     1       4.026   5.799  -2.218  1.00  0.00    -0.276 OA
BRANCH  29  30
ATOM     30  S   UNL     1       5.216   6.734  -2.785  1.00  0.00     0.217 S 
ATOM     31  O   UNL     1       5.346   6.546  -4.207  1.00  0.00    -0.213 OA
ATOM     32  O   UNL     1       5.083   8.050  -2.193  1.00  0.00    -0.213 OA
ATOM     33  O   UNL     1       6.522   6.090  -2.098  1.00  0.00    -0.726 OA
ENDBRANCH  29  30
ENDBRANCH  22  29
ENDBRANCH  12  13
ENDBRANCH  10  11
ENDBRANCH   7   9
ENDBRANCH   6   7
ENDBRANCH   5   6
ENDBRANCH   4   5
ENDBRANCH   3   4
ENDBRANCH   2   3
ENDBRANCH   1   2
BRANCH   1  34
ATOM     34  O   UNL     1       5.965   0.396  -5.056  1.00  0.00    -0.377 OA
BRANCH  34  35
ATOM     35  C   UNL     1       7.090  -0.309  -5.581  1.00  0.00     0.188 C 
BRANCH  35  36
ATOM     36  C   UNL     1       8.384   0.412  -6.030  1.00  0.00     0.188 C 
BRANCH  36  37
ATOM     37  O   UNL     1       8.277   1.820  -6.107  1.00  0.00    -0.376 OA
BRANCH  37  38
ATOM     38  C   UNL     1       8.254   2.403  -7.397  1.00  0.00     0.202 C 
BRANCH  38  39
ATOM     39  C   UNL     1       7.098   2.003  -8.325  1.00  0.00     0.261 C 
BRANCH  39  40
ATOM     40  O   UNL     1       6.885   0.593  -8.513  1.00  0.00    -0.460 OA
BRANCH  40  41
ATOM     41  C   UNL     1       7.816  -0.105  -9.202  1.00  0.00     0.338 C 
ATOM     42  O   UNL     1       8.843   0.319  -9.696  1.00  0.00    -0.246 OA
BRANCH  41  43
ATOM     43  C   UNL     1       7.454  -1.536  -9.093  1.00  0.00     0.060 A 
ATOM     44  C   UNL     1       8.285  -2.410  -8.377  1.00  0.00     0.016 A 
ATOM     45  C   UNL     1       6.266  -2.002  -9.659  1.00  0.00     0.016 A 
ATOM     46  C   UNL     1       7.922  -3.751  -8.218  1.00  0.00     0.010 A 
ATOM     47  C   UNL     1       5.919  -3.348  -9.522  1.00  0.00     0.010 A 
ATOM     48  C   UNL     1       6.747  -4.233  -8.808  1.00  0.00    -0.014 A 
BRANCH  48  49
ATOM     49  C   UNL     1       6.420  -5.681  -8.786  1.00  0.00     0.031 A 
ATOM     50  C   UNL     1       6.725  -6.512  -9.999  1.00  0.00     0.074 A 
ATOM     51  C   UNL     1       5.828  -6.243  -7.717  1.00  0.00     0.049 A 
ATOM     52  N   UNL     1       6.409  -7.755 -10.260  1.00  0.00    -0.248 NA
ATOM     53  C   UNL     1       7.489  -5.847 -11.066  1.00  0.00     0.031 C 
ATOM     54  C   UNL     1       5.523  -5.557  -6.464  1.00  0.00     0.029 A 
ATOM     55  N   UNL     1       5.356  -7.519  -7.528  1.00  0.00    -0.354 N 
ATOM     56  C   UNL     1       6.924  -8.017 -11.522  1.00  0.00     0.074 A 
ATOM     57  C   UNL     1       7.553  -6.798 -11.985  1.00  0.00     0.031 C 
ATOM     58  C   UNL     1       4.891  -6.413  -5.642  1.00  0.00     0.029 A 
ATOM     59  C   UNL     1       4.706  -7.691  -6.330  1.00  0.00     0.049 A 
ATOM     60  H   UNL     1       5.472  -8.241  -8.187  1.00  0.00     0.167 HD
ATOM     61  C   UNL     1       6.876  -9.172 -12.229  1.00  0.00     0.037 A 
ATOM     62  C   UNL     1       4.006  -8.745  -5.862  1.00  0.00     0.037 A 
ATOM     63  C   UNL     1       6.239 -10.378 -11.768  1.00  0.00     0.049 A 
ATOM     64  C   UNL     1       3.876  -9.984  -6.713  1.00  0.00     0.074 A 
ATOM     65  C   UNL     1       6.159 -11.607 -12.399  1.00  0.00     0.029 A 
ATOM     66  N   UNL     1       5.557 -10.502 -10.566  1.00  0.00    -0.354 N 
ATOM     67  N   UNL     1       4.391 -10.240  -7.892  1.00  0.00    -0.248 NA
ATOM     68  C   UNL     1       3.060 -11.080  -6.169  1.00  0.00     0.031 C 
ATOM     69  C   UNL     1       5.371 -12.453 -11.613  1.00  0.00     0.029 A 
ATOM     70  C   UNL     1       5.015 -11.774 -10.459  1.00  0.00     0.049 A 
ATOM     71  H   UNL     1       5.470  -9.792  -9.890  1.00  0.00     0.167 HD
ATOM     72  C   UNL     1       3.981 -11.527  -8.220  1.00  0.00     0.074 A 
ATOM     73  C   UNL     1       3.194 -12.010  -7.105  1.00  0.00     0.031 C 
ATOM     74  C   UNL     1       4.230 -12.242  -9.344  1.00  0.00     0.037 A 
BRANCH  61  75
ATOM     75  C   UNL     1       7.499  -9.177 -13.595  1.00  0.00     0.064 A 
ATOM     76  C   UNL     1       8.888  -9.104 -13.777  1.00  0.00     0.173 A 
ATOM     77  C   UNL     1       6.694  -9.297 -14.739  1.00  0.00     0.173 A 
ATOM     78  F   UNL     1       9.702  -8.977 -12.718  1.00  0.00    -0.203 F 
ATOM     79  C   UNL     1       9.446  -9.124 -15.053  1.00  0.00     0.198 A 
ATOM     80  C   UNL     1       7.258  -9.350 -16.011  1.00  0.00     0.198 A 
ATOM     81  F   UNL     1       5.360  -9.375 -14.623  1.00  0.00    -0.203 F 
ATOM     82  F   UNL     1      10.772  -9.004 -15.204  1.00  0.00    -0.200 F 
ATOM     83  C   UNL     1       8.632  -9.255 -16.168  1.00  0.00     0.200 A 
ATOM     84  F   UNL     1       6.469  -9.492 -17.086  1.00  0.00    -0.200 F 
ATOM     85  F   UNL     1       9.171  -9.283 -17.394  1.00  0.00    -0.200 F 
ENDBRANCH  61  75
BRANCH  62  86
ATOM     86  C   UNL     1       3.338  -8.667  -4.534  1.00  0.00     0.064 A 
ATOM     87  C   UNL     1       3.743  -9.486  -3.471  1.00  0.00     0.173 A 
ATOM     88  C   UNL     1       2.261  -7.796  -4.309  1.00  0.00     0.173 A 
ATOM     89  F   UNL     1       4.747 -10.359  -3.644  1.00  0.00    -0.203 F 
ATOM     90  C   UNL     1       3.087  -9.451  -2.242  1.00  0.00     0.198 A 
ATOM     91  C   UNL     1       1.627  -7.737  -3.070  1.00  0.00     0.198 A 
ATOM     92  F   UNL     1       1.825  -6.997  -5.294  1.00  0.00    -0.203 F 
ATOM     93  F   UNL     1       3.461 -10.284  -1.262  1.00  0.00    -0.200 F 
ATOM     94  C   UNL     1       2.034  -8.571  -2.040  1.00  0.00     0.200 A 
ATOM     95  F   UNL     1       0.617  -6.878  -2.876  1.00  0.00    -0.200 F 
ATOM     96  F   UNL     1       1.406  -8.535  -0.857  1.00  0.00    -0.200 F 
ENDBRANCH  62  86
BRANCH  74  97
ATOM     97  C   UNL     1       3.662 -13.633  -9.424  1.00  0.00     0.064 A 
ATOM     98  C   UNL     1       2.285 -13.858  -9.574  1.00  0.00     0.173 A 
ATOM     99  C   UNL     1       4.509 -14.752  -9.401  1.00  0.00     0.173 A 
ATOM    100  F   UNL     1       1.430 -12.824  -9.587  1.00  0.00    -0.203 F 
ATOM    101  C   UNL     1       1.777 -15.150  -9.674  1.00  0.00     0.198 A 
ATOM    102  C   UNL     1       4.000 -16.041  -9.536  1.00  0.00     0.198 A 
ATOM    103  F   UNL     1       5.835 -14.595  -9.267  1.00  0.00    -0.203 F 
ATOM    104  F   UNL     1       0.454 -15.342  -9.768  1.00  0.00    -0.200 F 
ATOM    105  C   UNL     1       2.635 -16.240  -9.665  1.00  0.00     0.200 A 
ATOM    106  F   UNL     1       4.833 -17.091  -9.545  1.00  0.00    -0.200 F 
ATOM    107  F   UNL     1       2.144 -17.482  -9.774  1.00  0.00    -0.200 F 
ENDBRANCH  74  97
ENDBRANCH  48  49
ENDBRANCH  41  43
ENDBRANCH  40  41
ENDBRANCH  39  40
ENDBRANCH  38  39
ENDBRANCH  37  38
ENDBRANCH  36  37
ENDBRANCH  35  36
ENDBRANCH  34  35
ENDBRANCH   1  34
TORSDOF 25
