REMARK SMILES C[C@H]1CC[C@@](NC(=O)N[C@H]2CCOC2)(C(=O)OCCOCCOCCOCCOC(=O)c2ccc(-c3c4nc(c(-c5c(F)c(F)c(F)c(F)c5F)c5ccc([nH]5)c(-c5c(F)c(F)c(F)c(F)c5F)c5nc(c(-c6c(F)c(F)c(F)c(F)c6F)c6ccc3[nH]6)C=C5)C=C4)cc2)CC1
REMARK SMILES IDX 23 1 22 2 21 3 20 4 19 5 18 6 17 7 15 8 16 9 5 10 1 11 2 12
REMARK SMILES IDX 96 13 3 14 95 15 4 16 6 17 7 18 8 20 9 21 10 23 11 24 14 25
REMARK SMILES IDX 12 26 13 27 24 28 25 29 26 30 27 31 28 32 29 33 30 34 31 35
REMARK SMILES IDX 32 36 33 37 94 38 34 39 93 40 35 41 36 42 37 43 87 44 38 45
REMARK SMILES IDX 92 46 86 47 88 48 39 49 91 50 85 51 84 52 40 54 72 55 52 56
REMARK SMILES IDX 71 57 53 58 56 59 70 60 89 61 54 62 55 63 69 65 90 66 57 67
REMARK SMILES IDX 41 68 42 69 50 70 43 71 44 72 48 73 51 74 45 75 46 76 49 77
REMARK SMILES IDX 47 78 73 79 74 80 82 81 75 82 76 83 80 84 83 85 77 86 78 87
REMARK SMILES IDX 81 88 79 89 58 90 59 91 67 92 60 93 61 94 65 95 68 96 62 97
REMARK SMILES IDX 63 98 66 99 64 100
REMARK H PARENT 6 19 9 22 88 53 56 64
REMARK Flexibility Score: inf
ROOT
ATOM      1  O   UNL     1      -4.853   0.714   0.441  1.00  0.00    -0.377 OA
ENDROOT
BRANCH   1   2
ATOM      2  C   UNL     1      -4.034  -0.435   0.620  1.00  0.00     0.188 C 
BRANCH   2   3
ATOM      3  C   UNL     1      -2.517  -0.209   0.572  1.00  0.00     0.188 C 
BRANCH   3   4
ATOM      4  O   UNL     1      -2.152   1.114   0.194  1.00  0.00    -0.376 OA
BRANCH   4   5
ATOM      5  C   UNL     1      -2.029   1.411  -1.183  1.00  0.00     0.202 C 
BRANCH   5   6
ATOM      6  C   UNL     1      -3.286   1.591  -2.057  1.00  0.00     0.261 C 
BRANCH   6   7
ATOM      7  O   UNL     1      -4.172   0.521  -2.452  1.00  0.00    -0.461 OA
BRANCH   7   8
ATOM      8  C   UNL     1      -3.897  -0.800  -2.419  1.00  0.00     0.331 C 
ATOM      9  O   UNL     1      -2.959  -1.329  -1.838  1.00  0.00    -0.249 OA
BRANCH   8  10
ATOM     10  C   UNL     1      -4.802  -1.592  -3.338  1.00  0.00     0.139 C 
ATOM     11  C   UNL     1      -6.455  -3.349   0.290  1.00  0.00     0.007 C 
ATOM     12  C   UNL     1      -6.378  -3.154  -1.236  1.00  0.00    -0.014 C 
ATOM     13  C   UNL     1      -5.003  -3.607  -1.753  1.00  0.00     0.006 C 
ATOM     14  C   UNL     1      -6.755  -1.715  -1.621  1.00  0.00     0.006 C 
ATOM     15  C   UNL     1      -4.660  -3.117  -3.169  1.00  0.00     0.041 C 
ATOM     16  C   UNL     1      -6.290  -1.263  -3.017  1.00  0.00     0.041 C 
BRANCH  10  17
ATOM     17  N   UNL     1      -4.441  -1.145  -4.718  1.00  0.00    -0.322 N 
ATOM     18  C   UNL     1      -3.365  -0.954  -5.489  1.00  0.00     0.316 C 
ATOM     19  H   UNL     1      -5.256  -0.919  -5.220  1.00  0.00     0.166 HD
ATOM     20  O   UNL     1      -3.603  -0.808  -6.695  1.00  0.00    -0.249 OA
ATOM     21  N   UNL     1      -2.079  -0.834  -5.149  1.00  0.00    -0.333 N 
ATOM     22  H   UNL     1      -1.514  -0.783  -5.954  1.00  0.00     0.165 HD
BRANCH  21  23
ATOM     23  C   UNL     1      -1.260  -0.755  -3.951  1.00  0.00     0.112 C 
ATOM     24  C   UNL     1      -0.678  -2.058  -3.450  1.00  0.00     0.056 C 
ATOM     25  C   UNL     1       0.008   0.105  -3.998  1.00  0.00     0.185 C 
ATOM     26  C   UNL     1       0.295  -1.568  -2.395  1.00  0.00     0.162 C 
ATOM     27  O   UNL     1       0.830  -0.326  -2.890  1.00  0.00    -0.379 OA
ENDBRANCH  21  23
ENDBRANCH  10  17
ENDBRANCH   8  10
ENDBRANCH   7   8
ENDBRANCH   6   7
ENDBRANCH   5   6
ENDBRANCH   4   5
ENDBRANCH   3   4
ENDBRANCH   2   3
ENDBRANCH   1   2
BRANCH   1  28
ATOM     28  C   UNL     1      -4.529   1.869   1.212  1.00  0.00     0.188 C 
BRANCH  28  29
ATOM     29  C   UNL     1      -3.795   1.659   2.553  1.00  0.00     0.188 C 
BRANCH  29  30
ATOM     30  O   UNL     1      -4.022   0.399   3.156  1.00  0.00    -0.376 OA
BRANCH  30  31
ATOM     31  C   UNL     1      -5.153   0.232   3.993  1.00  0.00     0.202 C 
BRANCH  31  32
ATOM     32  C   UNL     1      -6.536   0.655   3.476  1.00  0.00     0.261 C 
BRANCH  32  33
ATOM     33  O   UNL     1      -6.743   2.044   3.144  1.00  0.00    -0.460 OA
BRANCH  33  34
ATOM     34  C   UNL     1      -6.254   3.030   3.926  1.00  0.00     0.338 C 
ATOM     35  O   UNL     1      -5.766   2.922   5.037  1.00  0.00    -0.246 OA
BRANCH  34  36
ATOM     36  C   UNL     1      -6.162   4.249   3.079  1.00  0.00     0.060 A 
ATOM     37  C   UNL     1      -4.922   4.893   2.925  1.00  0.00     0.016 A 
ATOM     38  C   UNL     1      -7.275   4.702   2.367  1.00  0.00     0.016 A 
ATOM     39  C   UNL     1      -4.795   5.991   2.073  1.00  0.00     0.010 A 
ATOM     40  C   UNL     1      -7.160   5.834   1.555  1.00  0.00     0.010 A 
ATOM     41  C   UNL     1      -5.927   6.500   1.429  1.00  0.00    -0.014 A 
BRANCH  41  42
ATOM     42  C   UNL     1      -5.892   7.871   0.869  1.00  0.00     0.031 A 
ATOM     43  C   UNL     1      -6.300   8.996   1.779  1.00  0.00     0.074 A 
ATOM     44  C   UNL     1      -5.511   8.123  -0.395  1.00  0.00     0.049 A 
ATOM     45  N   UNL     1      -6.457  10.268   1.519  1.00  0.00    -0.248 NA
ATOM     46  C   UNL     1      -6.575   8.629   3.179  1.00  0.00     0.031 C 
ATOM     47  C   UNL     1      -5.036   7.129  -1.353  1.00  0.00     0.029 A 
ATOM     48  N   UNL     1      -5.482   9.306  -1.092  1.00  0.00    -0.354 N 
ATOM     49  C   UNL     1      -6.859  10.846   2.716  1.00  0.00     0.074 A 
ATOM     50  C   UNL     1      -6.944   9.789   3.698  1.00  0.00     0.031 C 
ATOM     51  C   UNL     1      -4.787   7.740  -2.526  1.00  0.00     0.029 A 
ATOM     52  C   UNL     1      -5.123   9.160  -2.409  1.00  0.00     0.049 A 
ATOM     53  H   UNL     1      -5.698  10.177  -0.685  1.00  0.00     0.167 HD
ATOM     54  C   UNL     1      -7.133  12.146   2.974  1.00  0.00     0.037 A 
ATOM     55  C   UNL     1      -5.106  10.065  -3.408  1.00  0.00     0.037 A 
ATOM     56  C   UNL     1      -7.054  13.193   1.993  1.00  0.00     0.049 A 
ATOM     57  C   UNL     1      -5.503  11.493  -3.118  1.00  0.00     0.074 A 
ATOM     58  C   UNL     1      -7.293  14.545   2.155  1.00  0.00     0.029 A 
ATOM     59  N   UNL     1      -6.721  13.000   0.660  1.00  0.00    -0.354 N 
ATOM     60  N   UNL     1      -5.862  12.042  -1.981  1.00  0.00    -0.248 NA
ATOM     61  C   UNL     1      -5.495  12.429  -4.253  1.00  0.00     0.031 C 
ATOM     62  C   UNL     1      -7.168  15.162   0.907  1.00  0.00     0.029 A 
ATOM     63  C   UNL     1      -6.785  14.205  -0.020  1.00  0.00     0.049 A 
ATOM     64  H   UNL     1      -6.477  12.135   0.258  1.00  0.00     0.167 HD
ATOM     65  C   UNL     1      -6.096  13.384  -2.258  1.00  0.00     0.074 A 
ATOM     66  C   UNL     1      -5.820  13.572  -3.666  1.00  0.00     0.031 C 
ATOM     67  C   UNL     1      -6.503  14.373  -1.423  1.00  0.00     0.037 A 
BRANCH  54  68
ATOM     68  C   UNL     1      -7.585  12.496   4.361  1.00  0.00     0.064 A 
ATOM     69  C   UNL     1      -6.714  12.453   5.459  1.00  0.00     0.173 A 
ATOM     70  C   UNL     1      -8.908  12.904   4.588  1.00  0.00     0.173 A 
ATOM     71  F   UNL     1      -5.445  12.047   5.299  1.00  0.00    -0.203 F 
ATOM     72  C   UNL     1      -7.156  12.783   6.737  1.00  0.00     0.198 A 
ATOM     73  C   UNL     1      -9.338  13.265   5.861  1.00  0.00     0.198 A 
ATOM     74  F   UNL     1      -9.783  12.960   3.573  1.00  0.00    -0.203 F 
ATOM     75  F   UNL     1      -6.320  12.687   7.780  1.00  0.00    -0.200 F 
ATOM     76  C   UNL     1      -8.465  13.198   6.936  1.00  0.00     0.200 A 
ATOM     77  F   UNL     1     -10.600  13.676   6.049  1.00  0.00    -0.200 F 
ATOM     78  F   UNL     1      -8.886  13.525   8.165  1.00  0.00    -0.200 F 
ENDBRANCH  54  68
BRANCH  55  79
ATOM     79  C   UNL     1      -4.734   9.651  -4.789  1.00  0.00     0.064 A 
ATOM     80  C   UNL     1      -3.574  10.139  -5.407  1.00  0.00     0.173 A 
ATOM     81  C   UNL     1      -5.553   8.789  -5.534  1.00  0.00     0.173 A 
ATOM     82  F   UNL     1      -2.774  10.991  -4.749  1.00  0.00    -0.203 F 
ATOM     83  C   UNL     1      -3.257   9.797  -6.721  1.00  0.00     0.198 A 
ATOM     84  C   UNL     1      -5.219   8.422  -6.837  1.00  0.00     0.198 A 
ATOM     85  F   UNL     1      -6.680   8.300  -4.996  1.00  0.00    -0.203 F 
ATOM     86  F   UNL     1      -2.171  10.322  -7.304  1.00  0.00    -0.200 F 
ATOM     87  C   UNL     1      -4.077   8.933  -7.432  1.00  0.00     0.200 A 
ATOM     88  F   UNL     1      -6.009   7.580  -7.516  1.00  0.00    -0.200 F 
ATOM     89  F   UNL     1      -3.771   8.604  -8.695  1.00  0.00    -0.200 F 
ENDBRANCH  55  79
BRANCH  67  90
ATOM     90  C   UNL     1      -6.646  15.754  -1.999  1.00  0.00     0.064 A 
ATOM     91  C   UNL     1      -7.677  16.078  -2.893  1.00  0.00     0.173 A 
ATOM     92  C   UNL     1      -5.769  16.779  -1.611  1.00  0.00     0.173 A 
ATOM     93  F   UNL     1      -8.536  15.133  -3.305  1.00  0.00    -0.203 F 
ATOM     94  C   UNL     1      -7.808  17.369  -3.398  1.00  0.00     0.198 A 
ATOM     95  C   UNL     1      -5.924  18.077  -2.091  1.00  0.00     0.198 A 
ATOM     96  F   UNL     1      -4.772  16.527  -0.750  1.00  0.00    -0.203 F 
ATOM     97  F   UNL     1      -8.770  17.643  -4.290  1.00  0.00    -0.200 F 
ATOM     98  C   UNL     1      -6.937  18.369  -2.991  1.00  0.00     0.200 A 
ATOM     99  F   UNL     1      -5.093  19.045  -1.681  1.00  0.00    -0.200 F 
ATOM    100  F   UNL     1      -7.071  19.613  -3.470  1.00  0.00    -0.200 F 
ENDBRANCH  67  90
ENDBRANCH  41  42
ENDBRANCH  34  36
ENDBRANCH  33  34
ENDBRANCH  32  33
ENDBRANCH  31  32
ENDBRANCH  30  31
ENDBRANCH  29  30
ENDBRANCH  28  29
ENDBRANCH   1  28
TORSDOF 22
