REMARK SMILES CC[C@H](NC(=O)N1CCO[C@@H](CC(=O)OCCOCCOCCOCCOC(=O)c2ccc(-c3c4nc(c(-c5c(F)c(F)c(F)c(F)c5F)c5ccc([nH]5)c(-c5c(F)c(F)c(F)c(F)c5F)c5nc(c(-c6c(F)c(F)c(F)c(F)c6F)c6ccc3[nH]6)C=C5)C=C4)cc2)C1)c1cccs1
REMARK SMILES IDX 20 1 19 2 18 3 17 4 16 5 15 6 13 7 14 8 12 9 11 10 7 11 8 12
REMARK SMILES IDX 93 13 9 14 10 15 5 16 4 17 6 19 3 20 2 21 1 22 94 23 95 24
REMARK SMILES IDX 98 25 96 26 97 27 21 28 22 29 23 30 24 31 25 32 26 33 27 34
REMARK SMILES IDX 28 35 29 36 30 37 31 38 92 39 32 40 91 41 33 42 34 43 35 44
REMARK SMILES IDX 85 45 36 46 90 47 84 48 86 49 37 50 89 51 83 52 82 53 38 55
REMARK SMILES IDX 70 56 50 57 69 58 51 59 54 60 68 61 87 62 52 63 53 64 67 66
REMARK SMILES IDX 88 67 55 68 39 69 40 70 48 71 41 72 42 73 46 74 49 75 43 76
REMARK SMILES IDX 44 77 47 78 45 79 71 80 72 81 80 82 73 83 74 84 78 85 81 86
REMARK SMILES IDX 75 87 76 88 79 89 77 90 56 91 57 92 65 93 58 94 59 95 63 96
REMARK SMILES IDX 66 97 60 98 61 99 64 100 62 101
REMARK H PARENT 4 18 86 54 54 65
REMARK Flexibility Score: inf
ROOT
ATOM      1  C   UNL     1       0.539   6.160  -0.475  1.00  0.00     0.188 C 
ENDROOT
BRANCH   1   2
ATOM      2  C   UNL     1       0.607   7.616   0.004  1.00  0.00     0.188 C 
BRANCH   2   3
ATOM      3  O   UNL     1       0.611   7.811   1.399  1.00  0.00    -0.376 OA
BRANCH   3   4
ATOM      4  C   UNL     1      -0.536   7.892   2.217  1.00  0.00     0.202 C 
BRANCH   4   5
ATOM      5  C   UNL     1      -1.956   7.429   1.861  1.00  0.00     0.261 C 
BRANCH   5   6
ATOM      6  O   UNL     1      -2.162   6.760   0.619  1.00  0.00    -0.463 OA
BRANCH   6   7
ATOM      7  C   UNL     1      -2.795   7.468  -0.341  1.00  0.00     0.308 C 
ATOM      8  O   UNL     1      -3.063   8.661  -0.246  1.00  0.00    -0.252 OA
BRANCH   7   9
ATOM      9  C   UNL     1      -3.226   6.648  -1.532  1.00  0.00     0.156 C 
BRANCH   9  10
ATOM     10  C   UNL     1      -2.555   5.324  -1.889  1.00  0.00     0.149 C 
ATOM     11  N   UNL     1      -1.804   3.033  -1.380  1.00  0.00    -0.320 N 
ATOM     12  C   UNL     1      -2.389   2.567  -2.628  1.00  0.00     0.150 C 
ATOM     13  C   UNL     1      -2.517   4.202  -0.826  1.00  0.00     0.154 C 
ATOM     14  C   UNL     1      -2.613   3.708  -3.624  1.00  0.00     0.182 C 
ATOM     15  O   UNL     1      -3.300   4.817  -3.031  1.00  0.00    -0.374 OA
BRANCH  11  16
ATOM     16  C   UNL     1      -0.948   2.346  -0.577  1.00  0.00     0.318 C 
ATOM     17  N   UNL     1       0.007   1.517  -1.031  1.00  0.00    -0.330 N 
ATOM     18  H   UNL     1       0.392   1.011  -0.279  1.00  0.00     0.166 HD
ATOM     19  O   UNL     1      -0.979   2.481   0.652  1.00  0.00    -0.249 OA
BRANCH  17  20
ATOM     20  C   UNL     1       0.663   1.121  -2.281  1.00  0.00     0.124 C 
BRANCH  20  21
ATOM     21  C   UNL     1       0.308  -0.301  -2.762  1.00  0.00     0.027 C 
ATOM     22  C   UNL     1      -1.153  -0.719  -2.705  1.00  0.00     0.006 C 
ENDBRANCH  20  21
BRANCH  20  23
ATOM     23  C   UNL     1       0.776   2.204  -3.325  1.00  0.00     0.027 A 
ATOM     24  C   UNL     1       0.347   2.241  -4.642  1.00  0.00     0.017 A 
ATOM     25  S   UNL     1       1.674   3.627  -2.953  1.00  0.00    -0.147 S 
ATOM     26  C   UNL     1       0.644   3.482  -5.286  1.00  0.00     0.012 A 
ATOM     27  C   UNL     1       1.335   4.338  -4.463  1.00  0.00     0.065 A 
ENDBRANCH  20  23
ENDBRANCH  17  20
ENDBRANCH  11  16
ENDBRANCH   9  10
ENDBRANCH   7   9
ENDBRANCH   6   7
ENDBRANCH   5   6
ENDBRANCH   4   5
ENDBRANCH   3   4
ENDBRANCH   2   3
ENDBRANCH   1   2
BRANCH   1  28
ATOM     28  O   UNL     1       1.331   5.168   0.147  1.00  0.00    -0.377 OA
BRANCH  28  29
ATOM     29  C   UNL     1       1.182   5.062   1.550  1.00  0.00     0.188 C 
BRANCH  29  30
ATOM     30  C   UNL     1       2.368   5.697   2.292  1.00  0.00     0.188 C 
BRANCH  30  31
ATOM     31  O   UNL     1       3.405   6.325   1.557  1.00  0.00    -0.376 OA
BRANCH  31  32
ATOM     32  C   UNL     1       3.957   5.713   0.401  1.00  0.00     0.202 C 
BRANCH  32  33
ATOM     33  C   UNL     1       4.158   4.188   0.234  1.00  0.00     0.261 C 
BRANCH  33  34
ATOM     34  O   UNL     1       3.384   3.300   1.048  1.00  0.00    -0.460 OA
BRANCH  34  35
ATOM     35  C   UNL     1       3.978   2.854   2.174  1.00  0.00     0.338 C 
ATOM     36  O   UNL     1       5.108   3.098   2.570  1.00  0.00    -0.246 OA
BRANCH  35  37
ATOM     37  C   UNL     1       2.971   2.127   2.971  1.00  0.00     0.060 A 
ATOM     38  C   UNL     1       2.573   2.672   4.199  1.00  0.00     0.016 A 
ATOM     39  C   UNL     1       2.430   0.920   2.524  1.00  0.00     0.016 A 
ATOM     40  C   UNL     1       1.630   2.017   4.985  1.00  0.00     0.010 A 
ATOM     41  C   UNL     1       1.512   0.242   3.331  1.00  0.00     0.010 A 
ATOM     42  C   UNL     1       1.124   0.780   4.572  1.00  0.00    -0.014 A 
BRANCH  42  43
ATOM     43  C   UNL     1       0.318  -0.024   5.518  1.00  0.00     0.031 A 
ATOM     44  C   UNL     1       1.008  -1.071   6.341  1.00  0.00     0.074 A 
ATOM     45  C   UNL     1      -0.999   0.195   5.662  1.00  0.00     0.049 A 
ATOM     46  N   UNL     1       0.506  -1.932   7.188  1.00  0.00    -0.248 NA
ATOM     47  C   UNL     1       2.468  -1.159   6.182  1.00  0.00     0.031 C 
ATOM     48  C   UNL     1      -1.762   1.228   4.968  1.00  0.00     0.029 A 
ATOM     49  N   UNL     1      -1.925  -0.449   6.443  1.00  0.00    -0.354 N 
ATOM     50  C   UNL     1       1.585  -2.671   7.655  1.00  0.00     0.074 A 
ATOM     51  C   UNL     1       2.764  -2.176   6.977  1.00  0.00     0.031 C 
ATOM     52  C   UNL     1      -3.048   1.146   5.351  1.00  0.00     0.029 A 
ATOM     53  C   UNL     1      -3.202   0.025   6.277  1.00  0.00     0.049 A 
ATOM     54  H   UNL     1      -1.696  -1.180   7.061  1.00  0.00     0.167 HD
ATOM     55  C   UNL     1       1.589  -3.672   8.568  1.00  0.00     0.037 A 
ATOM     56  C   UNL     1      -4.364  -0.422   6.793  1.00  0.00     0.037 A 
ATOM     57  C   UNL     1       0.406  -4.167   9.224  1.00  0.00     0.049 A 
ATOM     58  C   UNL     1      -4.353  -1.618   7.709  1.00  0.00     0.074 A 
ATOM     59  C   UNL     1       0.300  -5.159  10.181  1.00  0.00     0.029 A 
ATOM     60  N   UNL     1      -0.883  -3.716   8.971  1.00  0.00    -0.354 N 
ATOM     61  N   UNL     1      -3.332  -2.301   8.171  1.00  0.00    -0.248 NA
ATOM     62  C   UNL     1      -5.659  -2.115   8.165  1.00  0.00     0.031 C 
ATOM     63  C   UNL     1      -1.058  -5.362  10.451  1.00  0.00     0.029 A 
ATOM     64  C   UNL     1      -1.796  -4.449   9.713  1.00  0.00     0.049 A 
ATOM     65  H   UNL     1      -1.115  -2.984   8.355  1.00  0.00     0.167 HD
ATOM     66  C   UNL     1      -3.868  -3.293   8.982  1.00  0.00     0.074 A 
ATOM     67  C   UNL     1      -5.305  -3.112   8.965  1.00  0.00     0.031 C 
ATOM     68  C   UNL     1      -3.227  -4.266   9.677  1.00  0.00     0.037 A 
BRANCH  55  69
ATOM     69  C   UNL     1       2.907  -4.334   8.856  1.00  0.00     0.064 A 
ATOM     70  C   UNL     1       3.953  -3.661   9.507  1.00  0.00     0.173 A 
ATOM     71  C   UNL     1       3.132  -5.661   8.458  1.00  0.00     0.173 A 
ATOM     72  F   UNL     1       3.797  -2.387   9.898  1.00  0.00    -0.203 F 
ATOM     73  C   UNL     1       5.188  -4.274   9.703  1.00  0.00     0.198 A 
ATOM     74  C   UNL     1       4.355  -6.283   8.690  1.00  0.00     0.198 A 
ATOM     75  F   UNL     1       2.166  -6.355   7.837  1.00  0.00    -0.203 F 
ATOM     76  F   UNL     1       6.195  -3.587  10.260  1.00  0.00    -0.200 F 
ATOM     77  C   UNL     1       5.387  -5.585   9.298  1.00  0.00     0.200 A 
ATOM     78  F   UNL     1       4.540  -7.556   8.311  1.00  0.00    -0.200 F 
ATOM     79  F   UNL     1       6.577  -6.173   9.482  1.00  0.00    -0.200 F 
ENDBRANCH  55  69
BRANCH  56  80
ATOM     80  C   UNL     1      -5.636   0.259   6.439  1.00  0.00     0.064 A 
ATOM     81  C   UNL     1      -6.354   0.982   7.400  1.00  0.00     0.173 A 
ATOM     82  C   UNL     1      -6.153   0.214   5.135  1.00  0.00     0.173 A 
ATOM     83  F   UNL     1      -5.917   1.029   8.667  1.00  0.00    -0.203 F 
ATOM     84  C   UNL     1      -7.541   1.634   7.071  1.00  0.00     0.198 A 
ATOM     85  C   UNL     1      -7.324   0.890   4.800  1.00  0.00     0.198 A 
ATOM     86  F   UNL     1      -5.510  -0.474   4.180  1.00  0.00    -0.203 F 
ATOM     87  F   UNL     1      -8.226   2.292   8.017  1.00  0.00    -0.200 F 
ATOM     88  C   UNL     1      -8.019   1.596   5.770  1.00  0.00     0.200 A 
ATOM     89  F   UNL     1      -7.777   0.859   3.539  1.00  0.00    -0.200 F 
ATOM     90  F   UNL     1      -9.153   2.236   5.451  1.00  0.00    -0.200 F 
ENDBRANCH  56  80
BRANCH  68  91
ATOM     91  C   UNL     1      -4.071  -5.213  10.483  1.00  0.00     0.064 A 
ATOM     92  C   UNL     1      -4.878  -6.182   9.869  1.00  0.00     0.173 A 
ATOM     93  C   UNL     1      -4.028  -5.191  11.886  1.00  0.00     0.173 A 
ATOM     94  F   UNL     1      -4.969  -6.237   8.531  1.00  0.00    -0.203 F 
ATOM     95  C   UNL     1      -5.624  -7.081  10.628  1.00  0.00     0.198 A 
ATOM     96  C   UNL     1      -4.748  -6.113  12.642  1.00  0.00     0.198 A 
ATOM     97  F   UNL     1      -3.268  -4.290  12.526  1.00  0.00    -0.203 F 
ATOM     98  F   UNL     1      -6.421  -7.970  10.020  1.00  0.00    -0.200 F 
ATOM     99  C   UNL     1      -5.550  -7.053  12.013  1.00  0.00     0.200 A 
ATOM    100  F   UNL     1      -4.661  -6.095  13.979  1.00  0.00    -0.200 F 
ATOM    101  F   UNL     1      -6.255  -7.929  12.741  1.00  0.00    -0.200 F 
ENDBRANCH  68  91
ENDBRANCH  42  43
ENDBRANCH  35  37
ENDBRANCH  34  35
ENDBRANCH  33  34
ENDBRANCH  32  33
ENDBRANCH  31  32
ENDBRANCH  30  31
ENDBRANCH  29  30
ENDBRANCH  28  29
ENDBRANCH   1  28
TORSDOF 25
