REMARK SMILES O=C(OCCOCCOCCOCCOC(=O)c1ccc(-c2c3nc(c(-c4c(F)c(F)c(F)c(F)c4F)c4ccc([nH]4)c(-c4c(F)c(F)c(F)c(F)c4F)c4nc(c(-c5c(F)c(F)c(F)c(F)c5F)c5ccc2[nH]5)C=C4)C=C3)cc1)C1=Cc2c(ccc(Cl)c2Oc2ccccc2)O[C@H]1C(F)(F)F
REMARK SMILES IDX 9 1 8 2 7 3 6 4 5 5 4 6 3 7 2 8 1 9 81 10 82 11 98 12 83 13
REMARK SMILES IDX 97 14 84 15 89 16 85 17 87 18 86 19 88 20 99 21 100 22
REMARK SMILES IDX 101 23 102 24 90 25 91 26 92 27 96 28 93 29 95 30 94 31
REMARK SMILES IDX 10 32 11 33 12 34 13 35 14 36 15 37 16 38 17 39 18 40 19 41
REMARK SMILES IDX 80 42 20 43 79 44 21 45 22 46 23 47 73 48 24 49 78 50 72 51
REMARK SMILES IDX 74 52 25 53 77 54 71 55 70 56 26 58 58 59 38 60 57 61 39 62
REMARK SMILES IDX 42 63 56 64 75 65 40 66 41 67 55 69 76 70 43 71 27 72 28 73
REMARK SMILES IDX 36 74 29 75 30 76 34 77 37 78 31 79 32 80 35 81 33 82 59 83
REMARK SMILES IDX 60 84 68 85 61 86 62 87 66 88 69 89 63 90 64 91 67 92 65 93
REMARK SMILES IDX 44 94 45 95 53 96 46 97 47 98 51 99 54 100 48 101 49 102
REMARK SMILES IDX 52 103 50 104
REMARK H PARENT 74 57 42 68
REMARK Flexibility Score: inf
ROOT
ATOM      1  O   UNL     1       2.767   3.480  -1.572  1.00  0.00    -0.377 OA
ENDROOT
BRANCH   1   2
ATOM      2  C   UNL     1       1.868   3.248  -0.426  1.00  0.00     0.188 C 
BRANCH   2   3
ATOM      3  C   UNL     1       1.392   1.469   0.755  1.00  0.00     0.188 C 
BRANCH   3   4
ATOM      4  O   UNL     1       2.100   0.785   1.847  1.00  0.00    -0.376 OA
BRANCH   4   5
ATOM      5  C   UNL     1       2.630  -0.441   1.449  1.00  0.00     0.202 C 
BRANCH   5   6
ATOM      6  C   UNL     1       1.854  -1.434   0.548  1.00  0.00     0.261 C 
BRANCH   6   7
ATOM      7  O   UNL     1       1.986  -2.816   0.987  1.00  0.00    -0.460 OA
BRANCH   7   8
ATOM      8  C   UNL     1       3.048  -3.222   1.738  1.00  0.00     0.338 C 
ATOM      9  O   UNL     1       2.917  -3.918   2.733  1.00  0.00    -0.246 OA
BRANCH   8  10
ATOM     10  C   UNL     1       4.354  -2.650   1.347  1.00  0.00     0.088 C 
ATOM     11  C   UNL     1       4.487  -2.187   0.094  1.00  0.00     0.031 C 
ATOM     12  C   UNL     1       5.410  -2.407   2.406  1.00  0.00     0.316 C 
ATOM     13  C   UNL     1       5.371  -1.035  -0.050  1.00  0.00     0.062 A 
ATOM     14  O   UNL     1       6.687  -2.021   1.753  1.00  0.00    -0.475 OA
ATOM     15  C   UNL     1       6.588  -1.246   0.614  1.00  0.00     0.131 A 
ATOM     16  C   UNL     1       5.135   0.056  -0.943  1.00  0.00     0.156 A 
ATOM     17  C   UNL     1       7.727  -0.759   0.012  1.00  0.00     0.049 A 
ATOM     18  C   UNL     1       6.307   0.453  -1.599  1.00  0.00     0.084 A 
ATOM     19  C   UNL     1       7.583   0.009  -1.153  1.00  0.00     0.028 A 
ATOM     20  Cl  UNL     1       6.271   1.317  -3.095  1.00  0.00    -0.080 Cl
BRANCH  12  21
ATOM     21  C   UNL     1       5.064  -1.482   3.616  1.00  0.00     0.430 C 
ATOM     22  F   UNL     1       3.764  -1.528   3.984  1.00  0.00    -0.167 F 
ATOM     23  F   UNL     1       5.757  -1.837   4.725  1.00  0.00    -0.167 F 
ATOM     24  F   UNL     1       5.359  -0.186   3.355  1.00  0.00    -0.167 F 
ENDBRANCH  12  21
BRANCH  16  25
ATOM     25  O   UNL     1       3.852   0.453  -1.408  1.00  0.00    -0.455 OA
BRANCH  25  26
ATOM     26  C   UNL     1       2.951   1.365  -0.729  1.00  0.00     0.127 A 
ATOM     27  C   UNL     1       1.249   1.449  -1.363  1.00  0.00     0.047 A 
ATOM     28  C   UNL     1       3.361   2.312   0.743  1.00  0.00     0.047 A 
ATOM     29  C   UNL     1      -0.061   2.336  -0.434  1.00  0.00     0.004 A 
ATOM     30  C   UNL     1       2.088   3.220   1.675  1.00  0.00     0.004 A 
ATOM     31  C   UNL     1       0.377   3.287   1.063  1.00  0.00     0.000 A 
ENDBRANCH  25  26
ENDBRANCH  16  25
ENDBRANCH   8  10
ENDBRANCH   7   8
ENDBRANCH   6   7
ENDBRANCH   5   6
ENDBRANCH   4   5
ENDBRANCH   3   4
ENDBRANCH   2   3
ENDBRANCH   1   2
BRANCH   1  32
ATOM     32  C   UNL     1       4.093   3.953  -1.550  1.00  0.00     0.188 C 
BRANCH  32  33
ATOM     33  C   UNL     1       4.979   4.567  -0.441  1.00  0.00     0.188 C 
BRANCH  33  34
ATOM     34  O   UNL     1       4.737   5.668   0.412  1.00  0.00    -0.376 OA
BRANCH  34  35
ATOM     35  C   UNL     1       3.504   6.329   0.512  1.00  0.00     0.202 C 
BRANCH  35  36
ATOM     36  C   UNL     1       3.124   7.297  -0.606  1.00  0.00     0.261 C 
BRANCH  36  37
ATOM     37  O   UNL     1       3.487   6.865  -1.919  1.00  0.00    -0.460 OA
BRANCH  37  38
ATOM     38  C   UNL     1       4.749   7.187  -2.301  1.00  0.00     0.338 C 
ATOM     39  O   UNL     1       5.573   7.832  -1.679  1.00  0.00    -0.246 OA
BRANCH  38  40
ATOM     40  C   UNL     1       5.053   6.486  -3.567  1.00  0.00     0.060 A 
ATOM     41  C   UNL     1       6.245   5.748  -3.650  1.00  0.00     0.016 A 
ATOM     42  C   UNL     1       4.151   6.499  -4.635  1.00  0.00     0.016 A 
ATOM     43  C   UNL     1       6.566   5.067  -4.821  1.00  0.00     0.010 A 
ATOM     44  C   UNL     1       4.492   5.854  -5.823  1.00  0.00     0.010 A 
ATOM     45  C   UNL     1       5.726   5.188  -5.934  1.00  0.00    -0.014 A 
BRANCH  45  46
ATOM     46  C   UNL     1       6.294   4.944  -7.279  1.00  0.00     0.031 A 
ATOM     47  C   UNL     1       6.876   6.134  -7.993  1.00  0.00     0.074 A 
ATOM     48  C   UNL     1       6.328   3.723  -7.836  1.00  0.00     0.049 A 
ATOM     49  N   UNL     1       7.353   6.233  -9.206  1.00  0.00    -0.248 NA
ATOM     50  C   UNL     1       6.917   7.394  -7.228  1.00  0.00     0.031 C 
ATOM     51  C   UNL     1       5.862   2.490  -7.209  1.00  0.00     0.029 A 
ATOM     52  N   UNL     1       6.773   3.330  -9.073  1.00  0.00    -0.354 N 
ATOM     53  C   UNL     1       7.733   7.562  -9.349  1.00  0.00     0.074 A 
ATOM     54  C   UNL     1       7.403   8.241  -8.118  1.00  0.00     0.031 C 
ATOM     55  C   UNL     1       6.032   1.474  -8.075  1.00  0.00     0.029 A 
ATOM     56  C   UNL     1       6.579   1.996  -9.327  1.00  0.00     0.049 A 
ATOM     57  H   UNL     1       7.192   3.946  -9.716  1.00  0.00     0.167 HD
ATOM     58  C   UNL     1       8.314   8.162 -10.413  1.00  0.00     0.037 A 
ATOM     59  C   UNL     1       6.794   1.294 -10.457  1.00  0.00     0.037 A 
ATOM     60  C   UNL     1       8.631   7.479 -11.636  1.00  0.00     0.049 A 
ATOM     61  C   UNL     1       7.351   2.006 -11.668  1.00  0.00     0.074 A 
ATOM     62  C   UNL     1       9.214   7.986 -12.782  1.00  0.00     0.029 A 
ATOM     63  N   UNL     1       8.380   6.134 -11.873  1.00  0.00    -0.354 N 
ATOM     64  N   UNL     1       7.710   3.261 -11.803  1.00  0.00    -0.248 NA
ATOM     65  C   UNL     1       7.531   1.201 -12.884  1.00  0.00     0.031 C 
ATOM     66  C   UNL     1       9.256   6.965 -13.735  1.00  0.00     0.029 A 
ATOM     67  C   UNL     1       8.771   5.801 -13.158  1.00  0.00     0.049 A 
ATOM     68  H   UNL     1       7.982   5.511 -11.223  1.00  0.00     0.167 HD
ATOM     69  C   UNL     1       8.190   3.387 -13.102  1.00  0.00     0.074 A 
ATOM     70  C   UNL     1       8.088   2.076 -13.709  1.00  0.00     0.031 C 
ATOM     71  C   UNL     1       8.673   4.485 -13.737  1.00  0.00     0.037 A 
BRANCH  58  72
ATOM     72  C   UNL     1       8.599   9.632 -10.309  1.00  0.00     0.064 A 
ATOM     73  C   UNL     1       9.577  10.140  -9.440  1.00  0.00     0.173 A 
ATOM     74  C   UNL     1       7.888  10.547 -11.101  1.00  0.00     0.173 A 
ATOM     75  F   UNL     1      10.270   9.312  -8.644  1.00  0.00    -0.203 F 
ATOM     76  C   UNL     1       9.813  11.510  -9.348  1.00  0.00     0.198 A 
ATOM     77  C   UNL     1       8.152  11.912 -11.033  1.00  0.00     0.198 A 
ATOM     78  F   UNL     1       6.939  10.117 -11.946  1.00  0.00    -0.203 F 
ATOM     79  F   UNL     1      10.712  11.976  -8.470  1.00  0.00    -0.200 F 
ATOM     80  C   UNL     1       9.107  12.393 -10.151  1.00  0.00     0.200 A 
ATOM     81  F   UNL     1       7.479  12.763 -11.819  1.00  0.00    -0.200 F 
ATOM     82  F   UNL     1       9.342  13.710 -10.068  1.00  0.00    -0.200 F 
ENDBRANCH  58  72
BRANCH  59  83
ATOM     83  C   UNL     1       6.470  -0.157 -10.512  1.00  0.00     0.064 A 
ATOM     84  C   UNL     1       7.477  -1.118 -10.680  1.00  0.00     0.173 A 
ATOM     85  C   UNL     1       5.146  -0.614 -10.425  1.00  0.00     0.173 A 
ATOM     86  F   UNL     1       8.757  -0.734 -10.796  1.00  0.00    -0.203 F 
ATOM     87  C   UNL     1       7.172  -2.474 -10.782  1.00  0.00     0.198 A 
ATOM     88  C   UNL     1       4.845  -1.973 -10.492  1.00  0.00     0.198 A 
ATOM     89  F   UNL     1       4.141   0.261 -10.271  1.00  0.00    -0.203 F 
ATOM     90  F   UNL     1       8.149  -3.365 -10.998  1.00  0.00    -0.200 F 
ATOM     91  C   UNL     1       5.856  -2.901 -10.680  1.00  0.00     0.200 A 
ATOM     92  F   UNL     1       3.573  -2.381 -10.380  1.00  0.00    -0.200 F 
ATOM     93  F   UNL     1       5.564  -4.206 -10.774  1.00  0.00    -0.200 F 
ENDBRANCH  59  83
BRANCH  71  94
ATOM     94  C   UNL     1       9.180   4.309 -15.141  1.00  0.00     0.064 A 
ATOM     95  C   UNL     1       8.317   4.049 -16.216  1.00  0.00     0.173 A 
ATOM     96  C   UNL     1      10.549   4.454 -15.419  1.00  0.00     0.173 A 
ATOM     97  F   UNL     1       7.002   3.892 -16.004  1.00  0.00    -0.203 F 
ATOM     98  C   UNL     1       8.810   3.909 -17.511  1.00  0.00     0.198 A 
ATOM     99  C   UNL     1      11.032   4.352 -16.720  1.00  0.00     0.198 A 
ATOM    100  F   UNL     1      11.417   4.716 -14.431  1.00  0.00    -0.203 F 
ATOM    101  F   UNL     1       7.974   3.604 -18.513  1.00  0.00    -0.200 F 
ATOM    102  C   UNL     1      10.164   4.069 -17.763  1.00  0.00     0.200 A 
ATOM    103  F   UNL     1      12.338   4.529 -16.964  1.00  0.00    -0.200 F 
ATOM    104  F   UNL     1      10.634   3.944 -19.012  1.00  0.00    -0.200 F 
ENDBRANCH  71  94
ENDBRANCH  45  46
ENDBRANCH  38  40
ENDBRANCH  37  38
ENDBRANCH  36  37
ENDBRANCH  35  36
ENDBRANCH  34  35
ENDBRANCH  33  34
ENDBRANCH  32  33
ENDBRANCH   1  32
TORSDOF 23
