REMARK SMILES O=C(OCCOCCOCCOCCOC(=O)c1cc(-c2ccccc2)nc(Nc2nc3ccccc3s2)n1)c1ccc(-c2c3nc(c(-c4c(F)c(F)c(F)c(F)c4F)c4ccc([nH]4)c(-c4c(F)c(F)c(F)c(F)c4F)c4nc(c(-c5c(F)c(F)c(F)c(F)c5F)c5ccc2[nH]5)C=C4)C=C3)cc1
REMARK SMILES IDX 9 1 8 2 7 3 6 4 5 5 4 6 3 7 2 8 1 9 40 10 41 11 102 12 42 13
REMARK SMILES IDX 101 14 43 15 44 16 45 17 95 18 46 19 100 20 94 21 96 22
REMARK SMILES IDX 47 23 99 24 93 25 92 26 48 28 80 29 60 30 79 31 61 32 64 33
REMARK SMILES IDX 78 34 97 35 62 36 63 37 77 39 98 40 65 41 49 42 50 43 58 44
REMARK SMILES IDX 51 45 52 46 56 47 59 48 53 49 54 50 57 51 55 52 81 53 82 54
REMARK SMILES IDX 90 55 83 56 84 57 88 58 91 59 85 60 86 61 89 62 87 63 66 64
REMARK SMILES IDX 67 65 75 66 68 67 69 68 73 69 76 70 70 71 71 72 74 73 72 74
REMARK SMILES IDX 10 75 11 76 12 77 13 78 14 79 15 80 16 81 17 82 18 83 19 84
REMARK SMILES IDX 39 85 20 86 28 87 27 88 21 89 22 90 26 91 23 92 25 93 24 94
REMARK SMILES IDX 29 95 30 97 31 98 38 99 32 100 37 101 33 102 36 103 34 104
REMARK SMILES IDX 35 105
REMARK H PARENT 96 27 64 38 29 96
REMARK Flexibility Score: inf
ROOT
ATOM      1  O   UNL     1       2.347  -0.495  -3.776  1.00  0.00    -0.377 OA
ENDROOT
BRANCH   1   2
ATOM      2  C   UNL     1       1.479   0.140  -2.861  1.00  0.00     0.188 C 
BRANCH   2   3
ATOM      3  C   UNL     1       1.695  -0.168  -1.382  1.00  0.00     0.188 C 
BRANCH   3   4
ATOM      4  O   UNL     1       3.061  -0.368  -1.022  1.00  0.00    -0.376 OA
BRANCH   4   5
ATOM      5  C   UNL     1       3.395  -1.708  -0.663  1.00  0.00     0.202 C 
BRANCH   5   6
ATOM      6  C   UNL     1       3.640  -1.828   0.843  1.00  0.00     0.261 C 
BRANCH   6   7
ATOM      7  O   UNL     1       2.473  -1.493   1.617  1.00  0.00    -0.460 OA
BRANCH   7   8
ATOM      8  C   UNL     1       1.895  -0.269   1.686  1.00  0.00     0.338 C 
ATOM      9  O   UNL     1       0.671  -0.178   1.751  1.00  0.00    -0.246 OA
BRANCH   8  10
ATOM     10  C   UNL     1       2.712   0.961   1.920  1.00  0.00     0.060 A 
ATOM     11  C   UNL     1       3.926   1.264   1.298  1.00  0.00     0.016 A 
ATOM     12  C   UNL     1       2.171   1.901   2.813  1.00  0.00     0.016 A 
ATOM     13  C   UNL     1       4.647   2.404   1.640  1.00  0.00     0.010 A 
ATOM     14  C   UNL     1       2.874   3.061   3.146  1.00  0.00     0.010 A 
ATOM     15  C   UNL     1       4.144   3.281   2.600  1.00  0.00    -0.014 A 
BRANCH  15  16
ATOM     16  C   UNL     1       5.052   4.287   3.184  1.00  0.00     0.031 A 
ATOM     17  C   UNL     1       5.681   3.968   4.509  1.00  0.00     0.074 A 
ATOM     18  C   UNL     1       5.381   5.395   2.501  1.00  0.00     0.049 A 
ATOM     19  N   UNL     1       6.482   4.687   5.248  1.00  0.00    -0.248 NA
ATOM     20  C   UNL     1       5.367   2.644   5.076  1.00  0.00     0.031 C 
ATOM     21  C   UNL     1       4.903   5.734   1.162  1.00  0.00     0.029 A 
ATOM     22  N   UNL     1       6.215   6.429   2.835  1.00  0.00    -0.354 N 
ATOM     23  C   UNL     1       6.739   3.920   6.377  1.00  0.00     0.074 A 
ATOM     24  C   UNL     1       6.009   2.681   6.231  1.00  0.00     0.031 C 
ATOM     25  C   UNL     1       5.466   6.893   0.779  1.00  0.00     0.029 A 
ATOM     26  C   UNL     1       6.303   7.396   1.865  1.00  0.00     0.049 A 
ATOM     27  H   UNL     1       6.703   6.475   3.689  1.00  0.00     0.167 HD
ATOM     28  C   UNL     1       7.511   4.230   7.443  1.00  0.00     0.037 A 
ATOM     29  C   UNL     1       6.976   8.562   1.876  1.00  0.00     0.037 A 
ATOM     30  C   UNL     1       8.232   5.466   7.564  1.00  0.00     0.049 A 
ATOM     31  C   UNL     1       7.781   8.913   3.101  1.00  0.00     0.074 A 
ATOM     32  C   UNL     1       9.006   5.922   8.613  1.00  0.00     0.029 A 
ATOM     33  N   UNL     1       8.263   6.448   6.581  1.00  0.00    -0.354 N 
ATOM     34  N   UNL     1       7.980   8.209   4.191  1.00  0.00    -0.248 NA
ATOM     35  C   UNL     1       8.447  10.221   3.103  1.00  0.00     0.031 C 
ATOM     36  C   UNL     1       9.477   7.198   8.280  1.00  0.00     0.029 A 
ATOM     37  C   UNL     1       9.036   7.515   7.004  1.00  0.00     0.049 A 
ATOM     38  H   UNL     1       7.803   6.393   5.713  1.00  0.00     0.167 HD
ATOM     39  C   UNL     1       8.813   8.974   4.995  1.00  0.00     0.074 A 
ATOM     40  C   UNL     1       9.092  10.192   4.261  1.00  0.00     0.031 C 
ATOM     41  C   UNL     1       9.304   8.701   6.230  1.00  0.00     0.037 A 
BRANCH  28  42
ATOM     42  C   UNL     1       7.542   3.241   8.570  1.00  0.00     0.064 A 
ATOM     43  C   UNL     1       8.202   2.007   8.460  1.00  0.00     0.173 A 
ATOM     44  C   UNL     1       6.855   3.513   9.762  1.00  0.00     0.173 A 
ATOM     45  F   UNL     1       8.848   1.685   7.329  1.00  0.00    -0.203 F 
ATOM     46  C   UNL     1       8.140   1.068   9.487  1.00  0.00     0.198 A 
ATOM     47  C   UNL     1       6.818   2.583  10.798  1.00  0.00     0.198 A 
ATOM     48  F   UNL     1       6.202   4.674   9.916  1.00  0.00    -0.203 F 
ATOM     49  F   UNL     1       8.720  -0.131   9.334  1.00  0.00    -0.200 F 
ATOM     50  C   UNL     1       7.450   1.357  10.656  1.00  0.00     0.200 A 
ATOM     51  F   UNL     1       6.153   2.866  11.927  1.00  0.00    -0.200 F 
ATOM     52  F   UNL     1       7.381   0.448  11.637  1.00  0.00    -0.200 F 
ENDBRANCH  28  42
BRANCH  29  53
ATOM     53  C   UNL     1       6.911   9.477   0.705  1.00  0.00     0.064 A 
ATOM     54  C   UNL     1       8.045   9.731  -0.079  1.00  0.00     0.173 A 
ATOM     55  C   UNL     1       5.718  10.122   0.348  1.00  0.00     0.173 A 
ATOM     56  F   UNL     1       9.217   9.159   0.235  1.00  0.00    -0.203 F 
ATOM     57  C   UNL     1       7.991  10.603  -1.165  1.00  0.00     0.198 A 
ATOM     58  C   UNL     1       5.657  10.972  -0.755  1.00  0.00     0.198 A 
ATOM     59  F   UNL     1       4.603   9.920   1.066  1.00  0.00    -0.203 F 
ATOM     60  F   UNL     1       9.101  10.861  -1.870  1.00  0.00    -0.200 F 
ATOM     61  C   UNL     1       6.796  11.218  -1.506  1.00  0.00     0.200 A 
ATOM     62  F   UNL     1       4.497  11.555  -1.087  1.00  0.00    -0.200 F 
ATOM     63  F   UNL     1       6.744  12.053  -2.553  1.00  0.00    -0.200 F 
ENDBRANCH  29  53
BRANCH  41  64
ATOM     64  C   UNL     1      10.228   9.715   6.834  1.00  0.00     0.064 A 
ATOM     65  C   UNL     1       9.753  10.932   7.343  1.00  0.00     0.173 A 
ATOM     66  C   UNL     1      11.599   9.440   6.945  1.00  0.00     0.173 A 
ATOM     67  F   UNL     1       8.452  11.242   7.246  1.00  0.00    -0.203 F 
ATOM     68  C   UNL     1      10.625  11.850   7.921  1.00  0.00     0.198 A 
ATOM     69  C   UNL     1      12.462  10.348   7.548  1.00  0.00     0.198 A 
ATOM     70  F   UNL     1      12.096   8.284   6.480  1.00  0.00    -0.203 F 
ATOM     71  F   UNL     1      10.159  13.026   8.363  1.00  0.00    -0.200 F 
ATOM     72  C   UNL     1      11.976  11.554   8.029  1.00  0.00     0.200 A 
ATOM     73  F   UNL     1      13.765  10.056   7.664  1.00  0.00    -0.200 F 
ATOM     74  F   UNL     1      12.812  12.437   8.593  1.00  0.00    -0.200 F 
ENDBRANCH  41  64
ENDBRANCH  15  16
ENDBRANCH   8  10
ENDBRANCH   7   8
ENDBRANCH   6   7
ENDBRANCH   5   6
ENDBRANCH   4   5
ENDBRANCH   3   4
ENDBRANCH   2   3
ENDBRANCH   1   2
BRANCH   1  75
ATOM     75  C   UNL     1       3.742  -0.211  -3.714  1.00  0.00     0.188 C 
BRANCH  75  76
ATOM     76  C   UNL     1       4.308   1.145  -3.232  1.00  0.00     0.188 C 
BRANCH  76  77
ATOM     77  O   UNL     1       3.392   2.236  -3.222  1.00  0.00    -0.376 OA
BRANCH  77  78
ATOM     78  C   UNL     1       3.651   3.264  -4.172  1.00  0.00     0.202 C 
BRANCH  78  79
ATOM     79  C   UNL     1       3.068   2.946  -5.551  1.00  0.00     0.261 C 
BRANCH  79  80
ATOM     80  O   UNL     1       3.617   1.761  -6.146  1.00  0.00    -0.459 OA
BRANCH  80  81
ATOM     81  C   UNL     1       4.923   1.804  -6.507  1.00  0.00     0.357 C 
ATOM     82  O   UNL     1       5.655   2.777  -6.497  1.00  0.00    -0.244 OA
BRANCH  81  83
ATOM     83  C   UNL     1       5.322   0.405  -6.795  1.00  0.00     0.154 A 
ATOM     84  C   UNL     1       4.654  -0.295  -7.761  1.00  0.00     0.065 A 
ATOM     85  N   UNL     1       6.233  -0.136  -5.961  1.00  0.00    -0.206 NA
ATOM     86  C   UNL     1       5.003  -1.620  -7.871  1.00  0.00     0.077 A 
ATOM     87  C   UNL     1       6.458  -1.448  -6.080  1.00  0.00     0.230 A 
ATOM     88  N   UNL     1       5.899  -2.205  -7.041  1.00  0.00    -0.213 NA
BRANCH  86  89
ATOM     89  C   UNL     1       4.415  -2.449  -8.932  1.00  0.00     0.000 A 
ATOM     90  C   UNL     1       3.754  -3.656  -8.659  1.00  0.00     0.010 A 
ATOM     91  C   UNL     1       4.453  -2.003 -10.268  1.00  0.00     0.010 A 
ATOM     92  C   UNL     1       3.127  -4.374  -9.685  1.00  0.00     0.001 A 
ATOM     93  C   UNL     1       3.832  -2.720 -11.290  1.00  0.00     0.001 A 
ATOM     94  C   UNL     1       3.162  -3.903 -10.997  1.00  0.00     0.000 A 
ENDBRANCH  86  89
BRANCH  87  95
ATOM     95  N   UNL     1       7.350  -2.085  -5.227  1.00  0.00    -0.300 N 
ATOM     96  H   UNL     1       7.680  -2.970  -5.502  1.00  0.00     0.172 HD
BRANCH  95  97
ATOM     97  C   UNL     1       7.803  -1.597  -4.055  1.00  0.00     0.190 A 
ATOM     98  N   UNL     1       7.087  -0.964  -3.151  1.00  0.00    -0.220 NA
ATOM     99  S   UNL     1       9.449  -1.857  -3.604  1.00  0.00    -0.097 S 
ATOM    100  C   UNL     1       7.870  -0.601  -2.067  1.00  0.00     0.084 A 
ATOM    101  C   UNL     1       9.216  -0.947  -2.164  1.00  0.00     0.056 A 
ATOM    102  C   UNL     1       7.430   0.081  -0.912  1.00  0.00     0.030 A 
ATOM    103  C   UNL     1      10.151  -0.578  -1.180  1.00  0.00     0.021 A 
ATOM    104  C   UNL     1       8.347   0.441   0.082  1.00  0.00     0.002 A 
ATOM    105  C   UNL     1       9.694   0.129  -0.062  1.00  0.00     0.002 A 
ENDBRANCH  95  97
ENDBRANCH  87  95
ENDBRANCH  81  83
ENDBRANCH  80  81
ENDBRANCH  79  80
ENDBRANCH  78  79
ENDBRANCH  77  78
ENDBRANCH  76  77
ENDBRANCH  75  76
ENDBRANCH   1  75
TORSDOF 23
