REMARK SMILES CC(C)[C@H](NC(=O)[C@H](C)NC(=O)C[NH3+])C(=O)OCCOCCOCCOCCOC(=O)c1ccc(-c2c3nc(c(-c4c(F)c(F)c(F)c(F)c4F)c4ccc([nH]4)c(-c4c(F)c(F)c(F)c(F)c4F)c4nc(c(-c5c(F)c(F)c(F)c(F)c5F)c5ccc2[nH]5)C=C4)C=C3)cc1
REMARK SMILES IDX 21 1 20 2 19 3 18 4 17 5 15 6 16 7 4 8 2 9 1 10 3 11 5 12
REMARK SMILES IDX 6 13 7 15 8 16 9 17 10 18 11 19 12 21 13 22 14 23 22 27
REMARK SMILES IDX 23 28 24 29 25 30 26 31 27 32 28 33 29 34 30 35 31 36 32 37
REMARK SMILES IDX 33 38 94 39 34 40 93 41 35 42 36 43 37 44 87 45 38 46 92 47
REMARK SMILES IDX 86 48 88 49 39 50 91 51 85 52 84 53 40 55 72 56 52 57 71 58
REMARK SMILES IDX 53 59 56 60 70 61 89 62 54 63 55 64 69 66 90 67 57 68 41 69
REMARK SMILES IDX 42 70 50 71 43 72 44 73 48 74 51 75 45 76 46 77 49 78 47 79
REMARK SMILES IDX 73 80 74 81 82 82 75 83 76 84 80 85 83 86 77 87 78 88 81 89
REMARK SMILES IDX 79 90 58 91 59 92 67 93 60 94 61 95 65 96 68 97 62 98 63 99
REMARK SMILES IDX 66 100 64 101
REMARK H PARENT 5 14 10 20 14 24 14 25 14 26 88 54 56 65
REMARK Flexibility Score: inf
ROOT
ATOM      1  C   UNL     1      -5.916   5.082  -1.913  1.00  0.00     0.188 C 
ENDROOT
BRANCH   1   2
ATOM      2  O   UNL     1      -6.487   3.965  -1.256  1.00  0.00    -0.376 OA
BRANCH   2   3
ATOM      3  C   UNL     1      -6.127   3.562   0.055  1.00  0.00     0.202 C 
BRANCH   3   4
ATOM      4  C   UNL     1      -4.698   3.601   0.644  1.00  0.00     0.261 C 
BRANCH   4   5
ATOM      5  O   UNL     1      -3.789   4.608   0.173  1.00  0.00    -0.462 OA
BRANCH   5   6
ATOM      6  C   UNL     1      -3.028   4.218  -0.876  1.00  0.00     0.328 C 
ATOM      7  O   UNL     1      -3.084   3.085  -1.344  1.00  0.00    -0.250 OA
BRANCH   6   8
ATOM      8  C   UNL     1      -2.222   5.375  -1.533  1.00  0.00     0.194 C 
BRANCH   8   9
ATOM      9  C   UNL     1      -0.827   4.967  -2.037  1.00  0.00     0.017 C 
ATOM     10  C   UNL     1      -0.721   3.582  -2.676  1.00  0.00     0.010 C 
ATOM     11  C   UNL     1      -0.257   6.012  -3.000  1.00  0.00     0.010 C 
ENDBRANCH   8   9
BRANCH   8  12
ATOM     12  N   UNL     1      -2.253   6.742  -0.932  1.00  0.00    -0.341 N 
ATOM     13  C   UNL     1      -1.676   7.471   0.049  1.00  0.00     0.243 C 
ATOM     14  H   UNL     1      -2.914   7.295  -1.409  1.00  0.00     0.164 HD
ATOM     15  O   UNL     1      -2.094   8.636   0.121  1.00  0.00    -0.273 OA
BRANCH  13  16
ATOM     16  C   UNL     1      -0.654   6.943   1.073  1.00  0.00     0.168 C 
ATOM     17  C   UNL     1      -0.203   8.088   1.993  1.00  0.00     0.041 C 
BRANCH  16  18
ATOM     18  N   UNL     1       0.552   6.404   0.455  1.00  0.00    -0.340 N 
ATOM     19  C   UNL     1       1.131   5.186   0.675  1.00  0.00     0.275 C 
ATOM     20  H   UNL     1       1.002   6.987  -0.197  1.00  0.00     0.164 HD
ATOM     21  O   UNL     1       2.244   4.955   0.203  1.00  0.00    -0.268 OA
BRANCH  19  22
ATOM     22  C   UNL     1       0.335   4.113   1.421  1.00  0.00     0.360 C 
BRANCH  22  23
ATOM     23  N   UNL     1       0.424   4.327   2.867  1.00  0.00    -0.350 N 
ATOM     24  H   UNL     1       1.400   4.273   3.159  1.00  0.00     0.344 HD
ATOM     25  H   UNL     1      -0.116   3.610   3.351  1.00  0.00     0.344 HD
ATOM     26  H   UNL     1       0.050   5.248   3.098  1.00  0.00     0.344 HD
ENDBRANCH  22  23
ENDBRANCH  19  22
ENDBRANCH  16  18
ENDBRANCH  13  16
ENDBRANCH   8  12
ENDBRANCH   6   8
ENDBRANCH   5   6
ENDBRANCH   4   5
ENDBRANCH   3   4
ENDBRANCH   2   3
ENDBRANCH   1   2
BRANCH   1  27
ATOM     27  C   UNL     1      -5.664   6.401  -1.171  1.00  0.00     0.188 C 
BRANCH  27  28
ATOM     28  O   UNL     1      -5.781   6.313   0.232  1.00  0.00    -0.377 OA
BRANCH  28  29
ATOM     29  C   UNL     1      -7.026   6.693   0.796  1.00  0.00     0.188 C 
BRANCH  29  30
ATOM     30  C   UNL     1      -8.313   6.404  -0.006  1.00  0.00     0.188 C 
BRANCH  30  31
ATOM     31  O   UNL     1      -8.264   6.813  -1.367  1.00  0.00    -0.376 OA
BRANCH  31  32
ATOM     32  C   UNL     1      -8.819   8.067  -1.735  1.00  0.00     0.202 C 
BRANCH  32  33
ATOM     33  C   UNL     1      -8.158   9.342  -1.183  1.00  0.00     0.261 C 
BRANCH  33  34
ATOM     34  O   UNL     1      -8.075   9.448   0.246  1.00  0.00    -0.460 OA
BRANCH  34  35
ATOM     35  C   UNL     1      -9.226   9.395   0.940  1.00  0.00     0.338 C 
ATOM     36  O   UNL     1     -10.360   9.349   0.483  1.00  0.00    -0.246 OA
BRANCH  35  37
ATOM     37  C   UNL     1      -8.905   9.189   2.365  1.00  0.00     0.060 A 
ATOM     38  C   UNL     1      -9.475   8.092   3.024  1.00  0.00     0.016 A 
ATOM     39  C   UNL     1      -8.083  10.083   3.058  1.00  0.00     0.016 A 
ATOM     40  C   UNL     1      -9.300   7.934   4.396  1.00  0.00     0.010 A 
ATOM     41  C   UNL     1      -7.927   9.939   4.439  1.00  0.00     0.010 A 
ATOM     42  C   UNL     1      -8.591   8.901   5.119  1.00  0.00    -0.014 A 
BRANCH  42  43
ATOM     43  C   UNL     1      -8.816   8.987   6.582  1.00  0.00     0.031 A 
ATOM     44  C   UNL     1      -9.859   9.959   7.071  1.00  0.00     0.074 A 
ATOM     45  C   UNL     1      -8.184   8.178   7.447  1.00  0.00     0.049 A 
ATOM     46  N   UNL     1     -10.250  10.224   8.291  1.00  0.00    -0.248 NA
ATOM     47  C   UNL     1     -10.558  10.740   6.036  1.00  0.00     0.031 C 
ATOM     48  C   UNL     1      -7.202   7.158   7.089  1.00  0.00     0.029 A 
ATOM     49  N   UNL     1      -8.283   8.090   8.813  1.00  0.00    -0.354 N 
ATOM     50  C   UNL     1     -11.228  11.203   8.168  1.00  0.00     0.074 A 
ATOM     51  C   UNL     1     -11.346  11.516   6.762  1.00  0.00     0.031 C 
ATOM     52  C   UNL     1      -6.781   6.549   8.211  1.00  0.00     0.029 A 
ATOM     53  C   UNL     1      -7.441   7.158   9.366  1.00  0.00     0.049 A 
ATOM     54  H   UNL     1      -8.899   8.643   9.345  1.00  0.00     0.167 HD
ATOM     55  C   UNL     1     -11.973  11.781   9.139  1.00  0.00     0.037 A 
ATOM     56  C   UNL     1      -7.220   6.851  10.659  1.00  0.00     0.037 A 
ATOM     57  C   UNL     1     -11.854  11.466  10.536  1.00  0.00     0.049 A 
ATOM     58  C   UNL     1      -8.007   7.566  11.731  1.00  0.00     0.074 A 
ATOM     59  C   UNL     1     -12.561  11.992  11.603  1.00  0.00     0.029 A 
ATOM     60  N   UNL     1     -10.961  10.544  11.062  1.00  0.00    -0.354 N 
ATOM     61  N   UNL     1      -8.940   8.480  11.608  1.00  0.00    -0.248 NA
ATOM     62  C   UNL     1      -7.716   7.196  13.123  1.00  0.00     0.031 C 
ATOM     63  C   UNL     1     -12.053  11.433  12.779  1.00  0.00     0.029 A 
ATOM     64  C   UNL     1     -11.082  10.503  12.441  1.00  0.00     0.049 A 
ATOM     65  H   UNL     1     -10.333  10.000  10.533  1.00  0.00     0.167 HD
ATOM     66  C   UNL     1      -9.375   8.762  12.899  1.00  0.00     0.074 A 
ATOM     67  C   UNL     1      -8.609   7.914  13.788  1.00  0.00     0.031 C 
ATOM     68  C   UNL     1     -10.325   9.638  13.310  1.00  0.00     0.037 A 
BRANCH  55  69
ATOM     69  C   UNL     1     -12.954  12.840   8.721  1.00  0.00     0.064 A 
ATOM     70  C   UNL     1     -14.104  12.535   7.977  1.00  0.00     0.173 A 
ATOM     71  C   UNL     1     -12.746  14.178   9.086  1.00  0.00     0.173 A 
ATOM     72  F   UNL     1     -14.342  11.274   7.585  1.00  0.00    -0.203 F 
ATOM     73  C   UNL     1     -14.992  13.536   7.589  1.00  0.00     0.198 A 
ATOM     74  C   UNL     1     -13.655  15.170   8.727  1.00  0.00     0.198 A 
ATOM     75  F   UNL     1     -11.663  14.526   9.797  1.00  0.00    -0.203 F 
ATOM     76  F   UNL     1     -16.053  13.229   6.829  1.00  0.00    -0.200 F 
ATOM     77  C   UNL     1     -14.771  14.850   7.971  1.00  0.00     0.200 A 
ATOM     78  F   UNL     1     -13.446  16.438   9.110  1.00  0.00    -0.200 F 
ATOM     79  F   UNL     1     -15.631  15.810   7.603  1.00  0.00    -0.200 F 
ENDBRANCH  55  69
BRANCH  56  80
ATOM     80  C   UNL     1      -6.207   5.824  11.021  1.00  0.00     0.064 A 
ATOM     81  C   UNL     1      -6.579   4.614  11.624  1.00  0.00     0.173 A 
ATOM     82  C   UNL     1      -4.839   6.047  10.803  1.00  0.00     0.173 A 
ATOM     83  F   UNL     1      -7.872   4.363  11.877  1.00  0.00    -0.203 F 
ATOM     84  C   UNL     1      -5.623   3.680  12.017  1.00  0.00     0.198 A 
ATOM     85  C   UNL     1      -3.886   5.098  11.166  1.00  0.00     0.198 A 
ATOM     86  F   UNL     1      -4.426   7.189  10.232  1.00  0.00    -0.203 F 
ATOM     87  F   UNL     1      -6.004   2.558  12.643  1.00  0.00    -0.200 F 
ATOM     88  C   UNL     1      -4.277   3.920  11.783  1.00  0.00     0.200 A 
ATOM     89  F   UNL     1      -2.588   5.328  10.925  1.00  0.00    -0.200 F 
ATOM     90  F   UNL     1      -3.358   3.021  12.161  1.00  0.00    -0.200 F 
ENDBRANCH  56  80
BRANCH  68  91
ATOM     91  C   UNL     1     -10.644   9.678  14.780  1.00  0.00     0.064 A 
ATOM     92  C   UNL     1      -9.740  10.183  15.726  1.00  0.00     0.173 A 
ATOM     93  C   UNL     1     -11.895   9.236  15.240  1.00  0.00     0.173 A 
ATOM     94  F   UNL     1      -8.528  10.610  15.342  1.00  0.00    -0.203 F 
ATOM     95  C   UNL     1     -10.062  10.209  17.081  1.00  0.00     0.198 A 
ATOM     96  C   UNL     1     -12.228   9.300  16.590  1.00  0.00     0.198 A 
ATOM     97  F   UNL     1     -12.803   8.755  14.377  1.00  0.00    -0.203 F 
ATOM     98  F   UNL     1      -9.160  10.638  17.974  1.00  0.00    -0.200 F 
ATOM     99  C   UNL     1     -11.308   9.774  17.511  1.00  0.00     0.200 A 
ATOM    100  F   UNL     1     -13.440   8.899  16.999  1.00  0.00    -0.200 F 
ATOM    101  F   UNL     1     -11.618   9.806  18.814  1.00  0.00    -0.200 F 
ENDBRANCH  68  91
ENDBRANCH  42  43
ENDBRANCH  35  37
ENDBRANCH  34  35
ENDBRANCH  33  34
ENDBRANCH  32  33
ENDBRANCH  31  32
ENDBRANCH  30  31
ENDBRANCH  29  30
ENDBRANCH  28  29
ENDBRANCH  27  28
ENDBRANCH   1  27
TORSDOF 26
