REMARK SMILES Cc1ccc(/C=C/C(=O)N2C[C@@H](O)C[C@H]2C(=O)OCCOCCOCCOCCOC(=O)c2ccc(-c3c4nc(c(-c5c(F)c(F)c(F)c(F)c5F)c5ccc([nH]5)c(-c5c(F)c(F)c(F)c(F)c5F)c5nc(c(-c6c(F)c(F)c(F)c(F)c6F)c6ccc3[nH]6)C=C5)C=C4)cc2)c(C)c1
REMARK SMILES IDX 23 1 22 2 21 3 20 4 19 5 18 6 16 7 17 8 15 9 10 10 11 11
REMARK SMILES IDX 12 12 14 13 8 14 9 15 7 16 6 17 5 18 1 19 2 20 3 21 98 22
REMARK SMILES IDX 4 23 96 24 97 25 13 26 24 28 25 29 26 30 27 31 28 32 29 33
REMARK SMILES IDX 30 34 31 35 32 36 33 37 34 38 95 39 35 40 94 41 36 42 37 43
REMARK SMILES IDX 38 44 88 45 39 46 93 47 87 48 89 49 40 50 92 51 86 52 85 53
REMARK SMILES IDX 41 55 73 56 53 57 72 58 54 59 57 60 71 61 90 62 55 63 56 64
REMARK SMILES IDX 70 66 91 67 58 68 42 69 43 70 51 71 44 72 45 73 49 74 52 75
REMARK SMILES IDX 46 76 47 77 50 78 48 79 74 80 75 81 83 82 76 83 77 84 81 85
REMARK SMILES IDX 84 86 78 87 79 88 82 89 80 90 59 91 60 92 68 93 61 94 62 95
REMARK SMILES IDX 66 96 69 97 63 98 64 99 67 100 65 101
REMARK H PARENT 13 27 89 54 57 65
REMARK Flexibility Score: inf
ROOT
ATOM      1  C   UNL     1      -7.394  -1.685   0.124  1.00  0.00     0.188 C 
ENDROOT
BRANCH   1   2
ATOM      2  C   UNL     1      -8.542  -2.004  -0.848  1.00  0.00     0.188 C 
BRANCH   2   3
ATOM      3  O   UNL     1      -9.770  -2.278  -0.216  1.00  0.00    -0.376 OA
BRANCH   3   4
ATOM      4  C   UNL     1     -10.104  -3.600   0.145  1.00  0.00     0.202 C 
BRANCH   4   5
ATOM      5  C   UNL     1      -9.082  -4.691   0.527  1.00  0.00     0.261 C 
BRANCH   5   6
ATOM      6  O   UNL     1      -7.689  -4.487   0.236  1.00  0.00    -0.462 OA
BRANCH   6   7
ATOM      7  C   UNL     1      -7.213  -5.012  -0.923  1.00  0.00     0.329 C 
ATOM      8  O   UNL     1      -7.914  -5.633  -1.718  1.00  0.00    -0.250 OA
BRANCH   7   9
ATOM      9  C   UNL     1      -5.672  -4.915  -1.079  1.00  0.00     0.198 C 
ATOM     10  N   UNL     1      -4.833  -3.983  -0.288  1.00  0.00    -0.323 N 
ATOM     11  C   UNL     1      -4.115  -4.694   0.749  1.00  0.00     0.152 C 
ATOM     12  C   UNL     1      -3.842  -6.033   0.077  1.00  0.00     0.136 C 
ATOM     13  C   UNL     1      -5.126  -6.304  -0.704  1.00  0.00     0.071 C 
BRANCH  10  14
ATOM     14  C   UNL     1      -4.497  -2.740  -0.784  1.00  0.00     0.247 C 
ATOM     15  O   UNL     1      -4.988  -2.282  -1.814  1.00  0.00    -0.270 OA
BRANCH  14  16
ATOM     16  C   UNL     1      -3.514  -1.921  -0.026  1.00  0.00     0.072 C 
ATOM     17  C   UNL     1      -2.274  -1.861  -0.533  1.00  0.00     0.014 C 
BRANCH  17  18
ATOM     18  C   UNL     1      -1.125  -1.035  -0.111  1.00  0.00    -0.023 A 
ATOM     19  C   UNL     1       2.642   1.099   0.122  1.00  0.00     0.044 C 
ATOM     20  C   UNL     1       1.344   0.347   0.129  1.00  0.00    -0.051 A 
ATOM     21  C   UNL     1       1.316  -1.045   0.117  1.00  0.00     0.004 A 
ATOM     22  C   UNL     1       0.128   1.040   0.097  1.00  0.00     0.007 A 
ATOM     23  C   UNL     1       0.099  -1.723  -0.003  1.00  0.00     0.008 A 
ATOM     24  C   UNL     1      -1.113   0.370  -0.018  1.00  0.00    -0.044 A 
ATOM     25  C   UNL     1      -2.327   1.252  -0.129  1.00  0.00     0.045 C 
ENDBRANCH  17  18
ENDBRANCH  14  16
ENDBRANCH  10  14
BRANCH  12  26
ATOM     26  O   UNL     1      -3.556  -7.070   0.995  1.00  0.00    -0.391 OA
ATOM     27  H   UNL     1      -4.302  -7.176   1.605  1.00  0.00     0.211 HD
ENDBRANCH  12  26
ENDBRANCH   7   9
ENDBRANCH   6   7
ENDBRANCH   5   6
ENDBRANCH   4   5
ENDBRANCH   3   4
ENDBRANCH   2   3
ENDBRANCH   1   2
BRANCH   1  28
ATOM     28  O   UNL     1      -7.559  -1.632   1.533  1.00  0.00    -0.377 OA
BRANCH  28  29
ATOM     29  C   UNL     1      -8.753  -1.113   2.082  1.00  0.00     0.188 C 
BRANCH  29  30
ATOM     30  C   UNL     1      -9.406   0.119   1.432  1.00  0.00     0.188 C 
BRANCH  30  31
ATOM     31  O   UNL     1      -8.742   0.592   0.274  1.00  0.00    -0.376 OA
BRANCH  31  32
ATOM     32  C   UNL     1      -7.909   1.732   0.400  1.00  0.00     0.202 C 
BRANCH  32  33
ATOM     33  C   UNL     1      -6.682   1.647   1.324  1.00  0.00     0.261 C 
BRANCH  33  34
ATOM     34  O   UNL     1      -6.919   1.199   2.666  1.00  0.00    -0.460 OA
BRANCH  34  35
ATOM     35  C   UNL     1      -7.657   2.004   3.460  1.00  0.00     0.338 C 
ATOM     36  O   UNL     1      -8.150   3.074   3.178  1.00  0.00    -0.246 OA
BRANCH  35  37
ATOM     37  C   UNL     1      -7.920   1.262   4.711  1.00  0.00     0.060 A 
ATOM     38  C   UNL     1      -9.243   0.929   5.028  1.00  0.00     0.016 A 
ATOM     39  C   UNL     1      -6.871   0.892   5.557  1.00  0.00     0.016 A 
ATOM     40  C   UNL     1      -9.525   0.247   6.208  1.00  0.00     0.010 A 
ATOM     41  C   UNL     1      -7.158   0.236   6.757  1.00  0.00     0.010 A 
ATOM     42  C   UNL     1      -8.490  -0.054   7.102  1.00  0.00    -0.014 A 
BRANCH  42  43
ATOM     43  C   UNL     1      -8.842  -0.448   8.486  1.00  0.00     0.031 A 
ATOM     44  C   UNL     1      -8.892   0.631   9.533  1.00  0.00     0.074 A 
ATOM     45  C   UNL     1      -9.176  -1.712   8.794  1.00  0.00     0.049 A 
ATOM     46  N   UNL     1      -9.190   0.549  10.803  1.00  0.00    -0.248 NA
ATOM     47  C   UNL     1      -8.561   1.991   9.078  1.00  0.00     0.031 C 
ATOM     48  C   UNL     1      -9.207  -2.830   7.855  1.00  0.00     0.029 A 
ATOM     49  N   UNL     1      -9.555  -2.264   9.992  1.00  0.00    -0.354 N 
ATOM     50  C   UNL     1      -9.085   1.843  11.296  1.00  0.00     0.074 A 
ATOM     51  C   UNL     1      -8.654   2.684  10.201  1.00  0.00     0.031 C 
ATOM     52  C   UNL     1      -9.573  -3.942   8.517  1.00  0.00     0.029 A 
ATOM     53  C   UNL     1      -9.775  -3.617   9.928  1.00  0.00     0.049 A 
ATOM     54  H   UNL     1      -9.659  -1.739  10.819  1.00  0.00     0.167 HD
ATOM     55  C   UNL     1      -9.340   2.294  12.547  1.00  0.00     0.037 A 
ATOM     56  C   UNL     1     -10.084  -4.491  10.907  1.00  0.00     0.037 A 
ATOM     57  C   UNL     1      -9.754   1.449  13.635  1.00  0.00     0.049 A 
ATOM     58  C   UNL     1     -10.286  -3.979  12.312  1.00  0.00     0.074 A 
ATOM     59  C   UNL     1     -10.038   1.801  14.943  1.00  0.00     0.029 A 
ATOM     60  N   UNL     1      -9.931   0.075  13.543  1.00  0.00    -0.354 N 
ATOM     61  N   UNL     1     -10.210  -2.752  12.768  1.00  0.00    -0.248 NA
ATOM     62  C   UNL     1     -10.630  -4.976  13.336  1.00  0.00     0.031 C 
ATOM     63  C   UNL     1     -10.325   0.632  15.656  1.00  0.00     0.029 A 
ATOM     64  C   UNL     1     -10.292  -0.440  14.777  1.00  0.00     0.049 A 
ATOM     65  H   UNL     1      -9.816  -0.455  12.721  1.00  0.00     0.167 HD
ATOM     66  C   UNL     1     -10.523  -2.823  14.120  1.00  0.00     0.074 A 
ATOM     67  C   UNL     1     -10.808  -4.214  14.405  1.00  0.00     0.031 C 
ATOM     68  C   UNL     1     -10.573  -1.829  15.042  1.00  0.00     0.037 A 
BRANCH  55  69
ATOM     69  C   UNL     1      -9.136   3.760  12.805  1.00  0.00     0.064 A 
ATOM     70  C   UNL     1      -9.966   4.737  12.232  1.00  0.00     0.173 A 
ATOM     71  C   UNL     1      -8.092   4.194  13.636  1.00  0.00     0.173 A 
ATOM     72  F   UNL     1     -10.967   4.378  11.414  1.00  0.00    -0.203 F 
ATOM     73  C   UNL     1      -9.736   6.093  12.453  1.00  0.00     0.198 A 
ATOM     74  C   UNL     1      -7.888   5.549  13.884  1.00  0.00     0.198 A 
ATOM     75  F   UNL     1      -7.269   3.304  14.210  1.00  0.00    -0.203 F 
ATOM     76  F   UNL     1     -10.502   7.008  11.844  1.00  0.00    -0.200 F 
ATOM     77  C   UNL     1      -8.702   6.497  13.283  1.00  0.00     0.200 A 
ATOM     78  F   UNL     1      -6.896   5.937  14.697  1.00  0.00    -0.200 F 
ATOM     79  F   UNL     1      -8.483   7.802  13.496  1.00  0.00    -0.200 F 
ENDBRANCH  55  69
BRANCH  56  80
ATOM     80  C   UNL     1     -10.203  -5.941  10.596  1.00  0.00     0.064 A 
ATOM     81  C   UNL     1     -11.431  -6.610  10.688  1.00  0.00     0.173 A 
ATOM     82  C   UNL     1      -9.080  -6.691  10.214  1.00  0.00     0.173 A 
ATOM     83  F   UNL     1     -12.530  -5.945  11.072  1.00  0.00    -0.203 F 
ATOM     84  C   UNL     1     -11.527  -7.977  10.429  1.00  0.00     0.198 A 
ATOM     85  C   UNL     1      -9.184  -8.050   9.924  1.00  0.00     0.198 A 
ATOM     86  F   UNL     1      -7.880  -6.101  10.112  1.00  0.00    -0.203 F 
ATOM     87  F   UNL     1     -12.704  -8.602  10.572  1.00  0.00    -0.200 F 
ATOM     88  C   UNL     1     -10.405  -8.694  10.040  1.00  0.00     0.200 A 
ATOM     89  F   UNL     1      -8.100  -8.734   9.534  1.00  0.00    -0.200 F 
ATOM     90  F   UNL     1     -10.500 -10.006   9.784  1.00  0.00    -0.200 F 
ENDBRANCH  56  80
BRANCH  68  91
ATOM     91  C   UNL     1     -10.991  -2.202  16.438  1.00  0.00     0.064 A 
ATOM     92  C   UNL     1     -10.175  -2.976  17.276  1.00  0.00     0.173 A 
ATOM     93  C   UNL     1     -12.216  -1.749  16.955  1.00  0.00     0.173 A 
ATOM     94  F   UNL     1      -8.999  -3.444  16.829  1.00  0.00    -0.203 F 
ATOM     95  C   UNL     1     -10.585  -3.315  18.563  1.00  0.00     0.198 A 
ATOM     96  C   UNL     1     -12.606  -2.057  18.255  1.00  0.00     0.198 A 
ATOM     97  F   UNL     1     -13.031  -0.996  16.201  1.00  0.00    -0.203 F 
ATOM     98  F   UNL     1      -9.816  -4.107  19.323  1.00  0.00    -0.200 F 
ATOM     99  C   UNL     1     -11.796  -2.849  19.054  1.00  0.00     0.200 A 
ATOM    100  F   UNL     1     -13.767  -1.590  18.733  1.00  0.00    -0.200 F 
ATOM    101  F   UNL     1     -12.186  -3.171  20.295  1.00  0.00    -0.200 F 
ENDBRANCH  68  91
ENDBRANCH  42  43
ENDBRANCH  35  37
ENDBRANCH  34  35
ENDBRANCH  33  34
ENDBRANCH  32  33
ENDBRANCH  31  32
ENDBRANCH  30  31
ENDBRANCH  29  30
ENDBRANCH  28  29
ENDBRANCH   1  28
TORSDOF 24
