REMARK SMILES CCn1nc(C)c(Br)c1C[C@H](C(=O)OCCOCCOCCOCCOC(=O)c1ccc(-c2c3nc(c(-c4c(F)c(F)c(F)c(F)c4F)c4ccc([nH]4)c(-c4c(F)c(F)c(F)c(F)c4F)c4nc(c(-c5c(F)c(F)c(F)c(F)c5F)c5ccc2[nH]5)C=C4)C=C3)cc1)c1ccc(F)cc1
REMARK SMILES IDX 19 1 18 2 17 3 16 4 15 5 14 6 12 7 13 8 11 9 10 10 9 11 3 12
REMARK SMILES IDX 4 13 5 14 7 15 6 16 8 17 2 18 1 19 92 20 93 21 98 22 94 23
REMARK SMILES IDX 97 24 95 25 96 26 20 27 21 28 22 29 23 30 24 31 25 32 26 33
REMARK SMILES IDX 27 34 28 35 29 36 30 37 91 38 31 39 90 40 32 41 33 42 34 43
REMARK SMILES IDX 84 44 35 45 89 46 83 47 85 48 36 49 88 50 82 51 81 52 37 54
REMARK SMILES IDX 69 55 49 56 68 57 50 58 53 59 67 60 86 61 51 62 52 63 66 65
REMARK SMILES IDX 87 66 54 67 38 68 39 69 47 70 40 71 41 72 45 73 48 74 42 75
REMARK SMILES IDX 43 76 46 77 44 78 70 79 71 80 79 81 72 82 73 83 77 84 80 85
REMARK SMILES IDX 74 86 75 87 78 88 76 89 55 90 56 91 64 92 57 93 58 94 62 95
REMARK SMILES IDX 65 96 59 97 60 98 63 99 61 100
REMARK H PARENT 85 53 53 64
REMARK Flexibility Score: inf
ROOT
ATOM      1  C   UNL     1       0.232   0.376  -1.043  1.00  0.00     0.188 C 
ENDROOT
BRANCH   1   2
ATOM      2  C   UNL     1       1.348  -0.538  -0.491  1.00  0.00     0.188 C 
BRANCH   2   3
ATOM      3  O   UNL     1       2.453   0.128   0.089  1.00  0.00    -0.376 OA
BRANCH   3   4
ATOM      4  C   UNL     1       3.528   0.613  -0.694  1.00  0.00     0.202 C 
BRANCH   4   5
ATOM      5  C   UNL     1       3.501   0.781  -2.220  1.00  0.00     0.261 C 
BRANCH   5   6
ATOM      6  O   UNL     1       2.449   0.123  -2.921  1.00  0.00    -0.463 OA
BRANCH   6   7
ATOM      7  C   UNL     1       2.635  -1.148  -3.365  1.00  0.00     0.313 C 
ATOM      8  O   UNL     1       3.682  -1.771  -3.271  1.00  0.00    -0.252 OA
BRANCH   7   9
ATOM      9  C   UNL     1       1.316  -1.659  -3.954  1.00  0.00     0.135 C 
BRANCH   9  10
ATOM     10  C   UNL     1       1.128  -1.146  -5.396  1.00  0.00     0.077 C 
BRANCH  10  11
ATOM     11  C   UNL     1       0.927   0.349  -5.465  1.00  0.00     0.054 A 
ATOM     12  N   UNL     1       1.890   1.311  -5.708  1.00  0.00    -0.268 N 
ATOM     13  N   UNL     1       1.399   2.572  -5.627  1.00  0.00    -0.177 NA
ATOM     14  C   UNL     1       0.113   2.433  -5.300  1.00  0.00     0.074 A 
ATOM     15  C   UNL     1      -0.229   1.073  -5.227  1.00  0.00     0.062 A 
ATOM     16  C   UNL     1      -0.709   3.647  -5.067  1.00  0.00     0.070 C 
ATOM     17  Br  UNL     1      -1.934   0.408  -4.811  1.00  0.00    -0.047 Br
BRANCH  12  18
ATOM     18  C   UNL     1       3.326   1.245  -5.923  1.00  0.00     0.141 C 
ATOM     19  C   UNL     1       3.969  -0.043  -6.396  1.00  0.00     0.029 C 
ENDBRANCH  12  18
ENDBRANCH  10  11
ENDBRANCH   9  10
BRANCH   9  20
ATOM     20  C   UNL     1       1.134  -3.156  -3.716  1.00  0.00    -0.033 A 
ATOM     21  C   UNL     1       1.424  -4.118  -4.690  1.00  0.00     0.007 A 
ATOM     22  C   UNL     1       0.690  -3.601  -2.450  1.00  0.00     0.007 A 
ATOM     23  C   UNL     1       1.281  -5.480  -4.401  1.00  0.00     0.039 A 
ATOM     24  C   UNL     1       0.573  -4.958  -2.155  1.00  0.00     0.039 A 
ATOM     25  C   UNL     1       0.869  -5.887  -3.137  1.00  0.00     0.123 A 
ATOM     26  F   UNL     1       0.755  -7.193  -2.864  1.00  0.00    -0.207 F 
ENDBRANCH   9  20
ENDBRANCH   7   9
ENDBRANCH   6   7
ENDBRANCH   5   6
ENDBRANCH   4   5
ENDBRANCH   3   4
ENDBRANCH   2   3
ENDBRANCH   1   2
BRANCH   1  27
ATOM     27  O   UNL     1       0.649   1.707  -1.277  1.00  0.00    -0.377 OA
BRANCH  27  28
ATOM     28  C   UNL     1       0.681   2.586  -0.155  1.00  0.00     0.188 C 
BRANCH  28  29
ATOM     29  C   UNL     1       0.794   2.071   1.312  1.00  0.00     0.188 C 
BRANCH  29  30
ATOM     30  O   UNL     1       0.308   0.757   1.557  1.00  0.00    -0.376 OA
BRANCH  30  31
ATOM     31  C   UNL     1      -0.841   0.473   2.331  1.00  0.00     0.202 C 
BRANCH  31  32
ATOM     32  C   UNL     1      -2.179   0.815   1.686  1.00  0.00     0.261 C 
BRANCH  32  33
ATOM     33  O   UNL     1      -2.157   2.085   1.067  1.00  0.00    -0.460 OA
BRANCH  33  34
ATOM     34  C   UNL     1      -1.992   3.104   1.917  1.00  0.00     0.338 C 
ATOM     35  O   UNL     1      -1.782   3.049   3.132  1.00  0.00    -0.246 OA
BRANCH  34  36
ATOM     36  C   UNL     1      -2.228   4.342   1.196  1.00  0.00     0.060 A 
ATOM     37  C   UNL     1      -2.006   5.511   1.924  1.00  0.00     0.016 A 
ATOM     38  C   UNL     1      -3.099   4.264   0.101  1.00  0.00     0.016 A 
ATOM     39  C   UNL     1      -2.920   6.516   1.776  1.00  0.00     0.010 A 
ATOM     40  C   UNL     1      -4.044   5.237  -0.003  1.00  0.00     0.010 A 
ATOM     41  C   UNL     1      -3.988   6.294   0.903  1.00  0.00    -0.014 A 
BRANCH  41  42
ATOM     42  C   UNL     1      -5.052   7.261   0.871  1.00  0.00     0.031 A 
ATOM     43  C   UNL     1      -4.669   8.426   0.055  1.00  0.00     0.074 A 
ATOM     44  C   UNL     1      -6.246   6.974   1.421  1.00  0.00     0.049 A 
ATOM     45  N   UNL     1      -4.493   9.640   0.451  1.00  0.00    -0.248 NA
ATOM     46  C   UNL     1      -4.202   8.174  -1.323  1.00  0.00     0.031 C 
ATOM     47  C   UNL     1      -6.672   5.683   1.980  1.00  0.00     0.029 A 
ATOM     48  N   UNL     1      -7.380   7.723   1.478  1.00  0.00    -0.354 N 
ATOM     49  C   UNL     1      -4.155  10.341  -0.703  1.00  0.00     0.074 A 
ATOM     50  C   UNL     1      -3.728   9.370  -1.665  1.00  0.00     0.031 C 
ATOM     51  C   UNL     1      -8.017   5.670   2.098  1.00  0.00     0.029 A 
ATOM     52  C   UNL     1      -8.527   6.981   1.741  1.00  0.00     0.049 A 
ATOM     53  H   UNL     1      -7.388   8.699   1.346  1.00  0.00     0.167 HD
ATOM     54  C   UNL     1      -4.666  11.586  -0.892  1.00  0.00     0.037 A 
ATOM     55  C   UNL     1      -9.800   7.414   1.575  1.00  0.00     0.037 A 
ATOM     56  C   UNL     1      -5.104  12.140   0.365  1.00  0.00     0.049 A 
ATOM     57  C   UNL     1      -9.761   8.896   1.525  1.00  0.00     0.074 A 
ATOM     58  C   UNL     1      -4.501  12.660   1.488  1.00  0.00     0.029 A 
ATOM     59  N   UNL     1      -6.384  11.792   0.708  1.00  0.00    -0.354 N 
ATOM     60  N   UNL     1      -9.452   9.641   2.551  1.00  0.00    -0.248 NA
ATOM     61  C   UNL     1      -9.702   9.566   0.229  1.00  0.00     0.031 C 
ATOM     62  C   UNL     1      -5.436  12.502   2.554  1.00  0.00     0.029 A 
ATOM     63  C   UNL     1      -6.598  11.918   2.053  1.00  0.00     0.049 A 
ATOM     64  H   UNL     1      -7.066  11.489   0.066  1.00  0.00     0.167 HD
ATOM     65  C   UNL     1      -8.768  10.710   2.005  1.00  0.00     0.074 A 
ATOM     66  C   UNL     1      -9.104  10.706   0.589  1.00  0.00     0.031 C 
ATOM     67  C   UNL     1      -7.733  11.284   2.682  1.00  0.00     0.037 A 
BRANCH  54  68
ATOM     68  C   UNL     1      -5.290  12.048  -2.200  1.00  0.00     0.064 A 
ATOM     69  C   UNL     1      -5.794  13.363  -2.256  1.00  0.00     0.173 A 
ATOM     70  C   UNL     1      -5.715  11.197  -3.248  1.00  0.00     0.173 A 
ATOM     71  F   UNL     1      -5.458  14.263  -1.320  1.00  0.00    -0.203 F 
ATOM     72  C   UNL     1      -6.727  13.758  -3.219  1.00  0.00     0.198 A 
ATOM     73  C   UNL     1      -6.613  11.609  -4.231  1.00  0.00     0.198 A 
ATOM     74  F   UNL     1      -5.378   9.907  -3.325  1.00  0.00    -0.203 F 
ATOM     75  F   UNL     1      -7.274  14.979  -3.151  1.00  0.00    -0.200 F 
ATOM     76  C   UNL     1      -7.147  12.876  -4.196  1.00  0.00     0.200 A 
ATOM     77  F   UNL     1      -7.017  10.730  -5.160  1.00  0.00    -0.200 F 
ATOM     78  F   UNL     1      -8.092  13.228  -5.076  1.00  0.00    -0.200 F 
ENDBRANCH  54  68
BRANCH  55  79
ATOM     79  C   UNL     1     -10.999   6.639   1.181  1.00  0.00     0.064 A 
ATOM     80  C   UNL     1     -12.289   7.158   1.377  1.00  0.00     0.173 A 
ATOM     81  C   UNL     1     -10.901   5.500   0.359  1.00  0.00     0.173 A 
ATOM     82  F   UNL     1     -12.465   8.263   2.116  1.00  0.00    -0.203 F 
ATOM     83  C   UNL     1     -13.409   6.594   0.758  1.00  0.00     0.198 A 
ATOM     84  C   UNL     1     -12.020   4.931  -0.251  1.00  0.00     0.198 A 
ATOM     85  F   UNL     1      -9.707   4.972   0.052  1.00  0.00    -0.203 F 
ATOM     86  F   UNL     1     -14.614   7.159   0.914  1.00  0.00    -0.200 F 
ATOM     87  C   UNL     1     -13.272   5.488  -0.065  1.00  0.00     0.200 A 
ATOM     88  F   UNL     1     -11.868   3.883  -1.072  1.00  0.00    -0.200 F 
ATOM     89  F   UNL     1     -14.334   4.987  -0.711  1.00  0.00    -0.200 F 
ENDBRANCH  55  79
BRANCH  67  90
ATOM     90  C   UNL     1      -7.704  11.099   4.165  1.00  0.00     0.064 A 
ATOM     91  C   UNL     1      -7.479   9.872   4.808  1.00  0.00     0.173 A 
ATOM     92  C   UNL     1      -7.838  12.240   4.967  1.00  0.00     0.173 A 
ATOM     93  F   UNL     1      -7.264   8.755   4.100  1.00  0.00    -0.203 F 
ATOM     94  C   UNL     1      -7.435   9.789   6.198  1.00  0.00     0.198 A 
ATOM     95  C   UNL     1      -7.753  12.161   6.351  1.00  0.00     0.198 A 
ATOM     96  F   UNL     1      -8.011  13.444   4.398  1.00  0.00    -0.203 F 
ATOM     97  F   UNL     1      -7.242   8.604   6.795  1.00  0.00    -0.200 F 
ATOM     98  C   UNL     1      -7.565  10.935   6.968  1.00  0.00     0.200 A 
ATOM     99  F   UNL     1      -7.836  13.278   7.087  1.00  0.00    -0.200 F 
ATOM    100  F   UNL     1      -7.487  10.861   8.303  1.00  0.00    -0.200 F 
ENDBRANCH  67  90
ENDBRANCH  41  42
ENDBRANCH  34  36
ENDBRANCH  33  34
ENDBRANCH  32  33
ENDBRANCH  31  32
ENDBRANCH  30  31
ENDBRANCH  29  30
ENDBRANCH  28  29
ENDBRANCH  27  28
ENDBRANCH   1  27
TORSDOF 24
