REMARK SMILES O=C(CCOc1cccc(/C=C2\CCn3c2nc2cc(Cl)ccc2c3=O)c1)OCCOCCOCCOCCOC(=O)c1ccc(-c2c3nc(c(-c4c(F)c(F)c(F)c(F)c4F)c4ccc([nH]4)c(-c4c(F)c(F)c(F)c(F)c4F)c4nc(c(-c5c(F)c(F)c(F)c(F)c5F)c5ccc2[nH]5)C=C4)C=C3)cc1
REMARK SMILES IDX 33 1 32 2 31 3 30 4 29 5 28 6 2 7 1 8 3 9 4 10 5 11 6 12
REMARK SMILES IDX 7 13 27 14 8 15 10 16 9 17 11 18 12 19 13 20 16 21 14 22
REMARK SMILES IDX 15 23 17 24 25 25 18 26 24 27 26 28 19 29 23 30 20 31 22 32
REMARK SMILES IDX 21 33 34 34 35 35 36 36 37 37 38 38 39 39 40 40 41 41 42 42
REMARK SMILES IDX 43 43 44 44 105 45 45 46 104 47 46 48 47 49 48 50 98 51
REMARK SMILES IDX 49 52 103 53 97 54 99 55 50 56 102 57 96 58 95 59 51 61
REMARK SMILES IDX 83 62 63 63 82 64 64 65 67 66 81 67 100 68 65 69 66 70 80 72
REMARK SMILES IDX 101 73 68 74 52 75 53 76 61 77 54 78 55 79 59 80 62 81 56 82
REMARK SMILES IDX 57 83 60 84 58 85 84 86 85 87 93 88 86 89 87 90 91 91 94 92
REMARK SMILES IDX 88 93 89 94 92 95 90 96 69 97 70 98 78 99 71 100 72 101
REMARK SMILES IDX 76 102 79 103 73 104 74 105 77 106 75 107
REMARK H PARENT 99 60 67 71
REMARK Flexibility Score: inf
ROOT
ATOM      1  C   UNL     1       2.814  -1.996  -1.410  1.00  0.00     0.188 C 
ENDROOT
BRANCH   1   2
ATOM      2  C   UNL     1       2.942  -0.821  -2.412  1.00  0.00     0.188 C 
BRANCH   2   3
ATOM      3  O   UNL     1       3.852   0.271  -2.230  1.00  0.00    -0.376 OA
BRANCH   3   4
ATOM      4  C   UNL     1       4.971   0.117  -1.375  1.00  0.00     0.202 C 
BRANCH   4   5
ATOM      5  C   UNL     1       4.655   0.323   0.108  1.00  0.00     0.261 C 
BRANCH   5   6
ATOM      6  O   UNL     1       3.257   0.196   0.431  1.00  0.00    -0.463 OA
BRANCH   6   7
ATOM      7  C   UNL     1       2.330   1.116   0.090  1.00  0.00     0.309 C 
ATOM      8  O   UNL     1       1.130   0.878   0.226  1.00  0.00    -0.252 OA
BRANCH   7   9
ATOM      9  C   UNL     1       2.805   2.464  -0.356  1.00  0.00     0.164 C 
BRANCH   9  10
ATOM     10  C   UNL     1       2.961   3.418   0.818  1.00  0.00     0.241 C 
BRANCH  10  11
ATOM     11  O   UNL     1       4.058   3.135   1.687  1.00  0.00    -0.493 OA
BRANCH  11  12
ATOM     12  C   UNL     1       3.954   2.236   2.715  1.00  0.00     0.119 A 
ATOM     13  C   UNL     1       5.182   1.970   3.321  1.00  0.00     0.046 A 
ATOM     14  C   UNL     1       2.821   1.508   3.112  1.00  0.00     0.054 A 
ATOM     15  C   UNL     1       5.290   0.982   4.288  1.00  0.00     0.004 A 
ATOM     16  C   UNL     1       2.925   0.432   4.028  1.00  0.00    -0.022 A 
ATOM     17  C   UNL     1       4.173   0.221   4.627  1.00  0.00     0.008 A 
BRANCH  16  18
ATOM     18  C   UNL     1       1.808  -0.562   4.088  1.00  0.00     0.015 C 
ATOM     19  C   UNL     1       1.765  -1.759   4.719  1.00  0.00    -0.003 C 
ATOM     20  C   UNL     1       2.660  -2.431   5.716  1.00  0.00     0.061 C 
ATOM     21  C   UNL     1       1.417  -2.864   3.770  1.00  0.00     0.139 A 
ATOM     22  C   UNL     1       3.486  -3.316   4.791  1.00  0.00     0.132 C 
ATOM     23  N   UNL     1       2.580  -3.620   3.706  1.00  0.00    -0.292 N 
ATOM     24  N   UNL     1       0.368  -3.089   3.063  1.00  0.00    -0.230 NA
ATOM     25  C   UNL     1       2.909  -4.301   2.569  1.00  0.00     0.261 A 
ATOM     26  C   UNL     1       0.500  -4.091   2.076  1.00  0.00     0.080 A 
ATOM     27  C   UNL     1       1.759  -4.555   1.679  1.00  0.00     0.066 A 
ATOM     28  O   UNL     1       4.043  -4.665   2.278  1.00  0.00    -0.269 OA
ATOM     29  C   UNL     1      -0.621  -4.543   1.378  1.00  0.00     0.049 A 
ATOM     30  C   UNL     1       1.918  -5.285   0.507  1.00  0.00     0.017 A 
ATOM     31  C   UNL     1      -0.463  -5.335   0.236  1.00  0.00     0.043 A 
ATOM     32  C   UNL     1       0.806  -5.662  -0.234  1.00  0.00     0.021 A 
ATOM     33  Cl  UNL     1      -1.842  -5.897  -0.624  1.00  0.00    -0.084 Cl
ENDBRANCH  16  18
ENDBRANCH  11  12
ENDBRANCH  10  11
ENDBRANCH   9  10
ENDBRANCH   7   9
ENDBRANCH   6   7
ENDBRANCH   5   6
ENDBRANCH   4   5
ENDBRANCH   3   4
ENDBRANCH   2   3
ENDBRANCH   1   2
BRANCH   1  34
ATOM     34  O   UNL     1       3.967  -2.239  -0.617  1.00  0.00    -0.377 OA
BRANCH  34  35
ATOM     35  C   UNL     1       4.835  -3.296  -0.979  1.00  0.00     0.188 C 
BRANCH  35  36
ATOM     36  C   UNL     1       5.409  -3.292  -2.401  1.00  0.00     0.188 C 
BRANCH  36  37
ATOM     37  O   UNL     1       4.403  -3.135  -3.392  1.00  0.00    -0.376 OA
BRANCH  37  38
ATOM     38  C   UNL     1       4.147  -4.268  -4.208  1.00  0.00     0.202 C 
BRANCH  38  39
ATOM     39  C   UNL     1       3.207  -5.294  -3.561  1.00  0.00     0.261 C 
BRANCH  39  40
ATOM     40  O   UNL     1       3.666  -5.864  -2.319  1.00  0.00    -0.460 OA
BRANCH  40  41
ATOM     41  C   UNL     1       4.813  -6.574  -2.340  1.00  0.00     0.338 C 
ATOM     42  O   UNL     1       5.506  -6.817  -3.319  1.00  0.00    -0.246 OA
BRANCH  41  43
ATOM     43  C   UNL     1       5.211  -6.878  -0.950  1.00  0.00     0.060 A 
ATOM     44  C   UNL     1       6.439  -6.400  -0.480  1.00  0.00     0.016 A 
ATOM     45  C   UNL     1       4.380  -7.624  -0.108  1.00  0.00     0.016 A 
ATOM     46  C   UNL     1       6.860  -6.708   0.816  1.00  0.00     0.010 A 
ATOM     47  C   UNL     1       4.793  -7.914   1.198  1.00  0.00     0.010 A 
ATOM     48  C   UNL     1       6.063  -7.507   1.648  1.00  0.00    -0.014 A 
BRANCH  48  49
ATOM     49  C   UNL     1       6.677  -8.120   2.858  1.00  0.00     0.031 A 
ATOM     50  C   UNL     1       7.147  -9.550   2.762  1.00  0.00     0.074 A 
ATOM     51  C   UNL     1       6.909  -7.420   3.984  1.00  0.00     0.049 A 
ATOM     52  N   UNL     1       7.798 -10.277   3.635  1.00  0.00    -0.248 NA
ATOM     53  C   UNL     1       6.848 -10.254   1.503  1.00  0.00     0.031 C 
ATOM     54  C   UNL     1       6.536  -6.027   4.208  1.00  0.00     0.029 A 
ATOM     55  N   UNL     1       7.528  -7.792   5.154  1.00  0.00    -0.354 N 
ATOM     56  C   UNL     1       8.004 -11.506   3.021  1.00  0.00     0.074 A 
ATOM     57  C   UNL     1       7.350 -11.455   1.734  1.00  0.00     0.031 C 
ATOM     58  C   UNL     1       6.927  -5.661   5.442  1.00  0.00     0.029 A 
ATOM     59  C   UNL     1       7.572  -6.796   6.100  1.00  0.00     0.049 A 
ATOM     60  H   UNL     1       7.906  -8.690   5.301  1.00  0.00     0.167 HD
ATOM     61  C   UNL     1       8.704 -12.575   3.470  1.00  0.00     0.037 A 
ATOM     62  C   UNL     1       8.074  -6.802   7.351  1.00  0.00     0.037 A 
ATOM     63  C   UNL     1       9.345 -12.643   4.755  1.00  0.00     0.049 A 
ATOM     64  C   UNL     1       8.781  -8.034   7.862  1.00  0.00     0.074 A 
ATOM     65  C   UNL     1      10.069 -13.687   5.303  1.00  0.00     0.029 A 
ATOM     66  N   UNL     1       9.329 -11.627   5.698  1.00  0.00    -0.354 N 
ATOM     67  N   UNL     1       9.010  -9.174   7.254  1.00  0.00    -0.248 NA
ATOM     68  C   UNL     1       9.323  -7.971   9.228  1.00  0.00     0.031 C 
ATOM     69  C   UNL     1      10.446 -13.323   6.599  1.00  0.00     0.029 A 
ATOM     70  C   UNL     1      10.013 -12.029   6.835  1.00  0.00     0.049 A 
ATOM     71  H   UNL     1       8.896 -10.751   5.579  1.00  0.00     0.167 HD
ATOM     72  C   UNL     1       9.745  -9.946   8.148  1.00  0.00     0.074 A 
ATOM     73  C   UNL     1       9.947  -9.135   9.329  1.00  0.00     0.031 C 
ATOM     74  C   UNL     1      10.209 -11.213   8.006  1.00  0.00     0.037 A 
BRANCH  61  75
ATOM     75  C   UNL     1       8.804 -13.762   2.556  1.00  0.00     0.064 A 
ATOM     76  C   UNL     1       9.563 -13.718   1.376  1.00  0.00     0.173 A 
ATOM     77  C   UNL     1       8.156 -14.964   2.874  1.00  0.00     0.173 A 
ATOM     78  F   UNL     1      10.187 -12.586   1.015  1.00  0.00    -0.203 F 
ATOM     79  C   UNL     1       9.648 -14.825   0.536  1.00  0.00     0.198 A 
ATOM     80  C   UNL     1       8.270 -16.080   2.049  1.00  0.00     0.198 A 
ATOM     81  F   UNL     1       7.417 -15.060   3.990  1.00  0.00    -0.203 F 
ATOM     82  F   UNL     1      10.336 -14.743  -0.611  1.00  0.00    -0.200 F 
ATOM     83  C   UNL     1       9.009 -16.007   0.878  1.00  0.00     0.200 A 
ATOM     84  F   UNL     1       7.662 -17.225   2.387  1.00  0.00    -0.200 F 
ATOM     85  F   UNL     1       9.099 -17.076   0.074  1.00  0.00    -0.200 F 
ENDBRANCH  61  75
BRANCH  62  86
ATOM     86  C   UNL     1       7.929  -5.603   8.224  1.00  0.00     0.064 A 
ATOM     87  C   UNL     1       9.043  -4.867   8.653  1.00  0.00     0.173 A 
ATOM     88  C   UNL     1       6.668  -5.198   8.688  1.00  0.00     0.173 A 
ATOM     89  F   UNL     1      10.274  -5.224   8.258  1.00  0.00    -0.203 F 
ATOM     90  C   UNL     1       8.906  -3.799   9.539  1.00  0.00     0.198 A 
ATOM     91  C   UNL     1       6.529  -4.108   9.546  1.00  0.00     0.198 A 
ATOM     92  F   UNL     1       5.566  -5.860   8.307  1.00  0.00    -0.203 F 
ATOM     93  F   UNL     1       9.994  -3.155   9.983  1.00  0.00    -0.200 F 
ATOM     94  C   UNL     1       7.649  -3.418   9.981  1.00  0.00     0.200 A 
ATOM     95  F   UNL     1       5.309  -3.732   9.952  1.00  0.00    -0.200 F 
ATOM     96  F   UNL     1       7.516  -2.391  10.832  1.00  0.00    -0.200 F 
ENDBRANCH  62  86
BRANCH  74  97
ATOM     97  C   UNL     1      11.010 -11.788   9.142  1.00  0.00     0.064 A 
ATOM     98  C   UNL     1      10.426 -12.089  10.382  1.00  0.00     0.173 A 
ATOM     99  C   UNL     1      12.379 -12.056   8.982  1.00  0.00     0.173 A 
ATOM    100  F   UNL     1       9.124 -11.845  10.592  1.00  0.00    -0.203 F 
ATOM    101  C   UNL     1      11.191 -12.592  11.432  1.00  0.00     0.198 A 
ATOM    102  C   UNL     1      13.132 -12.595  10.022  1.00  0.00     0.198 A 
ATOM    103  F   UNL     1      12.988 -11.801   7.814  1.00  0.00    -0.203 F 
ATOM    104  F   UNL     1      10.624 -12.806  12.627  1.00  0.00    -0.200 F 
ATOM    105  C   UNL     1      12.541 -12.850  11.250  1.00  0.00     0.200 A 
ATOM    106  F   UNL     1      14.433 -12.861   9.838  1.00  0.00    -0.200 F 
ATOM    107  F   UNL     1      13.275 -13.332  12.261  1.00  0.00    -0.200 F 
ENDBRANCH  74  97
ENDBRANCH  48  49
ENDBRANCH  41  43
ENDBRANCH  40  41
ENDBRANCH  39  40
ENDBRANCH  38  39
ENDBRANCH  37  38
ENDBRANCH  36  37
ENDBRANCH  35  36
ENDBRANCH  34  35
ENDBRANCH   1  34
TORSDOF 24
