REMARK SMILES Cn1cc(NC(=O)N2Cc3nc[nH]c3C[C@@H]2C(=O)OCCOCCOCCOCCOC(=O)c2ccc(-c3c4nc(c(-c5c(F)c(F)c(F)c(F)c5F)c5ccc([nH]5)c(-c5c(F)c(F)c(F)c(F)c5F)c5nc(c(-c6c(F)c(F)c(F)c(F)c6F)c6ccc3[nH]6)C=C5)C=C4)cc2)cn1
REMARK SMILES IDX 25 1 24 2 23 3 22 4 21 5 20 6 19 7 17 8 18 9 16 10 8 11 9 12
REMARK SMILES IDX 10 13 15 14 11 15 14 16 12 17 13 18 6 20 5 21 7 23 4 24 1 25
REMARK SMILES IDX 2 26 3 27 98 28 97 29 26 30 27 31 28 32 29 33 30 34 31 35
REMARK SMILES IDX 32 36 33 37 34 38 35 39 96 40 36 41 95 42 37 43 38 44 39 45
REMARK SMILES IDX 89 46 40 47 94 48 88 49 90 50 41 51 93 52 87 53 86 54 42 56
REMARK SMILES IDX 74 57 54 58 73 59 55 60 58 61 72 62 91 63 56 64 57 65 71 67
REMARK SMILES IDX 92 68 59 69 43 70 44 71 52 72 45 73 46 74 50 75 53 76 47 77
REMARK SMILES IDX 48 78 51 79 49 80 75 81 76 82 84 83 77 84 78 85 82 86 85 87
REMARK SMILES IDX 79 88 80 89 83 90 81 91 60 92 61 93 69 94 62 95 63 96 67 97
REMARK SMILES IDX 70 98 64 99 65 100 68 101 66 102
REMARK H PARENT 13 19 5 22 90 55 58 66
REMARK Flexibility Score: inf
ROOT
ATOM      1  O   UNL     1       1.050   1.796   4.224  1.00  0.00    -0.377 OA
ENDROOT
BRANCH   1   2
ATOM      2  C   UNL     1       1.081   1.032   3.029  1.00  0.00     0.188 C 
BRANCH   2   3
ATOM      3  C   UNL     1       1.615  -0.420   3.033  1.00  0.00     0.188 C 
BRANCH   3   4
ATOM      4  O   UNL     1       2.103  -0.861   4.293  1.00  0.00    -0.376 OA
BRANCH   4   5
ATOM      5  C   UNL     1       3.470  -1.244   4.322  1.00  0.00     0.202 C 
BRANCH   5   6
ATOM      6  C   UNL     1       4.420  -0.044   4.290  1.00  0.00     0.261 C 
BRANCH   6   7
ATOM      7  O   UNL     1       4.238   0.785   3.128  1.00  0.00    -0.462 OA
BRANCH   7   8
ATOM      8  C   UNL     1       4.655   0.292   1.920  1.00  0.00     0.329 C 
ATOM      9  O   UNL     1       5.308  -0.731   1.785  1.00  0.00    -0.250 OA
BRANCH   8  10
ATOM     10  C   UNL     1       4.047   1.169   0.801  1.00  0.00     0.203 C 
ATOM     11  N   UNL     1       4.197   0.619  -0.585  1.00  0.00    -0.304 N 
ATOM     12  C   UNL     1       4.696   1.424  -1.711  1.00  0.00     0.180 C 
ATOM     13  C   UNL     1       4.549   2.873  -1.430  1.00  0.00     0.081 A 
ATOM     14  C   UNL     1       4.543   2.618   1.067  1.00  0.00     0.093 C 
ATOM     15  N   UNL     1       4.449   3.866  -2.365  1.00  0.00    -0.240 NA
ATOM     16  C   UNL     1       4.480   3.403  -0.169  1.00  0.00     0.042 A 
ATOM     17  C   UNL     1       4.345   4.982  -1.673  1.00  0.00     0.197 A 
ATOM     18  N   UNL     1       4.360   4.749  -0.323  1.00  0.00    -0.348 N 
ATOM     19  H   UNL     1       4.295   5.422   0.394  1.00  0.00     0.167 HD
BRANCH  11  20
ATOM     20  C   UNL     1       3.837  -0.664  -0.911  1.00  0.00     0.323 C 
ATOM     21  N   UNL     1       2.625  -1.152  -0.527  1.00  0.00    -0.305 N 
ATOM     22  H   UNL     1       2.614  -2.087  -0.218  1.00  0.00     0.171 HD
ATOM     23  O   UNL     1       4.579  -1.387  -1.577  1.00  0.00    -0.248 OA
BRANCH  21  24
ATOM     24  C   UNL     1       1.406  -0.494  -0.519  1.00  0.00     0.081 A 
ATOM     25  C   UNL     1      -2.194  -0.385  -0.339  1.00  0.00     0.173 C 
ATOM     26  N   UNL     1      -0.767  -0.187  -0.420  1.00  0.00    -0.274 N 
ATOM     27  C   UNL     1       0.206  -1.137  -0.303  1.00  0.00     0.134 A 
ATOM     28  N   UNL     1      -0.282   1.043  -0.660  1.00  0.00    -0.180 NA
ATOM     29  C   UNL     1       1.034   0.844  -0.780  1.00  0.00     0.161 A 
ENDBRANCH  21  24
ENDBRANCH  11  20
ENDBRANCH   8  10
ENDBRANCH   7   8
ENDBRANCH   6   7
ENDBRANCH   5   6
ENDBRANCH   4   5
ENDBRANCH   3   4
ENDBRANCH   2   3
ENDBRANCH   1   2
BRANCH   1  30
ATOM     30  C   UNL     1       0.691   1.164   5.443  1.00  0.00     0.188 C 
BRANCH  30  31
ATOM     31  C   UNL     1      -0.370   0.034   5.477  1.00  0.00     0.188 C 
BRANCH  31  32
ATOM     32  O   UNL     1      -0.812  -0.452   4.214  1.00  0.00    -0.376 OA
BRANCH  32  33
ATOM     33  C   UNL     1      -2.179  -0.302   3.865  1.00  0.00     0.202 C 
BRANCH  33  34
ATOM     34  C   UNL     1      -2.543   1.091   3.356  1.00  0.00     0.261 C 
BRANCH  34  35
ATOM     35  O   UNL     1      -2.098   2.124   4.216  1.00  0.00    -0.460 OA
BRANCH  35  36
ATOM     36  C   UNL     1      -2.654   2.106   5.439  1.00  0.00     0.338 C 
ATOM     37  O   UNL     1      -3.434   1.288   5.891  1.00  0.00    -0.246 OA
BRANCH  36  38
ATOM     38  C   UNL     1      -2.250   3.318   6.146  1.00  0.00     0.060 A 
ATOM     39  C   UNL     1      -2.663   3.400   7.475  1.00  0.00     0.016 A 
ATOM     40  C   UNL     1      -1.868   4.438   5.394  1.00  0.00     0.016 A 
ATOM     41  C   UNL     1      -3.000   4.638   7.952  1.00  0.00     0.010 A 
ATOM     42  C   UNL     1      -2.227   5.672   5.862  1.00  0.00     0.010 A 
ATOM     43  C   UNL     1      -2.890   5.729   7.084  1.00  0.00    -0.014 A 
BRANCH  43  44
ATOM     44  C   UNL     1      -3.562   6.938   7.479  1.00  0.00     0.031 A 
ATOM     45  C   UNL     1      -2.819   7.743   8.459  1.00  0.00     0.074 A 
ATOM     46  C   UNL     1      -4.742   7.292   6.940  1.00  0.00     0.049 A 
ATOM     47  N   UNL     1      -3.164   8.038   9.666  1.00  0.00    -0.248 NA
ATOM     48  C   UNL     1      -1.465   8.169   8.081  1.00  0.00     0.031 C 
ATOM     49  C   UNL     1      -5.407   6.730   5.761  1.00  0.00     0.029 A 
ATOM     50  N   UNL     1      -5.547   8.325   7.293  1.00  0.00    -0.354 N 
ATOM     51  C   UNL     1      -2.139   8.838  10.151  1.00  0.00     0.074 A 
ATOM     52  C   UNL     1      -1.058   8.759   9.203  1.00  0.00     0.031 C 
ATOM     53  C   UNL     1      -6.393   7.571   5.374  1.00  0.00     0.029 A 
ATOM     54  C   UNL     1      -6.497   8.651   6.342  1.00  0.00     0.049 A 
ATOM     55  H   UNL     1      -5.462   8.802   8.150  1.00  0.00     0.167 HD
ATOM     56  C   UNL     1      -2.349   9.703  11.175  1.00  0.00     0.037 A 
ATOM     57  C   UNL     1      -7.232   9.788   6.320  1.00  0.00     0.037 A 
ATOM     58  C   UNL     1      -3.500   9.339  11.957  1.00  0.00     0.049 A 
ATOM     59  C   UNL     1      -7.187  10.383   7.682  1.00  0.00     0.074 A 
ATOM     60  C   UNL     1      -3.851   8.221  12.691  1.00  0.00     0.029 A 
ATOM     61  N   UNL     1      -4.662  10.048  11.782  1.00  0.00    -0.354 N 
ATOM     62  N   UNL     1      -7.772   9.873   8.730  1.00  0.00    -0.248 NA
ATOM     63  C   UNL     1      -6.134  11.348   7.969  1.00  0.00     0.031 C 
ATOM     64  C   UNL     1      -5.260   8.086  12.521  1.00  0.00     0.029 A 
ATOM     65  C   UNL     1      -5.689   9.140  11.714  1.00  0.00     0.049 A 
ATOM     66  H   UNL     1      -4.744  11.027  11.718  1.00  0.00     0.167 HD
ATOM     67  C   UNL     1      -6.903  10.126   9.782  1.00  0.00     0.074 A 
ATOM     68  C   UNL     1      -5.973  11.128   9.276  1.00  0.00     0.031 C 
ATOM     69  C   UNL     1      -6.846   9.296  10.864  1.00  0.00     0.037 A 
BRANCH  56  70
ATOM     70  C   UNL     1      -1.710  11.061  11.229  1.00  0.00     0.064 A 
ATOM     71  C   UNL     1      -1.793  11.814  12.412  1.00  0.00     0.173 A 
ATOM     72  C   UNL     1      -1.268  11.762  10.083  1.00  0.00     0.173 A 
ATOM     73  F   UNL     1      -2.237  11.254  13.547  1.00  0.00    -0.203 F 
ATOM     74  C   UNL     1      -1.506  13.181  12.432  1.00  0.00     0.198 A 
ATOM     75  C   UNL     1      -0.924  13.109  10.121  1.00  0.00     0.198 A 
ATOM     76  F   UNL     1      -1.261  11.206   8.865  1.00  0.00    -0.203 F 
ATOM     77  F   UNL     1      -1.715  13.886  13.551  1.00  0.00    -0.200 F 
ATOM     78  C   UNL     1      -1.072  13.826  11.287  1.00  0.00     0.200 A 
ATOM     79  F   UNL     1      -0.526  13.719   8.995  1.00  0.00    -0.200 F 
ATOM     80  F   UNL     1      -0.848  15.146  11.293  1.00  0.00    -0.200 F 
ENDBRANCH  56  70
BRANCH  57  81
ATOM     81  C   UNL     1      -7.692  10.543   5.133  1.00  0.00     0.064 A 
ATOM     82  C   UNL     1      -8.697  11.515   5.244  1.00  0.00     0.173 A 
ATOM     83  C   UNL     1      -6.980  10.514   3.917  1.00  0.00     0.173 A 
ATOM     84  F   UNL     1      -9.389  11.643   6.386  1.00  0.00    -0.203 F 
ATOM     85  C   UNL     1      -8.962  12.417   4.208  1.00  0.00     0.198 A 
ATOM     86  C   UNL     1      -7.255  11.403   2.879  1.00  0.00     0.198 A 
ATOM     87  F   UNL     1      -5.940   9.685   3.744  1.00  0.00    -0.203 F 
ATOM     88  F   UNL     1      -9.886  13.373   4.375  1.00  0.00    -0.200 F 
ATOM     89  C   UNL     1      -8.236  12.364   3.030  1.00  0.00     0.200 A 
ATOM     90  F   UNL     1      -6.520  11.362   1.758  1.00  0.00    -0.200 F 
ATOM     91  F   UNL     1      -8.451  13.262   2.059  1.00  0.00    -0.200 F 
ENDBRANCH  57  81
BRANCH  69  92
ATOM     92  C   UNL     1      -7.947   8.287  11.023  1.00  0.00     0.064 A 
ATOM     93  C   UNL     1      -8.189   7.246  10.110  1.00  0.00     0.173 A 
ATOM     94  C   UNL     1      -8.697   8.296  12.207  1.00  0.00     0.173 A 
ATOM     95  F   UNL     1      -7.439   7.107   9.009  1.00  0.00    -0.203 F 
ATOM     96  C   UNL     1      -9.177   6.292  10.349  1.00  0.00     0.198 A 
ATOM     97  C   UNL     1      -9.656   7.319  12.461  1.00  0.00     0.198 A 
ATOM     98  F   UNL     1      -8.466   9.230  13.143  1.00  0.00    -0.203 F 
ATOM     99  F   UNL     1      -9.402   5.319   9.454  1.00  0.00    -0.200 F 
ATOM    100  C   UNL     1      -9.905   6.327  11.527  1.00  0.00     0.200 A 
ATOM    101  F   UNL     1     -10.322   7.325  13.624  1.00  0.00    -0.200 F 
ATOM    102  F   UNL     1     -10.828   5.386  11.775  1.00  0.00    -0.200 F 
ENDBRANCH  69  92
ENDBRANCH  43  44
ENDBRANCH  36  38
ENDBRANCH  35  36
ENDBRANCH  34  35
ENDBRANCH  33  34
ENDBRANCH  32  33
ENDBRANCH  31  32
ENDBRANCH  30  31
ENDBRANCH   1  30
TORSDOF 22
