REMARK SMILES COC(=O)[C@@H]1[C@@H](NC(=O)COCC(=O)OCCOCCOCCOCCOC(=O)c2ccc(-c3c4nc(c(-c5c(F)c(F)c(F)c(F)c5F)c5ccc([nH]5)c(-c5c(F)c(F)c(F)c(F)c5F)c5nc(c(-c6c(F)c(F)c(F)c(F)c6F)c6ccc3[nH]6)C=C5)C=C4)cc2)CCN1C(C)=O
REMARK SMILES IDX 19 1 18 2 17 3 16 4 15 5 13 6 14 7 12 8 11 9 10 10 8 11 7 12
REMARK SMILES IDX 9 14 6 15 5 16 95 17 93 18 94 19 3 20 4 21 2 22 1 23 96 24
REMARK SMILES IDX 97 25 98 26 20 27 21 28 22 29 23 30 24 31 25 32 26 33 27 34
REMARK SMILES IDX 28 35 29 36 30 37 31 38 92 39 32 40 91 41 33 42 34 43 35 44
REMARK SMILES IDX 85 45 36 46 90 47 84 48 86 49 37 50 89 51 83 52 82 53 38 55
REMARK SMILES IDX 70 56 50 57 69 58 51 59 54 60 68 61 87 62 52 63 53 64 67 66
REMARK SMILES IDX 88 67 55 68 39 69 40 70 48 71 41 72 42 73 46 74 49 75 43 76
REMARK SMILES IDX 44 77 47 78 45 79 71 80 72 81 80 82 73 83 74 84 78 85 81 86
REMARK SMILES IDX 75 87 76 88 79 89 77 90 56 91 57 92 65 93 58 94 59 95 63 96
REMARK SMILES IDX 66 97 60 98 61 99 64 100 62 101
REMARK H PARENT 7 13 86 54 54 65
REMARK Flexibility Score: inf
ROOT
ATOM      1  C   UNL     1      -3.031   1.295   7.948  1.00  0.00     0.188 C 
ENDROOT
BRANCH   1   2
ATOM      2  O   UNL     1      -4.184   1.100   8.775  1.00  0.00    -0.376 OA
BRANCH   2   3
ATOM      3  C   UNL     1      -4.149   0.020   9.704  1.00  0.00     0.202 C 
BRANCH   3   4
ATOM      4  C   UNL     1      -4.294  -1.401   9.132  1.00  0.00     0.261 C 
BRANCH   4   5
ATOM      5  O   UNL     1      -3.381  -1.729   8.066  1.00  0.00    -0.462 OA
BRANCH   5   6
ATOM      6  C   UNL     1      -3.935  -1.868   6.830  1.00  0.00     0.332 C 
ATOM      7  O   UNL     1      -5.133  -1.756   6.588  1.00  0.00    -0.250 OA
BRANCH   6   8
ATOM      8  C   UNL     1      -2.903  -2.146   5.711  1.00  0.00     0.283 C 
BRANCH   8   9
ATOM      9  O   UNL     1      -1.543  -2.484   5.952  1.00  0.00    -0.360 OA
BRANCH   9  10
ATOM     10  C   UNL     1      -0.770  -1.379   6.370  1.00  0.00     0.260 C 
BRANCH  10  11
ATOM     11  C   UNL     1      -0.288  -0.366   5.330  1.00  0.00     0.246 C 
ATOM     12  N   UNL     1       0.731  -0.626   4.471  1.00  0.00    -0.349 N 
ATOM     13  H   UNL     1       1.136   0.192   4.103  1.00  0.00     0.163 HD
ATOM     14  O   UNL     1      -0.775   0.769   5.300  1.00  0.00    -0.272 OA
BRANCH  12  15
ATOM     15  C   UNL     1       1.363  -1.847   3.966  1.00  0.00     0.118 C 
ATOM     16  C   UNL     1       0.611  -2.507   2.795  1.00  0.00     0.217 C 
ATOM     17  N   UNL     1       0.935  -3.929   2.900  1.00  0.00    -0.327 N 
ATOM     18  C   UNL     1       1.678  -2.971   4.949  1.00  0.00     0.049 C 
ATOM     19  C   UNL     1       1.596  -4.257   4.144  1.00  0.00     0.122 C 
BRANCH  16  20
ATOM     20  C   UNL     1       1.153  -1.870   1.506  1.00  0.00     0.330 C 
ATOM     21  O   UNL     1       2.191  -2.195   0.941  1.00  0.00    -0.250 OA
BRANCH  20  22
ATOM     22  O   UNL     1       0.393  -0.782   1.175  1.00  0.00    -0.467 OA
ATOM     23  C   UNL     1       0.860  -0.051   0.038  1.00  0.00     0.282 C 
ENDBRANCH  20  22
ENDBRANCH  16  20
BRANCH  17  24
ATOM     24  C   UNL     1       0.474  -4.828   1.966  1.00  0.00     0.220 C 
ATOM     25  C   UNL     1       0.922  -6.260   2.123  1.00  0.00     0.114 C 
ATOM     26  O   UNL     1      -0.223  -4.477   1.015  1.00  0.00    -0.275 OA
ENDBRANCH  17  24
ENDBRANCH  12  15
ENDBRANCH  10  11
ENDBRANCH   9  10
ENDBRANCH   8   9
ENDBRANCH   6   8
ENDBRANCH   5   6
ENDBRANCH   4   5
ENDBRANCH   3   4
ENDBRANCH   2   3
ENDBRANCH   1   2
BRANCH   1  27
ATOM     27  C   UNL     1      -1.693   1.353   8.695  1.00  0.00     0.188 C 
BRANCH  27  28
ATOM     28  O   UNL     1      -1.340   0.053   9.172  1.00  0.00    -0.377 OA
BRANCH  28  29
ATOM     29  C   UNL     1      -0.599  -0.075  10.380  1.00  0.00     0.188 C 
BRANCH  29  30
ATOM     30  C   UNL     1      -0.170   1.204  11.101  1.00  0.00     0.188 C 
BRANCH  30  31
ATOM     31  O   UNL     1       0.698   2.091  10.397  1.00  0.00    -0.376 OA
BRANCH  31  32
ATOM     32  C   UNL     1       1.627   1.541   9.467  1.00  0.00     0.202 C 
BRANCH  32  33
ATOM     33  C   UNL     1       2.892   0.911  10.054  1.00  0.00     0.261 C 
BRANCH  33  34
ATOM     34  O   UNL     1       2.610  -0.219  10.893  1.00  0.00    -0.460 OA
BRANCH  34  35
ATOM     35  C   UNL     1       2.629   0.038  12.219  1.00  0.00     0.338 C 
ATOM     36  O   UNL     1       2.874   1.103  12.772  1.00  0.00    -0.246 OA
BRANCH  35  37
ATOM     37  C   UNL     1       2.138  -1.140  12.946  1.00  0.00     0.060 A 
ATOM     38  C   UNL     1       1.085  -0.970  13.854  1.00  0.00     0.016 A 
ATOM     39  C   UNL     1       2.762  -2.381  12.794  1.00  0.00     0.016 A 
ATOM     40  C   UNL     1       0.670  -2.035  14.642  1.00  0.00     0.010 A 
ATOM     41  C   UNL     1       2.364  -3.442  13.606  1.00  0.00     0.010 A 
ATOM     42  C   UNL     1       1.344  -3.258  14.555  1.00  0.00    -0.014 A 
BRANCH  42  43
ATOM     43  C   UNL     1       1.115  -4.269  15.606  1.00  0.00     0.031 A 
ATOM     44  C   UNL     1       2.067  -4.314  16.766  1.00  0.00     0.074 A 
ATOM     45  C   UNL     1       0.056  -5.090  15.541  1.00  0.00     0.049 A 
ATOM     46  N   UNL     1       2.096  -5.130  17.786  1.00  0.00    -0.248 NA
ATOM     47  C   UNL     1       3.133  -3.298  16.776  1.00  0.00     0.031 C 
ATOM     48  C   UNL     1      -0.955  -5.080  14.486  1.00  0.00     0.029 A 
ATOM     49  N   UNL     1      -0.341  -6.094  16.384  1.00  0.00    -0.354 N 
ATOM     50  C   UNL     1       3.182  -4.731  18.553  1.00  0.00     0.074 A 
ATOM     51  C   UNL     1       3.807  -3.622  17.868  1.00  0.00     0.031 C 
ATOM     52  C   UNL     1      -1.853  -6.047  14.737  1.00  0.00     0.029 A 
ATOM     53  C   UNL     1      -1.457  -6.762  15.948  1.00  0.00     0.049 A 
ATOM     54  H   UNL     1       0.128  -6.314  17.220  1.00  0.00     0.167 HD
ATOM     55  C   UNL     1       3.612  -5.246  19.729  1.00  0.00     0.037 A 
ATOM     56  C   UNL     1      -2.065  -7.848  16.462  1.00  0.00     0.037 A 
ATOM     57  C   UNL     1       2.980  -6.356  20.391  1.00  0.00     0.049 A 
ATOM     58  C   UNL     1      -1.515  -8.454  17.727  1.00  0.00     0.074 A 
ATOM     59  C   UNL     1       3.323  -6.957  21.588  1.00  0.00     0.029 A 
ATOM     60  N   UNL     1       1.874  -7.038  19.901  1.00  0.00    -0.354 N 
ATOM     61  N   UNL     1      -0.497  -8.068  18.459  1.00  0.00    -0.248 NA
ATOM     62  C   UNL     1      -2.202  -9.647  18.240  1.00  0.00     0.031 C 
ATOM     63  C   UNL     1       2.464  -8.042  21.791  1.00  0.00     0.029 A 
ATOM     64  C   UNL     1       1.542  -8.076  20.756  1.00  0.00     0.049 A 
ATOM     65  H   UNL     1       1.397  -6.817  19.069  1.00  0.00     0.167 HD
ATOM     66  C   UNL     1      -0.439  -8.948  19.531  1.00  0.00     0.074 A 
ATOM     67  C   UNL     1      -1.536  -9.879  19.362  1.00  0.00     0.031 C 
ATOM     68  C   UNL     1       0.441  -8.987  20.564  1.00  0.00     0.037 A 
BRANCH  55  69
ATOM     69  C   UNL     1       4.841  -4.643  20.344  1.00  0.00     0.064 A 
ATOM     70  C   UNL     1       4.843  -3.348  20.885  1.00  0.00     0.173 A 
ATOM     71  C   UNL     1       6.034  -5.380  20.410  1.00  0.00     0.173 A 
ATOM     72  F   UNL     1       3.736  -2.591  20.831  1.00  0.00    -0.203 F 
ATOM     73  C   UNL     1       5.998  -2.805  21.445  1.00  0.00     0.198 A 
ATOM     74  C   UNL     1       7.177  -4.847  21.000  1.00  0.00     0.198 A 
ATOM     75  F   UNL     1       6.089  -6.622  19.906  1.00  0.00    -0.203 F 
ATOM     76  F   UNL     1       5.990  -1.547  21.907  1.00  0.00    -0.200 F 
ATOM     77  C   UNL     1       7.161  -3.558  21.509  1.00  0.00     0.200 A 
ATOM     78  F   UNL     1       8.296  -5.581  21.070  1.00  0.00    -0.200 F 
ATOM     79  F   UNL     1       8.269  -3.037  22.053  1.00  0.00    -0.200 F 
ENDBRANCH  55  69
BRANCH  56  80
ATOM     80  C   UNL     1      -3.243  -8.436  15.774  1.00  0.00     0.064 A 
ATOM     81  C   UNL     1      -4.513  -8.418  16.365  1.00  0.00     0.173 A 
ATOM     82  C   UNL     1      -3.121  -9.041  14.513  1.00  0.00     0.173 A 
ATOM     83  F   UNL     1      -4.679  -7.870  17.578  1.00  0.00    -0.203 F 
ATOM     84  C   UNL     1      -5.611  -9.000  15.734  1.00  0.00     0.198 A 
ATOM     85  C   UNL     1      -4.225  -9.594  13.868  1.00  0.00     0.198 A 
ATOM     86  F   UNL     1      -1.929  -9.085  13.901  1.00  0.00    -0.203 F 
ATOM     87  F   UNL     1      -6.803  -9.012  16.345  1.00  0.00    -0.200 F 
ATOM     88  C   UNL     1      -5.467  -9.582  14.483  1.00  0.00     0.200 A 
ATOM     89  F   UNL     1      -4.083 -10.140  12.653  1.00  0.00    -0.200 F 
ATOM     90  F   UNL     1      -6.524 -10.137  13.874  1.00  0.00    -0.200 F 
ENDBRANCH  56  80
BRANCH  68  91
ATOM     91  C   UNL     1       0.228 -10.047  21.607  1.00  0.00     0.064 A 
ATOM     92  C   UNL     1       0.453 -11.405  21.338  1.00  0.00     0.173 A 
ATOM     93  C   UNL     1      -0.174  -9.693  22.904  1.00  0.00     0.173 A 
ATOM     94  F   UNL     1       0.826 -11.797  20.110  1.00  0.00    -0.203 F 
ATOM     95  C   UNL     1       0.251 -12.372  22.319  1.00  0.00     0.198 A 
ATOM     96  C   UNL     1      -0.339 -10.658  23.893  1.00  0.00     0.198 A 
ATOM     97  F   UNL     1      -0.394  -8.407  23.218  1.00  0.00    -0.203 F 
ATOM     98  F   UNL     1       0.415 -13.668  22.023  1.00  0.00    -0.200 F 
ATOM     99  C   UNL     1      -0.137 -11.997  23.597  1.00  0.00     0.200 A 
ATOM    100  F   UNL     1      -0.695 -10.292  25.132  1.00  0.00    -0.200 F 
ATOM    101  F   UNL     1      -0.323 -12.929  24.542  1.00  0.00    -0.200 F 
ENDBRANCH  68  91
ENDBRANCH  42  43
ENDBRANCH  35  37
ENDBRANCH  34  35
ENDBRANCH  33  34
ENDBRANCH  32  33
ENDBRANCH  31  32
ENDBRANCH  30  31
ENDBRANCH  29  30
ENDBRANCH  28  29
ENDBRANCH  27  28
ENDBRANCH   1  27
TORSDOF 27
