REMARK SMILES C[C@@H]1SCCC[C@@]1(CC(=O)OCCOCCOCCOCCOC(=O)c1ccc(-c2c3nc(c(-c4c(F)c(F)c(F)c(F)c4F)c4ccc([nH]4)c(-c4c(F)c(F)c(F)c(F)c4F)c4nc(c(-c5c(F)c(F)c(F)c(F)c5F)c5ccc2[nH]5)C=C4)C=C3)cc1)[NH+]1CCCC1
REMARK SMILES IDX 17 1 16 2 15 3 14 4 13 5 12 6 11 7 9 8 10 9 8 10 7 11 1 12
REMARK SMILES IDX 2 13 3 14 4 15 6 16 5 17 89 18 90 19 93 20 91 22 92 23 18 24
REMARK SMILES IDX 19 25 20 26 21 27 22 28 23 29 24 30 25 31 26 32 27 33 88 34
REMARK SMILES IDX 28 35 87 36 29 37 30 38 31 39 81 40 32 41 86 42 80 43 82 44
REMARK SMILES IDX 33 45 85 46 79 47 78 48 34 50 66 51 46 52 65 53 47 54 50 55
REMARK SMILES IDX 64 56 83 57 48 58 49 59 63 61 84 62 51 63 35 64 36 65 44 66
REMARK SMILES IDX 37 67 38 68 42 69 45 70 39 71 40 72 43 73 41 74 67 75 68 76
REMARK SMILES IDX 76 77 69 78 70 79 74 80 77 81 71 82 72 83 75 84 73 85 52 86
REMARK SMILES IDX 53 87 61 88 54 89 55 90 59 91 62 92 56 93 57 94 60 95 58 96
REMARK H PARENT 89 21 82 49 50 60
REMARK Flexibility Score: inf
ROOT
ATOM      1  O   UNL     1      -0.445   0.388  -2.879  1.00  0.00    -0.377 OA
ENDROOT
BRANCH   1   2
ATOM      2  C   UNL     1       0.313  -0.794  -2.710  1.00  0.00     0.188 C 
BRANCH   2   3
ATOM      3  C   UNL     1      -0.499  -2.082  -2.826  1.00  0.00     0.188 C 
BRANCH   3   4
ATOM      4  O   UNL     1      -1.505  -2.104  -3.824  1.00  0.00    -0.376 OA
BRANCH   4   5
ATOM      5  C   UNL     1      -2.576  -1.167  -3.680  1.00  0.00     0.202 C 
BRANCH   5   6
ATOM      6  C   UNL     1      -3.198  -0.945  -2.280  1.00  0.00     0.261 C 
BRANCH   6   7
ATOM      7  O   UNL     1      -2.369  -0.230  -1.308  1.00  0.00    -0.463 OA
BRANCH   7   8
ATOM      8  C   UNL     1      -2.257  -0.792  -0.084  1.00  0.00     0.312 C 
ATOM      9  O   UNL     1      -2.783  -1.871   0.199  1.00  0.00    -0.252 OA
BRANCH   8  10
ATOM     10  C   UNL     1      -1.393  -0.110   0.982  1.00  0.00     0.192 C 
BRANCH  10  11
ATOM     11  C   UNL     1      -0.817   1.375   1.010  1.00  0.00     0.120 C 
ATOM     12  C   UNL     1       1.552   0.300   0.451  1.00  0.00     0.026 C 
ATOM     13  C   UNL     1       0.526   1.423   0.152  1.00  0.00     0.105 C 
ATOM     14  S   UNL     1       1.556   2.952   0.291  1.00  0.00    -0.152 SA
ATOM     15  C   UNL     1       1.815   2.952   2.079  1.00  0.00     0.070 C 
ATOM     16  C   UNL     1      -0.400   1.639   2.508  1.00  0.00     0.071 C 
ATOM     17  C   UNL     1       0.508   2.834   2.844  1.00  0.00     0.017 C 
BRANCH  11  18
ATOM     18  N   UNL     1      -1.898   2.311   0.565  1.00  0.00    -0.329 N 
ATOM     19  C   UNL     1      -1.706   3.758   0.503  1.00  0.00     0.262 C 
ATOM     20  C   UNL     1      -3.248   2.113   1.122  1.00  0.00     0.262 C 
ATOM     21  H   UNL     1      -1.803   1.962  -0.389  1.00  0.00     0.348 HD
ATOM     22  C   UNL     1      -2.510   4.341   1.652  1.00  0.00     0.067 C 
ATOM     23  C   UNL     1      -3.700   3.422   1.758  1.00  0.00     0.067 C 
ENDBRANCH  11  18
ENDBRANCH  10  11
ENDBRANCH   8  10
ENDBRANCH   7   8
ENDBRANCH   6   7
ENDBRANCH   5   6
ENDBRANCH   4   5
ENDBRANCH   3   4
ENDBRANCH   2   3
ENDBRANCH   1   2
BRANCH   1  24
ATOM     24  C   UNL     1      -0.128   1.325  -3.898  1.00  0.00     0.188 C 
BRANCH  24  25
ATOM     25  C   UNL     1       0.949   0.934  -4.907  1.00  0.00     0.188 C 
BRANCH  25  26
ATOM     26  O   UNL     1       2.291   0.821  -4.422  1.00  0.00    -0.376 OA
BRANCH  26  27
ATOM     27  C   UNL     1       2.691   1.630  -3.317  1.00  0.00     0.202 C 
BRANCH  27  28
ATOM     28  C   UNL     1       3.106   3.053  -3.683  1.00  0.00     0.261 C 
BRANCH  28  29
ATOM     29  O   UNL     1       1.965   3.863  -4.010  1.00  0.00    -0.460 OA
BRANCH  29  30
ATOM     30  C   UNL     1       1.745   4.054  -5.326  1.00  0.00     0.338 C 
ATOM     31  O   UNL     1       2.429   3.666  -6.265  1.00  0.00    -0.246 OA
BRANCH  30  32
ATOM     32  C   UNL     1       0.430   4.686  -5.511  1.00  0.00     0.060 A 
ATOM     33  C   UNL     1      -0.450   4.121  -6.442  1.00  0.00     0.016 A 
ATOM     34  C   UNL     1       0.101   5.866  -4.840  1.00  0.00     0.016 A 
ATOM     35  C   UNL     1      -1.641   4.766  -6.752  1.00  0.00     0.010 A 
ATOM     36  C   UNL     1      -1.087   6.521  -5.162  1.00  0.00     0.010 A 
ATOM     37  C   UNL     1      -1.936   5.996  -6.152  1.00  0.00    -0.014 A 
BRANCH  37  38
ATOM     38  C   UNL     1      -3.021   6.831  -6.711  1.00  0.00     0.031 A 
ATOM     39  C   UNL     1      -2.652   7.934  -7.662  1.00  0.00     0.074 A 
ATOM     40  C   UNL     1      -4.304   6.590  -6.399  1.00  0.00     0.049 A 
ATOM     41  N   UNL     1      -3.412   8.837  -8.226  1.00  0.00    -0.248 NA
ATOM     42  C   UNL     1      -1.228   8.036  -8.023  1.00  0.00     0.031 C 
ATOM     43  C   UNL     1      -4.773   5.511  -5.532  1.00  0.00     0.029 A 
ATOM     44  N   UNL     1      -5.447   7.249  -6.771  1.00  0.00    -0.354 N 
ATOM     45  C   UNL     1      -2.559   9.618  -8.994  1.00  0.00     0.074 A 
ATOM     46  C   UNL     1      -1.221   9.105  -8.803  1.00  0.00     0.031 C 
ATOM     47  C   UNL     1      -6.110   5.592  -5.425  1.00  0.00     0.029 A 
ATOM     48  C   UNL     1      -6.581   6.750  -6.182  1.00  0.00     0.049 A 
ATOM     49  H   UNL     1      -5.454   8.006  -7.400  1.00  0.00     0.167 HD
ATOM     50  C   UNL     1      -2.870  10.668  -9.790  1.00  0.00     0.037 A 
ATOM     51  C   UNL     1      -7.848   7.204  -6.228  1.00  0.00     0.037 A 
ATOM     52  C   UNL     1      -4.208  11.167  -9.969  1.00  0.00     0.049 A 
ATOM     53  C   UNL     1      -8.158   8.422  -7.059  1.00  0.00     0.074 A 
ATOM     54  C   UNL     1      -4.641  12.212 -10.764  1.00  0.00     0.029 A 
ATOM     55  N   UNL     1      -5.331  10.656  -9.331  1.00  0.00    -0.354 N 
ATOM     56  N   UNL     1      -7.353   9.150  -7.798  1.00  0.00    -0.248 NA
ATOM     57  C   UNL     1      -9.553   8.882  -7.066  1.00  0.00     0.031 C 
ATOM     58  C   UNL     1      -6.014  12.377 -10.557  1.00  0.00     0.029 A 
ATOM     59  C   UNL     1      -6.451  11.387  -9.690  1.00  0.00     0.049 A 
ATOM     60  H   UNL     1      -5.330   9.888  -8.715  1.00  0.00     0.167 HD
ATOM     61  C   UNL     1      -8.147  10.129  -8.381  1.00  0.00     0.074 A 
ATOM     62  C   UNL     1      -9.500   9.894  -7.920  1.00  0.00     0.031 C 
ATOM     63  C   UNL     1      -7.791  11.131  -9.224  1.00  0.00     0.037 A 
BRANCH  50  64
ATOM     64  C   UNL     1      -1.743  11.369 -10.492  1.00  0.00     0.064 A 
ATOM     65  C   UNL     1      -1.023  10.764 -11.533  1.00  0.00     0.173 A 
ATOM     66  C   UNL     1      -1.395  12.681 -10.133  1.00  0.00     0.173 A 
ATOM     67  F   UNL     1      -1.304   9.506 -11.906  1.00  0.00    -0.203 F 
ATOM     68  C   UNL     1       0.019  11.435 -12.169  1.00  0.00     0.198 A 
ATOM     69  C   UNL     1      -0.375  13.361 -10.793  1.00  0.00     0.198 A 
ATOM     70  F   UNL     1      -2.050  13.308  -9.145  1.00  0.00    -0.203 F 
ATOM     71  F   UNL     1       0.726  10.818 -13.126  1.00  0.00    -0.200 F 
ATOM     72  C   UNL     1       0.336  12.735 -11.805  1.00  0.00     0.200 A 
ATOM     73  F   UNL     1      -0.080  14.621 -10.448  1.00  0.00    -0.200 F 
ATOM     74  F   UNL     1       1.333  13.382 -12.424  1.00  0.00    -0.200 F 
ENDBRANCH  50  64
BRANCH  51  75
ATOM     75  C   UNL     1      -8.912   6.515  -5.450  1.00  0.00     0.064 A 
ATOM     76  C   UNL     1      -9.957   5.839  -6.093  1.00  0.00     0.173 A 
ATOM     77  C   UNL     1      -8.910   6.527  -4.047  1.00  0.00     0.173 A 
ATOM     78  F   UNL     1     -10.017   5.817  -7.433  1.00  0.00    -0.203 F 
ATOM     79  C   UNL     1     -10.971   5.219  -5.364  1.00  0.00     0.198 A 
ATOM     80  C   UNL     1      -9.906   5.880  -3.319  1.00  0.00     0.198 A 
ATOM     81  F   UNL     1      -7.933   7.160  -3.381  1.00  0.00    -0.203 F 
ATOM     82  F   UNL     1     -11.985   4.623  -6.005  1.00  0.00    -0.200 F 
ATOM     83  C   UNL     1     -10.940   5.234  -3.978  1.00  0.00     0.200 A 
ATOM     84  F   UNL     1      -9.863   5.884  -1.979  1.00  0.00    -0.200 F 
ATOM     85  F   UNL     1     -11.912   4.634  -3.277  1.00  0.00    -0.200 F 
ENDBRANCH  51  75
BRANCH  63  86
ATOM     86  C   UNL     1      -8.886  12.022  -9.740  1.00  0.00     0.064 A 
ATOM     87  C   UNL     1      -9.545  12.942  -8.912  1.00  0.00     0.173 A 
ATOM     88  C   UNL     1      -9.244  11.986 -11.097  1.00  0.00     0.173 A 
ATOM     89  F   UNL     1      -9.249  13.007  -7.605  1.00  0.00    -0.203 F 
ATOM     90  C   UNL     1     -10.542  13.772  -9.417  1.00  0.00     0.198 A 
ATOM     91  C   UNL     1     -10.216  12.843 -11.605  1.00  0.00     0.198 A 
ATOM     92  F   UNL     1      -8.638  11.132 -11.935  1.00  0.00    -0.203 F 
ATOM     93  F   UNL     1     -11.196  14.606  -8.596  1.00  0.00    -0.200 F 
ATOM     94  C   UNL     1     -10.870  13.729 -10.764  1.00  0.00     0.200 A 
ATOM     95  F   UNL     1     -10.517  12.813 -12.911  1.00  0.00    -0.200 F 
ATOM     96  F   UNL     1     -11.822  14.537 -11.249  1.00  0.00    -0.200 F 
ENDBRANCH  63  86
ENDBRANCH  37  38
ENDBRANCH  30  32
ENDBRANCH  29  30
ENDBRANCH  28  29
ENDBRANCH  27  28
ENDBRANCH  26  27
ENDBRANCH  25  26
ENDBRANCH  24  25
ENDBRANCH   1  24
TORSDOF 22
