REMARK SMILES [NH3+][C@]1(C(=O)OCCOCCOCCOCCOC(=O)c2ccc(-c3c4nc(c(-c5c(F)c(F)c(F)c(F)c5F)c5ccc([nH]5)c(-c5c(F)c(F)c(F)c(F)c5F)c5nc(c(-c6c(F)c(F)c(F)c(F)c6F)c6ccc3[nH]6)C=C5)C=C4)cc2)CC[C@@H](Sc2cc3ccccc3[nH]2)C1
REMARK SMILES IDX 11 1 10 2 9 3 8 4 7 5 6 6 5 7 3 8 4 9 2 10 83 11 96 12 84 13
REMARK SMILES IDX 85 14 1 15 86 19 87 20 88 21 95 22 89 23 94 24 90 26 93 27
REMARK SMILES IDX 91 28 92 29 12 30 13 31 14 32 15 33 16 34 17 35 18 36 19 37
REMARK SMILES IDX 20 38 21 39 82 40 22 41 81 42 23 43 24 44 25 45 75 46 26 47
REMARK SMILES IDX 80 48 74 49 76 50 27 51 79 52 73 53 72 54 28 56 60 57 40 58
REMARK SMILES IDX 59 59 41 60 44 61 58 62 77 63 42 64 43 65 57 67 78 68 45 69
REMARK SMILES IDX 29 70 30 71 38 72 31 73 32 74 36 75 39 76 33 77 34 78 37 79
REMARK SMILES IDX 35 80 61 81 62 82 70 83 63 84 64 85 68 86 71 87 65 88 66 89
REMARK SMILES IDX 69 90 67 91 46 92 47 93 55 94 48 95 49 96 53 97 56 98 50 99
REMARK SMILES IDX 51 100 54 101 52 102
REMARK H PARENT 1 16 1 17 1 18 95 25 76 55 44 66
REMARK Flexibility Score: inf
ROOT
ATOM      1  O   UNL     1       3.001   1.499   0.058  1.00  0.00    -0.377 OA
ENDROOT
BRANCH   1   2
ATOM      2  C   UNL     1       1.715   1.927  -0.343  1.00  0.00     0.188 C 
BRANCH   2   3
ATOM      3  C   UNL     1       0.660   1.845   0.774  1.00  0.00     0.188 C 
BRANCH   3   4
ATOM      4  O   UNL     1       1.115   1.828   2.112  1.00  0.00    -0.376 OA
BRANCH   4   5
ATOM      5  C   UNL     1       1.837   0.725   2.640  1.00  0.00     0.202 C 
BRANCH   5   6
ATOM      6  C   UNL     1       2.024  -0.661   1.985  1.00  0.00     0.261 C 
BRANCH   6   7
ATOM      7  O   UNL     1       1.785  -0.791   0.585  1.00  0.00    -0.459 OA
BRANCH   7   8
ATOM      8  C   UNL     1       0.613  -1.379   0.215  1.00  0.00     0.368 C 
ATOM      9  O   UNL     1      -0.244  -1.755   1.004  1.00  0.00    -0.245 OA
BRANCH   8  10
ATOM     10  C   UNL     1       0.455  -1.386  -1.332  1.00  0.00     0.193 C 
ATOM     11  C   UNL     1      -0.227  -2.688  -1.768  1.00  0.00     0.082 C 
ATOM     12  C   UNL     1      -0.498  -0.260  -1.777  1.00  0.00     0.096 C 
ATOM     13  C   UNL     1      -1.137  -2.311  -2.924  1.00  0.00     0.022 C 
ATOM     14  C   UNL     1      -1.566  -0.880  -2.656  1.00  0.00     0.060 C 
BRANCH  10  15
ATOM     15  N   UNL     1       1.764  -1.257  -2.025  1.00  0.00    -0.343 N 
ATOM     16  H   UNL     1       1.617  -1.266  -3.034  1.00  0.00     0.345 HD
ATOM     17  H   UNL     1       2.366  -2.038  -1.762  1.00  0.00     0.345 HD
ATOM     18  H   UNL     1       2.208  -0.380  -1.754  1.00  0.00     0.345 HD
ENDBRANCH  10  15
BRANCH  14  19
ATOM     19  S   UNL     1      -3.178  -0.526  -1.948  1.00  0.00    -0.105 SA
BRANCH  19  20
ATOM     20  C   UNL     1      -3.502  -1.721  -0.726  1.00  0.00     0.073 A 
ATOM     21  C   UNL     1      -3.906  -1.523   0.583  1.00  0.00     0.043 A 
ATOM     22  N   UNL     1      -4.186  -2.832  -1.154  1.00  0.00    -0.350 N 
ATOM     23  C   UNL     1      -5.275  -1.964   0.569  1.00  0.00     0.001 A 
ATOM     24  C   UNL     1      -5.445  -2.710  -0.598  1.00  0.00     0.046 A 
ATOM     25  H   UNL     1      -3.853  -3.557  -1.731  1.00  0.00     0.167 HD
ATOM     26  C   UNL     1      -6.413  -1.641   1.332  1.00  0.00     0.010 A 
ATOM     27  C   UNL     1      -6.687  -3.087  -1.105  1.00  0.00     0.027 A 
ATOM     28  C   UNL     1      -7.676  -1.952   0.805  1.00  0.00     0.001 A 
ATOM     29  C   UNL     1      -7.807  -2.641  -0.403  1.00  0.00     0.002 A 
ENDBRANCH  19  20
ENDBRANCH  14  19
ENDBRANCH   8  10
ENDBRANCH   7   8
ENDBRANCH   6   7
ENDBRANCH   5   6
ENDBRANCH   4   5
ENDBRANCH   3   4
ENDBRANCH   2   3
ENDBRANCH   1   2
BRANCH   1  30
ATOM     30  C   UNL     1       3.874   2.506   0.551  1.00  0.00     0.188 C 
BRANCH  30  31
ATOM     31  C   UNL     1       3.290   3.739   1.279  1.00  0.00     0.188 C 
BRANCH  31  32
ATOM     32  O   UNL     1       2.183   4.343   0.623  1.00  0.00    -0.376 OA
BRANCH  32  33
ATOM     33  C   UNL     1       2.391   5.516  -0.147  1.00  0.00     0.202 C 
BRANCH  33  34
ATOM     34  C   UNL     1       3.230   5.383  -1.427  1.00  0.00     0.261 C 
BRANCH  34  35
ATOM     35  O   UNL     1       4.550   4.842  -1.270  1.00  0.00    -0.460 OA
BRANCH  35  36
ATOM     36  C   UNL     1       5.409   5.500  -0.457  1.00  0.00     0.338 C 
ATOM     37  O   UNL     1       5.220   6.541   0.129  1.00  0.00    -0.246 OA
BRANCH  36  38
ATOM     38  C   UNL     1       6.572   4.607  -0.243  1.00  0.00     0.060 A 
ATOM     39  C   UNL     1       6.880   4.185   1.057  1.00  0.00     0.016 A 
ATOM     40  C   UNL     1       7.333   4.170  -1.329  1.00  0.00     0.016 A 
ATOM     41  C   UNL     1       7.972   3.344   1.280  1.00  0.00     0.010 A 
ATOM     42  C   UNL     1       8.443   3.354  -1.102  1.00  0.00     0.010 A 
ATOM     43  C   UNL     1       8.786   2.965   0.206  1.00  0.00    -0.014 A 
BRANCH  43  44
ATOM     44  C   UNL     1      10.115   2.357   0.454  1.00  0.00     0.031 A 
ATOM     45  C   UNL     1      11.313   3.266   0.437  1.00  0.00     0.074 A 
ATOM     46  C   UNL     1      10.264   1.041   0.676  1.00  0.00     0.049 A 
ATOM     47  N   UNL     1      12.586   2.971   0.489  1.00  0.00    -0.248 NA
ATOM     48  C   UNL     1      11.031   4.708   0.340  1.00  0.00     0.031 C 
ATOM     49  C   UNL     1       9.178   0.070   0.775  1.00  0.00     0.029 A 
ATOM     50  N   UNL     1      11.404   0.292   0.838  1.00  0.00    -0.354 N 
ATOM     51  C   UNL     1      13.254   4.186   0.421  1.00  0.00     0.074 A 
ATOM     52  C   UNL     1      12.251   5.219   0.290  1.00  0.00     0.031 C 
ATOM     53  C   UNL     1       9.706  -1.155   0.957  1.00  0.00     0.029 A 
ATOM     54  C   UNL     1      11.165  -1.056   0.941  1.00  0.00     0.049 A 
ATOM     55  H   UNL     1      12.306   0.685   0.877  1.00  0.00     0.167 HD
ATOM     56  C   UNL     1      14.586   4.420   0.472  1.00  0.00     0.037 A 
ATOM     57  C   UNL     1      12.030  -2.090   0.977  1.00  0.00     0.037 A 
ATOM     58  C   UNL     1      15.580   3.387   0.591  1.00  0.00     0.049 A 
ATOM     59  C   UNL     1      13.514  -1.812   0.923  1.00  0.00     0.074 A 
ATOM     60  C   UNL     1      16.956   3.515   0.646  1.00  0.00     0.029 A 
ATOM     61  N   UNL     1      15.300   2.030   0.664  1.00  0.00    -0.354 N 
ATOM     62  N   UNL     1      14.144  -0.662   0.869  1.00  0.00    -0.248 NA
ATOM     63  C   UNL     1      14.410  -2.979   0.931  1.00  0.00     0.031 C 
ATOM     64  C   UNL     1      17.511   2.233   0.693  1.00  0.00     0.029 A 
ATOM     65  C   UNL     1      16.480   1.309   0.739  1.00  0.00     0.049 A 
ATOM     66  H   UNL     1      14.397   1.638   0.664  1.00  0.00     0.167 HD
ATOM     67  C   UNL     1      15.501  -0.966   0.880  1.00  0.00     0.074 A 
ATOM     68  C   UNL     1      15.605  -2.407   0.952  1.00  0.00     0.031 C 
ATOM     69  C   UNL     1      16.565  -0.126   0.836  1.00  0.00     0.037 A 
BRANCH  56  70
ATOM     70  C   UNL     1      15.045   5.845   0.368  1.00  0.00     0.064 A 
ATOM     71  C   UNL     1      14.816   6.771   1.397  1.00  0.00     0.173 A 
ATOM     72  C   UNL     1      15.748   6.284  -0.764  1.00  0.00     0.173 A 
ATOM     73  F   UNL     1      14.133   6.407   2.494  1.00  0.00    -0.203 F 
ATOM     74  C   UNL     1      15.249   8.090   1.284  1.00  0.00     0.198 A 
ATOM     75  C   UNL     1      16.211   7.594  -0.858  1.00  0.00     0.198 A 
ATOM     76  F   UNL     1      15.996   5.439  -1.776  1.00  0.00    -0.203 F 
ATOM     77  F   UNL     1      14.972   8.970   2.256  1.00  0.00    -0.200 F 
ATOM     78  C   UNL     1      15.953   8.497   0.162  1.00  0.00     0.200 A 
ATOM     79  F   UNL     1      16.903   7.982  -1.938  1.00  0.00    -0.200 F 
ATOM     80  F   UNL     1      16.378   9.764   0.059  1.00  0.00    -0.200 F 
ENDBRANCH  56  70
BRANCH  57  81
ATOM     81  C   UNL     1      11.528  -3.490   1.039  1.00  0.00     0.064 A 
ATOM     82  C   UNL     1      11.779  -4.300   2.155  1.00  0.00     0.173 A 
ATOM     83  C   UNL     1      10.830  -4.062  -0.035  1.00  0.00     0.173 A 
ATOM     84  F   UNL     1      12.467  -3.810   3.197  1.00  0.00    -0.203 F 
ATOM     85  C   UNL     1      11.377  -5.635   2.183  1.00  0.00     0.198 A 
ATOM     86  C   UNL     1      10.398  -5.387   0.009  1.00  0.00     0.198 A 
ATOM     87  F   UNL     1      10.567  -3.335  -1.131  1.00  0.00    -0.203 F 
ATOM     88  F   UNL     1      11.688  -6.403   3.237  1.00  0.00    -0.200 F 
ATOM     89  C   UNL     1      10.683  -6.175   1.112  1.00  0.00     0.200 A 
ATOM     90  F   UNL     1       9.717  -5.902  -1.025  1.00  0.00    -0.200 F 
ATOM     91  F   UNL     1      10.301  -7.459   1.138  1.00  0.00    -0.200 F 
ENDBRANCH  57  81
BRANCH  69  92
ATOM     92  C   UNL     1      17.938  -0.731   0.929  1.00  0.00     0.064 A 
ATOM     93  C   UNL     1      18.498  -1.469  -0.123  1.00  0.00     0.173 A 
ATOM     94  C   UNL     1      18.730  -0.506   2.067  1.00  0.00     0.173 A 
ATOM     95  F   UNL     1      17.779  -1.723  -1.227  1.00  0.00    -0.203 F 
ATOM     96  C   UNL     1      19.792  -1.977  -0.032  1.00  0.00     0.198 A 
ATOM     97  C   UNL     1      20.035  -0.985   2.140  1.00  0.00     0.198 A 
ATOM     98  F   UNL     1      18.247   0.202   3.099  1.00  0.00    -0.203 F 
ATOM     99  F   UNL     1      20.291  -2.716  -1.033  1.00  0.00    -0.200 F 
ATOM    100  C   UNL     1      20.562  -1.726   1.093  1.00  0.00     0.200 A 
ATOM    101  F   UNL     1      20.784  -0.724   3.220  1.00  0.00    -0.200 F 
ATOM    102  F   UNL     1      21.813  -2.200   1.171  1.00  0.00    -0.200 F 
ENDBRANCH  69  92
ENDBRANCH  43  44
ENDBRANCH  36  38
ENDBRANCH  35  36
ENDBRANCH  34  35
ENDBRANCH  33  34
ENDBRANCH  32  33
ENDBRANCH  31  32
ENDBRANCH  30  31
ENDBRANCH   1  30
TORSDOF 23
