REMARK SMILES N#CCSCC(=O)N1Cc2ccccc2C[C@@H]1C(=O)OCCOCCOCCOCCOC(=O)c1ccc(-c2c3nc(c(-c4c(F)c(F)c(F)c(F)c4F)c4ccc([nH]4)c(-c4c(F)c(F)c(F)c(F)c4F)c4nc(c(-c5c(F)c(F)c(F)c(F)c5F)c5ccc2[nH]5)C=C4)C=C3)cc1
REMARK SMILES IDX 24 1 23 2 22 3 21 4 20 5 18 6 19 7 17 8 8 9 9 10 10 11 16 12
REMARK SMILES IDX 11 13 15 14 12 15 14 16 13 17 6 18 7 19 5 20 4 21 3 22 2 23
REMARK SMILES IDX 1 24 25 25 26 26 27 27 28 28 29 29 30 30 31 31 32 32 33 33
REMARK SMILES IDX 34 34 35 35 36 36 97 37 37 38 96 39 38 40 39 41 40 42 90 43
REMARK SMILES IDX 41 44 95 45 89 46 91 47 42 48 94 49 88 50 87 51 43 53 75 54
REMARK SMILES IDX 55 55 74 56 56 57 59 58 73 59 92 60 57 61 58 62 72 64 93 65
REMARK SMILES IDX 60 66 44 67 45 68 53 69 46 70 47 71 51 72 54 73 48 74 49 75
REMARK SMILES IDX 52 76 50 77 76 78 77 79 85 80 78 81 79 82 83 83 86 84 80 85
REMARK SMILES IDX 81 86 84 87 82 88 61 89 62 90 70 91 63 92 64 93 68 94 71 95
REMARK SMILES IDX 65 96 66 97 69 98 67 99
REMARK H PARENT 91 52 59 63
REMARK Flexibility Score: inf
ROOT
ATOM      1  C   UNL     1       8.921  -1.519   1.988  1.00  0.00     0.188 C 
ENDROOT
BRANCH   1   2
ATOM      2  O   UNL     1       8.237  -0.701   2.929  1.00  0.00    -0.376 OA
BRANCH   2   3
ATOM      3  C   UNL     1       6.871  -0.940   3.187  1.00  0.00     0.202 C 
BRANCH   3   4
ATOM      4  C   UNL     1       5.912  -0.918   2.004  1.00  0.00     0.261 C 
BRANCH   4   5
ATOM      5  O   UNL     1       6.186  -1.651   0.776  1.00  0.00    -0.462 OA
BRANCH   5   6
ATOM      6  C   UNL     1       6.776  -1.003  -0.278  1.00  0.00     0.329 C 
ATOM      7  O   UNL     1       7.278   0.112  -0.182  1.00  0.00    -0.250 OA
BRANCH   6   8
ATOM      8  C   UNL     1       6.728  -1.793  -1.633  1.00  0.00     0.199 C 
ATOM      9  N   UNL     1       5.708  -2.858  -1.683  1.00  0.00    -0.323 N 
ATOM     10  C   UNL     1       6.110  -4.264  -1.599  1.00  0.00     0.156 C 
ATOM     11  C   UNL     1       7.565  -4.538  -1.342  1.00  0.00    -0.025 A 
ATOM     12  C   UNL     1       8.131  -2.214  -2.093  1.00  0.00     0.073 C 
ATOM     13  C   UNL     1       7.959  -5.794  -0.855  1.00  0.00     0.006 A 
ATOM     14  C   UNL     1       8.544  -3.574  -1.614  1.00  0.00    -0.040 A 
ATOM     15  C   UNL     1       9.305  -6.077  -0.625  1.00  0.00     0.000 A 
ATOM     16  C   UNL     1       9.899  -3.878  -1.420  1.00  0.00     0.004 A 
ATOM     17  C   UNL     1      10.276  -5.122  -0.916  1.00  0.00     0.000 A 
BRANCH   9  18
ATOM     18  C   UNL     1       4.341  -2.624  -1.803  1.00  0.00     0.233 C 
ATOM     19  O   UNL     1       3.528  -3.510  -1.516  1.00  0.00    -0.274 OA
BRANCH  18  20
ATOM     20  C   UNL     1       3.814  -1.342  -2.448  1.00  0.00     0.170 C 
BRANCH  20  21
ATOM     21  S   UNL     1       4.328   0.253  -1.728  1.00  0.00    -0.137 SA
BRANCH  21  22
ATOM     22  C   UNL     1       3.874  -0.016   0.034  1.00  0.00     0.189 C 
BRANCH  22  23
ATOM     23  C   UNL     1       2.354  -0.016   0.034  1.00  0.00     0.073 C 
ATOM     24  N   UNL     1       1.093  -0.016   0.034  1.00  0.00    -0.197 NA
ENDBRANCH  22  23
ENDBRANCH  21  22
ENDBRANCH  20  21
ENDBRANCH  18  20
ENDBRANCH   9  18
ENDBRANCH   6   8
ENDBRANCH   5   6
ENDBRANCH   4   5
ENDBRANCH   3   4
ENDBRANCH   2   3
ENDBRANCH   1   2
BRANCH   1  25
ATOM     25  C   UNL     1       8.416  -2.940   1.687  1.00  0.00     0.188 C 
BRANCH  25  26
ATOM     26  O   UNL     1       7.429  -3.439   2.557  1.00  0.00    -0.377 OA
BRANCH  26  27
ATOM     27  C   UNL     1       7.935  -4.259   3.587  1.00  0.00     0.188 C 
BRANCH  27  28
ATOM     28  C   UNL     1       9.042  -3.664   4.478  1.00  0.00     0.188 C 
BRANCH  28  29
ATOM     29  O   UNL     1      10.298  -3.256   3.961  1.00  0.00    -0.376 OA
BRANCH  29  30
ATOM     30  C   UNL     1      11.140  -4.013   3.114  1.00  0.00     0.202 C 
BRANCH  30  31
ATOM     31  C   UNL     1      11.343  -5.520   3.256  1.00  0.00     0.261 C 
BRANCH  31  32
ATOM     32  O   UNL     1      10.150  -6.277   3.450  1.00  0.00    -0.460 OA
BRANCH  32  33
ATOM     33  C   UNL     1       9.989  -6.753   4.706  1.00  0.00     0.338 C 
ATOM     34  O   UNL     1      10.760  -6.641   5.646  1.00  0.00    -0.246 OA
BRANCH  33  35
ATOM     35  C   UNL     1       8.623  -7.275   4.863  1.00  0.00     0.060 A 
ATOM     36  C   UNL     1       7.836  -6.731   5.888  1.00  0.00     0.016 A 
ATOM     37  C   UNL     1       8.137  -8.300   4.050  1.00  0.00     0.016 A 
ATOM     38  C   UNL     1       6.569  -7.239   6.134  1.00  0.00     0.010 A 
ATOM     39  C   UNL     1       6.880  -8.839   4.325  1.00  0.00     0.010 A 
ATOM     40  C   UNL     1       6.117  -8.336   5.394  1.00  0.00    -0.014 A 
BRANCH  40  41
ATOM     41  C   UNL     1       4.972  -9.109   5.913  1.00  0.00     0.031 A 
ATOM     42  C   UNL     1       5.268 -10.271   6.817  1.00  0.00     0.074 A 
ATOM     43  C   UNL     1       3.710  -8.757   5.622  1.00  0.00     0.049 A 
ATOM     44  N   UNL     1       4.450 -11.136   7.356  1.00  0.00    -0.248 NA
ATOM     45  C   UNL     1       6.685 -10.486   7.160  1.00  0.00     0.031 C 
ATOM     46  C   UNL     1       3.319  -7.606   4.813  1.00  0.00     0.029 A 
ATOM     47  N   UNL     1       2.524  -9.346   5.974  1.00  0.00    -0.354 N 
ATOM     48  C   UNL     1       5.252 -11.998   8.092  1.00  0.00     0.074 A 
ATOM     49  C   UNL     1       6.621 -11.572   7.914  1.00  0.00     0.031 C 
ATOM     50  C   UNL     1       1.979  -7.584   4.710  1.00  0.00     0.029 A 
ATOM     51  C   UNL     1       1.427  -8.740   5.414  1.00  0.00     0.049 A 
ATOM     52  H   UNL     1       2.464 -10.127   6.570  1.00  0.00     0.167 HD
ATOM     53  C   UNL     1       4.872 -13.050   8.854  1.00  0.00     0.037 A 
ATOM     54  C   UNL     1       0.132  -9.108   5.446  1.00  0.00     0.037 A 
ATOM     55  C   UNL     1       3.506 -13.465   9.013  1.00  0.00     0.049 A 
ATOM     56  C   UNL     1      -0.254 -10.345   6.217  1.00  0.00     0.074 A 
ATOM     57  C   UNL     1       3.003 -14.508   9.767  1.00  0.00     0.029 A 
ATOM     58  N   UNL     1       2.423 -12.857   8.392  1.00  0.00    -0.354 N 
ATOM     59  N   UNL     1       0.501 -11.149   6.929  1.00  0.00    -0.248 NA
ATOM     60  C   UNL     1      -1.672 -10.731   6.186  1.00  0.00     0.031 C 
ATOM     61  C   UNL     1       1.623 -14.572   9.552  1.00  0.00     0.029 A 
ATOM     62  C   UNL     1       1.257 -13.529   8.716  1.00  0.00     0.049 A 
ATOM     63  H   UNL     1       2.477 -12.066   7.809  1.00  0.00     0.167 HD
ATOM     64  C   UNL     1      -0.350 -12.116   7.449  1.00  0.00     0.074 A 
ATOM     65  C   UNL     1      -1.682 -11.790   6.983  1.00  0.00     0.031 C 
ATOM     66  C   UNL     1      -0.058 -13.178   8.241  1.00  0.00     0.037 A 
BRANCH  53  67
ATOM     67  C   UNL     1       5.951 -13.844   9.529  1.00  0.00     0.064 A 
ATOM     68  C   UNL     1       6.696 -13.325  10.599  1.00  0.00     0.173 A 
ATOM     69  C   UNL     1       6.231 -15.154   9.111  1.00  0.00     0.173 A 
ATOM     70  F   UNL     1       6.483 -12.070  11.024  1.00  0.00    -0.203 F 
ATOM     71  C   UNL     1       7.697 -14.078  11.207  1.00  0.00     0.198 A 
ATOM     72  C   UNL     1       7.210 -15.916   9.743  1.00  0.00     0.198 A 
ATOM     73  F   UNL     1       5.550 -15.698   8.091  1.00  0.00    -0.203 F 
ATOM     74  F   UNL     1       8.431 -13.543  12.193  1.00  0.00    -0.200 F 
ATOM     75  C   UNL     1       7.947 -15.375  10.785  1.00  0.00     0.200 A 
ATOM     76  F   UNL     1       7.443 -17.172   9.339  1.00  0.00    -0.200 F 
ATOM     77  F   UNL     1       8.906 -16.101  11.376  1.00  0.00    -0.200 F 
ENDBRANCH  53  67
BRANCH  54  78
ATOM     78  C   UNL     1      -0.884  -8.320   4.701  1.00  0.00     0.064 A 
ATOM     79  C   UNL     1      -1.889  -7.612   5.373  1.00  0.00     0.173 A 
ATOM     80  C   UNL     1      -0.882  -8.273   3.298  1.00  0.00     0.173 A 
ATOM     81  F   UNL     1      -1.950  -7.647   6.713  1.00  0.00    -0.203 F 
ATOM     82  C   UNL     1      -2.864  -6.904   4.673  1.00  0.00     0.198 A 
ATOM     83  C   UNL     1      -1.839  -7.540   2.599  1.00  0.00     0.198 A 
ATOM     84  F   UNL     1       0.054  -8.937   2.605  1.00  0.00    -0.203 F 
ATOM     85  F   UNL     1      -3.844  -6.280   5.340  1.00  0.00    -0.200 F 
ATOM     86  C   UNL     1      -2.835  -6.864   3.287  1.00  0.00     0.200 A 
ATOM     87  F   UNL     1      -1.801  -7.497   1.260  1.00  0.00    -0.200 F 
ATOM     88  F   UNL     1      -3.774  -6.184   2.614  1.00  0.00    -0.200 F 
ENDBRANCH  54  78
BRANCH  66  89
ATOM     89  C   UNL     1      -1.200 -14.051   8.677  1.00  0.00     0.064 A 
ATOM     90  C   UNL     1      -1.844 -14.918   7.784  1.00  0.00     0.173 A 
ATOM     91  C   UNL     1      -1.603 -14.071  10.021  1.00  0.00     0.173 A 
ATOM     92  F   UNL     1      -1.503 -14.927   6.486  1.00  0.00    -0.203 F 
ATOM     93  C   UNL     1      -2.863 -15.762   8.217  1.00  0.00     0.198 A 
ATOM     94  C   UNL     1      -2.598 -14.940  10.457  1.00  0.00     0.198 A 
ATOM     95  F   UNL     1      -1.010 -13.267  10.917  1.00  0.00    -0.203 F 
ATOM     96  F   UNL     1      -3.492 -16.556   7.339  1.00  0.00    -0.200 F 
ATOM     97  C   UNL     1      -3.231 -15.780   9.555  1.00  0.00     0.200 A 
ATOM     98  F   UNL     1      -2.939 -14.970  11.753  1.00  0.00    -0.200 F 
ATOM     99  F   UNL     1      -4.199 -16.607   9.973  1.00  0.00    -0.200 F 
ENDBRANCH  66  89
ENDBRANCH  40  41
ENDBRANCH  33  35
ENDBRANCH  32  33
ENDBRANCH  31  32
ENDBRANCH  30  31
ENDBRANCH  29  30
ENDBRANCH  28  29
ENDBRANCH  27  28
ENDBRANCH  26  27
ENDBRANCH  25  26
ENDBRANCH   1  25
TORSDOF 25
