REMARK SMILES Cc1ccc2n[nH]cc2c1C(=O)OCCOCCOCCOCCOC(=O)c1ccc(-c2c3nc(c(-c4c(F)c(F)c(F)c(F)c4F)c4ccc([nH]4)c(-c4c(F)c(F)c(F)c(F)c4F)c4nc(c(-c5c(F)c(F)c(F)c(F)c5F)c5ccc2[nH]5)C=C4)C=C3)cc1
REMARK SMILES IDX 20 1 19 2 18 3 17 4 16 5 15 6 14 7 13 8 11 9 12 10 10 11
REMARK SMILES IDX 1 12 2 13 3 14 4 15 9 16 5 17 8 18 6 19 7 20 21 22 22 23
REMARK SMILES IDX 23 24 24 25 25 26 26 27 27 28 28 29 29 30 90 31 30 32 89 33
REMARK SMILES IDX 31 34 32 35 33 36 83 37 34 38 88 39 82 40 84 41 35 42 87 43
REMARK SMILES IDX 81 44 80 45 36 47 68 48 48 49 67 50 49 51 52 52 66 53 85 54
REMARK SMILES IDX 50 55 51 56 65 58 86 59 53 60 37 61 38 62 46 63 39 64 40 65
REMARK SMILES IDX 44 66 47 67 41 68 42 69 45 70 43 71 69 72 70 73 78 74 71 75
REMARK SMILES IDX 72 76 76 77 79 78 73 79 74 80 77 81 75 82 54 83 55 84 63 85
REMARK SMILES IDX 56 86 57 87 61 88 64 89 58 90 59 91 62 92 60 93
REMARK H PARENT 7 21 84 46 52 57
REMARK Flexibility Score: inf
ROOT
ATOM      1  C   UNL     1       4.863   0.994  -1.361  1.00  0.00     0.188 C 
ENDROOT
BRANCH   1   2
ATOM      2  O   UNL     1       3.519   1.455  -1.250  1.00  0.00    -0.377 OA
BRANCH   2   3
ATOM      3  C   UNL     1       3.292   2.850  -1.218  1.00  0.00     0.188 C 
BRANCH   3   4
ATOM      4  C   UNL     1       3.917   3.609  -0.038  1.00  0.00     0.188 C 
BRANCH   4   5
ATOM      5  O   UNL     1       5.032   2.953   0.552  1.00  0.00    -0.376 OA
BRANCH   5   6
ATOM      6  C   UNL     1       4.883   2.481   1.885  1.00  0.00     0.202 C 
BRANCH   6   7
ATOM      7  C   UNL     1       3.939   1.292   2.131  1.00  0.00     0.261 C 
BRANCH   7   8
ATOM      8  O   UNL     1       2.665   1.388   1.486  1.00  0.00    -0.460 OA
BRANCH   8   9
ATOM      9  C   UNL     1       1.754   2.236   2.033  1.00  0.00     0.339 C 
ATOM     10  O   UNL     1       1.890   2.881   3.027  1.00  0.00    -0.246 OA
BRANCH   9  11
ATOM     11  C   UNL     1       0.652   2.392   1.043  1.00  0.00     0.074 A 
ATOM     12  C   UNL     1       0.455  -0.093   0.464  1.00  0.00     0.045 C 
ATOM     13  C   UNL     1       0.016   1.345   0.309  1.00  0.00    -0.036 A 
ATOM     14  C   UNL     1      -1.009   1.611  -0.669  1.00  0.00     0.006 A 
ATOM     15  C   UNL     1      -1.443   2.902  -1.040  1.00  0.00     0.031 A 
ATOM     16  C   UNL     1       0.221   3.664   0.632  1.00  0.00     0.034 A 
ATOM     17  C   UNL     1      -0.763   3.941  -0.389  1.00  0.00     0.093 A 
ATOM     18  C   UNL     1       0.723   4.884   1.009  1.00  0.00     0.114 A 
ATOM     19  N   UNL     1      -0.845   5.266  -0.591  1.00  0.00    -0.176 NA
ATOM     20  N   UNL     1       0.079   5.797   0.229  1.00  0.00    -0.284 N 
ATOM     21  H   UNL     1       0.274   6.761   0.263  1.00  0.00     0.189 HD
ENDBRANCH   9  11
ENDBRANCH   8   9
ENDBRANCH   7   8
ENDBRANCH   6   7
ENDBRANCH   5   6
ENDBRANCH   4   5
ENDBRANCH   3   4
ENDBRANCH   2   3
ENDBRANCH   1   2
BRANCH   1  22
ATOM     22  C   UNL     1       6.008   1.919  -1.833  1.00  0.00     0.188 C 
BRANCH  22  23
ATOM     23  O   UNL     1       5.591   2.896  -2.771  1.00  0.00    -0.376 OA
BRANCH  23  24
ATOM     24  C   UNL     1       5.974   2.693  -4.122  1.00  0.00     0.202 C 
BRANCH  24  25
ATOM     25  C   UNL     1       5.455   1.422  -4.816  1.00  0.00     0.261 C 
BRANCH  25  26
ATOM     26  O   UNL     1       5.766   0.201  -4.124  1.00  0.00    -0.460 OA
BRANCH  26  27
ATOM     27  C   UNL     1       6.986  -0.366  -4.273  1.00  0.00     0.338 C 
ATOM     28  O   UNL     1       7.821  -0.105  -5.117  1.00  0.00    -0.246 OA
BRANCH  27  29
ATOM     29  C   UNL     1       7.241  -1.087  -2.996  1.00  0.00     0.060 A 
ATOM     30  C   UNL     1       6.243  -1.857  -2.389  1.00  0.00     0.016 A 
ATOM     31  C   UNL     1       8.372  -0.692  -2.264  1.00  0.00     0.016 A 
ATOM     32  C   UNL     1       6.315  -2.101  -1.019  1.00  0.00     0.010 A 
ATOM     33  C   UNL     1       8.438  -0.936  -0.891  1.00  0.00     0.010 A 
ATOM     34  C   UNL     1       7.389  -1.603  -0.255  1.00  0.00    -0.014 A 
BRANCH  34  35
ATOM     35  C   UNL     1       7.474  -2.042   1.149  1.00  0.00     0.031 A 
ATOM     36  C   UNL     1       7.574  -3.523   1.265  1.00  0.00     0.074 A 
ATOM     37  C   UNL     1       7.638  -1.280   2.253  1.00  0.00     0.049 A 
ATOM     38  N   UNL     1       6.818  -4.348   1.916  1.00  0.00    -0.248 NA
ATOM     39  C   UNL     1       8.611  -4.168   0.438  1.00  0.00     0.031 C 
ATOM     40  C   UNL     1       7.915   0.154   2.308  1.00  0.00     0.029 A 
ATOM     41  N   UNL     1       7.686  -1.657   3.575  1.00  0.00    -0.354 N 
ATOM     42  C   UNL     1       7.385  -5.601   1.706  1.00  0.00     0.074 A 
ATOM     43  C   UNL     1       8.385  -5.455   0.682  1.00  0.00     0.031 C 
ATOM     44  C   UNL     1       8.270   0.494   3.568  1.00  0.00     0.029 A 
ATOM     45  C   UNL     1       8.179  -0.675   4.430  1.00  0.00     0.049 A 
ATOM     46  H   UNL     1       7.397  -2.544   3.889  1.00  0.00     0.167 HD
ATOM     47  C   UNL     1       7.185  -6.637   2.559  1.00  0.00     0.037 A 
ATOM     48  C   UNL     1       8.564  -0.820   5.725  1.00  0.00     0.037 A 
ATOM     49  C   UNL     1       6.000  -6.483   3.348  1.00  0.00     0.049 A 
ATOM     50  C   UNL     1       7.984  -2.080   6.246  1.00  0.00     0.074 A 
ATOM     51  C   UNL     1       4.649  -6.407   3.082  1.00  0.00     0.029 A 
ATOM     52  N   UNL     1       6.161  -6.078   4.645  1.00  0.00    -0.354 N 
ATOM     53  N   UNL     1       6.723  -2.272   6.509  1.00  0.00    -0.248 NA
ATOM     54  C   UNL     1       8.807  -3.282   6.226  1.00  0.00     0.031 C 
ATOM     55  C   UNL     1       4.103  -5.585   4.110  1.00  0.00     0.029 A 
ATOM     56  C   UNL     1       5.148  -5.210   4.954  1.00  0.00     0.049 A 
ATOM     57  H   UNL     1       6.882  -6.363   5.252  1.00  0.00     0.167 HD
ATOM     58  C   UNL     1       6.521  -3.621   6.277  1.00  0.00     0.074 A 
ATOM     59  C   UNL     1       7.850  -4.210   6.261  1.00  0.00     0.031 C 
ATOM     60  C   UNL     1       5.316  -4.074   5.831  1.00  0.00     0.037 A 
BRANCH  47  61
ATOM     61  C   UNL     1       8.297  -7.582   2.930  1.00  0.00     0.064 A 
ATOM     62  C   UNL     1       8.005  -8.795   3.574  1.00  0.00     0.173 A 
ATOM     63  C   UNL     1       9.659  -7.199   2.923  1.00  0.00     0.173 A 
ATOM     64  F   UNL     1       6.736  -9.213   3.694  1.00  0.00    -0.203 F 
ATOM     65  C   UNL     1       9.005  -9.558   4.184  1.00  0.00     0.198 A 
ATOM     66  C   UNL     1      10.659  -7.992   3.476  1.00  0.00     0.198 A 
ATOM     67  F   UNL     1      10.053  -5.997   2.483  1.00  0.00    -0.203 F 
ATOM     68  F   UNL     1       8.672 -10.652   4.882  1.00  0.00    -0.200 F 
ATOM     69  C   UNL     1      10.330  -9.161   4.128  1.00  0.00     0.200 A 
ATOM     70  F   UNL     1      11.931  -7.570   3.439  1.00  0.00    -0.200 F 
ATOM     71  F   UNL     1      11.281  -9.870   4.748  1.00  0.00    -0.200 F 
ENDBRANCH  47  61
BRANCH  48  72
ATOM     72  C   UNL     1       9.595  -0.074   6.499  1.00  0.00     0.064 A 
ATOM     73  C   UNL     1       9.681  -0.183   7.901  1.00  0.00     0.173 A 
ATOM     74  C   UNL     1      10.688   0.548   5.864  1.00  0.00     0.173 A 
ATOM     75  F   UNL     1       8.711  -0.798   8.594  1.00  0.00    -0.203 F 
ATOM     76  C   UNL     1      10.801   0.268   8.612  1.00  0.00     0.198 A 
ATOM     77  C   UNL     1      11.795   1.015   6.576  1.00  0.00     0.198 A 
ATOM     78  F   UNL     1      10.755   0.629   4.529  1.00  0.00    -0.203 F 
ATOM     79  F   UNL     1      10.877   0.075   9.936  1.00  0.00    -0.200 F 
ATOM     80  C   UNL     1      11.860   0.859   7.946  1.00  0.00     0.200 A 
ATOM     81  F   UNL     1      12.826   1.557   5.912  1.00  0.00    -0.200 F 
ATOM     82  F   UNL     1      12.959   1.237   8.615  1.00  0.00    -0.200 F 
ENDBRANCH  48  72
BRANCH  60  83
ATOM     83  C   UNL     1       4.122  -3.196   6.048  1.00  0.00     0.064 A 
ATOM     84  C   UNL     1       3.949  -1.934   5.456  1.00  0.00     0.173 A 
ATOM     85  C   UNL     1       3.056  -3.717   6.797  1.00  0.00     0.173 A 
ATOM     86  F   UNL     1       4.886  -1.411   4.653  1.00  0.00    -0.203 F 
ATOM     87  C   UNL     1       2.771  -1.213   5.644  1.00  0.00     0.198 A 
ATOM     88  C   UNL     1       1.868  -3.011   6.949  1.00  0.00     0.198 A 
ATOM     89  F   UNL     1       3.153  -4.940   7.344  1.00  0.00    -0.203 F 
ATOM     90  F   UNL     1       2.628  -0.005   5.082  1.00  0.00    -0.200 F 
ATOM     91  C   UNL     1       1.729  -1.756   6.381  1.00  0.00     0.200 A 
ATOM     92  F   UNL     1       0.847  -3.561   7.621  1.00  0.00    -0.200 F 
ATOM     93  F   UNL     1       0.580  -1.081   6.520  1.00  0.00    -0.200 F 
ENDBRANCH  60  83
ENDBRANCH  34  35
ENDBRANCH  27  29
ENDBRANCH  26  27
ENDBRANCH  25  26
ENDBRANCH  24  25
ENDBRANCH  23  24
ENDBRANCH  22  23
ENDBRANCH   1  22
TORSDOF 20
