REMARK SMILES Cc1cccc2c(C(F)(F)F)cc(C(=O)OCCOCCOCCOCCOC(=O)c3ccc(-c4c5nc(c(-c6c(F)c(F)c(F)c(F)c6F)c6ccc([nH]6)c(-c6c(F)c(F)c(F)c(F)c6F)c6nc(c(-c7c(F)c(F)c(F)c(F)c7F)c7ccc4[nH]7)C=C6)C=C5)cc3)nc12
REMARK SMILES IDX 23 1 22 2 21 3 20 4 19 5 18 6 17 7 16 8 14 9 15 10 13 11
REMARK SMILES IDX 1 12 2 13 3 14 95 15 4 16 6 17 94 18 5 19 7 20 12 21 8 22
REMARK SMILES IDX 9 23 10 24 11 25 24 26 25 27 26 28 27 29 28 30 29 31 30 32
REMARK SMILES IDX 31 33 32 34 93 35 33 36 92 37 34 38 35 39 36 40 86 41 37 42
REMARK SMILES IDX 91 43 85 44 87 45 38 46 90 47 84 48 83 49 39 51 71 52 51 53
REMARK SMILES IDX 70 54 52 55 55 56 69 57 88 58 53 59 54 60 68 62 89 63 56 64
REMARK SMILES IDX 40 65 41 66 49 67 42 68 43 69 47 70 50 71 44 72 45 73 48 74
REMARK SMILES IDX 46 75 72 76 73 77 81 78 74 79 75 80 79 81 82 82 76 83 77 84
REMARK SMILES IDX 80 85 78 86 57 87 58 88 66 89 59 90 60 91 64 92 67 93 61 94
REMARK SMILES IDX 62 95 65 96 63 97
REMARK H PARENT 87 50 55 61
REMARK Flexibility Score: inf
ROOT
ATOM      1  C   UNL     1      -3.769   4.387  -2.797  1.00  0.00     0.188 C 
ENDROOT
BRANCH   1   2
ATOM      2  O   UNL     1      -2.906   3.266  -2.694  1.00  0.00    -0.377 OA
BRANCH   2   3
ATOM      3  C   UNL     1      -3.352   2.079  -2.041  1.00  0.00     0.188 C 
BRANCH   3   4
ATOM      4  C   UNL     1      -4.677   1.993  -1.241  1.00  0.00     0.188 C 
BRANCH   4   5
ATOM      5  O   UNL     1      -5.280   3.238  -0.941  1.00  0.00    -0.376 OA
BRANCH   5   6
ATOM      6  C   UNL     1      -5.293   3.708   0.391  1.00  0.00     0.202 C 
BRANCH   6   7
ATOM      7  C   UNL     1      -3.938   4.045   1.026  1.00  0.00     0.261 C 
BRANCH   7   8
ATOM      8  O   UNL     1      -2.923   3.046   0.881  1.00  0.00    -0.459 OA
BRANCH   8   9
ATOM      9  C   UNL     1      -3.089   1.907   1.592  1.00  0.00     0.357 C 
ATOM     10  O   UNL     1      -4.017   1.657   2.345  1.00  0.00    -0.244 OA
BRANCH   9  11
ATOM     11  C   UNL     1      -2.081   0.902   1.147  1.00  0.00     0.149 A 
ATOM     12  C   UNL     1       1.694   2.357   0.169  1.00  0.00     0.047 C 
ATOM     13  C   UNL     1       1.384   0.881   0.177  1.00  0.00    -0.025 A 
ATOM     14  C   UNL     1       2.408  -0.023  -0.140  1.00  0.00     0.005 A 
ATOM     15  C   UNL     1       0.084   0.433   0.446  1.00  0.00     0.075 A 
ATOM     16  C   UNL     1       2.136  -1.377  -0.233  1.00  0.00     0.001 A 
ATOM     17  C   UNL     1      -0.221  -0.947   0.292  1.00  0.00     0.013 A 
ATOM     18  N   UNL     1      -0.836   1.329   0.849  1.00  0.00    -0.240 NA
ATOM     19  C   UNL     1       0.832  -1.829  -0.051  1.00  0.00     0.011 A 
ATOM     20  C   UNL     1      -1.568  -1.351   0.503  1.00  0.00     0.067 A 
ATOM     21  C   UNL     1      -2.495  -0.402   0.963  1.00  0.00     0.049 A 
BRANCH  20  22
ATOM     22  C   UNL     1      -2.124  -2.719   0.179  1.00  0.00     0.417 C 
ATOM     23  F   UNL     1      -3.071  -3.114   1.078  1.00  0.00    -0.166 F 
ATOM     24  F   UNL     1      -2.751  -2.725  -1.032  1.00  0.00    -0.166 F 
ATOM     25  F   UNL     1      -1.226  -3.736   0.138  1.00  0.00    -0.166 F 
ENDBRANCH  20  22
ENDBRANCH   9  11
ENDBRANCH   8   9
ENDBRANCH   7   8
ENDBRANCH   6   7
ENDBRANCH   5   6
ENDBRANCH   4   5
ENDBRANCH   3   4
ENDBRANCH   2   3
ENDBRANCH   1   2
BRANCH   1  26
ATOM     26  C   UNL     1      -5.111   4.164  -3.523  1.00  0.00     0.188 C 
BRANCH  26  27
ATOM     27  O   UNL     1      -5.356   2.801  -3.829  1.00  0.00    -0.376 OA
BRANCH  27  28
ATOM     28  C   UNL     1      -5.136   2.367  -5.159  1.00  0.00     0.202 C 
BRANCH  28  29
ATOM     29  C   UNL     1      -3.767   2.601  -5.819  1.00  0.00     0.261 C 
BRANCH  29  30
ATOM     30  O   UNL     1      -3.198   3.914  -5.704  1.00  0.00    -0.460 OA
BRANCH  30  31
ATOM     31  C   UNL     1      -3.792   4.925  -6.367  1.00  0.00     0.338 C 
ATOM     32  O   UNL     1      -4.786   4.866  -7.074  1.00  0.00    -0.246 OA
BRANCH  31  33
ATOM     33  C   UNL     1      -3.135   6.177  -5.937  1.00  0.00     0.060 A 
ATOM     34  C   UNL     1      -3.884   7.150  -5.262  1.00  0.00     0.016 A 
ATOM     35  C   UNL     1      -1.774   6.375  -6.180  1.00  0.00     0.016 A 
ATOM     36  C   UNL     1      -3.278   8.339  -4.852  1.00  0.00     0.010 A 
ATOM     37  C   UNL     1      -1.174   7.576  -5.792  1.00  0.00     0.010 A 
ATOM     38  C   UNL     1      -1.930   8.576  -5.154  1.00  0.00    -0.014 A 
BRANCH  38  39
ATOM     39  C   UNL     1      -1.366   9.937  -4.989  1.00  0.00     0.031 A 
ATOM     40  C   UNL     1      -1.297  10.828  -6.199  1.00  0.00     0.074 A 
ATOM     41  C   UNL     1      -0.940  10.383  -3.795  1.00  0.00     0.049 A 
ATOM     42  N   UNL     1      -0.790  12.027  -6.325  1.00  0.00    -0.248 NA
ATOM     43  C   UNL     1      -1.877  10.286  -7.439  1.00  0.00     0.031 C 
ATOM     44  C   UNL     1      -0.996   9.633  -2.542  1.00  0.00     0.029 A 
ATOM     45  N   UNL     1      -0.363  11.580  -3.447  1.00  0.00    -0.354 N 
ATOM     46  C   UNL     1      -0.985  12.379  -7.654  1.00  0.00     0.074 A 
ATOM     47  C   UNL     1      -1.624  11.256  -8.304  1.00  0.00     0.031 C 
ATOM     48  C   UNL     1      -0.460  10.383  -1.563  1.00  0.00     0.029 A 
ATOM     49  C   UNL     1       0.011  11.647  -2.127  1.00  0.00     0.049 A 
ATOM     50  H   UNL     1      -0.229  12.319  -4.083  1.00  0.00     0.167 HD
ATOM     51  C   UNL     1      -0.667  13.539  -8.275  1.00  0.00     0.037 A 
ATOM     52  C   UNL     1       0.681  12.610  -1.463  1.00  0.00     0.037 A 
ATOM     53  C   UNL     1      -0.027  14.653  -7.627  1.00  0.00     0.049 A 
ATOM     54  C   UNL     1       1.102  13.859  -2.200  1.00  0.00     0.074 A 
ATOM     55  C   UNL     1       0.325  15.877  -8.165  1.00  0.00     0.029 A 
ATOM     56  N   UNL     1       0.365  14.671  -6.296  1.00  0.00    -0.354 N 
ATOM     57  N   UNL     1       0.892  14.198  -3.450  1.00  0.00    -0.248 NA
ATOM     58  C   UNL     1       1.853  14.862  -1.430  1.00  0.00     0.031 C 
ATOM     59  C   UNL     1       0.987  16.613  -7.178  1.00  0.00     0.029 A 
ATOM     60  C   UNL     1       0.984  15.876  -6.004  1.00  0.00     0.049 A 
ATOM     61  H   UNL     1       0.225  13.938  -5.655  1.00  0.00     0.167 HD
ATOM     62  C   UNL     1       1.452  15.461  -3.605  1.00  0.00     0.074 A 
ATOM     63  C   UNL     1       1.996  15.836  -2.317  1.00  0.00     0.031 C 
ATOM     64  C   UNL     1       1.510  16.241  -4.713  1.00  0.00     0.037 A 
BRANCH  51  65
ATOM     65  C   UNL     1      -0.980  13.653  -9.739  1.00  0.00     0.064 A 
ATOM     66  C   UNL     1      -2.299  13.746 -10.209  1.00  0.00     0.173 A 
ATOM     67  C   UNL     1       0.058  13.711 -10.682  1.00  0.00     0.173 A 
ATOM     68  F   UNL     1      -3.328  13.681  -9.351  1.00  0.00    -0.203 F 
ATOM     69  C   UNL     1      -2.567  13.870 -11.570  1.00  0.00     0.198 A 
ATOM     70  C   UNL     1      -0.214  13.868 -12.039  1.00  0.00     0.198 A 
ATOM     71  F   UNL     1       1.337  13.628 -10.287  1.00  0.00    -0.203 F 
ATOM     72  F   UNL     1      -3.836  13.910 -12.000  1.00  0.00    -0.200 F 
ATOM     73  C   UNL     1      -1.525  13.940 -12.482  1.00  0.00     0.200 A 
ATOM     74  F   UNL     1       0.796  13.950 -12.917  1.00  0.00    -0.200 F 
ATOM     75  F   UNL     1      -1.785  14.072 -13.790  1.00  0.00    -0.200 F 
ENDBRANCH  51  65
BRANCH  52  76
ATOM     76  C   UNL     1       1.022  12.433  -0.025  1.00  0.00     0.064 A 
ATOM     77  C   UNL     1       0.474  13.268   0.960  1.00  0.00     0.173 A 
ATOM     78  C   UNL     1       1.939  11.455   0.390  1.00  0.00     0.173 A 
ATOM     79  F   UNL     1      -0.386  14.237   0.613  1.00  0.00    -0.203 F 
ATOM     80  C   UNL     1       0.852  13.151   2.296  1.00  0.00     0.198 A 
ATOM     81  C   UNL     1       2.289  11.317   1.732  1.00  0.00     0.198 A 
ATOM     82  F   UNL     1       2.499  10.633  -0.509  1.00  0.00    -0.203 F 
ATOM     83  F   UNL     1       0.360  14.005   3.205  1.00  0.00    -0.200 F 
ATOM     84  C   UNL     1       1.754  12.172   2.682  1.00  0.00     0.200 A 
ATOM     85  F   UNL     1       3.153  10.362   2.101  1.00  0.00    -0.200 F 
ATOM     86  F   UNL     1       2.119  12.063   3.967  1.00  0.00    -0.200 F 
ENDBRANCH  52  76
BRANCH  64  87
ATOM     87  C   UNL     1       2.140  17.599  -4.575  1.00  0.00     0.064 A 
ATOM     88  C   UNL     1       3.519  17.760  -4.373  1.00  0.00     0.173 A 
ATOM     89  C   UNL     1       1.357  18.758  -4.694  1.00  0.00     0.173 A 
ATOM     90  F   UNL     1       4.312  16.686  -4.241  1.00  0.00    -0.203 F 
ATOM     91  C   UNL     1       4.084  19.028  -4.262  1.00  0.00     0.198 A 
ATOM     92  C   UNL     1       1.930  20.024  -4.620  1.00  0.00     0.198 A 
ATOM     93  F   UNL     1       0.034  18.663  -4.899  1.00  0.00    -0.203 F 
ATOM     94  F   UNL     1       5.394  19.156  -4.014  1.00  0.00    -0.200 F 
ATOM     95  C   UNL     1       3.291  20.159  -4.394  1.00  0.00     0.200 A 
ATOM     96  F   UNL     1       1.165  21.115  -4.768  1.00  0.00    -0.200 F 
ATOM     97  F   UNL     1       3.838  21.378  -4.298  1.00  0.00    -0.200 F 
ENDBRANCH  64  87
ENDBRANCH  38  39
ENDBRANCH  31  33
ENDBRANCH  30  31
ENDBRANCH  29  30
ENDBRANCH  28  29
ENDBRANCH  27  28
ENDBRANCH  26  27
ENDBRANCH   1  26
TORSDOF 21
