REMARK SMILES Cc1ccc(-c2cc(C(=O)OCCOCCOCCOCCOC(=O)c3ccc(-c4c5nc(c(-c6c(F)c(F)c(F)c(F)c6F)c6ccc([nH]6)c(-c6c(F)c(F)c(F)c(F)c6F)c6nc(c(-c7c(F)c(F)c(F)c(F)c7F)c7ccc4[nH]7)C=C6)C=C5)cc3)c3c(-c4cccc([N+](=O)[O-])c4)[nH]nc3n2)cc1
REMARK SMILES IDX 17 1 16 2 15 3 14 4 13 5 12 6 11 7 9 8 10 9 8 10 6 11 7 12
REMARK SMILES IDX 103 13 102 14 89 15 101 16 90 17 100 18 5 20 1 21 2 22 3 23
REMARK SMILES IDX 105 24 4 25 104 26 91 27 92 28 99 29 93 30 95 31 94 32 96 33
REMARK SMILES IDX 97 34 98 35 18 36 19 37 20 38 21 39 22 40 23 41 24 42 25 43
REMARK SMILES IDX 26 44 27 45 88 46 28 47 87 48 29 49 30 50 31 51 81 52 32 53
REMARK SMILES IDX 86 54 80 55 82 56 33 57 85 58 79 59 78 60 34 62 66 63 46 64
REMARK SMILES IDX 65 65 47 66 50 67 64 68 83 69 48 70 49 71 63 73 84 74 51 75
REMARK SMILES IDX 35 76 36 77 44 78 37 79 38 80 42 81 45 82 39 83 40 84 43 85
REMARK SMILES IDX 41 86 67 87 68 88 76 89 69 90 70 91 74 92 77 93 71 94 72 95
REMARK SMILES IDX 75 96 73 97 52 98 53 99 61 100 54 101 55 102 59 103 62 104
REMARK SMILES IDX 56 105 57 106 60 107 58 108
REMARK H PARENT 100 19 82 61 50 72
REMARK Flexibility Score: inf
ROOT
ATOM      1  O   UNL     1      -5.522  -1.209  -3.563  1.00  0.00    -0.377 OA
ENDROOT
BRANCH   1   2
ATOM      2  C   UNL     1      -6.944  -1.286  -3.465  1.00  0.00     0.188 C 
BRANCH   2   3
ATOM      3  C   UNL     1      -8.193  -0.554  -4.323  1.00  0.00     0.188 C 
BRANCH   3   4
ATOM      4  O   UNL     1      -8.598   1.047  -5.059  1.00  0.00    -0.376 OA
BRANCH   4   5
ATOM      5  C   UNL     1      -7.956   2.681  -5.013  1.00  0.00     0.202 C 
BRANCH   5   6
ATOM      6  C   UNL     1      -6.918   3.481  -3.664  1.00  0.00     0.261 C 
BRANCH   6   7
ATOM      7  O   UNL     1      -6.574   2.734  -2.029  1.00  0.00    -0.460 OA
BRANCH   7   8
ATOM      8  C   UNL     1      -6.989   1.774  -0.952  1.00  0.00     0.339 C 
ATOM      9  O   UNL     1      -8.138   1.712  -0.515  1.00  0.00    -0.246 OA
BRANCH   8  10
ATOM     10  C   UNL     1      -6.129   0.706  -0.160  1.00  0.00     0.075 A 
ATOM     11  C   UNL     1      -3.975  -0.331   0.800  1.00  0.00     0.074 A 
ATOM     12  C   UNL     1      -4.736   0.420  -0.136  1.00  0.00     0.045 A 
ATOM     13  N   UNL     1      -4.520  -1.036   1.795  1.00  0.00    -0.226 NA
ATOM     14  C   UNL     1      -5.873  -1.026   1.734  1.00  0.00     0.182 A 
ATOM     15  C   UNL     1      -6.656  -0.224   0.788  1.00  0.00     0.061 A 
ATOM     16  N   UNL     1      -6.639  -1.788   2.509  1.00  0.00    -0.154 NA
ATOM     17  C   UNL     1      -7.945  -0.729   0.957  1.00  0.00     0.076 A 
ATOM     18  N   UNL     1      -7.864  -1.579   2.035  1.00  0.00    -0.275 N 
ATOM     19  H   UNL     1      -8.659  -2.005   2.429  1.00  0.00     0.190 HD
BRANCH  11  20
ATOM     20  C   UNL     1      -2.494  -0.329   0.671  1.00  0.00     0.000 A 
ATOM     21  C   UNL     1       1.813  -0.208   0.039  1.00  0.00     0.044 C 
ATOM     22  C   UNL     1       0.324  -0.239   0.238  1.00  0.00    -0.051 A 
ATOM     23  C   UNL     1      -0.384  -1.443   0.134  1.00  0.00     0.004 A 
ATOM     24  C   UNL     1      -0.380   0.920   0.571  1.00  0.00     0.004 A 
ATOM     25  C   UNL     1      -1.773  -1.487   0.347  1.00  0.00     0.010 A 
ATOM     26  C   UNL     1      -1.767   0.874   0.779  1.00  0.00     0.010 A 
ENDBRANCH  11  20
BRANCH  17  27
ATOM     27  C   UNL     1      -9.222  -0.653   0.255  1.00  0.00     0.007 A 
ATOM     28  C   UNL     1     -10.220   0.215   0.714  1.00  0.00     0.011 A 
ATOM     29  C   UNL     1      -9.487  -1.483  -0.842  1.00  0.00     0.096 A 
ATOM     30  C   UNL     1     -11.448   0.302   0.056  1.00  0.00     0.008 A 
ATOM     31  C   UNL     1     -10.721  -1.380  -1.506  1.00  0.00     0.270 A 
ATOM     32  C   UNL     1     -11.701  -0.484  -1.066  1.00  0.00     0.085 A 
BRANCH  31  33
ATOM     33  N   UNL     1     -10.939  -2.127  -2.752  1.00  0.00     0.062 N 
ATOM     34  O   UNL     1     -11.826  -1.724  -3.519  1.00  0.00    -0.258 OA
ATOM     35  O   UNL     1     -10.180  -3.076  -2.994  1.00  0.00    -0.258 OA
ENDBRANCH  31  33
ENDBRANCH  17  27
ENDBRANCH   8  10
ENDBRANCH   7   8
ENDBRANCH   6   7
ENDBRANCH   5   6
ENDBRANCH   4   5
ENDBRANCH   3   4
ENDBRANCH   2   3
ENDBRANCH   1   2
BRANCH   1  36
ATOM     36  C   UNL     1      -4.715  -1.810  -4.559  1.00  0.00     0.188 C 
BRANCH  36  37
ATOM     37  C   UNL     1      -5.146  -3.089  -5.235  1.00  0.00     0.188 C 
BRANCH  37  38
ATOM     38  O   UNL     1      -6.524  -3.013  -5.548  1.00  0.00    -0.376 OA
BRANCH  38  39
ATOM     39  C   UNL     1      -7.064  -4.231  -6.038  1.00  0.00     0.202 C 
BRANCH  39  40
ATOM     40  C   UNL     1      -6.599  -4.532  -7.471  1.00  0.00     0.261 C 
BRANCH  40  41
ATOM     41  O   UNL     1      -6.889  -3.406  -8.332  1.00  0.00    -0.460 OA
BRANCH  41  42
ATOM     42  C   UNL     1      -5.847  -2.588  -8.656  1.00  0.00     0.338 C 
ATOM     43  O   UNL     1      -4.732  -2.971  -9.037  1.00  0.00    -0.246 OA
BRANCH  42  44
ATOM     44  C   UNL     1      -6.128  -1.212  -8.176  1.00  0.00     0.060 A 
ATOM     45  C   UNL     1      -5.155  -0.287  -7.795  1.00  0.00     0.016 A 
ATOM     46  C   UNL     1      -7.391  -0.931  -7.780  1.00  0.00     0.016 A 
ATOM     47  C   UNL     1      -5.366   0.628  -6.694  1.00  0.00     0.010 A 
ATOM     48  C   UNL     1      -7.524  -0.071  -6.695  1.00  0.00     0.010 A 
ATOM     49  C   UNL     1      -6.488   0.572  -5.860  1.00  0.00    -0.014 A 
BRANCH  49  50
ATOM     50  C   UNL     1      -6.557   1.165  -4.079  1.00  0.00     0.031 A 
ATOM     51  C   UNL     1      -8.279   1.580  -3.112  1.00  0.00     0.074 A 
ATOM     52  C   UNL     1      -5.192   1.452  -3.675  1.00  0.00     0.049 A 
ATOM     53  N   UNL     1      -8.618   2.806  -2.598  1.00  0.00    -0.248 NA
ATOM     54  C   UNL     1      -9.860   1.150  -3.254  1.00  0.00     0.031 C 
ATOM     55  C   UNL     1      -4.536   1.949  -2.434  1.00  0.00     0.029 A 
ATOM     56  N   UNL     1      -3.994   1.492  -4.457  1.00  0.00    -0.354 N 
ATOM     57  C   UNL     1      -9.868   3.088  -2.144  1.00  0.00     0.074 A 
ATOM     58  C   UNL     1     -10.656   2.099  -2.758  1.00  0.00     0.031 C 
ATOM     59  C   UNL     1      -3.239   2.219  -2.473  1.00  0.00     0.029 A 
ATOM     60  C   UNL     1      -3.020   2.326  -3.840  1.00  0.00     0.049 A 
ATOM     61  H   UNL     1      -3.861   1.010  -5.305  1.00  0.00     0.167 HD
ATOM     62  C   UNL     1     -10.102   4.087  -1.236  1.00  0.00     0.037 A 
ATOM     63  C   UNL     1      -2.634   3.547  -4.287  1.00  0.00     0.037 A 
ATOM     64  C   UNL     1      -8.855   4.671  -0.701  1.00  0.00     0.049 A 
ATOM     65  C   UNL     1      -3.217   4.738  -3.464  1.00  0.00     0.074 A 
ATOM     66  C   UNL     1      -8.117   4.348   0.430  1.00  0.00     0.029 A 
ATOM     67  N   UNL     1      -8.010   5.482  -1.466  1.00  0.00    -0.354 N 
ATOM     68  N   UNL     1      -4.423   4.810  -2.916  1.00  0.00    -0.248 NA
ATOM     69  C   UNL     1      -2.365   5.831  -3.000  1.00  0.00     0.031 C 
ATOM     70  C   UNL     1      -6.774   4.778   0.235  1.00  0.00     0.029 A 
ATOM     71  C   UNL     1      -6.699   5.489  -0.958  1.00  0.00     0.049 A 
ATOM     72  H   UNL     1      -8.298   5.985  -2.261  1.00  0.00     0.167 HD
ATOM     73  C   UNL     1      -4.539   5.946  -2.120  1.00  0.00     0.074 A 
ATOM     74  C   UNL     1      -3.192   6.508  -2.182  1.00  0.00     0.031 C 
ATOM     75  C   UNL     1      -5.653   6.409  -1.433  1.00  0.00     0.037 A 
BRANCH  62  76
ATOM     76  C   UNL     1     -11.466   4.134  -0.561  1.00  0.00     0.064 A 
ATOM     77  C   UNL     1     -11.603   4.278   0.833  1.00  0.00     0.173 A 
ATOM     78  C   UNL     1     -12.673   3.892  -1.251  1.00  0.00     0.173 A 
ATOM     79  F   UNL     1     -10.576   4.660   1.601  1.00  0.00    -0.203 F 
ATOM     80  C   UNL     1     -12.808   4.011   1.495  1.00  0.00     0.198 A 
ATOM     81  C   UNL     1     -13.861   3.559  -0.588  1.00  0.00     0.198 A 
ATOM     82  F   UNL     1     -12.723   3.959  -2.590  1.00  0.00    -0.203 F 
ATOM     83  F   UNL     1     -12.873   4.117   2.830  1.00  0.00    -0.200 F 
ATOM     84  C   UNL     1     -13.920   3.594   0.790  1.00  0.00     0.200 A 
ATOM     85  F   UNL     1     -14.932   3.162  -1.291  1.00  0.00    -0.200 F 
ATOM     86  F   UNL     1     -15.040   3.234   1.433  1.00  0.00    -0.200 F 
ENDBRANCH  62  76
BRANCH  63  87
ATOM     87  C   UNL     1      -2.073   3.333  -5.642  1.00  0.00     0.064 A 
ATOM     88  C   UNL     1      -1.113   2.276  -5.726  1.00  0.00     0.173 A 
ATOM     89  C   UNL     1      -2.828   3.603  -6.779  1.00  0.00     0.173 A 
ATOM     90  F   UNL     1      -0.373   1.957  -4.647  1.00  0.00    -0.203 F 
ATOM     91  C   UNL     1      -1.113   1.381  -6.790  1.00  0.00     0.198 A 
ATOM     92  C   UNL     1      -2.757   2.746  -7.885  1.00  0.00     0.198 A 
ATOM     93  F   UNL     1      -3.761   4.563  -6.751  1.00  0.00    -0.203 F 
ATOM     94  F   UNL     1      -0.427   0.232  -6.700  1.00  0.00    -0.200 F 
ATOM     95  C   UNL     1      -1.950   1.610  -7.863  1.00  0.00     0.200 A 
ATOM     96  F   UNL     1      -3.599   2.924  -8.912  1.00  0.00    -0.200 F 
ATOM     97  F   UNL     1      -2.052   0.689  -8.832  1.00  0.00    -0.200 F 
ENDBRANCH  63  87
BRANCH  75  98
ATOM     98  C   UNL     1      -5.856   7.869  -0.984  1.00  0.00     0.064 A 
ATOM     99  C   UNL     1      -5.218   8.962  -1.592  1.00  0.00     0.173 A 
ATOM    100  C   UNL     1      -6.891   8.229  -0.070  1.00  0.00     0.173 A 
ATOM    101  F   UNL     1      -4.288   8.794  -2.539  1.00  0.00    -0.203 F 
ATOM    102  C   UNL     1      -5.563  10.286  -1.299  1.00  0.00     0.198 A 
ATOM    103  C   UNL     1      -7.286   9.546   0.155  1.00  0.00     0.198 A 
ATOM    104  F   UNL     1      -7.593   7.321   0.619  1.00  0.00    -0.203 F 
ATOM    105  F   UNL     1      -4.891  11.285  -1.887  1.00  0.00    -0.200 F 
ATOM    106  C   UNL     1      -6.615  10.578  -0.453  1.00  0.00     0.200 A 
ATOM    107  F   UNL     1      -8.344   9.797   0.941  1.00  0.00    -0.200 F 
ATOM    108  F   UNL     1      -6.993  11.845  -0.244  1.00  0.00    -0.200 F 
ENDBRANCH  75  98
ENDBRANCH  49  50
ENDBRANCH  42  44
ENDBRANCH  41  42
ENDBRANCH  40  41
ENDBRANCH  39  40
ENDBRANCH  38  39
ENDBRANCH  37  38
ENDBRANCH  36  37
ENDBRANCH   1  36
TORSDOF 23
