REMARK SMILES O=C(OCCOCCOCCOCCOC(=O)c1ccccc1Nc1nc(Cl)nc(Nc2ccc(N3CCOCC3=O)cc2)n1)c1ccc(-c2c3nc(c(-c4c(F)c(F)c(F)c(F)c4F)c4ccc([nH]4)c(-c4c(F)c(F)c(F)c(F)c4F)c4nc(c(-c5c(F)c(F)c(F)c(F)c5F)c5ccc2[nH]5)C=C4)C=C3)cc1
REMARK SMILES IDX 10 1 9 2 8 3 7 4 6 5 5 6 4 7 3 8 2 9 1 10 46 11 47 12 108 13
REMARK SMILES IDX 48 14 107 15 49 16 50 17 51 18 101 19 52 20 106 21 100 22
REMARK SMILES IDX 102 23 53 24 105 25 99 26 98 27 54 29 86 30 66 31 85 32
REMARK SMILES IDX 67 33 70 34 84 35 103 36 68 37 69 38 83 40 104 41 71 42
REMARK SMILES IDX 55 43 56 44 64 45 57 46 58 47 62 48 65 49 59 50 60 51 63 52
REMARK SMILES IDX 61 53 87 54 88 55 96 56 89 57 90 58 94 59 97 60 91 61 92 62
REMARK SMILES IDX 95 63 93 64 72 65 73 66 81 67 74 68 75 69 79 70 82 71 76 72
REMARK SMILES IDX 77 73 80 74 78 75 11 76 12 77 13 78 14 79 15 80 16 81 17 82
REMARK SMILES IDX 18 83 19 84 23 85 20 86 22 87 21 88 24 89 25 91 26 92 45 93
REMARK SMILES IDX 27 94 30 95 28 96 29 97 31 98 32 100 33 101 44 102 34 103
REMARK SMILES IDX 43 104 35 105 36 106 37 107 41 108 38 109 40 110 42 111
REMARK SMILES IDX 39 112
REMARK H PARENT 102 28 70 39 24 90 31 99
REMARK Flexibility Score: inf
ROOT
ATOM      1  C   UNL     1       4.056  -3.679  -0.755  1.00  0.00     0.188 C 
ENDROOT
BRANCH   1   2
ATOM      2  O   UNL     1       2.639  -3.789  -0.801  1.00  0.00    -0.377 OA
BRANCH   2   3
ATOM      3  C   UNL     1       1.905  -2.565  -0.823  1.00  0.00     0.188 C 
BRANCH   3   4
ATOM      4  C   UNL     1       2.343  -1.524   0.208  1.00  0.00     0.188 C 
BRANCH   4   5
ATOM      5  O   UNL     1       3.639  -1.007  -0.114  1.00  0.00    -0.376 OA
BRANCH   5   6
ATOM      6  C   UNL     1       4.510  -0.803   0.999  1.00  0.00     0.202 C 
BRANCH   6   7
ATOM      7  C   UNL     1       4.335   0.549   1.686  1.00  0.00     0.261 C 
BRANCH   7   8
ATOM      8  O   UNL     1       2.966   0.970   1.705  1.00  0.00    -0.460 OA
BRANCH   8   9
ATOM      9  C   UNL     1       2.310   1.698   0.769  1.00  0.00     0.338 C 
ATOM     10  O   UNL     1       1.127   1.970   0.977  1.00  0.00    -0.246 OA
BRANCH   9  11
ATOM     11  C   UNL     1       2.924   2.221  -0.496  1.00  0.00     0.060 A 
ATOM     12  C   UNL     1       4.043   1.704  -1.158  1.00  0.00     0.016 A 
ATOM     13  C   UNL     1       2.261   3.308  -1.095  1.00  0.00     0.016 A 
ATOM     14  C   UNL     1       4.525   2.263  -2.336  1.00  0.00     0.010 A 
ATOM     15  C   UNL     1       2.735   3.881  -2.276  1.00  0.00     0.010 A 
ATOM     16  C   UNL     1       3.892   3.375  -2.876  1.00  0.00    -0.014 A 
BRANCH  16  17
ATOM     17  C   UNL     1       4.591   4.146  -3.913  1.00  0.00     0.031 A 
ATOM     18  C   UNL     1       5.342   5.358  -3.462  1.00  0.00     0.074 A 
ATOM     19  C   UNL     1       4.606   3.732  -5.188  1.00  0.00     0.049 A 
ATOM     20  N   UNL     1       5.886   6.313  -4.163  1.00  0.00    -0.248 NA
ATOM     21  C   UNL     1       5.499   5.512  -2.005  1.00  0.00     0.031 C 
ATOM     22  C   UNL     1       4.024   2.483  -5.675  1.00  0.00     0.029 A 
ATOM     23  N   UNL     1       5.129   4.324  -6.306  1.00  0.00    -0.354 N 
ATOM     24  C   UNL     1       6.402   7.205  -3.233  1.00  0.00     0.074 A 
ATOM     25  C   UNL     1       6.120   6.676  -1.920  1.00  0.00     0.031 C 
ATOM     26  C   UNL     1       4.200   2.412  -7.005  1.00  0.00     0.029 A 
ATOM     27  C   UNL     1       4.840   3.643  -7.462  1.00  0.00     0.049 A 
ATOM     28  H   UNL     1       5.659   5.153  -6.282  1.00  0.00     0.167 HD
ATOM     29  C   UNL     1       7.032   8.377  -3.472  1.00  0.00     0.037 A 
ATOM     30  C   UNL     1       5.022   4.020  -8.741  1.00  0.00     0.037 A 
ATOM     31  C   UNL     1       7.281   8.863  -4.800  1.00  0.00     0.049 A 
ATOM     32  C   UNL     1       5.650   5.365  -8.996  1.00  0.00     0.074 A 
ATOM     33  C   UNL     1       7.856  10.053  -5.199  1.00  0.00     0.029 A 
ATOM     34  N   UNL     1       6.952   8.162  -5.957  1.00  0.00    -0.354 N 
ATOM     35  N   UNL     1       6.072   6.256  -8.126  1.00  0.00    -0.248 NA
ATOM     36  C   UNL     1       5.815   5.771 -10.396  1.00  0.00     0.031 C 
ATOM     37  C   UNL     1       7.830  10.092  -6.598  1.00  0.00     0.029 A 
ATOM     38  C   UNL     1       7.296   8.901  -7.072  1.00  0.00     0.049 A 
ATOM     39  H   UNL     1       6.537   7.270  -5.977  1.00  0.00     0.167 HD
ATOM     40  C   UNL     1       6.570   7.316  -8.868  1.00  0.00     0.074 A 
ATOM     41  C   UNL     1       6.400   6.955 -10.264  1.00  0.00     0.031 C 
ATOM     42  C   UNL     1       7.120   8.481  -8.442  1.00  0.00     0.037 A 
BRANCH  29  43
ATOM     43  C   UNL     1       7.373   9.219  -2.277  1.00  0.00     0.064 A 
ATOM     44  C   UNL     1       8.349   8.836  -1.344  1.00  0.00     0.173 A 
ATOM     45  C   UNL     1       6.642  10.387  -2.014  1.00  0.00     0.173 A 
ATOM     46  F   UNL     1       9.055   7.709  -1.529  1.00  0.00    -0.203 F 
ATOM     47  C   UNL     1       8.542   9.560  -0.169  1.00  0.00     0.198 A 
ATOM     48  C   UNL     1       6.860  11.127  -0.855  1.00  0.00     0.198 A 
ATOM     49  F   UNL     1       5.691  10.796  -2.867  1.00  0.00    -0.203 F 
ATOM     50  F   UNL     1       9.417   9.125   0.749  1.00  0.00    -0.200 F 
ATOM     51  C   UNL     1       7.798  10.705   0.074  1.00  0.00     0.200 A 
ATOM     52  F   UNL     1       6.141  12.234  -0.624  1.00  0.00    -0.200 F 
ATOM     53  F   UNL     1       7.968  11.387   1.215  1.00  0.00    -0.200 F 
ENDBRANCH  29  43
BRANCH  30  54
ATOM     54  C   UNL     1       4.547   3.140  -9.841  1.00  0.00     0.064 A 
ATOM     55  C   UNL     1       5.444   2.488 -10.695  1.00  0.00     0.173 A 
ATOM     56  C   UNL     1       3.176   2.889 -10.025  1.00  0.00     0.173 A 
ATOM     57  F   UNL     1       6.762   2.708 -10.576  1.00  0.00    -0.203 F 
ATOM     58  C   UNL     1       4.992   1.616 -11.687  1.00  0.00     0.198 A 
ATOM     59  C   UNL     1       2.728   1.997 -10.998  1.00  0.00     0.198 A 
ATOM     60  F   UNL     1       2.272   3.487  -9.236  1.00  0.00    -0.203 F 
ATOM     61  F   UNL     1       5.872   1.021 -12.504  1.00  0.00    -0.200 F 
ATOM     62  C   UNL     1       3.636   1.363 -11.830  1.00  0.00     0.200 A 
ATOM     63  F   UNL     1       1.417   1.744 -11.119  1.00  0.00    -0.200 F 
ATOM     64  F   UNL     1       3.205   0.509 -12.768  1.00  0.00    -0.200 F 
ENDBRANCH  30  54
BRANCH  42  65
ATOM     65  C   UNL     1       7.623   9.424  -9.491  1.00  0.00     0.064 A 
ATOM     66  C   UNL     1       6.750  10.223 -10.240  1.00  0.00     0.173 A 
ATOM     67  C   UNL     1       9.004   9.606  -9.661  1.00  0.00     0.173 A 
ATOM     68  F   UNL     1       5.422  10.074 -10.117  1.00  0.00    -0.203 F 
ATOM     69  C   UNL     1       7.244  11.174 -11.128  1.00  0.00     0.198 A 
ATOM     70  C   UNL     1       9.493  10.575 -10.529  1.00  0.00     0.198 A 
ATOM     71  F   UNL     1       9.874   8.868  -8.956  1.00  0.00    -0.203 F 
ATOM     72  F   UNL     1       6.395  11.917 -11.851  1.00  0.00    -0.200 F 
ATOM     73  C   UNL     1       8.613  11.358 -11.261  1.00  0.00     0.200 A 
ATOM     74  F   UNL     1      10.815  10.764 -10.643  1.00  0.00    -0.200 F 
ATOM     75  F   UNL     1       9.086  12.293 -12.097  1.00  0.00    -0.200 F 
ENDBRANCH  42  65
ENDBRANCH  16  17
ENDBRANCH   9  11
ENDBRANCH   8   9
ENDBRANCH   7   8
ENDBRANCH   6   7
ENDBRANCH   5   6
ENDBRANCH   4   5
ENDBRANCH   3   4
ENDBRANCH   2   3
ENDBRANCH   1   2
BRANCH   1  76
ATOM     76  C   UNL     1       4.775  -2.976  -1.927  1.00  0.00     0.188 C 
BRANCH  76  77
ATOM     77  O   UNL     1       3.905  -2.407  -2.896  1.00  0.00    -0.376 OA
BRANCH  77  78
ATOM     78  C   UNL     1       3.834  -3.092  -4.142  1.00  0.00     0.202 C 
BRANCH  78  79
ATOM     79  C   UNL     1       3.145  -4.464  -4.122  1.00  0.00     0.261 C 
BRANCH  79  80
ATOM     80  O   UNL     1       3.682  -5.417  -3.188  1.00  0.00    -0.460 OA
BRANCH  80  81
ATOM     81  C   UNL     1       4.938  -5.887  -3.362  1.00  0.00     0.340 C 
ATOM     82  O   UNL     1       5.666  -5.656  -4.313  1.00  0.00    -0.246 OA
BRANCH  81  83
ATOM     83  C   UNL     1       5.364  -6.556  -2.094  1.00  0.00     0.083 A 
ATOM     84  C   UNL     1       6.673  -6.292  -1.655  1.00  0.00     0.018 A 
ATOM     85  C   UNL     1       4.481  -7.322  -1.294  1.00  0.00     0.055 A 
ATOM     86  C   UNL     1       7.110  -6.769  -0.419  1.00  0.00     0.001 A 
ATOM     87  C   UNL     1       4.961  -7.815  -0.069  1.00  0.00     0.027 A 
ATOM     88  C   UNL     1       6.257  -7.535   0.368  1.00  0.00     0.002 A 
BRANCH  85  89
ATOM     89  N   UNL     1       3.168  -7.579  -1.720  1.00  0.00    -0.323 N 
ATOM     90  H   UNL     1       2.761  -6.881  -2.283  1.00  0.00     0.170 HD
BRANCH  89  91
ATOM     91  C   UNL     1       2.365  -8.676  -1.458  1.00  0.00     0.233 A 
ATOM     92  N   UNL     1       2.068  -9.037  -0.223  1.00  0.00    -0.182 NA
ATOM     93  N   UNL     1       2.001  -9.343  -2.545  1.00  0.00    -0.176 NA
ATOM     94  C   UNL     1       1.333 -10.132  -0.162  1.00  0.00     0.228 A 
ATOM     95  C   UNL     1       1.357 -10.481  -2.351  1.00  0.00     0.233 A 
ATOM     96  Cl  UNL     1       0.899 -10.662   1.403  1.00  0.00    -0.041 Cl
ATOM     97  N   UNL     1       0.954 -10.905  -1.164  1.00  0.00    -0.182 NA
BRANCH  95  98
ATOM     98  N   UNL     1       1.248 -11.293  -3.473  1.00  0.00    -0.324 N 
ATOM     99  H   UNL     1       1.646 -10.942  -4.302  1.00  0.00     0.170 HD
BRANCH  98 100
ATOM    100  C   UNL     1       0.644 -12.544  -3.566  1.00  0.00     0.041 A 
ATOM    101  C   UNL     1       1.366 -13.638  -4.049  1.00  0.00     0.028 A 
ATOM    102  C   UNL     1      -0.643 -12.750  -3.066  1.00  0.00     0.028 A 
ATOM    103  C   UNL     1       0.818 -14.924  -4.006  1.00  0.00     0.028 A 
ATOM    104  C   UNL     1      -1.212 -14.019  -3.073  1.00  0.00     0.028 A 
ATOM    105  C   UNL     1      -0.481 -15.121  -3.524  1.00  0.00     0.044 A 
BRANCH 105 106
ATOM    106  N   UNL     1      -1.034 -16.428  -3.425  1.00  0.00    -0.308 N 
ATOM    107  C   UNL     1      -0.249 -17.419  -2.681  1.00  0.00     0.154 C 
ATOM    108  C   UNL     1      -2.389 -16.648  -3.700  1.00  0.00     0.253 C 
ATOM    109  C   UNL     1      -0.795 -18.833  -2.808  1.00  0.00     0.183 C 
ATOM    110  C   UNL     1      -2.913 -18.052  -3.372  1.00  0.00     0.260 C 
ATOM    111  O   UNL     1      -3.132 -15.835  -4.255  1.00  0.00    -0.272 OA
ATOM    112  O   UNL     1      -2.175 -18.841  -2.453  1.00  0.00    -0.370 OA
ENDBRANCH 105 106
ENDBRANCH  98 100
ENDBRANCH  95  98
ENDBRANCH  89  91
ENDBRANCH  85  89
ENDBRANCH  81  83
ENDBRANCH  80  81
ENDBRANCH  79  80
ENDBRANCH  78  79
ENDBRANCH  77  78
ENDBRANCH  76  77
ENDBRANCH   1  76
TORSDOF 25
