REMARK SMILES CCOC(=O)c1nc(Nc2cccc(C(=O)OCCOCCOCCOCCOC(=O)c3ccc(-c4c5nc(c(-c6c(F)c(F)c(F)c(F)c6F)c6ccc([nH]6)c(-c6c(F)c(F)c(F)c(F)c6F)c6nc(c(-c7c(F)c(F)c(F)c(F)c7F)c7ccc4[nH]7)C=C6)C=C5)cc3)c2)c2ccccc2n1
REMARK SMILES IDX 21 1 20 2 19 3 18 4 17 5 15 6 16 7 14 8 10 9 11 10 95 11
REMARK SMILES IDX 12 12 13 13 9 14 8 16 6 17 7 18 102 19 101 20 96 21 100 22
REMARK SMILES IDX 97 23 99 24 98 25 4 26 5 27 3 28 2 29 1 30 22 31 23 32 24 33
REMARK SMILES IDX 25 34 26 35 27 36 28 37 29 38 30 39 31 40 32 41 33 42 94 43
REMARK SMILES IDX 34 44 93 45 35 46 36 47 37 48 87 49 38 50 92 51 86 52 88 53
REMARK SMILES IDX 39 54 91 55 85 56 84 57 40 59 72 60 52 61 71 62 53 63 56 64
REMARK SMILES IDX 70 65 89 66 54 67 55 68 69 70 90 71 57 72 41 73 42 74 50 75
REMARK SMILES IDX 43 76 44 77 48 78 51 79 45 80 46 81 49 82 47 83 73 84 74 85
REMARK SMILES IDX 82 86 75 87 76 88 80 89 83 90 77 91 78 92 81 93 79 94 58 95
REMARK SMILES IDX 59 96 67 97 60 98 61 99 65 100 68 101 62 102 63 103 66 104
REMARK SMILES IDX 64 105
REMARK H PARENT 9 15 88 58 56 69
REMARK Flexibility Score: inf
ROOT
ATOM      1  C   UNL     1       5.938   2.786  -5.684  1.00  0.00     0.188 C 
ENDROOT
BRANCH   1   2
ATOM      2  O   UNL     1       4.817   2.356  -6.437  1.00  0.00    -0.376 OA
BRANCH   2   3
ATOM      3  C   UNL     1       3.970   1.360  -5.897  1.00  0.00     0.202 C 
BRANCH   3   4
ATOM      4  C   UNL     1       3.202   1.694  -4.611  1.00  0.00     0.261 C 
BRANCH   4   5
ATOM      5  O   UNL     1       3.963   2.338  -3.585  1.00  0.00    -0.460 OA
BRANCH   5   6
ATOM      6  C   UNL     1       4.863   1.581  -2.914  1.00  0.00     0.338 C 
ATOM      7  O   UNL     1       5.071   0.392  -3.074  1.00  0.00    -0.246 OA
BRANCH   6   8
ATOM      8  C   UNL     1       5.722   2.501  -2.130  1.00  0.00     0.062 A 
ATOM      9  C   UNL     1       5.975   4.464  -0.711  1.00  0.00     0.040 A 
ATOM     10  C   UNL     1       7.364   4.301  -0.767  1.00  0.00     0.026 A 
ATOM     11  C   UNL     1       5.168   3.589  -1.452  1.00  0.00     0.041 A 
ATOM     12  C   UNL     1       7.928   3.238  -1.481  1.00  0.00     0.003 A 
ATOM     13  C   UNL     1       7.107   2.318  -2.134  1.00  0.00     0.016 A 
BRANCH   9  14
ATOM     14  N   UNL     1       5.406   5.373   0.212  1.00  0.00    -0.340 N 
ATOM     15  H   UNL     1       5.776   6.284   0.250  1.00  0.00     0.168 HD
BRANCH  14  16
ATOM     16  C   UNL     1       4.339   5.054   1.082  1.00  0.00     0.142 A 
ATOM     17  C   UNL     1       2.863   3.455   1.822  1.00  0.00     0.241 A 
ATOM     18  N   UNL     1       3.898   3.788   1.050  1.00  0.00    -0.204 NA
ATOM     19  N   UNL     1       2.227   4.280   2.666  1.00  0.00    -0.222 NA
ATOM     20  C   UNL     1       2.699   5.529   2.730  1.00  0.00     0.077 A 
ATOM     21  C   UNL     1       3.760   6.005   1.935  1.00  0.00     0.043 A 
ATOM     22  C   UNL     1       2.120   6.395   3.647  1.00  0.00     0.029 A 
ATOM     23  C   UNL     1       4.176   7.356   2.062  1.00  0.00     0.014 A 
ATOM     24  C   UNL     1       2.556   7.714   3.799  1.00  0.00     0.002 A 
ATOM     25  C   UNL     1       3.581   8.199   2.998  1.00  0.00     0.001 A 
BRANCH  17  26
ATOM     26  C   UNL     1       2.458   2.022   1.748  1.00  0.00     0.376 C 
ATOM     27  O   UNL     1       3.241   1.084   1.810  1.00  0.00    -0.242 OA
BRANCH  26  28
ATOM     28  O   UNL     1       1.122   1.928   1.508  1.00  0.00    -0.460 OA
BRANCH  28  29
ATOM     29  C   UNL     1       0.633   0.589   1.336  1.00  0.00     0.230 C 
ATOM     30  C   UNL     1       0.954   0.046  -0.049  1.00  0.00     0.049 C 
ENDBRANCH  28  29
ENDBRANCH  26  28
ENDBRANCH  17  26
ENDBRANCH  14  16
ENDBRANCH   9  14
ENDBRANCH   6   8
ENDBRANCH   5   6
ENDBRANCH   4   5
ENDBRANCH   3   4
ENDBRANCH   2   3
ENDBRANCH   1   2
BRANCH   1  31
ATOM     31  C   UNL     1       5.846   4.247  -5.186  1.00  0.00     0.188 C 
BRANCH  31  32
ATOM     32  O   UNL     1       4.666   5.014  -5.396  1.00  0.00    -0.377 OA
BRANCH  32  33
ATOM     33  C   UNL     1       3.934   4.871  -6.607  1.00  0.00     0.188 C 
BRANCH  33  34
ATOM     34  C   UNL     1       4.673   4.636  -7.945  1.00  0.00     0.188 C 
BRANCH  34  35
ATOM     35  O   UNL     1       6.085   4.595  -7.833  1.00  0.00    -0.376 OA
BRANCH  35  36
ATOM     36  C   UNL     1       6.822   5.708  -8.298  1.00  0.00     0.202 C 
BRANCH  36  37
ATOM     37  C   UNL     1       6.547   7.075  -7.654  1.00  0.00     0.261 C 
BRANCH  37  38
ATOM     38  O   UNL     1       5.173   7.485  -7.578  1.00  0.00    -0.460 OA
BRANCH  38  39
ATOM     39  C   UNL     1       4.539   7.761  -8.735  1.00  0.00     0.338 C 
ATOM     40  O   UNL     1       4.999   7.705  -9.865  1.00  0.00    -0.246 OA
BRANCH  39  41
ATOM     41  C   UNL     1       3.112   7.975  -8.419  1.00  0.00     0.060 A 
ATOM     42  C   UNL     1       2.150   7.109  -8.956  1.00  0.00     0.016 A 
ATOM     43  C   UNL     1       2.729   9.024  -7.581  1.00  0.00     0.016 A 
ATOM     44  C   UNL     1       0.797   7.309  -8.678  1.00  0.00     0.010 A 
ATOM     45  C   UNL     1       1.373   9.238  -7.324  1.00  0.00     0.010 A 
ATOM     46  C   UNL     1       0.399   8.401  -7.897  1.00  0.00    -0.014 A 
BRANCH  46  47
ATOM     47  C   UNL     1      -1.032   8.789  -7.843  1.00  0.00     0.031 A 
ATOM     48  C   UNL     1      -1.502   9.892  -8.751  1.00  0.00     0.074 A 
ATOM     49  C   UNL     1      -1.897   8.175  -7.015  1.00  0.00     0.049 A 
ATOM     50  N   UNL     1      -2.679  10.457  -8.836  1.00  0.00    -0.248 NA
ATOM     51  C   UNL     1      -0.506  10.436  -9.691  1.00  0.00     0.031 C 
ATOM     52  C   UNL     1      -1.572   7.067  -6.120  1.00  0.00     0.029 A 
ATOM     53  N   UNL     1      -3.231   8.413  -6.787  1.00  0.00    -0.354 N 
ATOM     54  C   UNL     1      -2.559  11.431  -9.820  1.00  0.00     0.074 A 
ATOM     55  C   UNL     1      -1.193  11.395 -10.292  1.00  0.00     0.031 C 
ATOM     56  C   UNL     1      -2.674   6.731  -5.425  1.00  0.00     0.029 A 
ATOM     57  C   UNL     1      -3.769   7.625  -5.798  1.00  0.00     0.049 A 
ATOM     58  H   UNL     1      -3.751   9.084  -7.284  1.00  0.00     0.167 HD
ATOM     59  C   UNL     1      -3.506  12.276 -10.286  1.00  0.00     0.037 A 
ATOM     60  C   UNL     1      -4.997   7.651  -5.240  1.00  0.00     0.037 A 
ATOM     61  C   UNL     1      -4.869  12.296  -9.826  1.00  0.00     0.049 A 
ATOM     62  C   UNL     1      -6.012   8.654  -5.738  1.00  0.00     0.074 A 
ATOM     63  C   UNL     1      -5.915  13.086 -10.270  1.00  0.00     0.029 A 
ATOM     64  N   UNL     1      -5.372  11.498  -8.811  1.00  0.00    -0.354 N 
ATOM     65  N   UNL     1      -5.905   9.539  -6.700  1.00  0.00    -0.248 NA
ATOM     66  C   UNL     1      -7.322   8.659  -5.070  1.00  0.00     0.031 C 
ATOM     67  C   UNL     1      -7.032  12.817  -9.476  1.00  0.00     0.029 A 
ATOM     68  C   UNL     1      -6.704  11.805  -8.589  1.00  0.00     0.049 A 
ATOM     69  H   UNL     1      -4.859  10.815  -8.321  1.00  0.00     0.167 HD
ATOM     70  C   UNL     1      -7.141  10.170  -6.780  1.00  0.00     0.074 A 
ATOM     71  C   UNL     1      -7.988   9.558  -5.779  1.00  0.00     0.031 C 
ATOM     72  C   UNL     1      -7.542  11.168  -7.606  1.00  0.00     0.037 A 
BRANCH  59  73
ATOM     73  C   UNL     1      -3.108  13.279 -11.328  1.00  0.00     0.064 A 
ATOM     74  C   UNL     1      -2.838  12.907 -12.653  1.00  0.00     0.173 A 
ATOM     75  C   UNL     1      -3.078  14.646 -11.010  1.00  0.00     0.173 A 
ATOM     76  F   UNL     1      -2.839  11.613 -13.005  1.00  0.00    -0.203 F 
ATOM     77  C   UNL     1      -2.548  13.867 -13.620  1.00  0.00     0.198 A 
ATOM     78  C   UNL     1      -2.817  15.604 -11.985  1.00  0.00     0.198 A 
ATOM     79  F   UNL     1      -3.330  15.054  -9.757  1.00  0.00    -0.203 F 
ATOM     80  F   UNL     1      -2.265  13.489 -14.874  1.00  0.00    -0.200 F 
ATOM     81  C   UNL     1      -2.550  15.214 -13.288  1.00  0.00     0.200 A 
ATOM     82  F   UNL     1      -2.836  16.905 -11.665  1.00  0.00    -0.200 F 
ATOM     83  F   UNL     1      -2.296  16.137 -14.225  1.00  0.00    -0.200 F 
ENDBRANCH  59  73
BRANCH  60  84
ATOM     84  C   UNL     1      -5.345   6.728  -4.124  1.00  0.00     0.064 A 
ATOM     85  C   UNL     1      -6.359   5.769  -4.263  1.00  0.00     0.173 A 
ATOM     86  C   UNL     1      -4.729   6.841  -2.868  1.00  0.00     0.173 A 
ATOM     87  F   UNL     1      -7.001   5.639  -5.434  1.00  0.00    -0.203 F 
ATOM     88  C   UNL     1      -6.773   4.993  -3.182  1.00  0.00     0.198 A 
ATOM     89  C   UNL     1      -5.117   6.037  -1.798  1.00  0.00     0.198 A 
ATOM     90  F   UNL     1      -3.756   7.743  -2.675  1.00  0.00    -0.203 F 
ATOM     91  F   UNL     1      -7.801   4.144  -3.324  1.00  0.00    -0.200 F 
ATOM     92  C   UNL     1      -6.150   5.126  -1.951  1.00  0.00     0.200 A 
ATOM     93  F   UNL     1      -4.504   6.162  -0.613  1.00  0.00    -0.200 F 
ATOM     94  F   UNL     1      -6.558   4.390  -0.908  1.00  0.00    -0.200 F 
ENDBRANCH  60  84
BRANCH  72  95
ATOM     95  C   UNL     1      -8.972  11.620  -7.513  1.00  0.00     0.064 A 
ATOM     96  C   UNL     1      -9.459  12.326  -6.404  1.00  0.00     0.173 A 
ATOM     97  C   UNL     1      -9.858  11.380  -8.576  1.00  0.00     0.173 A 
ATOM     98  F   UNL     1      -8.658  12.573  -5.356  1.00  0.00    -0.203 F 
ATOM     99  C   UNL     1     -10.785  12.747  -6.348  1.00  0.00     0.198 A 
ATOM    100  C   UNL     1     -11.173  11.835  -8.534  1.00  0.00     0.198 A 
ATOM    101  F   UNL     1      -9.443  10.719  -9.668  1.00  0.00    -0.203 F 
ATOM    102  F   UNL     1     -11.242  13.371  -5.253  1.00  0.00    -0.200 F 
ATOM    103  C   UNL     1     -11.638  12.509  -7.416  1.00  0.00     0.200 A 
ATOM    104  F   UNL     1     -11.988  11.623  -9.576  1.00  0.00    -0.200 F 
ATOM    105  F   UNL     1     -12.911  12.924  -7.364  1.00  0.00    -0.200 F 
ENDBRANCH  72  95
ENDBRANCH  46  47
ENDBRANCH  39  41
ENDBRANCH  38  39
ENDBRANCH  37  38
ENDBRANCH  36  37
ENDBRANCH  35  36
ENDBRANCH  34  35
ENDBRANCH  33  34
ENDBRANCH  32  33
ENDBRANCH  31  32
ENDBRANCH   1  31
TORSDOF 25
