REMARK SMILES CCC[C@@H](c1cccc(C(=O)OCCOCCOCCOCCOC(=O)c2ccc(-c3c4nc(c(-c5c(F)c(F)c(F)c(F)c5F)c5ccc([nH]5)c(-c5c(F)c(F)c(F)c(F)c5F)c5nc(c(-c6c(F)c(F)c(F)c(F)c6F)c6ccc3[nH]6)C=C5)C=C4)cc2)c1)[C@H]1C[NH2+]CC[NH2+]1
REMARK SMILES IDX 17 1 16 2 15 3 14 4 13 5 12 6 10 7 11 8 9 9 5 10 6 11 90 12
REMARK SMILES IDX 7 13 8 14 4 15 3 16 2 17 1 18 91 19 92 20 96 21 93 22 95 23
REMARK SMILES IDX 94 26 18 29 19 30 20 31 21 32 22 33 23 34 24 35 25 36 26 37
REMARK SMILES IDX 27 38 28 39 89 40 29 41 88 42 30 43 31 44 32 45 82 46 33 47
REMARK SMILES IDX 87 48 81 49 83 50 34 51 86 52 80 53 79 54 35 56 67 57 47 58
REMARK SMILES IDX 66 59 48 60 51 61 65 62 84 63 49 64 50 65 64 67 85 68 52 69
REMARK SMILES IDX 36 70 37 71 45 72 38 73 39 74 43 75 46 76 40 77 41 78 44 79
REMARK SMILES IDX 42 80 68 81 69 82 77 83 70 84 71 85 75 86 78 87 72 88 73 89
REMARK SMILES IDX 76 90 74 91 53 92 54 93 62 94 55 95 56 96 60 97 63 98 57 99
REMARK SMILES IDX 58 100 61 101 59 102
REMARK H PARENT 96 24 96 25 93 27 93 28 83 55 51 66
REMARK Flexibility Score: inf
ROOT
ATOM      1  C   UNL     1       4.738   5.310   6.854  1.00  0.00     0.188 C 
ENDROOT
BRANCH   1   2
ATOM      2  C   UNL     1       4.685   6.322   8.018  1.00  0.00     0.188 C 
BRANCH   2   3
ATOM      3  O   UNL     1       4.883   5.764   9.312  1.00  0.00    -0.376 OA
BRANCH   3   4
ATOM      4  C   UNL     1       3.801   5.875  10.223  1.00  0.00     0.202 C 
BRANCH   4   5
ATOM      5  C   UNL     1       2.729   4.806   9.995  1.00  0.00     0.261 C 
BRANCH   5   6
ATOM      6  O   UNL     1       2.110   4.895   8.705  1.00  0.00    -0.460 OA
BRANCH   6   7
ATOM      7  C   UNL     1       1.372   6.004   8.469  1.00  0.00     0.338 C 
ATOM      8  O   UNL     1       1.097   6.878   9.275  1.00  0.00    -0.246 OA
BRANCH   7   9
ATOM      9  C   UNL     1       1.109   6.095   7.013  1.00  0.00     0.060 A 
ATOM     10  C   UNL     1       0.819   4.990   4.825  1.00  0.00    -0.038 A 
ATOM     11  C   UNL     1       0.662   6.282   4.302  1.00  0.00     0.004 A 
ATOM     12  C   UNL     1       0.995   4.940   6.216  1.00  0.00     0.020 A 
ATOM     13  C   UNL     1       0.811   7.446   5.071  1.00  0.00     0.001 A 
ATOM     14  C   UNL     1       1.046   7.355   6.432  1.00  0.00     0.016 A 
BRANCH  10  15
ATOM     15  C   UNL     1       0.693   3.711   3.967  1.00  0.00     0.083 C 
BRANCH  15  16
ATOM     16  C   UNL     1       1.472   2.445   4.506  1.00  0.00     0.014 C 
BRANCH  16  17
ATOM     17  C   UNL     1       1.062   1.709   5.791  1.00  0.00    -0.003 C 
ATOM     18  C   UNL     1      -0.426   1.643   6.079  1.00  0.00     0.004 C 
ENDBRANCH  16  17
ENDBRANCH  15  16
BRANCH  15  19
ATOM     19  C   UNL     1       1.057   3.770   2.403  1.00  0.00     0.245 C 
ATOM     20  C   UNL     1       0.209   4.694   1.486  1.00  0.00     0.327 C 
ATOM     21  N   UNL     1       2.503   3.816   2.083  1.00  0.00    -0.334 N 
ATOM     22  N   UNL     1       0.809   5.903   0.913  1.00  0.00    -0.337 N 
ATOM     23  C   UNL     1       2.994   5.192   2.107  1.00  0.00     0.323 C 
ATOM     24  H   UNL     1       2.652   3.423   1.153  1.00  0.00     0.346 HD
ATOM     25  H   UNL     1       3.011   3.274   2.782  1.00  0.00     0.346 HD
ATOM     26  C   UNL     1       2.230   6.141   1.163  1.00  0.00     0.322 C 
ATOM     27  H   UNL     1       0.296   6.702   1.285  1.00  0.00     0.346 HD
ATOM     28  H   UNL     1       0.743   5.769  -0.096  1.00  0.00     0.346 HD
ENDBRANCH  15  19
ENDBRANCH  10  15
ENDBRANCH   7   9
ENDBRANCH   6   7
ENDBRANCH   5   6
ENDBRANCH   4   5
ENDBRANCH   3   4
ENDBRANCH   2   3
ENDBRANCH   1   2
BRANCH   1  29
ATOM     29  O   UNL     1       5.072   3.949   7.084  1.00  0.00    -0.377 OA
BRANCH  29  30
ATOM     30  C   UNL     1       6.006   3.608   8.097  1.00  0.00     0.188 C 
BRANCH  30  31
ATOM     31  C   UNL     1       7.243   4.496   8.336  1.00  0.00     0.188 C 
BRANCH  31  32
ATOM     32  O   UNL     1       7.430   5.516   7.364  1.00  0.00    -0.376 OA
BRANCH  32  33
ATOM     33  C   UNL     1       8.542   5.352   6.496  1.00  0.00     0.202 C 
BRANCH  33  34
ATOM     34  C   UNL     1       8.350   4.266   5.431  1.00  0.00     0.261 C 
BRANCH  34  35
ATOM     35  O   UNL     1       8.165   2.936   5.942  1.00  0.00    -0.460 OA
BRANCH  35  36
ATOM     36  C   UNL     1       9.172   2.401   6.665  1.00  0.00     0.338 C 
ATOM     37  O   UNL     1      10.252   2.900   6.920  1.00  0.00    -0.246 OA
BRANCH  36  38
ATOM     38  C   UNL     1       8.668   1.149   7.259  1.00  0.00     0.060 A 
ATOM     39  C   UNL     1       8.684   1.000   8.652  1.00  0.00     0.016 A 
ATOM     40  C   UNL     1       8.167   0.135   6.440  1.00  0.00     0.016 A 
ATOM     41  C   UNL     1       8.222  -0.183   9.229  1.00  0.00     0.010 A 
ATOM     42  C   UNL     1       7.726  -1.056   7.015  1.00  0.00     0.010 A 
ATOM     43  C   UNL     1       7.781  -1.232   8.409  1.00  0.00    -0.014 A 
BRANCH  43  44
ATOM     44  C   UNL     1       7.581  -2.583   8.980  1.00  0.00     0.031 A 
ATOM     45  C   UNL     1       8.729  -3.551   8.919  1.00  0.00     0.074 A 
ATOM     46  C   UNL     1       6.413  -2.947   9.535  1.00  0.00     0.049 A 
ATOM     47  N   UNL     1       8.786  -4.803   9.296  1.00  0.00    -0.248 NA
ATOM     48  C   UNL     1       9.983  -3.035   8.348  1.00  0.00     0.031 C 
ATOM     49  C   UNL     1       5.240  -2.089   9.679  1.00  0.00     0.029 A 
ATOM     50  N   UNL     1       6.022  -4.150  10.070  1.00  0.00    -0.354 N 
ATOM     51  C   UNL     1      10.078  -5.221   9.008  1.00  0.00     0.074 A 
ATOM     52  C   UNL     1      10.762  -4.104   8.394  1.00  0.00     0.031 C 
ATOM     53  C   UNL     1       4.251  -2.799  10.252  1.00  0.00     0.029 A 
ATOM     54  C   UNL     1       4.714  -4.167  10.485  1.00  0.00     0.049 A 
ATOM     55  H   UNL     1       6.623  -4.926  10.148  1.00  0.00     0.167 HD
ATOM     56  C   UNL     1      10.646  -6.427   9.241  1.00  0.00     0.037 A 
ATOM     57  C   UNL     1       3.974  -5.181  10.976  1.00  0.00     0.037 A 
ATOM     58  C   UNL     1       9.960  -7.540   9.838  1.00  0.00     0.049 A 
ATOM     59  C   UNL     1       4.607  -6.538  11.158  1.00  0.00     0.074 A 
ATOM     60  C   UNL     1      10.449  -8.802  10.127  1.00  0.00     0.029 A 
ATOM     61  N   UNL     1       8.628  -7.527  10.225  1.00  0.00    -0.354 N 
ATOM     62  N   UNL     1       5.838  -6.920  10.915  1.00  0.00    -0.248 NA
ATOM     63  C   UNL     1       3.746  -7.606  11.686  1.00  0.00     0.031 C 
ATOM     64  C   UNL     1       9.398  -9.568  10.643  1.00  0.00     0.029 A 
ATOM     65  C   UNL     1       8.270  -8.767  10.727  1.00  0.00     0.049 A 
ATOM     66  H   UNL     1       8.026  -6.752  10.152  1.00  0.00     0.167 HD
ATOM     67  C   UNL     1       5.907  -8.257  11.286  1.00  0.00     0.074 A 
ATOM     68  C   UNL     1       4.596  -8.619  11.782  1.00  0.00     0.031 C 
ATOM     69  C   UNL     1       6.961  -9.108  11.225  1.00  0.00     0.037 A 
BRANCH  56  70
ATOM     70  C   UNL     1      12.074  -6.606   8.819  1.00  0.00     0.064 A 
ATOM     71  C   UNL     1      13.127  -5.967   9.493  1.00  0.00     0.173 A 
ATOM     72  C   UNL     1      12.396  -7.433   7.733  1.00  0.00     0.173 A 
ATOM     73  F   UNL     1      12.870  -5.150  10.526  1.00  0.00    -0.203 F 
ATOM     74  C   UNL     1      14.446  -6.129   9.077  1.00  0.00     0.198 A 
ATOM     75  C   UNL     1      13.718  -7.616   7.339  1.00  0.00     0.198 A 
ATOM     76  F   UNL     1      11.427  -8.066   7.055  1.00  0.00    -0.203 F 
ATOM     77  F   UNL     1      15.430  -5.468   9.702  1.00  0.00    -0.200 F 
ATOM     78  C   UNL     1      14.741  -6.958   8.005  1.00  0.00     0.200 A 
ATOM     79  F   UNL     1      14.002  -8.425   6.308  1.00  0.00    -0.200 F 
ATOM     80  F   UNL     1      16.011  -7.114   7.607  1.00  0.00    -0.200 F 
ENDBRANCH  56  70
BRANCH  57  81
ATOM     81  C   UNL     1       2.546  -4.958  11.323  1.00  0.00     0.064 A 
ATOM     82  C   UNL     1       2.111  -4.991  12.655  1.00  0.00     0.173 A 
ATOM     83  C   UNL     1       1.584  -4.729  10.328  1.00  0.00     0.173 A 
ATOM     84  F   UNL     1       2.988  -5.236  13.640  1.00  0.00    -0.203 F 
ATOM     85  C   UNL     1       0.766  -4.818  12.978  1.00  0.00     0.198 A 
ATOM     86  C   UNL     1       0.244  -4.529  10.654  1.00  0.00     0.198 A 
ATOM     87  F   UNL     1       1.947  -4.695   9.038  1.00  0.00    -0.203 F 
ATOM     88  F   UNL     1       0.371  -4.900  14.255  1.00  0.00    -0.200 F 
ATOM     89  C   UNL     1      -0.165  -4.581  11.978  1.00  0.00     0.200 A 
ATOM     90  F   UNL     1      -0.651  -4.292   9.686  1.00  0.00    -0.200 F 
ATOM     91  F   UNL     1      -1.457  -4.413  12.289  1.00  0.00    -0.200 F 
ENDBRANCH  57  81
BRANCH  69  92
ATOM     92  C   UNL     1       6.757 -10.503  11.742  1.00  0.00     0.064 A 
ATOM     93  C   UNL     1       5.986 -11.444  11.044  1.00  0.00     0.173 A 
ATOM     94  C   UNL     1       7.385 -10.918  12.927  1.00  0.00     0.173 A 
ATOM     95  F   UNL     1       5.355 -11.094   9.913  1.00  0.00    -0.203 F 
ATOM     96  C   UNL     1       5.833 -12.742  11.525  1.00  0.00     0.198 A 
ATOM     97  C   UNL     1       7.255 -12.225  13.388  1.00  0.00     0.198 A 
ATOM     98  F   UNL     1       8.141 -10.060  13.628  1.00  0.00    -0.203 F 
ATOM     99  F   UNL     1       5.056 -13.612  10.865  1.00  0.00    -0.200 F 
ATOM    100  C   UNL     1       6.474 -13.133  12.691  1.00  0.00     0.200 A 
ATOM    101  F   UNL     1       7.887 -12.605  14.507  1.00  0.00    -0.200 F 
ATOM    102  F   UNL     1       6.333 -14.386  13.147  1.00  0.00    -0.200 F 
ENDBRANCH  69  92
ENDBRANCH  43  44
ENDBRANCH  36  38
ENDBRANCH  35  36
ENDBRANCH  34  35
ENDBRANCH  33  34
ENDBRANCH  32  33
ENDBRANCH  31  32
ENDBRANCH  30  31
ENDBRANCH  29  30
ENDBRANCH   1  29
TORSDOF 24
