REMARK SMILES Cc1cccc(C(=O)Nc2cc(C(=O)OCCOCCOCCOCCOC(=O)c3ccc(-c4c5nc(c(-c6c(F)c(F)c(F)c(F)c6F)c6ccc([nH]6)c(-c6c(F)c(F)c(F)c(F)c6F)c6nc(c(-c7c(F)c(F)c(F)c(F)c7F)c7ccc4[nH]7)C=C6)C=C5)cc3)ccc2N2CC[NH+](CC(=O)NC(C)(C)C)CC2)c1
REMARK SMILES IDX 20 1 19 2 18 3 17 4 16 5 15 6 13 7 14 8 12 9 10 10 11 11
REMARK SMILES IDX 95 12 94 13 93 14 9 15 7 16 8 17 6 19 1 20 2 21 3 22 110 23
REMARK SMILES IDX 4 24 5 25 96 26 97 27 109 28 98 29 108 30 99 31 100 33
REMARK SMILES IDX 101 34 102 35 103 36 104 38 105 39 106 40 107 41 21 42 22 43
REMARK SMILES IDX 23 44 24 45 25 46 26 47 27 48 28 49 29 50 30 51 31 52 92 53
REMARK SMILES IDX 32 54 91 55 33 56 34 57 35 58 85 59 36 60 90 61 84 62 86 63
REMARK SMILES IDX 37 64 89 65 83 66 82 67 38 69 70 70 50 71 69 72 51 73 54 74
REMARK SMILES IDX 68 75 87 76 52 77 53 78 67 80 88 81 55 82 39 83 40 84 48 85
REMARK SMILES IDX 41 86 42 87 46 88 49 89 43 90 44 91 47 92 45 93 71 94 72 95
REMARK SMILES IDX 80 96 73 97 74 98 78 99 81 100 75 101 76 102 79 103 77 104
REMARK SMILES IDX 56 105 57 106 65 107 58 108 59 109 63 110 66 111 60 112
REMARK SMILES IDX 61 113 64 114 62 115
REMARK H PARENT 9 18 99 32 103 37 86 68 54 79
REMARK Flexibility Score: inf
ROOT
ATOM      1  C   UNL     1       4.589   4.529  -3.496  1.00  0.00     0.188 C 
ENDROOT
BRANCH   1   2
ATOM      2  C   UNL     1       5.772   3.686  -4.319  1.00  0.00     0.188 C 
BRANCH   2   3
ATOM      3  O   UNL     1       6.469   2.121  -4.147  1.00  0.00    -0.376 OA
BRANCH   3   4
ATOM      4  C   UNL     1       5.915   0.509  -3.824  1.00  0.00     0.202 C 
BRANCH   4   5
ATOM      5  C   UNL     1       4.714  -0.155  -2.521  1.00  0.00     0.261 C 
BRANCH   5   6
ATOM      6  O   UNL     1       4.039   0.745  -1.083  1.00  0.00    -0.460 OA
BRANCH   6   7
ATOM      7  C   UNL     1       4.162   1.956  -0.197  1.00  0.00     0.338 C 
ATOM      8  O   UNL     1       5.105   2.120   0.588  1.00  0.00    -0.246 OA
BRANCH   7   9
ATOM      9  C   UNL     1       3.155   3.195   0.009  1.00  0.00     0.062 A 
ATOM     10  C   UNL     1       0.977   4.377  -0.076  1.00  0.00     0.065 A 
ATOM     11  C   UNL     1       1.917   3.485  -0.579  1.00  0.00     0.044 A 
ATOM     12  C   UNL     1       1.372   5.368   0.818  1.00  0.00     0.061 A 
ATOM     13  C   UNL     1       2.679   5.279   1.300  1.00  0.00     0.029 A 
ATOM     14  C   UNL     1       3.519   4.182   0.954  1.00  0.00     0.018 A 
BRANCH  10  15
ATOM     15  N   UNL     1      -0.367   4.331  -0.522  1.00  0.00    -0.320 N 
ATOM     16  C   UNL     1      -1.361   3.367  -0.352  1.00  0.00     0.255 C 
ATOM     17  O   UNL     1      -2.497   3.656  -0.744  1.00  0.00    -0.269 OA
ATOM     18  H   UNL     1      -0.649   5.116  -1.044  1.00  0.00     0.170 HD
BRANCH  16  19
ATOM     19  C   UNL     1      -1.212   2.058   0.373  1.00  0.00     0.040 A 
ATOM     20  C   UNL     1       1.250   0.122   2.480  1.00  0.00     0.044 C 
ATOM     21  C   UNL     1      -0.024   0.458   1.776  1.00  0.00    -0.050 A 
ATOM     22  C   UNL     1      -0.966  -0.532   1.494  1.00  0.00     0.003 A 
ATOM     23  C   UNL     1      -0.178   1.755   1.256  1.00  0.00     0.017 A 
ATOM     24  C   UNL     1      -2.074  -0.216   0.719  1.00  0.00     0.001 A 
ATOM     25  C   UNL     1      -2.194   1.066   0.162  1.00  0.00     0.014 A 
ENDBRANCH  16  19
ENDBRANCH  10  15
BRANCH  12  26
ATOM     26  N   UNL     1       0.417   6.278   1.263  1.00  0.00    -0.359 N 
ATOM     27  C   UNL     1       0.752   7.641   1.698  1.00  0.00     0.178 C 
ATOM     28  C   UNL     1      -0.596   5.628   2.092  1.00  0.00     0.178 C 
ATOM     29  C   UNL     1      -0.541   8.459   2.029  1.00  0.00     0.284 C 
ATOM     30  C   UNL     1      -1.876   6.459   2.137  1.00  0.00     0.284 C 
ATOM     31  N   UNL     1      -1.663   7.781   2.723  1.00  0.00    -0.324 N 
ATOM     32  H   UNL     1      -2.480   8.367   2.553  1.00  0.00     0.348 HD
BRANCH  31  33
ATOM     33  C   UNL     1      -1.631   7.771   4.200  1.00  0.00     0.363 C 
BRANCH  33  34
ATOM     34  C   UNL     1      -0.506   6.979   4.862  1.00  0.00     0.275 C 
ATOM     35  O   UNL     1       0.628   7.473   4.933  1.00  0.00    -0.268 OA
ATOM     36  N   UNL     1      -0.640   5.736   5.407  1.00  0.00    -0.347 N 
ATOM     37  H   UNL     1       0.181   5.492   5.891  1.00  0.00     0.164 HD
BRANCH  36  38
ATOM     38  C   UNL     1      -1.635   4.626   5.503  1.00  0.00     0.032 C 
ATOM     39  C   UNL     1      -1.466   3.593   4.371  1.00  0.00     0.034 C 
ATOM     40  C   UNL     1      -1.310   3.873   6.812  1.00  0.00     0.034 C 
ATOM     41  C   UNL     1      -3.095   5.076   5.566  1.00  0.00     0.034 C 
ENDBRANCH  36  38
ENDBRANCH  33  34
ENDBRANCH  31  33
ENDBRANCH  12  26
ENDBRANCH   7   9
ENDBRANCH   6   7
ENDBRANCH   5   6
ENDBRANCH   4   5
ENDBRANCH   3   4
ENDBRANCH   2   3
ENDBRANCH   1   2
BRANCH   1  42
ATOM     42  O   UNL     1       3.160   4.354  -3.587  1.00  0.00    -0.377 OA
BRANCH  42  43
ATOM     43  C   UNL     1       2.366   4.593  -4.744  1.00  0.00     0.188 C 
BRANCH  43  44
ATOM     44  C   UNL     1       2.739   5.718  -5.689  1.00  0.00     0.188 C 
BRANCH  44  45
ATOM     45  O   UNL     1       4.094   5.548  -6.065  1.00  0.00    -0.376 OA
BRANCH  45  46
ATOM     46  C   UNL     1       4.614   6.577  -6.893  1.00  0.00     0.202 C 
BRANCH  46  47
ATOM     47  C   UNL     1       4.204   6.391  -8.357  1.00  0.00     0.261 C 
BRANCH  47  48
ATOM     48  O   UNL     1       4.610   5.072  -8.786  1.00  0.00    -0.460 OA
BRANCH  48  49
ATOM     49  C   UNL     1       3.617   4.158  -8.891  1.00  0.00     0.338 C 
ATOM     50  O   UNL     1       2.502   4.366  -9.404  1.00  0.00    -0.246 OA
BRANCH  49  51
ATOM     51  C   UNL     1       3.906   3.002  -8.013  1.00  0.00     0.060 A 
ATOM     52  C   UNL     1       2.907   2.220  -7.471  1.00  0.00     0.016 A 
ATOM     53  C   UNL     1       5.155   2.761  -7.512  1.00  0.00     0.016 A 
ATOM     54  C   UNL     1       3.092   1.618  -6.188  1.00  0.00     0.010 A 
ATOM     55  C   UNL     1       5.269   2.087  -6.269  1.00  0.00     0.010 A 
ATOM     56  C   UNL     1       4.184   1.870  -5.337  1.00  0.00    -0.014 A 
BRANCH  56  57
ATOM     57  C   UNL     1       4.078   1.945  -3.482  1.00  0.00     0.031 A 
ATOM     58  C   UNL     1       5.601   2.126  -2.220  1.00  0.00     0.074 A 
ATOM     59  C   UNL     1       2.733   1.540  -3.147  1.00  0.00     0.049 A 
ATOM     60  N   UNL     1       6.077   1.064  -1.496  1.00  0.00    -0.248 NA
ATOM     61  C   UNL     1       6.925   2.996  -2.008  1.00  0.00     0.031 C 
ATOM     62  C   UNL     1       1.988   1.199  -1.894  1.00  0.00     0.029 A 
ATOM     63  N   UNL     1       1.668   1.163  -4.012  1.00  0.00    -0.354 N 
ATOM     64  C   UNL     1       7.195   1.126  -0.746  1.00  0.00     0.074 A 
ATOM     65  C   UNL     1       7.820   2.272  -1.289  1.00  0.00     0.031 C 
ATOM     66  C   UNL     1       0.761   0.727  -2.033  1.00  0.00     0.029 A 
ATOM     67  C   UNL     1       0.725   0.338  -3.364  1.00  0.00     0.049 A 
ATOM     68  H   UNL     1       1.598   1.445  -4.953  1.00  0.00     0.167 HD
ATOM     69  C   UNL     1       7.455   0.265   0.293  1.00  0.00     0.037 A 
ATOM     70  C   UNL     1       0.583  -0.992  -3.577  1.00  0.00     0.037 A 
ATOM     71  C   UNL     1       6.288  -0.482   0.826  1.00  0.00     0.049 A 
ATOM     72  C   UNL     1       1.242  -1.927  -2.524  1.00  0.00     0.074 A 
ATOM     73  C   UNL     1       5.513  -0.259   1.955  1.00  0.00     0.029 A 
ATOM     74  N   UNL     1       5.600  -1.484   0.133  1.00  0.00    -0.354 N 
ATOM     75  N   UNL     1       2.244  -1.636  -1.706  1.00  0.00    -0.248 NA
ATOM     76  C   UNL     1       0.734  -3.271  -2.287  1.00  0.00     0.031 C 
ATOM     77  C   UNL     1       4.346  -1.051   1.881  1.00  0.00     0.029 A 
ATOM     78  C   UNL     1       4.316  -1.715   0.661  1.00  0.00     0.049 A 
ATOM     79  H   UNL     1       5.972  -1.973  -0.637  1.00  0.00     0.167 HD
ATOM     80  C   UNL     1       2.494  -2.691  -0.843  1.00  0.00     0.074 A 
ATOM     81  C   UNL     1       1.520  -3.694  -1.282  1.00  0.00     0.031 C 
ATOM     82  C   UNL     1       3.405  -2.780   0.195  1.00  0.00     0.037 A 
BRANCH  69  83
ATOM     83  C   UNL     1       8.748   0.472   1.053  1.00  0.00     0.064 A 
ATOM     84  C   UNL     1       8.812   0.729   2.436  1.00  0.00     0.173 A 
ATOM     85  C   UNL     1       9.981   0.511   0.372  1.00  0.00     0.173 A 
ATOM     86  F   UNL     1       7.742   0.616   3.228  1.00  0.00    -0.203 F 
ATOM     87  C   UNL     1       9.992   1.141   3.060  1.00  0.00     0.198 A 
ATOM     88  C   UNL     1      11.158   0.943   0.993  1.00  0.00     0.198 A 
ATOM     89  F   UNL     1      10.048   0.168  -0.925  1.00  0.00    -0.203 F 
ATOM     90  F   UNL     1       9.987   1.428   4.370  1.00  0.00    -0.200 F 
ATOM     91  C   UNL     1      11.155   1.288   2.331  1.00  0.00     0.200 A 
ATOM     92  F   UNL     1      12.287   1.063   0.279  1.00  0.00    -0.200 F 
ATOM     93  F   UNL     1      12.265   1.759   2.916  1.00  0.00    -0.200 F 
ENDBRANCH  69  83
BRANCH  70  94
ATOM     94  C   UNL     1       0.054  -1.159  -4.948  1.00  0.00     0.064 A 
ATOM     95  C   UNL     1      -1.036  -0.309  -5.303  1.00  0.00     0.173 A 
ATOM     96  C   UNL     1       0.887  -1.599  -5.969  1.00  0.00     0.173 A 
ATOM     97  F   UNL     1      -1.875   0.141  -4.352  1.00  0.00    -0.203 F 
ATOM     98  C   UNL     1      -1.111   0.276  -6.561  1.00  0.00     0.198 A 
ATOM     99  C   UNL     1       0.765  -1.055  -7.251  1.00  0.00     0.198 A 
ATOM    100  F   UNL     1       1.919  -2.406  -5.689  1.00  0.00    -0.203 F 
ATOM    101  F   UNL     1      -1.979   1.274  -6.788  1.00  0.00    -0.200 F 
ATOM    102  C   UNL     1      -0.188  -0.077  -7.526  1.00  0.00     0.200 A 
ATOM    103  F   UNL     1       1.667  -1.371  -8.190  1.00  0.00    -0.200 F 
ATOM    104  F   UNL     1      -0.161   0.582  -8.693  1.00  0.00    -0.200 F 
ENDBRANCH  70  94
BRANCH  82 105
ATOM    105  C   UNL     1       3.449  -3.998   1.090  1.00  0.00     0.064 A 
ATOM    106  C   UNL     1       2.322  -4.528   1.736  1.00  0.00     0.173 A 
ATOM    107  C   UNL     1       4.703  -4.522   1.471  1.00  0.00     0.173 A 
ATOM    108  F   UNL     1       1.100  -4.017   1.518  1.00  0.00    -0.203 F 
ATOM    109  C   UNL     1       2.439  -5.582   2.644  1.00  0.00     0.198 A 
ATOM    110  C   UNL     1       4.821  -5.519   2.432  1.00  0.00     0.198 A 
ATOM    111  F   UNL     1       5.837  -4.060   0.921  1.00  0.00    -0.203 F 
ATOM    112  F   UNL     1       1.337  -6.118   3.186  1.00  0.00    -0.200 F 
ATOM    113  C   UNL     1       3.687  -6.068   3.000  1.00  0.00     0.200 A 
ATOM    114  F   UNL     1       6.036  -5.941   2.808  1.00  0.00    -0.200 F 
ATOM    115  F   UNL     1       3.797  -7.062   3.892  1.00  0.00    -0.200 F 
ENDBRANCH  82 105
ENDBRANCH  56  57
ENDBRANCH  49  51
ENDBRANCH  48  49
ENDBRANCH  47  48
ENDBRANCH  46  47
ENDBRANCH  45  46
ENDBRANCH  44  45
ENDBRANCH  43  44
ENDBRANCH  42  43
ENDBRANCH   1  42
TORSDOF 26
