REMARK SMILES CCOC(=O)c1cccc(NC(=O)CCC(=O)OCCOCCOCCOCCOC(=O)c2ccc(-c3c4nc(c(-c5c(F)c(F)c(F)c(F)c5F)c5ccc([nH]5)c(-c5c(F)c(F)c(F)c(F)c5F)c5nc(c(-c6c(F)c(F)c(F)c(F)c6F)c6ccc3[nH]6)C=C5)C=C4)cc2)c1
REMARK SMILES IDX 22 1 21 2 20 3 19 4 18 5 16 6 17 7 15 8 14 9 12 10 11 11
REMARK SMILES IDX 13 13 10 14 6 15 7 16 96 17 8 18 9 19 4 20 5 21 3 22 2 23
REMARK SMILES IDX 1 24 23 25 24 26 25 27 26 28 27 29 28 30 29 31 30 32 31 33
REMARK SMILES IDX 32 34 33 35 34 36 95 37 35 38 94 39 36 40 37 41 38 42 88 43
REMARK SMILES IDX 39 44 93 45 87 46 89 47 40 48 92 49 86 50 85 51 41 53 73 54
REMARK SMILES IDX 53 55 72 56 54 57 57 58 71 59 90 60 55 61 56 62 70 64 91 65
REMARK SMILES IDX 58 66 42 67 43 68 51 69 44 70 45 71 49 72 52 73 46 74 47 75
REMARK SMILES IDX 50 76 48 77 74 78 75 79 83 80 76 81 77 82 81 83 84 84 78 85
REMARK SMILES IDX 79 86 82 87 80 88 59 89 60 90 68 91 61 92 62 93 66 94 69 95
REMARK SMILES IDX 63 96 64 97 67 98 65 99
REMARK H PARENT 11 12 89 52 57 63
REMARK Flexibility Score: inf
ROOT
ATOM      1  C   UNL     1       4.479  -1.351   6.148  1.00  0.00     0.188 C 
ENDROOT
BRANCH   1   2
ATOM      2  O   UNL     1       4.639  -1.414   4.723  1.00  0.00    -0.376 OA
BRANCH   2   3
ATOM      3  C   UNL     1       3.950  -2.469   3.826  1.00  0.00     0.202 C 
BRANCH   3   4
ATOM      4  C   UNL     1       4.724  -4.300   2.901  1.00  0.00     0.261 C 
BRANCH   4   5
ATOM      5  O   UNL     1       4.896  -5.770   3.650  1.00  0.00    -0.463 OA
BRANCH   5   6
ATOM      6  C   UNL     1       6.036  -6.127   4.294  1.00  0.00     0.306 C 
ATOM      7  O   UNL     1       7.160  -5.867   3.881  1.00  0.00    -0.252 OA
BRANCH   6   8
ATOM      8  C   UNL     1       5.780  -6.770   5.663  1.00  0.00     0.132 C 
BRANCH   8   9
ATOM      9  C   UNL     1       4.727  -6.226   6.645  1.00  0.00     0.112 C 
BRANCH   9  10
ATOM     10  C   UNL     1       3.277  -6.228   6.227  1.00  0.00     0.224 C 
ATOM     11  N   UNL     1       2.785  -5.319   5.344  1.00  0.00    -0.326 N 
ATOM     12  H   UNL     1       1.806  -5.330   5.239  1.00  0.00     0.169 HD
ATOM     13  O   UNL     1       2.491  -7.052   6.702  1.00  0.00    -0.275 OA
BRANCH  11  14
ATOM     14  C   UNL     1       3.452  -4.372   4.560  1.00  0.00     0.042 A 
ATOM     15  C   UNL     1       3.446  -2.946   1.782  1.00  0.00     0.062 A 
ATOM     16  C   UNL     1       5.130  -2.387   2.055  1.00  0.00     0.016 A 
ATOM     17  C   UNL     1       2.613  -3.929   3.028  1.00  0.00     0.041 A 
ATOM     18  C   UNL     1       6.005  -2.798   3.575  1.00  0.00     0.003 A 
ATOM     19  C   UNL     1       5.153  -3.769   4.848  1.00  0.00     0.026 A 
BRANCH  15  20
ATOM     20  C   UNL     1       2.700  -2.353   0.655  1.00  0.00     0.338 C 
ATOM     21  O   UNL     1       3.213  -2.084  -0.415  1.00  0.00    -0.246 OA
BRANCH  20  22
ATOM     22  O   UNL     1       1.441  -2.061   1.067  1.00  0.00    -0.462 OA
BRANCH  22  23
ATOM     23  C   UNL     1       0.602  -1.409   0.092  1.00  0.00     0.230 C 
ATOM     24  C   UNL     1       0.863   0.088   0.010  1.00  0.00     0.049 C 
ENDBRANCH  22  23
ENDBRANCH  20  22
ENDBRANCH  15  20
ENDBRANCH  11  14
ENDBRANCH   9  10
ENDBRANCH   8   9
ENDBRANCH   6   8
ENDBRANCH   5   6
ENDBRANCH   4   5
ENDBRANCH   3   4
ENDBRANCH   2   3
ENDBRANCH   1   2
BRANCH   1  25
ATOM     25  C   UNL     1       3.487  -2.215   6.949  1.00  0.00     0.188 C 
BRANCH  25  26
ATOM     26  O   UNL     1       2.106  -1.914   6.992  1.00  0.00    -0.377 OA
BRANCH  26  27
ATOM     27  C   UNL     1       1.371  -1.589   5.832  1.00  0.00     0.188 C 
BRANCH  27  28
ATOM     28  C   UNL     1       1.597  -0.179   5.267  1.00  0.00     0.188 C 
BRANCH  28  29
ATOM     29  O   UNL     1       1.483   0.955   6.128  1.00  0.00    -0.376 OA
BRANCH  29  30
ATOM     30  C   UNL     1       1.781   0.807   7.507  1.00  0.00     0.202 C 
BRANCH  30  31
ATOM     31  C   UNL     1       0.551   0.506   8.381  1.00  0.00     0.261 C 
BRANCH  31  32
ATOM     32  O   UNL     1      -0.415  -0.393   7.805  1.00  0.00    -0.460 OA
BRANCH  32  33
ATOM     33  C   UNL     1      -1.267   0.146   6.896  1.00  0.00     0.338 C 
ATOM     34  O   UNL     1      -1.388   1.323   6.603  1.00  0.00    -0.246 OA
BRANCH  33  35
ATOM     35  C   UNL     1      -1.968  -0.941   6.162  1.00  0.00     0.060 A 
ATOM     36  C   UNL     1      -2.017  -0.882   4.759  1.00  0.00     0.016 A 
ATOM     37  C   UNL     1      -2.563  -2.012   6.834  1.00  0.00     0.016 A 
ATOM     38  C   UNL     1      -2.728  -1.842   4.034  1.00  0.00     0.010 A 
ATOM     39  C   UNL     1      -3.300  -2.959   6.111  1.00  0.00     0.010 A 
ATOM     40  C   UNL     1      -3.435  -2.841   4.714  1.00  0.00    -0.014 A 
BRANCH  40  41
ATOM     41  C   UNL     1      -4.557  -3.536   4.029  1.00  0.00     0.031 A 
ATOM     42  C   UNL     1      -5.937  -2.955   4.206  1.00  0.00     0.074 A 
ATOM     43  C   UNL     1      -4.380  -4.620   3.254  1.00  0.00     0.049 A 
ATOM     44  N   UNL     1      -7.096  -3.399   3.792  1.00  0.00    -0.248 NA
ATOM     45  C   UNL     1      -6.013  -1.694   4.963  1.00  0.00     0.031 C 
ATOM     46  C   UNL     1      -3.096  -5.238   2.939  1.00  0.00     0.029 A 
ATOM     47  N   UNL     1      -5.301  -5.397   2.594  1.00  0.00    -0.354 N 
ATOM     48  C   UNL     1      -8.033  -2.479   4.248  1.00  0.00     0.074 A 
ATOM     49  C   UNL     1      -7.316  -1.476   5.001  1.00  0.00     0.031 C 
ATOM     50  C   UNL     1      -3.311  -6.311   2.154  1.00  0.00     0.029 A 
ATOM     51  C   UNL     1      -4.751  -6.476   1.946  1.00  0.00     0.049 A 
ATOM     52  H   UNL     1      -6.266  -5.200   2.586  1.00  0.00     0.167 HD
ATOM     53  C   UNL     1      -9.373  -2.462   4.049  1.00  0.00     0.037 A 
ATOM     54  C   UNL     1      -5.348  -7.489   1.286  1.00  0.00     0.037 A 
ATOM     55  C   UNL     1     -10.087  -3.469   3.312  1.00  0.00     0.049 A 
ATOM     56  C   UNL     1      -6.855  -7.517   1.177  1.00  0.00     0.074 A 
ATOM     57  C   UNL     1     -11.444  -3.554   3.059  1.00  0.00     0.029 A 
ATOM     58  N   UNL     1      -9.497  -4.575   2.718  1.00  0.00    -0.354 N 
ATOM     59  N   UNL     1      -7.736  -6.645   1.605  1.00  0.00    -0.248 NA
ATOM     60  C   UNL     1      -7.449  -8.675   0.492  1.00  0.00     0.031 C 
ATOM     61  C   UNL     1     -11.683  -4.746   2.367  1.00  0.00     0.029 A 
ATOM     62  C   UNL     1     -10.467  -5.365   2.123  1.00  0.00     0.049 A 
ATOM     63  H   UNL     1      -8.532  -4.770   2.719  1.00  0.00     0.167 HD
ATOM     64  C   UNL     1      -8.979  -7.125   1.205  1.00  0.00     0.074 A 
ATOM     65  C   UNL     1      -8.737  -8.363   0.495  1.00  0.00     0.031 C 
ATOM     66  C   UNL     1     -10.209  -6.586   1.402  1.00  0.00     0.037 A 
BRANCH  53  67
ATOM     67  C   UNL     1     -10.147  -1.339   4.680  1.00  0.00     0.064 A 
ATOM     68  C   UNL     1     -10.008  -0.009   4.251  1.00  0.00     0.173 A 
ATOM     69  C   UNL     1     -11.037  -1.596   5.734  1.00  0.00     0.173 A 
ATOM     70  F   UNL     1      -9.158   0.295   3.258  1.00  0.00    -0.203 F 
ATOM     71  C   UNL     1     -10.696   1.024   4.883  1.00  0.00     0.198 A 
ATOM     72  C   UNL     1     -11.753  -0.565   6.337  1.00  0.00     0.198 A 
ATOM     73  F   UNL     1     -11.211  -2.848   6.183  1.00  0.00    -0.203 F 
ATOM     74  F   UNL     1     -10.492   2.293   4.502  1.00  0.00    -0.200 F 
ATOM     75  C   UNL     1     -11.572   0.745   5.920  1.00  0.00     0.200 A 
ATOM     76  F   UNL     1     -12.610  -0.839   7.330  1.00  0.00    -0.200 F 
ATOM     77  F   UNL     1     -12.234   1.740   6.527  1.00  0.00    -0.200 F 
ENDBRANCH  53  67
BRANCH  54  78
ATOM     78  C   UNL     1      -4.529  -8.574   0.677  1.00  0.00     0.064 A 
ATOM     79  C   UNL     1      -4.482  -8.748  -0.714  1.00  0.00     0.173 A 
ATOM     80  C   UNL     1      -3.804  -9.478   1.469  1.00  0.00     0.173 A 
ATOM     81  F   UNL     1      -5.181  -7.929  -1.514  1.00  0.00    -0.203 F 
ATOM     82  C   UNL     1      -3.757  -9.791  -1.287  1.00  0.00     0.198 A 
ATOM     83  C   UNL     1      -3.054 -10.501   0.892  1.00  0.00     0.198 A 
ATOM     84  F   UNL     1      -3.820  -9.363   2.805  1.00  0.00    -0.203 F 
ATOM     85  F   UNL     1      -3.771  -9.962  -2.616  1.00  0.00    -0.200 F 
ATOM     86  C   UNL     1      -3.038 -10.663  -0.484  1.00  0.00     0.200 A 
ATOM     87  F   UNL     1      -2.351 -11.334   1.672  1.00  0.00    -0.200 F 
ATOM     88  F   UNL     1      -2.337 -11.662  -1.036  1.00  0.00    -0.200 F 
ENDBRANCH  54  78
BRANCH  66  89
ATOM     89  C   UNL     1     -11.388  -7.292   0.791  1.00  0.00     0.064 A 
ATOM     90  C   UNL     1     -11.850  -8.526   1.273  1.00  0.00     0.173 A 
ATOM     91  C   UNL     1     -12.102  -6.691  -0.259  1.00  0.00     0.173 A 
ATOM     92  F   UNL     1     -11.199  -9.149   2.266  1.00  0.00    -0.203 F 
ATOM     93  C   UNL     1     -12.964  -9.144   0.708  1.00  0.00     0.198 A 
ATOM     94  C   UNL     1     -13.237  -7.293  -0.795  1.00  0.00     0.198 A 
ATOM     95  F   UNL     1     -11.711  -5.506  -0.751  1.00  0.00    -0.203 F 
ATOM     96  F   UNL     1     -13.356 -10.347   1.151  1.00  0.00    -0.200 F 
ATOM     97  C   UNL     1     -13.661  -8.523  -0.317  1.00  0.00     0.200 A 
ATOM     98  F   UNL     1     -13.920  -6.681  -1.772  1.00  0.00    -0.200 F 
ATOM     99  F   UNL     1     -14.741  -9.113  -0.849  1.00  0.00    -0.200 F 
ENDBRANCH  66  89
ENDBRANCH  40  41
ENDBRANCH  33  35
ENDBRANCH  32  33
ENDBRANCH  31  32
ENDBRANCH  30  31
ENDBRANCH  29  30
ENDBRANCH  28  29
ENDBRANCH  27  28
ENDBRANCH  26  27
ENDBRANCH  25  26
ENDBRANCH   1  25
TORSDOF 26
