REMARK SMILES Cc1cscc1CNC(=O)N[C@@H](C)c1nc(C(=O)OCCOCCOCCOCCOC(=O)c2ccc(-c3c4nc(c(-c5c(F)c(F)c(F)c(F)c5F)c5ccc([nH]5)c(-c5c(F)c(F)c(F)c(F)c5F)c5nc(c(-c6c(F)c(F)c(F)c(F)c6F)c6ccc3[nH]6)C=C5)C=C4)cc2)cs1
REMARK SMILES IDX 24 1 23 2 22 3 21 4 20 5 19 6 17 7 18 8 16 9 14 10 15 11
REMARK SMILES IDX 98 12 97 13 12 14 13 15 11 16 8 17 9 18 10 20 7 22 6 23 1 24
REMARK SMILES IDX 2 25 3 26 4 27 5 28 25 29 26 30 27 31 28 32 29 33 30 34
REMARK SMILES IDX 31 35 32 36 33 37 34 38 35 39 96 40 36 41 95 42 37 43 38 44
REMARK SMILES IDX 39 45 89 46 40 47 94 48 88 49 90 50 41 51 93 52 87 53 86 54
REMARK SMILES IDX 42 56 74 57 54 58 73 59 55 60 58 61 72 62 91 63 56 64 57 65
REMARK SMILES IDX 71 67 92 68 59 69 43 70 44 71 52 72 45 73 46 74 50 75 53 76
REMARK SMILES IDX 47 77 48 78 51 79 49 80 75 81 76 82 84 83 77 84 78 85 82 86
REMARK SMILES IDX 85 87 79 88 80 89 83 90 81 91 60 92 61 93 69 94 62 95 63 96
REMARK SMILES IDX 67 97 70 98 64 99 65 100 68 101 66 102
REMARK H PARENT 8 19 11 21 90 55 58 66
REMARK Flexibility Score: inf
ROOT
ATOM      1  C   UNL     1      -4.666   5.718   2.482  1.00  0.00     0.188 C 
ENDROOT
BRANCH   1   2
ATOM      2  C   UNL     1      -5.404   5.610   3.831  1.00  0.00     0.188 C 
BRANCH   2   3
ATOM      3  O   UNL     1      -5.708   6.857   4.447  1.00  0.00    -0.376 OA
BRANCH   3   4
ATOM      4  C   UNL     1      -5.071   7.126   5.686  1.00  0.00     0.202 C 
BRANCH   4   5
ATOM      5  C   UNL     1      -3.704   7.789   5.491  1.00  0.00     0.261 C 
BRANCH   5   6
ATOM      6  O   UNL     1      -2.751   6.962   4.807  1.00  0.00    -0.458 OA
BRANCH   6   7
ATOM      7  C   UNL     1      -2.410   5.800   5.428  1.00  0.00     0.357 C 
ATOM      8  O   UNL     1      -2.764   5.488   6.560  1.00  0.00    -0.244 OA
BRANCH   7   9
ATOM      9  C   UNL     1      -1.703   4.887   4.533  1.00  0.00     0.159 A 
ATOM     10  C   UNL     1      -0.345   4.291   2.874  1.00  0.00     0.116 A 
ATOM     11  N   UNL     1      -0.847   5.325   3.522  1.00  0.00    -0.232 NA
ATOM     12  S   UNL     1      -0.966   2.756   3.352  1.00  0.00    -0.124 S 
ATOM     13  C   UNL     1      -1.881   3.516   4.577  1.00  0.00     0.102 A 
BRANCH  10  14
ATOM     14  C   UNL     1       0.730   4.360   1.814  1.00  0.00     0.140 C 
ATOM     15  C   UNL     1       1.858   5.294   2.253  1.00  0.00     0.039 C 
BRANCH  14  16
ATOM     16  N   UNL     1       0.152   4.834   0.568  1.00  0.00    -0.329 N 
ATOM     17  N   UNL     1       1.040   3.496  -1.171  1.00  0.00    -0.334 N 
ATOM     18  C   UNL     1       0.339   4.538  -0.719  1.00  0.00     0.315 C 
ATOM     19  H   UNL     1       1.097   3.489  -2.154  1.00  0.00     0.165 HD
ATOM     20  O   UNL     1      -0.196   5.263  -1.561  1.00  0.00    -0.249 OA
ATOM     21  H   UNL     1      -0.531   5.529   0.705  1.00  0.00     0.166 HD
BRANCH  17  22
ATOM     22  C   UNL     1       1.737   2.376  -0.580  1.00  0.00     0.154 C 
BRANCH  22  23
ATOM     23  C   UNL     1       0.812   1.214  -0.325  1.00  0.00    -0.015 A 
ATOM     24  C   UNL     1       2.703  -0.568  -0.034  1.00  0.00     0.045 C 
ATOM     25  C   UNL     1       1.270  -0.144  -0.083  1.00  0.00    -0.035 A 
ATOM     26  C   UNL     1       0.211  -1.016   0.091  1.00  0.00     0.068 A 
ATOM     27  S   UNL     1      -1.305  -0.246  -0.002  1.00  0.00    -0.152 S 
ATOM     28  C   UNL     1      -0.573   1.266  -0.293  1.00  0.00     0.070 A 
ENDBRANCH  22  23
ENDBRANCH  17  22
ENDBRANCH  14  16
ENDBRANCH  10  14
ENDBRANCH   7   9
ENDBRANCH   6   7
ENDBRANCH   5   6
ENDBRANCH   4   5
ENDBRANCH   3   4
ENDBRANCH   2   3
ENDBRANCH   1   2
BRANCH   1  29
ATOM     29  O   UNL     1      -4.778   6.861   1.645  1.00  0.00    -0.377 OA
BRANCH  29  30
ATOM     30  C   UNL     1      -5.791   7.820   1.885  1.00  0.00     0.188 C 
BRANCH  30  31
ATOM     31  C   UNL     1      -7.242   7.316   1.949  1.00  0.00     0.188 C 
BRANCH  31  32
ATOM     32  O   UNL     1      -7.389   5.940   1.603  1.00  0.00    -0.376 OA
BRANCH  32  33
ATOM     33  C   UNL     1      -8.009   5.690   0.348  1.00  0.00     0.202 C 
BRANCH  33  34
ATOM     34  C   UNL     1      -7.072   5.885  -0.849  1.00  0.00     0.261 C 
BRANCH  34  35
ATOM     35  O   UNL     1      -6.621   7.234  -1.048  1.00  0.00    -0.460 OA
BRANCH  35  36
ATOM     36  C   UNL     1      -7.560   8.173  -1.282  1.00  0.00     0.338 C 
ATOM     37  O   UNL     1      -8.764   8.020  -1.380  1.00  0.00    -0.246 OA
BRANCH  36  38
ATOM     38  C   UNL     1      -6.893   9.486  -1.244  1.00  0.00     0.060 A 
ATOM     39  C   UNL     1      -7.370  10.465  -0.362  1.00  0.00     0.016 A 
ATOM     40  C   UNL     1      -5.804   9.745  -2.080  1.00  0.00     0.016 A 
ATOM     41  C   UNL     1      -6.778  11.727  -0.344  1.00  0.00     0.010 A 
ATOM     42  C   UNL     1      -5.229  11.013  -2.078  1.00  0.00     0.010 A 
ATOM     43  C   UNL     1      -5.738  12.018  -1.238  1.00  0.00    -0.014 A 
BRANCH  43  44
ATOM     44  C   UNL     1      -5.342  13.423  -1.483  1.00  0.00     0.031 A 
ATOM     45  C   UNL     1      -6.051  14.166  -2.580  1.00  0.00     0.074 A 
ATOM     46  C   UNL     1      -4.362  14.013  -0.779  1.00  0.00     0.049 A 
ATOM     47  N   UNL     1      -5.827  15.363  -3.056  1.00  0.00    -0.248 NA
ATOM     48  C   UNL     1      -7.162  13.454  -3.234  1.00  0.00     0.031 C 
ATOM     49  C   UNL     1      -3.626  13.403   0.325  1.00  0.00     0.029 A 
ATOM     50  N   UNL     1      -3.807  15.261  -0.911  1.00  0.00    -0.354 N 
ATOM     51  C   UNL     1      -6.764  15.544  -4.064  1.00  0.00     0.074 A 
ATOM     52  C   UNL     1      -7.545  14.331  -4.149  1.00  0.00     0.031 C 
ATOM     53  C   UNL     1      -2.697  14.274   0.760  1.00  0.00     0.029 A 
ATOM     54  C   UNL     1      -2.756  15.486  -0.057  1.00  0.00     0.049 A 
ATOM     55  H   UNL     1      -4.131  15.930  -1.555  1.00  0.00     0.167 HD
ATOM     56  C   UNL     1      -6.956  16.628  -4.850  1.00  0.00     0.037 A 
ATOM     57  C   UNL     1      -1.925  16.544   0.030  1.00  0.00     0.037 A 
ATOM     58  C   UNL     1      -6.168  17.826  -4.778  1.00  0.00     0.049 A 
ATOM     59  C   UNL     1      -2.117  17.714  -0.902  1.00  0.00     0.074 A 
ATOM     60  C   UNL     1      -6.280  18.981  -5.530  1.00  0.00     0.029 A 
ATOM     61  N   UNL     1      -5.110  18.016  -3.901  1.00  0.00    -0.354 N 
ATOM     62  N   UNL     1      -3.020  17.892  -1.836  1.00  0.00    -0.248 NA
ATOM     63  C   UNL     1      -1.171  18.832  -0.768  1.00  0.00     0.031 C 
ATOM     64  C   UNL     1      -5.264  19.857  -5.135  1.00  0.00     0.029 A 
ATOM     65  C   UNL     1      -4.550  19.265  -4.105  1.00  0.00     0.049 A 
ATOM     66  H   UNL     1      -4.804  17.360  -3.234  1.00  0.00     0.167 HD
ATOM     67  C   UNL     1      -2.775  19.149  -2.373  1.00  0.00     0.074 A 
ATOM     68  C   UNL     1      -1.638  19.693  -1.662  1.00  0.00     0.031 C 
ATOM     69  C   UNL     1      -3.434  19.797  -3.365  1.00  0.00     0.037 A 
BRANCH  56  70
ATOM     70  C   UNL     1      -8.046  16.546  -5.874  1.00  0.00     0.064 A 
ATOM     71  C   UNL     1      -9.400  16.600  -5.510  1.00  0.00     0.173 A 
ATOM     72  C   UNL     1      -7.734  16.422  -7.236  1.00  0.00     0.173 A 
ATOM     73  F   UNL     1      -9.747  16.697  -4.217  1.00  0.00    -0.203 F 
ATOM     74  C   UNL     1     -10.402  16.512  -6.471  1.00  0.00     0.198 A 
ATOM     75  C   UNL     1      -8.739  16.359  -8.196  1.00  0.00     0.198 A 
ATOM     76  F   UNL     1      -6.455  16.364  -7.634  1.00  0.00    -0.203 F 
ATOM     77  F   UNL     1     -11.690  16.521  -6.097  1.00  0.00    -0.200 F 
ATOM     78  C   UNL     1     -10.072  16.397  -7.813  1.00  0.00     0.200 A 
ATOM     79  F   UNL     1      -8.419  16.255  -9.493  1.00  0.00    -0.200 F 
ATOM     80  F   UNL     1     -11.038  16.315  -8.738  1.00  0.00    -0.200 F 
ENDBRANCH  56  70
BRANCH  57  81
ATOM     81  C   UNL     1      -0.827  16.547   1.031  1.00  0.00     0.064 A 
ATOM     82  C   UNL     1      -0.859  17.413   2.133  1.00  0.00     0.173 A 
ATOM     83  C   UNL     1       0.286  15.706   0.893  1.00  0.00     0.173 A 
ATOM     84  F   UNL     1      -1.890  18.257   2.291  1.00  0.00    -0.203 F 
ATOM     85  C   UNL     1       0.189  17.450   3.050  1.00  0.00     0.198 A 
ATOM     86  C   UNL     1       1.322  15.726   1.825  1.00  0.00     0.198 A 
ATOM     87  F   UNL     1       0.368  14.865  -0.147  1.00  0.00    -0.203 F 
ATOM     88  F   UNL     1       0.155  18.319   4.069  1.00  0.00    -0.200 F 
ATOM     89  C   UNL     1       1.277  16.602   2.898  1.00  0.00     0.200 A 
ATOM     90  F   UNL     1       2.369  14.902   1.678  1.00  0.00    -0.200 F 
ATOM     91  F   UNL     1       2.285  16.639   3.780  1.00  0.00    -0.200 F 
ENDBRANCH  57  81
BRANCH  69  92
ATOM     92  C   UNL     1      -2.987  21.187  -3.705  1.00  0.00     0.064 A 
ATOM     93  C   UNL     1      -1.815  21.427  -4.434  1.00  0.00     0.173 A 
ATOM     94  C   UNL     1      -3.787  22.287  -3.359  1.00  0.00     0.173 A 
ATOM     95  F   UNL     1      -1.012  20.408  -4.776  1.00  0.00    -0.203 F 
ATOM     96  C   UNL     1      -1.451  22.722  -4.793  1.00  0.00     0.198 A 
ATOM     97  C   UNL     1      -3.433  23.578  -3.742  1.00  0.00     0.198 A 
ATOM     98  F   UNL     1      -4.923  22.107  -2.670  1.00  0.00    -0.203 F 
ATOM     99  F   UNL     1      -0.310  22.934  -5.463  1.00  0.00    -0.200 F 
ATOM    100  C   UNL     1      -2.264  23.794  -4.455  1.00  0.00     0.200 A 
ATOM    101  F   UNL     1      -4.226  24.610  -3.426  1.00  0.00    -0.200 F 
ATOM    102  F   UNL     1      -1.919  25.038  -4.814  1.00  0.00    -0.200 F 
ENDBRANCH  69  92
ENDBRANCH  43  44
ENDBRANCH  36  38
ENDBRANCH  35  36
ENDBRANCH  34  35
ENDBRANCH  33  34
ENDBRANCH  32  33
ENDBRANCH  31  32
ENDBRANCH  30  31
ENDBRANCH  29  30
ENDBRANCH   1  29
TORSDOF 24
