REMARK SMILES NC(=O)c1cc(-c2cc(C(=O)OCCOCCOCCOCCOC(=O)c3ccc(-c4c5nc(c(-c6c(F)c(F)c(F)c(F)c6F)c6ccc([nH]6)c(-c6c(F)c(F)c(F)c(F)c6F)c6nc(c(-c7c(F)c(F)c(F)c(F)c7F)c7ccc4[nH]7)C=C6)C=C5)cc3)cc([N+](=O)[O-])c2)ccc1Cl
REMARK SMILES IDX 18 1 17 2 16 3 15 4 14 5 13 6 12 7 10 8 11 9 9 10 7 11 8 12
REMARK SMILES IDX 95 13 91 14 90 15 6 16 4 17 5 18 98 19 97 20 99 21 96 22
REMARK SMILES IDX 2 23 1 24 3 27 92 28 93 29 94 30 19 31 20 32 21 33 22 34
REMARK SMILES IDX 23 35 24 36 25 37 26 38 27 39 28 40 89 41 29 42 88 43 30 44
REMARK SMILES IDX 31 45 32 46 82 47 33 48 87 49 81 50 83 51 34 52 86 53 80 54
REMARK SMILES IDX 79 55 35 57 67 58 47 59 66 60 48 61 51 62 65 63 84 64 49 65
REMARK SMILES IDX 50 66 64 68 85 69 52 70 36 71 37 72 45 73 38 74 39 75 43 76
REMARK SMILES IDX 46 77 40 78 41 79 44 80 42 81 68 82 69 83 77 84 70 85 71 86
REMARK SMILES IDX 75 87 78 88 72 89 73 90 76 91 74 92 53 93 54 94 62 95 55 96
REMARK SMILES IDX 56 97 60 98 63 99 57 100 58 101 61 102 59 103
REMARK H PARENT 1 25 1 26 83 56 51 67
REMARK Flexibility Score: inf
ROOT
ATOM      1  O   UNL     1      -2.018   7.709  -3.929  1.00  0.00    -0.377 OA
ENDROOT
BRANCH   1   2
ATOM      2  C   UNL     1      -1.391   6.632  -3.252  1.00  0.00     0.188 C 
BRANCH   2   3
ATOM      3  C   UNL     1      -0.482   7.002  -2.064  1.00  0.00     0.188 C 
BRANCH   3   4
ATOM      4  O   UNL     1      -0.675   8.335  -1.619  1.00  0.00    -0.376 OA
BRANCH   4   5
ATOM      5  C   UNL     1       0.317   9.305  -1.894  1.00  0.00     0.202 C 
BRANCH   5   6
ATOM      6  C   UNL     1       0.735   9.588  -3.347  1.00  0.00     0.261 C 
BRANCH   6   7
ATOM      7  O   UNL     1       0.863   8.452  -4.209  1.00  0.00    -0.460 OA
BRANCH   7   8
ATOM      8  C   UNL     1       1.972   7.690  -4.098  1.00  0.00     0.338 C 
ATOM      9  O   UNL     1       2.916   7.869  -3.354  1.00  0.00    -0.246 OA
BRANCH   8  10
ATOM     10  C   UNL     1       1.717   6.447  -4.871  1.00  0.00     0.067 A 
ATOM     11  C   UNL     1       1.570   4.008  -4.850  1.00  0.00    -0.011 A 
ATOM     12  C   UNL     1       1.952   5.214  -4.239  1.00  0.00     0.025 A 
ATOM     13  C   UNL     1       0.981   4.058  -6.124  1.00  0.00     0.094 A 
ATOM     14  C   UNL     1       0.769   5.292  -6.761  1.00  0.00     0.270 A 
ATOM     15  C   UNL     1       1.125   6.493  -6.137  1.00  0.00     0.101 A 
BRANCH  11  16
ATOM     16  C   UNL     1       1.802   2.722  -4.184  1.00  0.00    -0.017 A 
ATOM     17  C   UNL     1       1.264   1.058  -2.464  1.00  0.00     0.058 A 
ATOM     18  C   UNL     1       1.012   2.288  -3.107  1.00  0.00     0.024 A 
ATOM     19  C   UNL     1       2.302   0.241  -2.925  1.00  0.00     0.053 A 
ATOM     20  C   UNL     1       3.087   0.663  -4.003  1.00  0.00     0.022 A 
ATOM     21  Cl  UNL     1       2.665  -1.314  -2.265  1.00  0.00    -0.083 Cl
ATOM     22  C   UNL     1       2.840   1.890  -4.622  1.00  0.00     0.010 A 
BRANCH  17  23
ATOM     23  C   UNL     1       0.374   0.711  -1.327  1.00  0.00     0.250 C 
ATOM     24  N   UNL     1       0.941   0.126  -0.232  1.00  0.00    -0.366 N 
ATOM     25  H   UNL     1       0.381  -0.118   0.540  1.00  0.00     0.159 HD
ATOM     26  H   UNL     1       1.909  -0.051  -0.214  1.00  0.00     0.159 HD
ATOM     27  O   UNL     1      -0.816   0.997  -1.350  1.00  0.00    -0.269 OA
ENDBRANCH  17  23
ENDBRANCH  11  16
BRANCH  14  28
ATOM     28  N   UNL     1       0.160   5.320  -8.096  1.00  0.00     0.062 N 
ATOM     29  O   UNL     1      -0.158   6.423  -8.561  1.00  0.00    -0.258 OA
ATOM     30  O   UNL     1       0.015   4.239  -8.684  1.00  0.00    -0.258 OA
ENDBRANCH  14  28
ENDBRANCH   8  10
ENDBRANCH   7   8
ENDBRANCH   6   7
ENDBRANCH   5   6
ENDBRANCH   4   5
ENDBRANCH   3   4
ENDBRANCH   2   3
ENDBRANCH   1   2
BRANCH   1  31
ATOM     31  C   UNL     1      -2.924   8.550  -3.212  1.00  0.00     0.188 C 
BRANCH  31  32
ATOM     32  C   UNL     1      -3.421   8.222  -1.780  1.00  0.00     0.188 C 
BRANCH  32  33
ATOM     33  O   UNL     1      -3.291   6.865  -1.396  1.00  0.00    -0.376 OA
BRANCH  33  34
ATOM     34  C   UNL     1      -4.471   6.084  -1.319  1.00  0.00     0.202 C 
BRANCH  34  35
ATOM     35  C   UNL     1      -5.198   5.826  -2.644  1.00  0.00     0.261 C 
BRANCH  35  36
ATOM     36  O   UNL     1      -5.579   6.996  -3.387  1.00  0.00    -0.460 OA
BRANCH  36  37
ATOM     37  C   UNL     1      -6.500   7.820  -2.829  1.00  0.00     0.338 C 
ATOM     38  O   UNL     1      -7.062   7.690  -1.769  1.00  0.00    -0.246 OA
BRANCH  37  39
ATOM     39  C   UNL     1      -6.559   9.030  -3.683  1.00  0.00     0.060 A 
ATOM     40  C   UNL     1      -6.158  10.265  -3.154  1.00  0.00     0.016 A 
ATOM     41  C   UNL     1      -6.962   8.927  -5.014  1.00  0.00     0.016 A 
ATOM     42  C   UNL     1      -6.156  11.403  -3.964  1.00  0.00     0.010 A 
ATOM     43  C   UNL     1      -6.985  10.071  -5.815  1.00  0.00     0.010 A 
ATOM     44  C   UNL     1      -6.593  11.317  -5.292  1.00  0.00    -0.014 A 
BRANCH  44  45
ATOM     45  C   UNL     1      -6.776  12.538  -6.112  1.00  0.00     0.031 A 
ATOM     46  C   UNL     1      -8.153  13.125  -6.230  1.00  0.00     0.074 A 
ATOM     47  C   UNL     1      -5.745  13.095  -6.770  1.00  0.00     0.049 A 
ATOM     48  N   UNL     1      -8.581  14.099  -6.991  1.00  0.00    -0.248 NA
ATOM     49  C   UNL     1      -9.188  12.528  -5.373  1.00  0.00     0.031 C 
ATOM     50  C   UNL     1      -4.356  12.647  -6.700  1.00  0.00     0.029 A 
ATOM     51  N   UNL     1      -5.716  14.150  -7.651  1.00  0.00    -0.354 N 
ATOM     52  C   UNL     1      -9.936  14.223  -6.715  1.00  0.00     0.074 A 
ATOM     53  C   UNL     1     -10.264  13.213  -5.732  1.00  0.00     0.031 C 
ATOM     54  C   UNL     1      -3.612  13.406  -7.524  1.00  0.00     0.029 A 
ATOM     55  C   UNL     1      -4.480  14.360  -8.214  1.00  0.00     0.049 A 
ATOM     56  H   UNL     1      -6.504  14.701  -7.858  1.00  0.00     0.167 HD
ATOM     57  C   UNL     1     -10.824  15.103  -7.234  1.00  0.00     0.037 A 
ATOM     58  C   UNL     1      -4.106  15.196  -9.203  1.00  0.00     0.037 A 
ATOM     59  C   UNL     1     -10.493  16.100  -8.218  1.00  0.00     0.049 A 
ATOM     60  C   UNL     1      -5.138  16.093  -9.843  1.00  0.00     0.074 A 
ATOM     61  C   UNL     1     -11.316  17.056  -8.786  1.00  0.00     0.029 A 
ATOM     62  N   UNL     1      -9.241  16.255  -8.794  1.00  0.00    -0.354 N 
ATOM     63  N   UNL     1      -6.409  16.233  -9.555  1.00  0.00    -0.248 NA
ATOM     64  C   UNL     1      -4.682  16.943 -10.954  1.00  0.00     0.031 C 
ATOM     65  C   UNL     1     -10.579  17.747  -9.754  1.00  0.00     0.029 A 
ATOM     66  C   UNL     1      -9.280  17.264  -9.744  1.00  0.00     0.049 A 
ATOM     67  H   UNL     1      -8.443  15.728  -8.562  1.00  0.00     0.167 HD
ATOM     68  C   UNL     1      -6.899  17.195 -10.431  1.00  0.00     0.074 A 
ATOM     69  C   UNL     1      -5.782  17.622 -11.247  1.00  0.00     0.031 C 
ATOM     70  C   UNL     1      -8.160  17.679 -10.550  1.00  0.00     0.037 A 
BRANCH  57  71
ATOM     71  C   UNL     1     -12.250  15.004  -6.776  1.00  0.00     0.064 A 
ATOM     72  C   UNL     1     -12.636  15.365  -5.476  1.00  0.00     0.173 A 
ATOM     73  C   UNL     1     -13.250  14.576  -7.663  1.00  0.00     0.173 A 
ATOM     74  F   UNL     1     -11.718  15.768  -4.585  1.00  0.00    -0.203 F 
ATOM     75  C   UNL     1     -13.967  15.276  -5.075  1.00  0.00     0.198 A 
ATOM     76  C   UNL     1     -14.583  14.519  -7.267  1.00  0.00     0.198 A 
ATOM     77  F   UNL     1     -12.935  14.223  -8.918  1.00  0.00    -0.203 F 
ATOM     78  F   UNL     1     -14.306  15.580  -3.814  1.00  0.00    -0.200 F 
ATOM     79  C   UNL     1     -14.940  14.861  -5.972  1.00  0.00     0.200 A 
ATOM     80  F   UNL     1     -15.523  14.132  -8.141  1.00  0.00    -0.200 F 
ATOM     81  F   UNL     1     -16.221  14.786  -5.587  1.00  0.00    -0.200 F 
ENDBRANCH  57  71
BRANCH  58  82
ATOM     82  C   UNL     1      -2.698  15.201  -9.684  1.00  0.00     0.064 A 
ATOM     83  C   UNL     1      -1.878  16.324  -9.507  1.00  0.00     0.173 A 
ATOM     84  C   UNL     1      -2.153  14.097 -10.357  1.00  0.00     0.173 A 
ATOM     85  F   UNL     1      -2.361  17.417  -8.899  1.00  0.00    -0.203 F 
ATOM     86  C   UNL     1      -0.574  16.348  -9.998  1.00  0.00     0.198 A 
ATOM     87  C   UNL     1      -0.838  14.110 -10.819  1.00  0.00     0.198 A 
ATOM     88  F   UNL     1      -2.897  13.000 -10.563  1.00  0.00    -0.203 F 
ATOM     89  F   UNL     1       0.171  17.454  -9.861  1.00  0.00    -0.200 F 
ATOM     90  C   UNL     1      -0.052  15.239 -10.647  1.00  0.00     0.200 A 
ATOM     91  F   UNL     1      -0.336  13.032 -11.436  1.00  0.00    -0.200 F 
ATOM     92  F   UNL     1       1.203  15.262 -11.116  1.00  0.00    -0.200 F 
ENDBRANCH  58  82
BRANCH  70  93
ATOM     93  C   UNL     1      -8.405  18.737 -11.588  1.00  0.00     0.064 A 
ATOM     94  C   UNL     1      -8.401  18.437 -12.959  1.00  0.00     0.173 A 
ATOM     95  C   UNL     1      -8.712  20.053 -11.207  1.00  0.00     0.173 A 
ATOM     96  F   UNL     1      -8.100  17.199 -13.378  1.00  0.00    -0.203 F 
ATOM     97  C   UNL     1      -8.679  19.418 -13.908  1.00  0.00     0.198 A 
ATOM     98  C   UNL     1      -9.021  21.023 -12.157  1.00  0.00     0.198 A 
ATOM     99  F   UNL     1      -8.737  20.392  -9.909  1.00  0.00    -0.203 F 
ATOM    100  F   UNL     1      -8.629  19.117 -15.213  1.00  0.00    -0.200 F 
ATOM    101  C   UNL     1      -8.998  20.706 -13.506  1.00  0.00     0.200 A 
ATOM    102  F   UNL     1      -9.347  22.262 -11.765  1.00  0.00    -0.200 F 
ATOM    103  F   UNL     1      -9.281  21.644 -14.420  1.00  0.00    -0.200 F 
ENDBRANCH  70  93
ENDBRANCH  44  45
ENDBRANCH  37  39
ENDBRANCH  36  37
ENDBRANCH  35  36
ENDBRANCH  34  35
ENDBRANCH  33  34
ENDBRANCH  32  33
ENDBRANCH  31  32
ENDBRANCH   1  31
TORSDOF 23
