REMARK SMILES O=C(N[C@@H](Cc1c[nH]c2ccccc12)C(=O)N[C@@H](CS)C(=O)N[C@@H](CO)C(=O)OCCOCCOCCOCCOC(=O)c1ccc(-c2c3nc(c(-c4c(F)c(F)c(F)c(F)c4F)c4ccc([nH]4)c(-c4c(F)c(F)c(F)c(F)c4F)c4nc(c(-c5c(F)c(F)c(F)c(F)c5F)c5ccc2[nH]5)C=C4)C=C3)cc1)c1ccc(F)cc1
REMARK SMILES IDX 33 1 32 2 31 3 30 4 29 5 27 6 28 7 24 8 23 9 21 10 22 11
REMARK SMILES IDX 18 13 17 14 15 15 16 16 4 18 3 19 1 20 2 21 107 23 108 24
REMARK SMILES IDX 113 25 109 26 112 27 110 28 111 29 5 30 6 31 7 32 14 33 8 34
REMARK SMILES IDX 9 35 13 36 10 38 12 39 11 40 19 41 20 42 25 44 26 45 34 47
REMARK SMILES IDX 35 48 36 49 37 50 38 51 39 52 40 53 41 54 42 55 43 56 44 57
REMARK SMILES IDX 45 58 106 59 46 60 105 61 47 62 48 63 49 64 99 65 50 66
REMARK SMILES IDX 104 67 98 68 100 69 51 70 103 71 97 72 96 73 52 75 84 76
REMARK SMILES IDX 64 77 83 78 65 79 68 80 82 81 101 82 66 83 67 84 81 86
REMARK SMILES IDX 102 87 69 88 53 89 54 90 62 91 55 92 56 93 60 94 63 95 57 96
REMARK SMILES IDX 58 97 61 98 59 99 85 100 86 101 94 102 87 103 88 104 92 105
REMARK SMILES IDX 95 106 89 107 90 108 93 109 91 110 70 111 71 112 79 113
REMARK SMILES IDX 72 114 73 115 77 116 80 117 74 118 75 119 78 120 76 121
REMARK H PARENT 23 12 17 17 3 22 8 37 20 43 26 46 100 74 68 85
REMARK Flexibility Score: inf
ROOT
ATOM      1  C   UNL     1       1.948   3.295   7.391  1.00  0.00     0.188 C 
ENDROOT
BRANCH   1   2
ATOM      2  O   UNL     1       1.459   3.420   8.715  1.00  0.00    -0.376 OA
BRANCH   2   3
ATOM      3  C   UNL     1       2.328   3.782   9.778  1.00  0.00     0.202 C 
BRANCH   3   4
ATOM      4  C   UNL     1       3.822   3.402   9.834  1.00  0.00     0.261 C 
BRANCH   4   5
ATOM      5  O   UNL     1       4.463   3.096   8.588  1.00  0.00    -0.462 OA
BRANCH   5   6
ATOM      6  C   UNL     1       4.848   1.807   8.399  1.00  0.00     0.331 C 
ATOM      7  O   UNL     1       4.712   0.908   9.220  1.00  0.00    -0.250 OA
BRANCH   6   8
ATOM      8  C   UNL     1       5.504   1.583   7.025  1.00  0.00     0.218 C 
BRANCH   8   9
ATOM      9  N   UNL     1       5.417   2.682   6.065  1.00  0.00    -0.339 N 
ATOM     10  C   UNL     1       5.254   2.638   4.721  1.00  0.00     0.244 C 
ATOM     11  O   UNL     1       5.952   3.420   4.068  1.00  0.00    -0.273 OA
ATOM     12  H   UNL     1       5.488   3.585   6.451  1.00  0.00     0.164 HD
BRANCH  10  13
ATOM     13  C   UNL     1       4.317   1.641   3.997  1.00  0.00     0.181 C 
BRANCH  13  14
ATOM     14  N   UNL     1       4.997   0.511   3.403  1.00  0.00    -0.342 N 
ATOM     15  C   UNL     1       5.202   0.249   2.080  1.00  0.00     0.243 C 
ATOM     16  O   UNL     1       6.016  -0.653   1.844  1.00  0.00    -0.273 OA
ATOM     17  H   UNL     1       5.356  -0.154   4.034  1.00  0.00     0.164 HD
BRANCH  15  18
ATOM     18  C   UNL     1       4.409   0.909   0.898  1.00  0.00     0.176 C 
BRANCH  18  19
ATOM     19  N   UNL     1       2.995   0.520   0.907  1.00  0.00    -0.340 N 
ATOM     20  O   UNL     1       1.082  -0.325   0.085  1.00  0.00    -0.269 OA
ATOM     21  C   UNL     1       2.308  -0.303   0.053  1.00  0.00     0.251 C 
ATOM     22  H   UNL     1       2.459   0.908   1.636  1.00  0.00     0.164 HD
BRANCH  21  23
ATOM     23  C   UNL     1       3.033  -1.143  -0.921  1.00  0.00     0.040 A 
ATOM     24  C   UNL     1       4.028  -2.031  -0.494  1.00  0.00     0.017 A 
ATOM     25  C   UNL     1       2.686  -1.066  -2.275  1.00  0.00     0.017 A 
ATOM     26  C   UNL     1       4.728  -2.789  -1.431  1.00  0.00     0.040 A 
ATOM     27  C   UNL     1       3.381  -1.837  -3.208  1.00  0.00     0.040 A 
ATOM     28  C   UNL     1       4.402  -2.682  -2.779  1.00  0.00     0.123 A 
ATOM     29  F   UNL     1       5.079  -3.406  -3.679  1.00  0.00    -0.207 F 
ENDBRANCH  21  23
ENDBRANCH  18  19
BRANCH  18  30
ATOM     30  C   UNL     1       4.676   2.373   0.472  1.00  0.00     0.072 C 
BRANCH  30  31
ATOM     31  C   UNL     1       3.985   3.532   1.148  1.00  0.00    -0.020 A 
ATOM     32  C   UNL     1       2.743   3.606   1.754  1.00  0.00     0.087 A 
ATOM     33  C   UNL     1       4.528   4.864   1.241  1.00  0.00     0.003 A 
ATOM     34  N   UNL     1       2.707   4.757   2.497  1.00  0.00    -0.361 N 
ATOM     35  C   UNL     1       3.772   5.560   2.183  1.00  0.00     0.046 A 
ATOM     36  C   UNL     1       5.620   5.527   0.644  1.00  0.00     0.010 A 
ATOM     37  H   UNL     1       2.015   4.975   3.163  1.00  0.00     0.166 HD
ATOM     38  C   UNL     1       4.120   6.834   2.648  1.00  0.00     0.026 A 
ATOM     39  C   UNL     1       5.925   6.839   1.028  1.00  0.00     0.001 A 
ATOM     40  C   UNL     1       5.206   7.468   2.041  1.00  0.00     0.002 A 
ENDBRANCH  30  31
ENDBRANCH  18  30
ENDBRANCH  15  18
ENDBRANCH  13  14
BRANCH  13  41
ATOM     41  C   UNL     1       2.896   1.389   4.513  1.00  0.00     0.101 C 
BRANCH  41  42
ATOM     42  S   UNL     1       2.599   0.027   5.676  1.00  0.00    -0.177 SA
ATOM     43  H   UNL     1       2.845  -1.159   5.058  1.00  0.00     0.102 HD
ENDBRANCH  41  42
ENDBRANCH  13  41
ENDBRANCH  10  13
ENDBRANCH   8   9
BRANCH   8  44
ATOM     44  C   UNL     1       6.985   1.269   7.261  1.00  0.00     0.193 C 
BRANCH  44  45
ATOM     45  O   UNL     1       7.699   2.442   7.659  1.00  0.00    -0.394 OA
ATOM     46  H   UNL     1       7.639   3.111   6.958  1.00  0.00     0.210 HD
ENDBRANCH  44  45
ENDBRANCH   8  44
ENDBRANCH   6   8
ENDBRANCH   5   6
ENDBRANCH   4   5
ENDBRANCH   3   4
ENDBRANCH   2   3
ENDBRANCH   1   2
BRANCH   1  47
ATOM     47  C   UNL     1       2.722   4.457   6.744  1.00  0.00     0.188 C 
BRANCH  47  48
ATOM     48  O   UNL     1       3.210   5.401   7.674  1.00  0.00    -0.377 OA
BRANCH  48  49
ATOM     49  C   UNL     1       2.418   6.571   7.827  1.00  0.00     0.188 C 
BRANCH  49  50
ATOM     50  C   UNL     1       0.879   6.430   7.776  1.00  0.00     0.188 C 
BRANCH  50  51
ATOM     51  O   UNL     1       0.406   5.713   6.638  1.00  0.00    -0.376 OA
BRANCH  51  52
ATOM     52  C   UNL     1      -0.216   6.435   5.588  1.00  0.00     0.202 C 
BRANCH  52  53
ATOM     53  C   UNL     1       0.698   7.297   4.705  1.00  0.00     0.261 C 
BRANCH  53  54
ATOM     54  O   UNL     1       1.578   8.194   5.388  1.00  0.00    -0.460 OA
BRANCH  54  55
ATOM     55  C   UNL     1       0.984   9.219   6.036  1.00  0.00     0.338 C 
ATOM     56  O   UNL     1      -0.201   9.475   6.063  1.00  0.00    -0.246 OA
BRANCH  55  57
ATOM     57  C   UNL     1       1.998   9.873   6.889  1.00  0.00     0.060 A 
ATOM     58  C   UNL     1       1.732   9.972   8.260  1.00  0.00     0.016 A 
ATOM     59  C   UNL     1       3.172  10.405   6.350  1.00  0.00     0.016 A 
ATOM     60  C   UNL     1       2.599  10.679   9.086  1.00  0.00     0.010 A 
ATOM     61  C   UNL     1       4.030  11.137   7.175  1.00  0.00     0.010 A 
ATOM     62  C   UNL     1       3.709  11.328   8.532  1.00  0.00    -0.014 A 
BRANCH  62  63
ATOM     63  C   UNL     1       4.333  12.431   9.301  1.00  0.00     0.031 A 
ATOM     64  C   UNL     1       3.861  13.834   9.012  1.00  0.00     0.074 A 
ATOM     65  C   UNL     1       5.218  12.198  10.283  1.00  0.00     0.049 A 
ATOM     66  N   UNL     1       4.239  14.969   9.540  1.00  0.00    -0.248 NA
ATOM     67  C   UNL     1       2.811  13.971   7.987  1.00  0.00     0.031 C 
ATOM     68  C   UNL     1       5.697  10.882  10.699  1.00  0.00     0.029 A 
ATOM     69  N   UNL     1       5.868  13.074  11.116  1.00  0.00    -0.354 N 
ATOM     70  C   UNL     1       3.475  15.947   8.915  1.00  0.00     0.074 A 
ATOM     71  C   UNL     1       2.646  15.283   7.936  1.00  0.00     0.031 C 
ATOM     72  C   UNL     1       6.572  11.037  11.709  1.00  0.00     0.029 A 
ATOM     73  C   UNL     1       6.735  12.463  11.988  1.00  0.00     0.049 A 
ATOM     74  H   UNL     1       5.726  14.047  11.091  1.00  0.00     0.167 HD
ATOM     75  C   UNL     1       3.450  17.280   9.149  1.00  0.00     0.037 A 
ATOM     76  C   UNL     1       7.574  13.005  12.892  1.00  0.00     0.037 A 
ATOM     77  C   UNL     1       4.282  17.940  10.118  1.00  0.00     0.049 A 
ATOM     78  C   UNL     1       7.601  14.507  13.059  1.00  0.00     0.074 A 
ATOM     79  C   UNL     1       4.362  19.288  10.414  1.00  0.00     0.029 A 
ATOM     80  N   UNL     1       5.182  17.292  10.952  1.00  0.00    -0.354 N 
ATOM     81  N   UNL     1       6.878  15.426  12.465  1.00  0.00    -0.248 NA
ATOM     82  C   UNL     1       8.557  15.043  14.038  1.00  0.00     0.031 C 
ATOM     83  C   UNL     1       5.346  19.462  11.392  1.00  0.00     0.029 A 
ATOM     84  C   UNL     1       5.829  18.215  11.756  1.00  0.00     0.049 A 
ATOM     85  H   UNL     1       5.338  16.320  10.969  1.00  0.00     0.167 HD
ATOM     86  C   UNL     1       7.253  16.637  13.035  1.00  0.00     0.074 A 
ATOM     87  C   UNL     1       8.259  16.333  14.029  1.00  0.00     0.031 C 
ATOM     88  C   UNL     1       6.804  17.889  12.764  1.00  0.00     0.037 A 
BRANCH  75  89
ATOM     89  C   UNL     1       2.508  18.111   8.327  1.00  0.00     0.064 A 
ATOM     90  C   UNL     1       1.117  18.032   8.497  1.00  0.00     0.173 A 
ATOM     91  C   UNL     1       3.002  19.017   7.377  1.00  0.00     0.173 A 
ATOM     92  F   UNL     1       0.591  17.166   9.376  1.00  0.00    -0.203 F 
ATOM     93  C   UNL     1       0.256  18.813   7.730  1.00  0.00     0.198 A 
ATOM     94  C   UNL     1       2.139  19.820   6.636  1.00  0.00     0.198 A 
ATOM     95  F   UNL     1       4.322  19.130   7.173  1.00  0.00    -0.203 F 
ATOM     96  F   UNL     1      -1.071  18.684   7.873  1.00  0.00    -0.200 F 
ATOM     97  C   UNL     1       0.767  19.713   6.808  1.00  0.00     0.200 A 
ATOM     98  F   UNL     1       2.637  20.698   5.754  1.00  0.00    -0.200 F 
ATOM     99  F   UNL     1      -0.062  20.472   6.078  1.00  0.00    -0.200 F 
ENDBRANCH  75  89
BRANCH  76 100
ATOM    100  C   UNL     1       8.470  12.143  13.710  1.00  0.00     0.064 A 
ATOM    101  C   UNL     1       8.341  12.081  15.106  1.00  0.00     0.173 A 
ATOM    102  C   UNL     1       9.518  11.419  13.123  1.00  0.00     0.173 A 
ATOM    103  F   UNL     1       7.369  12.774  15.719  1.00  0.00    -0.203 F 
ATOM    104  C   UNL     1       9.249  11.366  15.884  1.00  0.00     0.198 A 
ATOM    105  C   UNL     1      10.404  10.675  13.899  1.00  0.00     0.198 A 
ATOM    106  F   UNL     1       9.690  11.443  11.793  1.00  0.00    -0.203 F 
ATOM    107  F   UNL     1       9.146  11.389  17.220  1.00  0.00    -0.200 F 
ATOM    108  C   UNL     1      10.279  10.662  15.280  1.00  0.00     0.200 A 
ATOM    109  F   UNL     1      11.391   9.985  13.310  1.00  0.00    -0.200 F 
ATOM    110  F   UNL     1      11.160   9.984  16.029  1.00  0.00    -0.200 F 
ENDBRANCH  76 100
BRANCH  88 111
ATOM    111  C   UNL     1       7.331  19.011  13.615  1.00  0.00     0.064 A 
ATOM    112  C   UNL     1       8.665  19.438  13.550  1.00  0.00     0.173 A 
ATOM    113  C   UNL     1       6.472  19.682  14.502  1.00  0.00     0.173 A 
ATOM    114  F   UNL     1       9.530  18.827  12.726  1.00  0.00    -0.203 F 
ATOM    115  C   UNL     1       9.132  20.459  14.374  1.00  0.00     0.198 A 
ATOM    116  C   UNL     1       6.932  20.730  15.293  1.00  0.00     0.198 A 
ATOM    117  F   UNL     1       5.182  19.326  14.595  1.00  0.00    -0.203 F 
ATOM    118  F   UNL     1      10.428  20.800  14.345  1.00  0.00    -0.200 F 
ATOM    119  C   UNL     1       8.264  21.108  15.240  1.00  0.00     0.200 A 
ATOM    120  F   UNL     1       6.087  21.369  16.114  1.00  0.00    -0.200 F 
ATOM    121  F   UNL     1       8.716  22.091  16.031  1.00  0.00    -0.200 F 
ENDBRANCH  88 111
ENDBRANCH  62  63
ENDBRANCH  55  57
ENDBRANCH  54  55
ENDBRANCH  53  54
ENDBRANCH  52  53
ENDBRANCH  51  52
ENDBRANCH  50  51
ENDBRANCH  49  50
ENDBRANCH  48  49
ENDBRANCH  47  48
ENDBRANCH   1  47
TORSDOF 32
