REMARK SMILES C[C@@H]([NH3+])CCC(=O)N1CC(n2cc(C(=O)OCCOCCOCCOCCOC(=O)c3ccc(-c4c5nc(c(-c6c(F)c(F)c(F)c(F)c6F)c6ccc([nH]6)c(-c6c(F)c(F)c(F)c(F)c6F)c6nc(c(-c7c(F)c(F)c(F)c(F)c7F)c7ccc4[nH]7)C=C6)C=C5)cc3)nn2)C1
REMARK SMILES IDX 20 1 19 2 18 3 17 4 16 5 14 6 15 7 13 8 11 9 12 10 95 11
REMARK SMILES IDX 94 12 10 13 6 14 7 15 8 16 9 17 96 18 5 19 4 20 2 21 1 22
REMARK SMILES IDX 3 23 21 27 22 28 23 29 24 30 25 31 26 32 27 33 28 34 29 35
REMARK SMILES IDX 30 36 31 37 32 38 93 39 33 40 92 41 34 42 35 43 36 44 86 45
REMARK SMILES IDX 37 46 91 47 85 48 87 49 38 50 90 51 84 52 83 53 39 55 71 56
REMARK SMILES IDX 51 57 70 58 52 59 55 60 69 61 88 62 53 63 54 64 68 66 89 67
REMARK SMILES IDX 56 68 40 69 41 70 49 71 42 72 43 73 47 74 50 75 44 76 45 77
REMARK SMILES IDX 48 78 46 79 72 80 73 81 81 82 74 83 75 84 79 85 82 86 76 87
REMARK SMILES IDX 77 88 80 89 78 90 57 91 58 92 66 93 59 94 60 95 64 96 67 97
REMARK SMILES IDX 61 98 62 99 65 100 63 101
REMARK H PARENT 3 24 3 25 3 26 87 54 55 65
REMARK Flexibility Score: inf
ROOT
ATOM      1  C   UNL     1       8.358   5.411   1.528  1.00  0.00     0.188 C 
ENDROOT
BRANCH   1   2
ATOM      2  O   UNL     1       9.456   5.399   0.642  1.00  0.00    -0.376 OA
BRANCH   2   3
ATOM      3  C   UNL     1       9.649   4.396  -0.327  1.00  0.00     0.202 C 
BRANCH   3   4
ATOM      4  C   UNL     1       8.507   3.689  -1.074  1.00  0.00     0.261 C 
BRANCH   4   5
ATOM      5  O   UNL     1       7.221   3.680  -0.454  1.00  0.00    -0.458 OA
BRANCH   5   6
ATOM      6  C   UNL     1       7.006   2.744   0.505  1.00  0.00     0.360 C 
ATOM      7  O   UNL     1       7.813   1.854   0.793  1.00  0.00    -0.244 OA
BRANCH   6   8
ATOM      8  C   UNL     1       5.780   2.999   1.240  1.00  0.00     0.190 A 
ATOM      9  N   UNL     1       3.817   3.652   1.901  1.00  0.00    -0.245 N 
ATOM     10  C   UNL     1       4.673   3.725   0.835  1.00  0.00     0.147 A 
ATOM     11  N   UNL     1       4.381   3.006   2.929  1.00  0.00    -0.066 NA
ATOM     12  N   UNL     1       5.581   2.597   2.539  1.00  0.00    -0.123 NA
BRANCH   9  13
ATOM     13  C   UNL     1       2.427   3.990   1.815  1.00  0.00     0.148 C 
ATOM     14  C   UNL     1      -0.601   2.756   1.594  1.00  0.00     0.222 C 
ATOM     15  O   UNL     1      -1.327   3.618   2.086  1.00  0.00    -0.275 OA
ATOM     16  N   UNL     1       0.757   2.737   1.810  1.00  0.00    -0.338 N 
ATOM     17  C   UNL     1       1.490   3.436   2.883  1.00  0.00     0.148 C 
ATOM     18  C   UNL     1       1.764   3.058   0.811  1.00  0.00     0.148 C 
BRANCH  14  19
ATOM     19  C   UNL     1      -1.188   1.542   0.872  1.00  0.00     0.106 C 
BRANCH  19  20
ATOM     20  C   UNL     1      -0.954   1.350  -0.633  1.00  0.00     0.074 C 
BRANCH  20  21
ATOM     21  C   UNL     1       0.443   0.910  -1.095  1.00  0.00     0.178 C 
ATOM     22  C   UNL     1       1.019  -0.288  -0.347  1.00  0.00     0.075 C 
BRANCH  21  23
ATOM     23  N   UNL     1       0.456   0.641  -2.535  1.00  0.00    -0.355 N 
ATOM     24  H   UNL     1      -0.153  -0.150  -2.739  1.00  0.00     0.344 HD
ATOM     25  H   UNL     1       1.408   0.423  -2.832  1.00  0.00     0.344 HD
ATOM     26  H   UNL     1       0.124   1.465  -3.038  1.00  0.00     0.344 HD
ENDBRANCH  21  23
ENDBRANCH  20  21
ENDBRANCH  19  20
ENDBRANCH  14  19
ENDBRANCH   9  13
ENDBRANCH   6   8
ENDBRANCH   5   6
ENDBRANCH   4   5
ENDBRANCH   3   4
ENDBRANCH   2   3
ENDBRANCH   1   2
BRANCH   1  27
ATOM     27  C   UNL     1       7.192   6.308   1.067  1.00  0.00     0.188 C 
BRANCH  27  28
ATOM     28  O   UNL     1       7.134   6.659  -0.305  1.00  0.00    -0.377 OA
BRANCH  28  29
ATOM     29  C   UNL     1       8.164   7.467  -0.880  1.00  0.00     0.188 C 
BRANCH  29  30
ATOM     30  C   UNL     1       9.362   8.058  -0.084  1.00  0.00     0.188 C 
BRANCH  30  31
ATOM     31  O   UNL     1       9.305   7.925   1.323  1.00  0.00    -0.376 OA
BRANCH  31  32
ATOM     32  C   UNL     1       9.010   8.987   2.203  1.00  0.00     0.202 C 
BRANCH  32  33
ATOM     33  C   UNL     1       7.719   9.768   2.007  1.00  0.00     0.261 C 
BRANCH  33  34
ATOM     34  O   UNL     1       7.372   9.970   0.653  1.00  0.00    -0.460 OA
BRANCH  34  35
ATOM     35  C   UNL     1       8.144  10.866   0.018  1.00  0.00     0.338 C 
ATOM     36  O   UNL     1       9.226  11.312   0.380  1.00  0.00    -0.246 OA
BRANCH  35  37
ATOM     37  C   UNL     1       7.391  11.373  -1.121  1.00  0.00     0.060 A 
ATOM     38  C   UNL     1       8.086  12.199  -2.003  1.00  0.00     0.016 A 
ATOM     39  C   UNL     1       5.992  11.370  -1.018  1.00  0.00     0.016 A 
ATOM     40  C   UNL     1       7.387  13.223  -2.589  1.00  0.00     0.010 A 
ATOM     41  C   UNL     1       5.306  12.416  -1.566  1.00  0.00     0.010 A 
ATOM     42  C   UNL     1       6.033  13.374  -2.267  1.00  0.00    -0.014 A 
BRANCH  42  43
ATOM     43  C   UNL     1       5.330  14.510  -2.805  1.00  0.00     0.031 A 
ATOM     44  C   UNL     1       5.002  14.302  -4.228  1.00  0.00     0.074 A 
ATOM     45  C   UNL     1       4.959  15.553  -2.042  1.00  0.00     0.049 A 
ATOM     46  N   UNL     1       5.535  14.894  -5.242  1.00  0.00    -0.248 NA
ATOM     47  C   UNL     1       4.169  13.138  -4.579  1.00  0.00     0.031 C 
ATOM     48  C   UNL     1       5.027  15.682  -0.584  1.00  0.00     0.029 A 
ATOM     49  N   UNL     1       4.348  16.707  -2.421  1.00  0.00    -0.354 N 
ATOM     50  C   UNL     1       4.924  14.328  -6.354  1.00  0.00     0.074 A 
ATOM     51  C   UNL     1       4.304  13.115  -5.904  1.00  0.00     0.031 C 
ATOM     52  C   UNL     1       4.279  16.742  -0.194  1.00  0.00     0.029 A 
ATOM     53  C   UNL     1       3.791  17.434  -1.374  1.00  0.00     0.049 A 
ATOM     54  H   UNL     1       4.304  17.003  -3.359  1.00  0.00     0.167 HD
ATOM     55  C   UNL     1       4.706  15.083  -7.462  1.00  0.00     0.037 A 
ATOM     56  C   UNL     1       2.930  18.475  -1.509  1.00  0.00     0.037 A 
ATOM     57  C   UNL     1       5.572  16.239  -7.459  1.00  0.00     0.049 A 
ATOM     58  C   UNL     1       3.063  18.973  -2.904  1.00  0.00     0.074 A 
ATOM     59  C   UNL     1       6.939  16.431  -7.470  1.00  0.00     0.029 A 
ATOM     60  N   UNL     1       5.025  17.426  -7.039  1.00  0.00    -0.354 N 
ATOM     61  N   UNL     1       4.124  19.579  -3.358  1.00  0.00    -0.248 NA
ATOM     62  C   UNL     1       2.200  18.384  -3.917  1.00  0.00     0.031 C 
ATOM     63  C   UNL     1       7.166  17.577  -6.651  1.00  0.00     0.029 A 
ATOM     64  C   UNL     1       5.928  18.071  -6.239  1.00  0.00     0.049 A 
ATOM     65  H   UNL     1       4.128  17.759  -7.274  1.00  0.00     0.167 HD
ATOM     66  C   UNL     1       4.297  19.073  -4.638  1.00  0.00     0.074 A 
ATOM     67  C   UNL     1       3.032  18.417  -4.961  1.00  0.00     0.031 C 
ATOM     68  C   UNL     1       5.546  18.978  -5.180  1.00  0.00     0.037 A 
BRANCH  55  69
ATOM     69  C   UNL     1       3.422  15.034  -8.265  1.00  0.00     0.064 A 
ATOM     70  C   UNL     1       3.307  15.884  -9.383  1.00  0.00     0.173 A 
ATOM     71  C   UNL     1       2.211  14.447  -7.831  1.00  0.00     0.173 A 
ATOM     72  F   UNL     1       4.386  16.501  -9.888  1.00  0.00    -0.203 F 
ATOM     73  C   UNL     1       2.069  16.206  -9.944  1.00  0.00     0.198 A 
ATOM     74  C   UNL     1       0.984  14.732  -8.426  1.00  0.00     0.198 A 
ATOM     75  F   UNL     1       2.126  13.659  -6.756  1.00  0.00    -0.203 F 
ATOM     76  F   UNL     1       2.000  17.130 -10.912  1.00  0.00    -0.200 F 
ATOM     77  C   UNL     1       0.907  15.639  -9.457  1.00  0.00     0.200 A 
ATOM     78  F   UNL     1      -0.131  14.179  -7.926  1.00  0.00    -0.200 F 
ATOM     79  F   UNL     1      -0.286  15.997  -9.946  1.00  0.00    -0.200 F 
ENDBRANCH  55  69
BRANCH  56  80
ATOM     80  C   UNL     1       1.779  18.857  -0.653  1.00  0.00     0.064 A 
ATOM     81  C   UNL     1       1.149  20.105  -0.808  1.00  0.00     0.173 A 
ATOM     82  C   UNL     1       1.091  17.904   0.121  1.00  0.00     0.173 A 
ATOM     83  F   UNL     1       1.713  21.055  -1.568  1.00  0.00    -0.203 F 
ATOM     84  C   UNL     1      -0.108  20.369  -0.252  1.00  0.00     0.198 A 
ATOM     85  C   UNL     1      -0.160  18.172   0.681  1.00  0.00     0.198 A 
ATOM     86  F   UNL     1       1.568  16.660   0.267  1.00  0.00    -0.203 F 
ATOM     87  F   UNL     1      -0.707  21.546  -0.482  1.00  0.00    -0.200 F 
ATOM     88  C   UNL     1      -0.766  19.398   0.482  1.00  0.00     0.200 A 
ATOM     89  F   UNL     1      -0.804  17.209   1.357  1.00  0.00    -0.200 F 
ATOM     90  F   UNL     1      -1.998  19.626   0.958  1.00  0.00    -0.200 F 
ENDBRANCH  56  80
BRANCH  68  91
ATOM     91  C   UNL     1       6.660  19.724  -4.498  1.00  0.00     0.064 A 
ATOM     92  C   UNL     1       7.114  19.460  -3.194  1.00  0.00     0.173 A 
ATOM     93  C   UNL     1       7.382  20.655  -5.257  1.00  0.00     0.173 A 
ATOM     94  F   UNL     1       6.537  18.517  -2.438  1.00  0.00    -0.203 F 
ATOM     95  C   UNL     1       8.218  20.130  -2.666  1.00  0.00     0.198 A 
ATOM     96  C   UNL     1       8.507  21.291  -4.743  1.00  0.00     0.198 A 
ATOM     97  F   UNL     1       7.023  20.910  -6.525  1.00  0.00    -0.203 F 
ATOM     98  F   UNL     1       8.627  19.872  -1.415  1.00  0.00    -0.200 F 
ATOM     99  C   UNL     1       8.919  21.037  -3.445  1.00  0.00     0.200 A 
ATOM    100  F   UNL     1       9.209  22.128  -5.518  1.00  0.00    -0.200 F 
ATOM    101  F   UNL     1      10.007  21.647  -2.955  1.00  0.00    -0.200 F 
ENDBRANCH  68  91
ENDBRANCH  42  43
ENDBRANCH  35  37
ENDBRANCH  34  35
ENDBRANCH  33  34
ENDBRANCH  32  33
ENDBRANCH  31  32
ENDBRANCH  30  31
ENDBRANCH  29  30
ENDBRANCH  28  29
ENDBRANCH  27  28
ENDBRANCH   1  27
TORSDOF 25
