REMARK SMILES O=C(CCS[C@H]1CC(=O)c2ccccc2C1=O)OCCOCCOCCOCCOC(=O)c1ccc(-c2c3nc(c(-c4c(F)c(F)c(F)c(F)c4F)c4ccc([nH]4)c(-c4c(F)c(F)c(F)c(F)c4F)c4nc(c(-c5c(F)c(F)c(F)c(F)c5F)c5ccc2[nH]5)C=C4)C=C3)cc1
REMARK SMILES IDX 23 1 22 2 21 3 20 4 19 5 18 6 2 7 1 8 3 9 4 10 5 11 6 12
REMARK SMILES IDX 7 13 16 14 8 15 15 16 17 17 9 18 10 19 14 20 11 21 13 22
REMARK SMILES IDX 12 23 24 24 25 25 26 26 27 27 28 28 29 29 30 30 31 31 32 32
REMARK SMILES IDX 33 33 34 34 95 35 35 36 94 37 36 38 37 39 38 40 88 41 39 42
REMARK SMILES IDX 93 43 87 44 89 45 40 46 92 47 86 48 85 49 41 51 73 52 53 53
REMARK SMILES IDX 72 54 54 55 57 56 71 57 90 58 55 59 56 60 70 62 91 63 58 64
REMARK SMILES IDX 42 65 43 66 51 67 44 68 45 69 49 70 52 71 46 72 47 73 50 74
REMARK SMILES IDX 48 75 74 76 75 77 83 78 76 79 77 80 81 81 84 82 78 83 79 84
REMARK SMILES IDX 82 85 80 86 59 87 60 88 68 89 61 90 62 91 66 92 69 93 63 94
REMARK SMILES IDX 64 95 67 96 65 97
REMARK H PARENT 89 50 57 61
REMARK Flexibility Score: inf
ROOT
ATOM      1  C   UNL     1       1.374  -2.168   2.856  1.00  0.00     0.188 C 
ENDROOT
BRANCH   1   2
ATOM      2  C   UNL     1       1.360  -2.106   1.328  1.00  0.00     0.188 C 
BRANCH   2   3
ATOM      3  O   UNL     1       2.269  -1.203   0.715  1.00  0.00    -0.376 OA
BRANCH   3   4
ATOM      4  C   UNL     1       2.265   0.153   1.123  1.00  0.00     0.202 C 
BRANCH   4   5
ATOM      5  C   UNL     1       0.919   0.836   1.292  1.00  0.00     0.261 C 
BRANCH   5   6
ATOM      6  O   UNL     1      -0.027   0.608   0.237  1.00  0.00    -0.463 OA
BRANCH   6   7
ATOM      7  C   UNL     1       0.068   1.124  -1.007  1.00  0.00     0.306 C 
ATOM      8  O   UNL     1      -0.949   1.462  -1.608  1.00  0.00    -0.252 OA
BRANCH   7   9
ATOM      9  C   UNL     1       1.407   1.108  -1.701  1.00  0.00     0.133 C 
BRANCH   9  10
ATOM     10  C   UNL     1       2.146   2.438  -1.830  1.00  0.00     0.082 C 
BRANCH  10  11
ATOM     11  S   UNL     1       2.359   3.456  -0.328  1.00  0.00    -0.149 SA
BRANCH  11  12
ATOM     12  C   UNL     1       4.187   3.372   0.025  1.00  0.00     0.126 C 
ATOM     13  C   UNL     1       4.771   4.777   0.128  1.00  0.00     0.104 C 
ATOM     14  C   UNL     1       4.423   2.718   1.380  1.00  0.00     0.176 C 
ATOM     15  C   UNL     1       4.215   5.560   1.307  1.00  0.00     0.165 C 
ATOM     16  C   UNL     1       3.863   3.428   2.547  1.00  0.00     0.030 A 
ATOM     17  O   UNL     1       5.000   1.649   1.534  1.00  0.00    -0.293 OA
ATOM     18  O   UNL     1       4.270   6.785   1.354  1.00  0.00    -0.294 OA
ATOM     19  C   UNL     1       3.663   4.804   2.460  1.00  0.00     0.028 A 
ATOM     20  C   UNL     1       3.404   2.705   3.651  1.00  0.00     0.012 A 
ATOM     21  C   UNL     1       2.921   5.454   3.450  1.00  0.00     0.012 A 
ATOM     22  C   UNL     1       2.626   3.346   4.611  1.00  0.00     0.001 A 
ATOM     23  C   UNL     1       2.373   4.715   4.501  1.00  0.00     0.001 A 
ENDBRANCH  11  12
ENDBRANCH  10  11
ENDBRANCH   9  10
ENDBRANCH   7   9
ENDBRANCH   6   7
ENDBRANCH   5   6
ENDBRANCH   4   5
ENDBRANCH   3   4
ENDBRANCH   2   3
ENDBRANCH   1   2
BRANCH   1  24
ATOM     24  O   UNL     1       2.621  -2.606   3.374  1.00  0.00    -0.377 OA
BRANCH  24  25
ATOM     25  C   UNL     1       3.548  -1.578   3.707  1.00  0.00     0.188 C 
BRANCH  25  26
ATOM     26  C   UNL     1       4.795  -1.519   2.797  1.00  0.00     0.188 C 
BRANCH  26  27
ATOM     27  O   UNL     1       5.685  -2.629   2.695  1.00  0.00    -0.376 OA
BRANCH  27  28
ATOM     28  C   UNL     1       5.184  -3.925   2.967  1.00  0.00     0.202 C 
BRANCH  28  29
ATOM     29  C   UNL     1       5.528  -4.368   4.396  1.00  0.00     0.261 C 
BRANCH  29  30
ATOM     30  O   UNL     1       5.289  -3.352   5.391  1.00  0.00    -0.460 OA
BRANCH  30  31
ATOM     31  C   UNL     1       6.307  -2.477   5.607  1.00  0.00     0.338 C 
ATOM     32  O   UNL     1       7.439  -2.545   5.152  1.00  0.00    -0.246 OA
BRANCH  31  33
ATOM     33  C   UNL     1       5.848  -1.326   6.437  1.00  0.00     0.060 A 
ATOM     34  C   UNL     1       4.833  -1.454   7.391  1.00  0.00     0.016 A 
ATOM     35  C   UNL     1       6.487  -0.087   6.279  1.00  0.00     0.016 A 
ATOM     36  C   UNL     1       4.515  -0.373   8.226  1.00  0.00     0.010 A 
ATOM     37  C   UNL     1       6.181   0.989   7.125  1.00  0.00     0.010 A 
ATOM     38  C   UNL     1       5.220   0.843   8.135  1.00  0.00    -0.014 A 
BRANCH  38  39
ATOM     39  C   UNL     1       5.112   1.829   9.246  1.00  0.00     0.031 A 
ATOM     40  C   UNL     1       4.364   3.120   9.145  1.00  0.00     0.074 A 
ATOM     41  C   UNL     1       5.737   1.542  10.404  1.00  0.00     0.049 A 
ATOM     42  N   UNL     1       3.952   3.911  10.106  1.00  0.00    -0.248 NA
ATOM     43  C   UNL     1       4.051   3.601   7.798  1.00  0.00     0.031 C 
ATOM     44  C   UNL     1       6.588   0.375  10.628  1.00  0.00     0.029 A 
ATOM     45  N   UNL     1       5.745   2.203  11.607  1.00  0.00    -0.354 N 
ATOM     46  C   UNL     1       3.260   4.939   9.484  1.00  0.00     0.074 A 
ATOM     47  C   UNL     1       3.386   4.721   8.059  1.00  0.00     0.031 C 
ATOM     48  C   UNL     1       7.010   0.382  11.900  1.00  0.00     0.029 A 
ATOM     49  C   UNL     1       6.461   1.553  12.579  1.00  0.00     0.049 A 
ATOM     50  H   UNL     1       5.283   3.059  11.757  1.00  0.00     0.167 HD
ATOM     51  C   UNL     1       2.570   5.959  10.049  1.00  0.00     0.037 A 
ATOM     52  C   UNL     1       6.638   1.848  13.880  1.00  0.00     0.037 A 
ATOM     53  C   UNL     1       2.552   6.248  11.460  1.00  0.00     0.049 A 
ATOM     54  C   UNL     1       5.948   3.040  14.479  1.00  0.00     0.074 A 
ATOM     55  C   UNL     1       1.834   7.220  12.137  1.00  0.00     0.029 A 
ATOM     56  N   UNL     1       3.340   5.607  12.403  1.00  0.00    -0.354 N 
ATOM     57  N   UNL     1       5.106   3.874  13.920  1.00  0.00    -0.248 NA
ATOM     58  C   UNL     1       6.224   3.323  15.895  1.00  0.00     0.031 C 
ATOM     59  C   UNL     1       2.246   7.218  13.474  1.00  0.00     0.029 A 
ATOM     60  C   UNL     1       3.179   6.207  13.642  1.00  0.00     0.049 A 
ATOM     61  H   UNL     1       3.927   4.839  12.220  1.00  0.00     0.167 HD
ATOM     62  C   UNL     1       4.737   4.768  14.917  1.00  0.00     0.074 A 
ATOM     63  C   UNL     1       5.438   4.368  16.119  1.00  0.00     0.031 C 
ATOM     64  C   UNL     1       3.889   5.822  14.835  1.00  0.00     0.037 A 
BRANCH  51  65
ATOM     65  C   UNL     1       1.745   6.832   9.149  1.00  0.00     0.064 A 
ATOM     66  C   UNL     1       0.552   6.351   8.587  1.00  0.00     0.173 A 
ATOM     67  C   UNL     1       2.079   8.175   8.927  1.00  0.00     0.173 A 
ATOM     68  F   UNL     1       0.189   5.072   8.765  1.00  0.00    -0.203 F 
ATOM     69  C   UNL     1      -0.272   7.181   7.831  1.00  0.00     0.198 A 
ATOM     70  C   UNL     1       1.244   9.008   8.184  1.00  0.00     0.198 A 
ATOM     71  F   UNL     1       3.204   8.686   9.448  1.00  0.00    -0.203 F 
ATOM     72  F   UNL     1      -1.395   6.692   7.288  1.00  0.00    -0.200 F 
ATOM     73  C   UNL     1       0.071   8.510   7.637  1.00  0.00     0.200 A 
ATOM     74  F   UNL     1       1.571  10.295   8.005  1.00  0.00    -0.200 F 
ATOM     75  F   UNL     1      -0.729   9.311   6.919  1.00  0.00    -0.200 F 
ENDBRANCH  51  65
BRANCH  52  76
ATOM     76  C   UNL     1       7.464   0.941  14.712  1.00  0.00     0.064 A 
ATOM     77  C   UNL     1       6.866   0.082  15.642  1.00  0.00     0.173 A 
ATOM     78  C   UNL     1       8.855   0.872  14.550  1.00  0.00     0.173 A 
ATOM     79  F   UNL     1       5.540   0.125  15.836  1.00  0.00    -0.203 F 
ATOM     80  C   UNL     1       7.630  -0.815  16.383  1.00  0.00     0.198 A 
ATOM     81  C   UNL     1       9.616  -0.041  15.275  1.00  0.00     0.198 A 
ATOM     82  F   UNL     1       9.468   1.670  13.664  1.00  0.00    -0.203 F 
ATOM     83  F   UNL     1       7.038  -1.615  17.280  1.00  0.00    -0.200 F 
ATOM     84  C   UNL     1       9.003  -0.882  16.192  1.00  0.00     0.200 A 
ATOM     85  F   UNL     1      10.939  -0.115  15.077  1.00  0.00    -0.200 F 
ATOM     86  F   UNL     1       9.736  -1.759  16.892  1.00  0.00    -0.200 F 
ENDBRANCH  52  76
BRANCH  64  87
ATOM     87  C   UNL     1       3.671   6.643  16.072  1.00  0.00     0.064 A 
ATOM     88  C   UNL     1       4.657   7.520  16.547  1.00  0.00     0.173 A 
ATOM     89  C   UNL     1       2.439   6.615  16.742  1.00  0.00     0.173 A 
ATOM     90  F   UNL     1       5.857   7.573  15.950  1.00  0.00    -0.203 F 
ATOM     91  C   UNL     1       4.419   8.335  17.651  1.00  0.00     0.198 A 
ATOM     92  C   UNL     1       2.195   7.450  17.830  1.00  0.00     0.198 A 
ATOM     93  F   UNL     1       1.461   5.797  16.325  1.00  0.00    -0.203 F 
ATOM     94  F   UNL     1       5.384   9.148  18.102  1.00  0.00    -0.200 F 
ATOM     95  C   UNL     1       3.185   8.308  18.284  1.00  0.00     0.200 A 
ATOM     96  F   UNL     1       0.998   7.432  18.431  1.00  0.00    -0.200 F 
ATOM     97  F   UNL     1       2.951   9.108  19.333  1.00  0.00    -0.200 F 
ENDBRANCH  64  87
ENDBRANCH  38  39
ENDBRANCH  31  33
ENDBRANCH  30  31
ENDBRANCH  29  30
ENDBRANCH  28  29
ENDBRANCH  27  28
ENDBRANCH  26  27
ENDBRANCH  25  26
ENDBRANCH  24  25
ENDBRANCH   1  24
TORSDOF 23
