REMARK SMILES C[C@@H]1[C@@H](C(=O)OCCOCCOCCOCCOC(=O)c2ccc(-c3c4nc(c(-c5c(F)c(F)c(F)c(F)c5F)c5ccc([nH]5)c(-c5c(F)c(F)c(F)c(F)c5F)c5nc(c(-c6c(F)c(F)c(F)c(F)c6F)c6ccc3[nH]6)C=C5)C=C4)cc2)CCN1C(=O)N[C@@H](C)Cc1ccco1
REMARK SMILES IDX 11 1 10 2 9 3 8 4 7 5 6 6 4 7 5 8 3 9 1 10 2 11 86 12 84 13
REMARK SMILES IDX 85 14 87 15 88 16 89 17 90 19 91 20 92 21 93 22 94 23 97 24
REMARK SMILES IDX 95 25 96 26 12 27 13 28 14 29 15 30 16 31 17 32 18 33 19 34
REMARK SMILES IDX 20 35 21 36 22 37 83 38 23 39 82 40 24 41 25 42 26 43 76 44
REMARK SMILES IDX 27 45 81 46 75 47 77 48 28 49 80 50 74 51 73 52 29 54 61 55
REMARK SMILES IDX 41 56 60 57 42 58 45 59 59 60 78 61 43 62 44 63 58 65 79 66
REMARK SMILES IDX 46 67 30 68 31 69 39 70 32 71 33 72 37 73 40 74 34 75 35 76
REMARK SMILES IDX 38 77 36 78 62 79 63 80 71 81 64 82 65 83 69 84 72 85 66 86
REMARK SMILES IDX 67 87 70 88 68 89 47 90 48 91 56 92 49 93 50 94 54 95 57 96
REMARK SMILES IDX 51 97 52 98 55 99 53 100
REMARK H PARENT 89 18 77 53 45 64
REMARK Flexibility Score: inf
ROOT
ATOM      1  C   UNL     1       0.354   3.231  -2.268  1.00  0.00     0.188 C 
ENDROOT
BRANCH   1   2
ATOM      2  C   UNL     1       0.465   2.096  -3.299  1.00  0.00     0.188 C 
BRANCH   2   3
ATOM      3  O   UNL     1      -0.332   2.272  -4.453  1.00  0.00    -0.376 OA
BRANCH   3   4
ATOM      4  C   UNL     1      -1.653   1.766  -4.553  1.00  0.00     0.202 C 
BRANCH   4   5
ATOM      5  C   UNL     1      -2.611   1.487  -3.381  1.00  0.00     0.261 C 
BRANCH   5   6
ATOM      6  O   UNL     1      -2.064   1.522  -2.068  1.00  0.00    -0.463 OA
BRANCH   6   7
ATOM      7  C   UNL     1      -1.655   0.337  -1.558  1.00  0.00     0.311 C 
ATOM      8  O   UNL     1      -1.800  -0.740  -2.117  1.00  0.00    -0.252 OA
BRANCH   7   9
ATOM      9  C   UNL     1      -0.946   0.565  -0.231  1.00  0.00     0.123 C 
ATOM     10  C   UNL     1       1.386   0.349   0.759  1.00  0.00     0.032 C 
ATOM     11  C   UNL     1       0.355  -0.246  -0.207  1.00  0.00     0.098 C 
ATOM     12  N   UNL     1      -0.076  -1.568   0.239  1.00  0.00    -0.321 N 
ATOM     13  C   UNL     1      -1.747  -0.005   0.923  1.00  0.00     0.039 C 
ATOM     14  C   UNL     1      -1.393  -1.483   0.871  1.00  0.00     0.122 C 
BRANCH  12  15
ATOM     15  C   UNL     1       0.371  -2.801  -0.117  1.00  0.00     0.317 C 
ATOM     16  O   UNL     1      -0.259  -3.820   0.191  1.00  0.00    -0.249 OA
ATOM     17  N   UNL     1       1.490  -3.014  -0.828  1.00  0.00    -0.335 N 
ATOM     18  H   UNL     1       1.554  -3.951  -1.123  1.00  0.00     0.165 HD
BRANCH  17  19
ATOM     19  C   UNL     1       2.643  -2.232  -1.285  1.00  0.00     0.088 C 
ATOM     20  C   UNL     1       3.854  -2.624  -0.435  1.00  0.00     0.031 C 
BRANCH  19  21
ATOM     21  C   UNL     1       2.961  -2.475  -2.774  1.00  0.00     0.100 C 
BRANCH  21  22
ATOM     22  C   UNL     1       1.816  -2.204  -3.680  1.00  0.00     0.105 A 
ATOM     23  C   UNL     1       0.768  -2.980  -4.130  1.00  0.00     0.045 A 
ATOM     24  O   UNL     1       1.761  -0.967  -4.248  1.00  0.00    -0.469 OA
ATOM     25  C   UNL     1       0.024  -2.170  -5.019  1.00  0.00     0.042 A 
ATOM     26  C   UNL     1       0.679  -0.964  -5.070  1.00  0.00     0.195 A 
ENDBRANCH  21  22
ENDBRANCH  19  21
ENDBRANCH  17  19
ENDBRANCH  12  15
ENDBRANCH   7   9
ENDBRANCH   6   7
ENDBRANCH   5   6
ENDBRANCH   4   5
ENDBRANCH   3   4
ENDBRANCH   2   3
ENDBRANCH   1   2
BRANCH   1  27
ATOM     27  O   UNL     1      -0.889   3.907  -2.271  1.00  0.00    -0.377 OA
BRANCH  27  28
ATOM     28  C   UNL     1      -1.139   4.879  -3.284  1.00  0.00     0.188 C 
BRANCH  28  29
ATOM     29  C   UNL     1      -0.206   5.075  -4.504  1.00  0.00     0.188 C 
BRANCH  29  30
ATOM     30  O   UNL     1       1.176   4.883  -4.241  1.00  0.00    -0.376 OA
BRANCH  30  31
ATOM     31  C   UNL     1       1.991   6.038  -4.119  1.00  0.00     0.202 C 
BRANCH  31  32
ATOM     32  C   UNL     1       1.744   6.898  -2.872  1.00  0.00     0.261 C 
BRANCH  32  33
ATOM     33  O   UNL     1       0.421   7.446  -2.744  1.00  0.00    -0.460 OA
BRANCH  33  34
ATOM     34  C   UNL     1      -0.018   8.258  -3.729  1.00  0.00     0.338 C 
ATOM     35  O   UNL     1       0.606   8.643  -4.703  1.00  0.00    -0.246 OA
BRANCH  34  36
ATOM     36  C   UNL     1      -1.471   8.450  -3.541  1.00  0.00     0.060 A 
ATOM     37  C   UNL     1      -2.343   8.088  -4.577  1.00  0.00     0.016 A 
ATOM     38  C   UNL     1      -1.970   8.975  -2.347  1.00  0.00     0.016 A 
ATOM     39  C   UNL     1      -3.716   8.290  -4.437  1.00  0.00     0.010 A 
ATOM     40  C   UNL     1      -3.343   9.198  -2.217  1.00  0.00     0.010 A 
ATOM     41  C   UNL     1      -4.217   8.893  -3.276  1.00  0.00    -0.014 A 
BRANCH  41  42
ATOM     42  C   UNL     1      -5.608   9.407  -3.256  1.00  0.00     0.031 A 
ATOM     43  C   UNL     1      -5.828  10.862  -3.566  1.00  0.00     0.074 A 
ATOM     44  C   UNL     1      -6.655   8.606  -2.991  1.00  0.00     0.049 A 
ATOM     45  N   UNL     1      -6.935  11.560  -3.559  1.00  0.00    -0.248 NA
ATOM     46  C   UNL     1      -4.630  11.637  -3.931  1.00  0.00     0.031 C 
ATOM     47  C   UNL     1      -6.578   7.173  -2.721  1.00  0.00     0.029 A 
ATOM     48  N   UNL     1      -7.994   8.898  -2.897  1.00  0.00    -0.354 N 
ATOM     49  C   UNL     1      -6.566  12.852  -3.911  1.00  0.00     0.074 A 
ATOM     50  C   UNL     1      -5.131  12.852  -4.091  1.00  0.00     0.031 C 
ATOM     51  C   UNL     1      -7.817   6.710  -2.477  1.00  0.00     0.029 A 
ATOM     52  C   UNL     1      -8.767   7.821  -2.540  1.00  0.00     0.049 A 
ATOM     53  H   UNL     1      -8.364   9.793  -3.069  1.00  0.00     0.167 HD
ATOM     54  C   UNL     1      -7.354  13.940  -4.077  1.00  0.00     0.037 A 
ATOM     55  C   UNL     1     -10.086   7.751  -2.271  1.00  0.00     0.037 A 
ATOM     56  C   UNL     1      -8.781  13.940  -3.893  1.00  0.00     0.049 A 
ATOM     57  C   UNL     1     -10.932   8.997  -2.382  1.00  0.00     0.074 A 
ATOM     58  C   UNL     1      -9.671  14.987  -4.050  1.00  0.00     0.029 A 
ATOM     59  N   UNL     1      -9.524  12.837  -3.498  1.00  0.00    -0.354 N 
ATOM     60  N   UNL     1     -10.582  10.209  -2.740  1.00  0.00    -0.248 NA
ATOM     61  C   UNL     1     -12.359   8.862  -2.053  1.00  0.00     0.031 C 
ATOM     62  C   UNL     1     -10.945  14.534  -3.693  1.00  0.00     0.029 A 
ATOM     63  C   UNL     1     -10.860  13.187  -3.379  1.00  0.00     0.049 A 
ATOM     64  H   UNL     1      -9.158  11.939  -3.329  1.00  0.00     0.167 HD
ATOM     65  C   UNL     1     -11.746  10.969  -2.713  1.00  0.00     0.074 A 
ATOM     66  C   UNL     1     -12.816  10.078  -2.316  1.00  0.00     0.031 C 
ATOM     67  C   UNL     1     -11.916  12.285  -2.994  1.00  0.00     0.037 A 
BRANCH  54  68
ATOM     68  C   UNL     1      -6.683  15.231  -4.449  1.00  0.00     0.064 A 
ATOM     69  C   UNL     1      -6.110  15.431  -5.714  1.00  0.00     0.173 A 
ATOM     70  C   UNL     1      -6.637  16.293  -3.533  1.00  0.00     0.173 A 
ATOM     71  F   UNL     1      -6.112  14.441  -6.620  1.00  0.00    -0.203 F 
ATOM     72  C   UNL     1      -5.493  16.636  -6.039  1.00  0.00     0.198 A 
ATOM     73  C   UNL     1      -6.049  17.508  -3.873  1.00  0.00     0.198 A 
ATOM     74  F   UNL     1      -7.171  16.156  -2.310  1.00  0.00    -0.203 F 
ATOM     75  F   UNL     1      -4.907  16.785  -7.235  1.00  0.00    -0.200 F 
ATOM     76  C   UNL     1      -5.470  17.676  -5.122  1.00  0.00     0.200 A 
ATOM     77  F   UNL     1      -6.039  18.516  -2.990  1.00  0.00    -0.200 F 
ATOM     78  F   UNL     1      -4.883  18.838  -5.439  1.00  0.00    -0.200 F 
ENDBRANCH  54  68
BRANCH  55  79
ATOM     79  C   UNL     1     -10.697   6.460  -1.853  1.00  0.00     0.064 A 
ATOM     80  C   UNL     1     -11.632   5.804  -2.666  1.00  0.00     0.173 A 
ATOM     81  C   UNL     1     -10.386   5.875  -0.617  1.00  0.00     0.173 A 
ATOM     82  F   UNL     1     -11.986   6.337  -3.845  1.00  0.00    -0.203 F 
ATOM     83  C   UNL     1     -12.248   4.625  -2.249  1.00  0.00     0.198 A 
ATOM     84  C   UNL     1     -10.978   4.679  -0.215  1.00  0.00     0.198 A 
ATOM     85  F   UNL     1      -9.502   6.463   0.202  1.00  0.00    -0.203 F 
ATOM     86  F   UNL     1     -13.180   4.049  -3.021  1.00  0.00    -0.200 F 
ATOM     87  C   UNL     1     -11.917   4.061  -1.026  1.00  0.00     0.200 A 
ATOM     88  F   UNL     1     -10.646   4.132   0.962  1.00  0.00    -0.200 F 
ATOM     89  F   UNL     1     -12.509   2.927  -0.626  1.00  0.00    -0.200 F 
ENDBRANCH  55  79
BRANCH  67  90
ATOM     90  C   UNL     1     -13.313  12.836  -2.932  1.00  0.00     0.064 A 
ATOM     91  C   UNL     1     -13.991  13.004  -1.715  1.00  0.00     0.173 A 
ATOM     92  C   UNL     1     -13.965  13.245  -4.106  1.00  0.00     0.173 A 
ATOM     93  F   UNL     1     -13.419  12.619  -0.565  1.00  0.00    -0.203 F 
ATOM     94  C   UNL     1     -15.279  13.533  -1.680  1.00  0.00     0.198 A 
ATOM     95  C   UNL     1     -15.239  13.805  -4.064  1.00  0.00     0.198 A 
ATOM     96  F   UNL     1     -13.359  13.116  -5.296  1.00  0.00    -0.203 F 
ATOM     97  F   UNL     1     -15.927  13.635  -0.511  1.00  0.00    -0.200 F 
ATOM     98  C   UNL     1     -15.898  13.941  -2.852  1.00  0.00     0.200 A 
ATOM     99  F   UNL     1     -15.827  14.216  -5.196  1.00  0.00    -0.200 F 
ATOM    100  F   UNL     1     -17.134  14.458  -2.815  1.00  0.00    -0.200 F 
ENDBRANCH  67  90
ENDBRANCH  41  42
ENDBRANCH  34  36
ENDBRANCH  33  34
ENDBRANCH  32  33
ENDBRANCH  31  32
ENDBRANCH  30  31
ENDBRANCH  29  30
ENDBRANCH  28  29
ENDBRANCH  27  28
ENDBRANCH   1  27
TORSDOF 24
