REMARK SMILES [N-]=[N+]=NC[C@@H](Nc1ccccc1Br)C(=O)OCCOCCOCCOCCOC(=O)c1ccc(-c2c3nc(c(-c4c(F)c(F)c(F)c(F)c4F)c4ccc([nH]4)c(-c4c(F)c(F)c(F)c(F)c4F)c4nc(c(-c5c(F)c(F)c(F)c(F)c5F)c5ccc2[nH]5)C=C4)C=C3)cc1
REMARK SMILES IDX 22 1 21 2 20 3 19 4 18 5 17 6 16 7 14 8 15 9 5 10 4 11 3 12
REMARK SMILES IDX 1 13 2 14 6 15 7 17 8 18 12 19 9 20 11 21 13 22 10 23 23 24
REMARK SMILES IDX 24 25 25 26 26 27 27 28 28 29 29 30 30 31 31 32 32 33 93 34
REMARK SMILES IDX 33 35 92 36 34 37 35 38 36 39 86 40 37 41 91 42 85 43 87 44
REMARK SMILES IDX 38 45 90 46 84 47 83 48 39 50 71 51 51 52 70 53 52 54 55 55
REMARK SMILES IDX 69 56 88 57 53 58 54 59 68 61 89 62 56 63 40 64 41 65 49 66
REMARK SMILES IDX 42 67 43 68 47 69 50 70 44 71 45 72 48 73 46 74 72 75 73 76
REMARK SMILES IDX 81 77 74 78 75 79 79 80 82 81 76 82 77 83 80 84 78 85 57 86
REMARK SMILES IDX 58 87 66 88 59 89 60 90 64 91 67 92 61 93 62 94 65 95 63 96
REMARK H PARENT 6 16 87 49 55 60
REMARK Flexibility Score: inf
ROOT
ATOM      1  O   UNL     1       6.294   2.599   2.166  1.00  0.00    -0.377 OA
ENDROOT
BRANCH   1   2
ATOM      2  C   UNL     1       6.698   2.518   0.813  1.00  0.00     0.188 C 
BRANCH   2   3
ATOM      3  C   UNL     1       6.986   3.861   0.129  1.00  0.00     0.188 C 
BRANCH   3   4
ATOM      4  O   UNL     1       7.153   5.024   0.908  1.00  0.00    -0.376 OA
BRANCH   4   5
ATOM      5  C   UNL     1       6.192   5.554   1.798  1.00  0.00     0.202 C 
BRANCH   5   6
ATOM      6  C   UNL     1       4.691   5.226   1.902  1.00  0.00     0.261 C 
BRANCH   6   7
ATOM      7  O   UNL     1       4.179   3.963   1.476  1.00  0.00    -0.462 OA
BRANCH   7   8
ATOM      8  C   UNL     1       3.851   3.908   0.160  1.00  0.00     0.328 C 
ATOM      9  O   UNL     1       4.173   4.774  -0.648  1.00  0.00    -0.250 OA
BRANCH   8  10
ATOM     10  C   UNL     1       2.947   2.710  -0.198  1.00  0.00     0.195 C 
BRANCH  10  11
ATOM     11  C   UNL     1       3.133   1.478   0.717  1.00  0.00     0.127 C 
BRANCH  11  12
ATOM     12  N   UNL     1       2.753   0.238  -0.002  1.00  0.00    -0.091 NA
ATOM     13  N   UNL     1       0.479  -0.433   0.227  1.00  0.00    -0.003 NA
ATOM     14  N   UNL     1       1.575  -0.126   0.119  1.00  0.00     0.001 N 
ENDBRANCH  11  12
ENDBRANCH  10  11
BRANCH  10  15
ATOM     15  N   UNL     1       1.497   3.078  -0.292  1.00  0.00    -0.371 N 
ATOM     16  H   UNL     1       0.866   2.572  -0.853  1.00  0.00     0.161 HD
BRANCH  15  17
ATOM     17  C   UNL     1       1.091   4.186   0.466  1.00  0.00     0.049 A 
ATOM     18  C   UNL     1       0.732   3.990   1.806  1.00  0.00     0.027 A 
ATOM     19  C   UNL     1       1.240   5.508  -0.000  1.00  0.00     0.041 A 
ATOM     20  C   UNL     1       0.633   5.072   2.682  1.00  0.00     0.002 A 
ATOM     21  C   UNL     1       1.189   6.585   0.886  1.00  0.00     0.018 A 
ATOM     22  Br  UNL     1       1.494   5.891  -1.849  1.00  0.00    -0.049 Br
ATOM     23  C   UNL     1       0.903   6.363   2.232  1.00  0.00     0.001 A 
ENDBRANCH  15  17
ENDBRANCH  10  15
ENDBRANCH   8  10
ENDBRANCH   7   8
ENDBRANCH   6   7
ENDBRANCH   5   6
ENDBRANCH   4   5
ENDBRANCH   3   4
ENDBRANCH   2   3
ENDBRANCH   1   2
BRANCH   1  24
ATOM     24  C   UNL     1       7.295   2.771   3.165  1.00  0.00     0.188 C 
BRANCH  24  25
ATOM     25  C   UNL     1       8.705   3.281   2.792  1.00  0.00     0.188 C 
BRANCH  25  26
ATOM     26  O   UNL     1       9.207   2.783   1.565  1.00  0.00    -0.376 OA
BRANCH  26  27
ATOM     27  C   UNL     1      10.067   1.657   1.554  1.00  0.00     0.202 C 
BRANCH  27  28
ATOM     28  C   UNL     1       9.572   0.343   2.177  1.00  0.00     0.261 C 
BRANCH  28  29
ATOM     29  O   UNL     1       9.112   0.408   3.535  1.00  0.00    -0.460 OA
BRANCH  29  30
ATOM     30  C   UNL     1       9.987   0.822   4.475  1.00  0.00     0.338 C 
ATOM     31  O   UNL     1      11.161   1.099   4.321  1.00  0.00    -0.246 OA
BRANCH  30  32
ATOM     32  C   UNL     1       9.219   1.082   5.712  1.00  0.00     0.060 A 
ATOM     33  C   UNL     1       9.228   2.373   6.259  1.00  0.00     0.016 A 
ATOM     34  C   UNL     1       8.497   0.058   6.329  1.00  0.00     0.016 A 
ATOM     35  C   UNL     1       8.552   2.633   7.450  1.00  0.00     0.010 A 
ATOM     36  C   UNL     1       7.843   0.312   7.537  1.00  0.00     0.010 A 
ATOM     37  C   UNL     1       7.904   1.590   8.122  1.00  0.00    -0.014 A 
BRANCH  37  38
ATOM     38  C   UNL     1       7.493   1.778   9.534  1.00  0.00     0.031 A 
ATOM     39  C   UNL     1       8.412   1.270  10.611  1.00  0.00     0.074 A 
ATOM     40  C   UNL     1       6.352   2.409   9.857  1.00  0.00     0.049 A 
ATOM     41  N   UNL     1       8.251   1.256  11.909  1.00  0.00    -0.248 NA
ATOM     42  C   UNL     1       9.689   0.695  10.156  1.00  0.00     0.031 C 
ATOM     43  C   UNL     1       5.412   2.996   8.907  1.00  0.00     0.029 A 
ATOM     44  N   UNL     1       5.790   2.652  11.086  1.00  0.00    -0.354 N 
ATOM     45  C   UNL     1       9.398   0.663  12.422  1.00  0.00     0.074 A 
ATOM     46  C   UNL     1      10.230   0.299  11.297  1.00  0.00     0.031 C 
ATOM     47  C   UNL     1       4.378   3.521   9.588  1.00  0.00     0.029 A 
ATOM     48  C   UNL     1       4.566   3.271  11.017  1.00  0.00     0.049 A 
ATOM     49  H   UNL     1       6.223   2.407  11.935  1.00  0.00     0.167 HD
ATOM     50  C   UNL     1       9.729   0.450  13.717  1.00  0.00     0.037 A 
ATOM     51  C   UNL     1       3.691   3.572  11.996  1.00  0.00     0.037 A 
ATOM     52  C   UNL     1       8.893   0.810  14.832  1.00  0.00     0.049 A 
ATOM     53  C   UNL     1       4.041   3.238  13.426  1.00  0.00     0.074 A 
ATOM     54  C   UNL     1       9.139   0.646  16.183  1.00  0.00     0.029 A 
ATOM     55  N   UNL     1       7.641   1.398  14.720  1.00  0.00    -0.354 N 
ATOM     56  N   UNL     1       5.132   2.693  13.909  1.00  0.00    -0.248 NA
ATOM     57  C   UNL     1       3.036   3.565  14.447  1.00  0.00     0.031 C 
ATOM     58  C   UNL     1       8.007   1.071  16.886  1.00  0.00     0.029 A 
ATOM     59  C   UNL     1       7.088   1.573  15.979  1.00  0.00     0.049 A 
ATOM     60  H   UNL     1       7.210   1.653  13.873  1.00  0.00     0.167 HD
ATOM     61  C   UNL     1       4.961   2.646  15.288  1.00  0.00     0.074 A 
ATOM     62  C   UNL     1       3.666   3.231  15.565  1.00  0.00     0.031 C 
ATOM     63  C   UNL     1       5.800   2.166  16.239  1.00  0.00     0.037 A 
BRANCH  50  64
ATOM     64  C   UNL     1      11.035  -0.240  13.995  1.00  0.00     0.064 A 
ATOM     65  C   UNL     1      12.270   0.377  13.742  1.00  0.00     0.173 A 
ATOM     66  C   UNL     1      11.050  -1.531  14.545  1.00  0.00     0.173 A 
ATOM     67  F   UNL     1      12.315   1.604  13.202  1.00  0.00    -0.203 F 
ATOM     68  C   UNL     1      13.469  -0.285  13.999  1.00  0.00     0.198 A 
ATOM     69  C   UNL     1      12.249  -2.175  14.835  1.00  0.00     0.198 A 
ATOM     70  F   UNL     1       9.899  -2.167  14.809  1.00  0.00    -0.203 F 
ATOM     71  F   UNL     1      14.634   0.301  13.695  1.00  0.00    -0.200 F 
ATOM     72  C   UNL     1      13.457  -1.556  14.553  1.00  0.00     0.200 A 
ATOM     73  F   UNL     1      12.235  -3.398  15.384  1.00  0.00    -0.200 F 
ATOM     74  F   UNL     1      14.611  -2.189  14.807  1.00  0.00    -0.200 F 
ENDBRANCH  50  64
BRANCH  51  75
ATOM     75  C   UNL     1       2.388   4.210  11.664  1.00  0.00     0.064 A 
ATOM     76  C   UNL     1       2.087   5.510  12.094  1.00  0.00     0.173 A 
ATOM     77  C   UNL     1       1.406   3.523  10.934  1.00  0.00     0.173 A 
ATOM     78  F   UNL     1       2.982   6.200  12.816  1.00  0.00    -0.203 F 
ATOM     79  C   UNL     1       0.847   6.088  11.829  1.00  0.00     0.198 A 
ATOM     80  C   UNL     1       0.180   4.115  10.640  1.00  0.00     0.198 A 
ATOM     81  F   UNL     1       1.640   2.276  10.500  1.00  0.00    -0.203 F 
ATOM     82  F   UNL     1       0.566   7.311  12.300  1.00  0.00    -0.200 F 
ATOM     83  C   UNL     1      -0.103   5.393  11.096  1.00  0.00     0.200 A 
ATOM     84  F   UNL     1      -0.729   3.446   9.917  1.00  0.00    -0.200 F 
ATOM     85  F   UNL     1      -1.293   5.951  10.837  1.00  0.00    -0.200 F 
ENDBRANCH  51  75
BRANCH  63  86
ATOM     86  C   UNL     1       5.372   2.298  17.675  1.00  0.00     0.064 A 
ATOM     87  C   UNL     1       4.309   1.553  18.206  1.00  0.00     0.173 A 
ATOM     88  C   UNL     1       6.067   3.155  18.544  1.00  0.00     0.173 A 
ATOM     89  F   UNL     1       3.603   0.728  17.418  1.00  0.00    -0.203 F 
ATOM     90  C   UNL     1       3.937   1.685  19.542  1.00  0.00     0.198 A 
ATOM     91  C   UNL     1       5.719   3.255  19.888  1.00  0.00     0.198 A 
ATOM     92  F   UNL     1       7.099   3.884  18.093  1.00  0.00    -0.203 F 
ATOM     93  F   UNL     1       2.882   1.006  20.012  1.00  0.00    -0.200 F 
ATOM     94  C   UNL     1       4.648   2.528  20.383  1.00  0.00     0.200 A 
ATOM     95  F   UNL     1       6.420   4.055  20.703  1.00  0.00    -0.200 F 
ATOM     96  F   UNL     1       4.295   2.646  21.671  1.00  0.00    -0.200 F 
ENDBRANCH  63  86
ENDBRANCH  37  38
ENDBRANCH  30  32
ENDBRANCH  29  30
ENDBRANCH  28  29
ENDBRANCH  27  28
ENDBRANCH  26  27
ENDBRANCH  25  26
ENDBRANCH  24  25
ENDBRANCH   1  24
TORSDOF 24
