REMARK SMILES Cc1ccc(S(=O)(=O)n2cc(C(=O)C(=O)NCC(=O)OCCOCCOCCOCCOC(=O)c3ccc(-c4c5nc(c(-c6c(F)c(F)c(F)c(F)c6F)c6ccc([nH]6)c(-c6c(F)c(F)c(F)c(F)c6F)c6nc(c(-c7c(F)c(F)c(F)c(F)c7F)c7ccc4[nH]7)C=C6)C=C5)cc3)c3ccccc32)cc1
REMARK SMILES IDX 24 1 23 2 22 3 21 4 20 5 18 6 19 7 17 8 16 9 14 10 15 11
REMARK SMILES IDX 12 13 13 14 11 15 9 16 10 17 103 18 98 19 102 20 99 21
REMARK SMILES IDX 101 22 100 23 6 24 7 25 8 26 5 27 1 28 2 29 3 30 105 31 4 32
REMARK SMILES IDX 104 33 25 34 26 35 27 36 28 37 29 38 30 39 31 40 32 41 33 42
REMARK SMILES IDX 34 43 35 44 36 45 97 46 37 47 96 48 38 49 39 50 40 51 90 52
REMARK SMILES IDX 41 53 95 54 89 55 91 56 42 57 94 58 88 59 87 60 43 62 75 63
REMARK SMILES IDX 55 64 74 65 56 66 59 67 73 68 92 69 57 70 58 71 72 73 93 74
REMARK SMILES IDX 60 75 44 76 45 77 53 78 46 79 47 80 51 81 54 82 48 83 49 84
REMARK SMILES IDX 52 85 50 86 76 87 77 88 85 89 78 90 79 91 83 92 86 93 80 94
REMARK SMILES IDX 81 95 84 96 82 97 61 98 62 99 70 100 63 101 64 102 68 103
REMARK SMILES IDX 71 104 65 105 66 106 69 107 67 108
REMARK H PARENT 16 12 91 61 59 72
REMARK Flexibility Score: inf
ROOT
ATOM      1  C   UNL     1      -8.608   6.241   5.886  1.00  0.00     0.188 C 
ENDROOT
BRANCH   1   2
ATOM      2  O   UNL     1      -9.820   6.973   5.746  1.00  0.00    -0.376 OA
BRANCH   2   3
ATOM      3  C   UNL     1     -10.157   7.374   4.419  1.00  0.00     0.202 C 
BRANCH   3   4
ATOM      4  C   UNL     1      -9.136   8.265   3.717  1.00  0.00     0.261 C 
BRANCH   4   5
ATOM      5  O   UNL     1      -8.026   7.465   3.279  1.00  0.00    -0.462 OA
BRANCH   5   6
ATOM      6  C   UNL     1      -6.806   8.043   3.360  1.00  0.00     0.325 C 
ATOM      7  O   UNL     1      -6.604   9.233   3.578  1.00  0.00    -0.250 OA
BRANCH   6   8
ATOM      8  C   UNL     1      -5.676   7.024   3.181  1.00  0.00     0.239 C 
BRANCH   8   9
ATOM      9  N   UNL     1      -6.036   5.620   3.389  1.00  0.00    -0.338 N 
ATOM     10  C   UNL     1      -6.102   4.542   2.543  1.00  0.00     0.292 C 
ATOM     11  O   UNL     1      -6.425   3.440   2.976  1.00  0.00    -0.265 OA
ATOM     12  H   UNL     1      -6.278   5.408   4.320  1.00  0.00     0.164 HD
BRANCH  10  13
ATOM     13  C   UNL     1      -5.701   4.698   1.077  1.00  0.00     0.252 C 
ATOM     14  O   UNL     1      -5.954   5.774   0.538  1.00  0.00    -0.283 OA
BRANCH  13  15
ATOM     15  C   UNL     1      -5.006   3.625   0.351  1.00  0.00     0.054 A 
ATOM     16  N   UNL     1      -4.112   1.666  -0.262  1.00  0.00    -0.240 N 
ATOM     17  C   UNL     1      -4.801   2.309   0.741  1.00  0.00     0.117 A 
ATOM     18  C   UNL     1      -3.828   2.528  -1.300  1.00  0.00     0.065 A 
ATOM     19  C   UNL     1      -4.372   3.765  -0.931  1.00  0.00     0.012 A 
ATOM     20  C   UNL     1      -3.122   2.362  -2.505  1.00  0.00     0.028 A 
ATOM     21  C   UNL     1      -4.202   4.864  -1.800  1.00  0.00     0.011 A 
ATOM     22  C   UNL     1      -2.949   3.478  -3.329  1.00  0.00     0.002 A 
ATOM     23  C   UNL     1      -3.482   4.714  -2.984  1.00  0.00     0.001 A 
BRANCH  16  24
ATOM     24  S   UNL     1      -3.568   0.050  -0.153  1.00  0.00     0.268 S 
ATOM     25  O   UNL     1      -3.896  -0.544  -1.446  1.00  0.00    -0.201 OA
ATOM     26  O   UNL     1      -4.092  -0.470   1.085  1.00  0.00    -0.201 OA
BRANCH  24  27
ATOM     27  C   UNL     1      -1.797   0.078  -0.016  1.00  0.00     0.088 A 
ATOM     28  C   UNL     1       2.506  -0.054   0.026  1.00  0.00     0.044 C 
ATOM     29  C   UNL     1       1.005  -0.006   0.036  1.00  0.00    -0.051 A 
ATOM     30  C   UNL     1       0.265  -1.192  -0.041  1.00  0.00     0.005 A 
ATOM     31  C   UNL     1       0.328   1.216   0.121  1.00  0.00     0.005 A 
ATOM     32  C   UNL     1      -1.131  -1.153  -0.074  1.00  0.00     0.022 A 
ATOM     33  C   UNL     1      -1.069   1.262   0.108  1.00  0.00     0.022 A 
ENDBRANCH  24  27
ENDBRANCH  16  24
ENDBRANCH  13  15
ENDBRANCH  10  13
ENDBRANCH   8   9
ENDBRANCH   6   8
ENDBRANCH   5   6
ENDBRANCH   4   5
ENDBRANCH   3   4
ENDBRANCH   2   3
ENDBRANCH   1   2
BRANCH   1  34
ATOM     34  C   UNL     1      -8.585   4.767   5.452  1.00  0.00     0.188 C 
BRANCH  34  35
ATOM     35  O   UNL     1      -9.018   4.529   4.128  1.00  0.00    -0.377 OA
BRANCH  35  36
ATOM     36  C   UNL     1     -10.110   3.628   3.927  1.00  0.00     0.188 C 
BRANCH  36  37
ATOM     37  C   UNL     1     -10.841   3.027   5.123  1.00  0.00     0.188 C 
BRANCH  37  38
ATOM     38  O   UNL     1     -11.335   4.102   5.919  1.00  0.00    -0.376 OA
BRANCH  38  39
ATOM     39  C   UNL     1     -11.440   3.849   7.316  1.00  0.00     0.202 C 
BRANCH  39  40
ATOM     40  C   UNL     1     -12.417   2.722   7.649  1.00  0.00     0.261 C 
BRANCH  40  41
ATOM     41  O   UNL     1     -13.750   3.128   7.272  1.00  0.00    -0.460 OA
BRANCH  41  42
ATOM     42  C   UNL     1     -14.201   2.603   6.100  1.00  0.00     0.338 C 
ATOM     43  O   UNL     1     -14.225   1.412   5.833  1.00  0.00    -0.246 OA
BRANCH  42  44
ATOM     44  C   UNL     1     -14.383   3.683   5.081  1.00  0.00     0.060 A 
ATOM     45  C   UNL     1     -14.604   3.348   3.734  1.00  0.00     0.016 A 
ATOM     46  C   UNL     1     -13.959   4.964   5.397  1.00  0.00     0.016 A 
ATOM     47  C   UNL     1     -14.200   4.220   2.705  1.00  0.00     0.010 A 
ATOM     48  C   UNL     1     -13.434   5.744   4.385  1.00  0.00     0.010 A 
ATOM     49  C   UNL     1     -13.506   5.383   3.025  1.00  0.00    -0.014 A 
BRANCH  49  50
ATOM     50  C   UNL     1     -12.712   6.242   2.109  1.00  0.00     0.031 A 
ATOM     51  C   UNL     1     -12.828   7.737   2.284  1.00  0.00     0.074 A 
ATOM     52  C   UNL     1     -11.652   5.726   1.425  1.00  0.00     0.049 A 
ATOM     53  N   UNL     1     -12.018   8.617   1.804  1.00  0.00    -0.248 NA
ATOM     54  C   UNL     1     -13.889   8.370   3.070  1.00  0.00     0.031 C 
ATOM     55  C   UNL     1     -10.379   6.410   1.170  1.00  0.00     0.029 A 
ATOM     56  N   UNL     1     -11.417   4.455   0.883  1.00  0.00    -0.354 N 
ATOM     57  C   UNL     1     -12.281   9.854   2.368  1.00  0.00     0.074 A 
ATOM     58  C   UNL     1     -13.477   9.642   3.138  1.00  0.00     0.031 C 
ATOM     59  C   UNL     1      -9.544   5.647   0.458  1.00  0.00     0.029 A 
ATOM     60  C   UNL     1     -10.338   4.563  -0.035  1.00  0.00     0.049 A 
ATOM     61  H   UNL     1     -11.912   3.632   1.100  1.00  0.00     0.167 HD
ATOM     62  C   UNL     1     -11.392  10.874   2.151  1.00  0.00     0.037 A 
ATOM     63  C   UNL     1     -10.524   4.351  -1.372  1.00  0.00     0.037 A 
ATOM     64  C   UNL     1     -10.446  10.500   1.087  1.00  0.00     0.049 A 
ATOM     65  C   UNL     1     -10.407   5.642  -2.173  1.00  0.00     0.074 A 
ATOM     66  C   UNL     1      -9.070  10.380   0.984  1.00  0.00     0.029 A 
ATOM     67  N   UNL     1     -10.961   9.986  -0.103  1.00  0.00    -0.354 N 
ATOM     68  N   UNL     1     -10.586   6.837  -1.655  1.00  0.00    -0.248 NA
ATOM     69  C   UNL     1      -9.959   5.715  -3.561  1.00  0.00     0.031 C 
ATOM     70  C   UNL     1      -8.774   9.719  -0.242  1.00  0.00     0.029 A 
ATOM     71  C   UNL     1      -9.964   9.517  -0.923  1.00  0.00     0.049 A 
ATOM     72  H   UNL     1     -11.920   9.962  -0.327  1.00  0.00     0.167 HD
ATOM     73  C   UNL     1     -10.251   7.801  -2.571  1.00  0.00     0.074 A 
ATOM     74  C   UNL     1      -9.881   7.046  -3.752  1.00  0.00     0.031 C 
ATOM     75  C   UNL     1     -10.265   9.141  -2.294  1.00  0.00     0.037 A 
BRANCH  62  76
ATOM     76  C   UNL     1     -11.252  12.188   2.935  1.00  0.00     0.064 A 
ATOM     77  C   UNL     1     -10.220  13.111   2.615  1.00  0.00     0.173 A 
ATOM     78  C   UNL     1     -12.014  12.572   4.059  1.00  0.00     0.173 A 
ATOM     79  F   UNL     1      -9.438  12.945   1.541  1.00  0.00    -0.203 F 
ATOM     80  C   UNL     1      -9.942  14.256   3.378  1.00  0.00     0.198 A 
ATOM     81  C   UNL     1     -11.764  13.743   4.796  1.00  0.00     0.198 A 
ATOM     82  F   UNL     1     -13.023  11.834   4.520  1.00  0.00    -0.203 F 
ATOM     83  F   UNL     1      -8.911  15.045   3.044  1.00  0.00    -0.200 F 
ATOM     84  C   UNL     1     -10.716  14.574   4.469  1.00  0.00     0.200 A 
ATOM     85  F   UNL     1     -12.549  14.048   5.841  1.00  0.00    -0.200 F 
ATOM     86  F   UNL     1     -10.460  15.670   5.196  1.00  0.00    -0.200 F 
ENDBRANCH  62  76
BRANCH  63  87
ATOM     87  C   UNL     1     -11.341   3.108  -1.571  1.00  0.00     0.064 A 
ATOM     88  C   UNL     1     -10.698   1.958  -1.044  1.00  0.00     0.173 A 
ATOM     89  C   UNL     1     -12.734   3.187  -1.417  1.00  0.00     0.173 A 
ATOM     90  F   UNL     1      -9.371   1.812  -1.199  1.00  0.00    -0.203 F 
ATOM     91  C   UNL     1     -11.341   1.152  -0.104  1.00  0.00     0.198 A 
ATOM     92  C   UNL     1     -13.387   2.336  -0.515  1.00  0.00     0.198 A 
ATOM     93  F   UNL     1     -13.411   4.222  -1.932  1.00  0.00    -0.203 F 
ATOM     94  F   UNL     1     -10.630   0.278   0.624  1.00  0.00    -0.200 F 
ATOM     95  C   UNL     1     -12.671   1.382   0.200  1.00  0.00     0.200 A 
ATOM     96  F   UNL     1     -14.677   2.546  -0.214  1.00  0.00    -0.200 F 
ATOM     97  F   UNL     1     -13.236   0.758   1.246  1.00  0.00    -0.200 F 
ENDBRANCH  63  87
BRANCH  75  98
ATOM     98  C   UNL     1     -10.514  10.273  -3.285  1.00  0.00     0.064 A 
ATOM     99  C   UNL     1     -10.934  10.083  -4.609  1.00  0.00     0.173 A 
ATOM    100  C   UNL     1     -10.535  11.631  -2.849  1.00  0.00     0.173 A 
ATOM    101  F   UNL     1     -11.073   8.863  -5.138  1.00  0.00    -0.203 F 
ATOM    102  C   UNL     1     -11.297  11.150  -5.438  1.00  0.00     0.198 A 
ATOM    103  C   UNL     1     -10.962  12.684  -3.657  1.00  0.00     0.198 A 
ATOM    104  F   UNL     1     -10.189  11.995  -1.607  1.00  0.00    -0.203 F 
ATOM    105  F   UNL     1     -11.657  10.905  -6.705  1.00  0.00    -0.200 F 
ATOM    106  C   UNL     1     -11.330  12.445  -4.959  1.00  0.00     0.200 A 
ATOM    107  F   UNL     1     -11.045  13.922  -3.148  1.00  0.00    -0.200 F 
ATOM    108  F   UNL     1     -11.737  13.452  -5.741  1.00  0.00    -0.200 F 
ENDBRANCH  75  98
ENDBRANCH  49  50
ENDBRANCH  42  44
ENDBRANCH  41  42
ENDBRANCH  40  41
ENDBRANCH  39  40
ENDBRANCH  38  39
ENDBRANCH  37  38
ENDBRANCH  36  37
ENDBRANCH  35  36
ENDBRANCH  34  35
ENDBRANCH   1  34
TORSDOF 25
