REMARK SMILES CCc1ccc2c(CC(=O)OCCOCCOCCOCCOC(=O)c3ccc(-c4c5nc(c(-c6c(F)c(F)c(F)c(F)c6F)c6ccc([nH]6)c(-c6c(F)c(F)c(F)c(F)c6F)c6nc(c(-c7c(F)c(F)c(F)c(F)c7F)c7ccc4[nH]7)C=C6)C=C5)cc3)c(C(=O)c3cc(C)ccn3)[nH]c2c1
REMARK SMILES IDX 16 1 15 2 14 3 13 4 12 5 11 6 9 7 10 8 8 9 7 10 3 11 4 12
REMARK SMILES IDX 101 13 5 14 100 15 6 16 99 17 89 18 2 20 1 21 90 22 91 23
REMARK SMILES IDX 92 24 93 25 98 26 94 27 97 28 95 29 96 30 17 31 18 32 19 33
REMARK SMILES IDX 20 34 21 35 22 36 23 37 24 38 25 39 26 40 27 41 88 42 28 43
REMARK SMILES IDX 87 44 29 45 30 46 31 47 81 48 32 49 86 50 80 51 82 52 33 53
REMARK SMILES IDX 85 54 79 55 78 56 34 58 66 59 46 60 65 61 47 62 50 63 64 64
REMARK SMILES IDX 83 65 48 66 49 67 63 69 84 70 51 71 35 72 36 73 44 74 37 75
REMARK SMILES IDX 38 76 42 77 45 78 39 79 40 80 43 81 41 82 67 83 68 84 76 85
REMARK SMILES IDX 69 86 70 87 74 88 77 89 71 90 72 91 75 92 73 93 52 94 53 95
REMARK SMILES IDX 61 96 54 97 55 98 59 99 62 100 56 101 57 102 60 103 58 104
REMARK H PARENT 99 19 82 57 50 68
REMARK Flexibility Score: inf
ROOT
ATOM      1  C   UNL     1       2.943  -7.407  -2.201  1.00  0.00     0.188 C 
ENDROOT
BRANCH   1   2
ATOM      2  C   UNL     1       3.333  -8.486  -3.238  1.00  0.00     0.188 C 
BRANCH   2   3
ATOM      3  O   UNL     1       4.670  -8.932  -3.287  1.00  0.00    -0.376 OA
BRANCH   3   4
ATOM      4  C   UNL     1       5.745  -8.100  -3.662  1.00  0.00     0.202 C 
BRANCH   4   5
ATOM      5  C   UNL     1       5.618  -6.666  -4.218  1.00  0.00     0.261 C 
BRANCH   5   6
ATOM      6  O   UNL     1       4.315  -6.055  -4.227  1.00  0.00    -0.463 OA
BRANCH   6   7
ATOM      7  C   UNL     1       3.674  -5.950  -5.414  1.00  0.00     0.310 C 
ATOM      8  O   UNL     1       4.213  -6.247  -6.480  1.00  0.00    -0.252 OA
BRANCH   7   9
ATOM      9  C   UNL     1       2.224  -5.468  -5.379  1.00  0.00     0.161 C 
BRANCH   9  10
ATOM     10  C   UNL     1       1.498  -5.080  -4.093  1.00  0.00     0.000 A 
ATOM     11  C   UNL     1       0.982  -1.406  -2.034  1.00  0.00    -0.046 A 
ATOM     12  C   UNL     1       1.907  -1.396  -3.084  1.00  0.00     0.004 A 
ATOM     13  C   UNL     1       0.397  -2.619  -1.643  1.00  0.00     0.030 A 
ATOM     14  C   UNL     1       2.218  -2.566  -3.798  1.00  0.00     0.011 A 
ATOM     15  C   UNL     1       0.685  -3.764  -2.401  1.00  0.00     0.046 A 
ATOM     16  C   UNL     1       1.557  -3.771  -3.484  1.00  0.00     0.004 A 
ATOM     17  N   UNL     1       0.198  -5.038  -2.279  1.00  0.00    -0.352 N 
ATOM     18  C   UNL     1       0.483  -5.787  -3.403  1.00  0.00     0.093 A 
ATOM     19  H   UNL     1      -0.290  -5.375  -1.493  1.00  0.00     0.167 HD
BRANCH  11  20
ATOM     20  C   UNL     1       0.563  -0.115  -1.369  1.00  0.00     0.032 C 
ATOM     21  C   UNL     1       1.103   0.046   0.043  1.00  0.00     0.009 C 
ENDBRANCH  11  20
BRANCH  18  22
ATOM     22  C   UNL     1      -0.126  -7.095  -3.707  1.00  0.00     0.227 C 
ATOM     23  O   UNL     1       0.108  -7.682  -4.762  1.00  0.00    -0.285 OA
BRANCH  22  24
ATOM     24  C   UNL     1      -0.985  -7.821  -2.690  1.00  0.00     0.113 A 
ATOM     25  C   UNL     1      -2.081  -7.245  -2.047  1.00  0.00     0.036 A 
ATOM     26  N   UNL     1      -0.605  -9.107  -2.456  1.00  0.00    -0.253 NA
ATOM     27  C   UNL     1      -2.788  -8.008  -1.099  1.00  0.00    -0.047 A 
ATOM     28  C   UNL     1      -1.314  -9.824  -1.558  1.00  0.00     0.112 A 
ATOM     29  C   UNL     1      -3.981  -7.473  -0.361  1.00  0.00     0.044 C 
ATOM     30  C   UNL     1      -2.376  -9.316  -0.838  1.00  0.00     0.023 A 
ENDBRANCH  22  24
ENDBRANCH  18  22
ENDBRANCH   9  10
ENDBRANCH   7   9
ENDBRANCH   6   7
ENDBRANCH   5   6
ENDBRANCH   4   5
ENDBRANCH   3   4
ENDBRANCH   2   3
ENDBRANCH   1   2
BRANCH   1  31
ATOM     31  O   UNL     1       3.267  -7.391  -0.826  1.00  0.00    -0.377 OA
BRANCH  31  32
ATOM     32  C   UNL     1       4.490  -7.959  -0.439  1.00  0.00     0.188 C 
BRANCH  32  33
ATOM     33  C   UNL     1       4.351  -9.460  -0.188  1.00  0.00     0.188 C 
BRANCH  33  34
ATOM     34  O   UNL     1       3.280 -10.043  -0.904  1.00  0.00    -0.376 OA
BRANCH  34  35
ATOM     35  C   UNL     1       2.002 -10.158  -0.287  1.00  0.00     0.202 C 
BRANCH  35  36
ATOM     36  C   UNL     1       1.278  -8.979   0.406  1.00  0.00     0.261 C 
BRANCH  36  37
ATOM     37  O   UNL     1       2.017  -8.215   1.358  1.00  0.00    -0.460 OA
BRANCH  37  38
ATOM     38  C   UNL     1       2.422  -8.833   2.474  1.00  0.00     0.338 C 
ATOM     39  O   UNL     1       2.165  -9.967   2.842  1.00  0.00    -0.246 OA
BRANCH  38  40
ATOM     40  C   UNL     1       3.434  -7.947   3.067  1.00  0.00     0.060 A 
ATOM     41  C   UNL     1       4.738  -8.440   3.189  1.00  0.00     0.016 A 
ATOM     42  C   UNL     1       3.119  -6.633   3.433  1.00  0.00     0.016 A 
ATOM     43  C   UNL     1       5.732  -7.627   3.704  1.00  0.00     0.010 A 
ATOM     44  C   UNL     1       4.109  -5.829   3.994  1.00  0.00     0.010 A 
ATOM     45  C   UNL     1       5.402  -6.349   4.169  1.00  0.00    -0.014 A 
BRANCH  45  46
ATOM     46  C   UNL     1       6.346  -5.715   5.104  1.00  0.00     0.031 A 
ATOM     47  C   UNL     1       6.141  -5.982   6.566  1.00  0.00     0.074 A 
ATOM     48  C   UNL     1       7.406  -5.030   4.650  1.00  0.00     0.049 A 
ATOM     49  N   UNL     1       6.857  -5.609   7.591  1.00  0.00    -0.248 NA
ATOM     50  C   UNL     1       4.961  -6.793   6.919  1.00  0.00     0.031 C 
ATOM     51  C   UNL     1       7.707  -4.780   3.242  1.00  0.00     0.029 A 
ATOM     52  N   UNL     1       8.431  -4.434   5.331  1.00  0.00    -0.354 N 
ATOM     53  C   UNL     1       6.213  -6.133   8.704  1.00  0.00     0.074 A 
ATOM     54  C   UNL     1       5.031  -6.819   8.238  1.00  0.00     0.031 C 
ATOM     55  C   UNL     1       8.846  -4.071   3.163  1.00  0.00     0.029 A 
ATOM     56  C   UNL     1       9.330  -3.798   4.515  1.00  0.00     0.049 A 
ATOM     57  H   UNL     1       8.514  -4.458   6.312  1.00  0.00     0.167 HD
ATOM     58  C   UNL     1       6.587  -6.051  10.001  1.00  0.00     0.037 A 
ATOM     59  C   UNL     1      10.410  -3.065   4.840  1.00  0.00     0.037 A 
ATOM     60  C   UNL     1       7.766  -5.353  10.436  1.00  0.00     0.049 A 
ATOM     61  C   UNL     1      10.772  -2.931   6.297  1.00  0.00     0.074 A 
ATOM     62  C   UNL     1       8.256  -5.198  11.718  1.00  0.00     0.029 A 
ATOM     63  N   UNL     1       8.633  -4.676   9.586  1.00  0.00    -0.354 N 
ATOM     64  N   UNL     1      10.172  -3.437   7.350  1.00  0.00    -0.248 NA
ATOM     65  C   UNL     1      11.964  -2.135   6.609  1.00  0.00     0.031 C 
ATOM     66  C   UNL     1       9.380  -4.368  11.651  1.00  0.00     0.029 A 
ATOM     67  C   UNL     1       9.639  -4.072  10.320  1.00  0.00     0.049 A 
ATOM     68  H   UNL     1       8.545  -4.633   8.607  1.00  0.00     0.167 HD
ATOM     69  C   UNL     1      10.927  -3.046   8.448  1.00  0.00     0.074 A 
ATOM     70  C   UNL     1      12.038  -2.273   7.926  1.00  0.00     0.031 C 
ATOM     71  C   UNL     1      10.728  -3.304   9.766  1.00  0.00     0.037 A 
BRANCH  58  72
ATOM     72  C   UNL     1       5.676  -6.673  11.021  1.00  0.00     0.064 A 
ATOM     73  C   UNL     1       5.478  -8.061  11.104  1.00  0.00     0.173 A 
ATOM     74  C   UNL     1       4.963  -5.859  11.915  1.00  0.00     0.173 A 
ATOM     75  F   UNL     1       6.114  -8.887  10.258  1.00  0.00    -0.203 F 
ATOM     76  C   UNL     1       4.571  -8.605  12.012  1.00  0.00     0.198 A 
ATOM     77  C   UNL     1       4.086  -6.409  12.846  1.00  0.00     0.198 A 
ATOM     78  F   UNL     1       5.107  -4.526  11.877  1.00  0.00    -0.203 F 
ATOM     79  F   UNL     1       4.344  -9.926  12.021  1.00  0.00    -0.200 F 
ATOM     80  C   UNL     1       3.881  -7.779  12.886  1.00  0.00     0.200 A 
ATOM     81  F   UNL     1       3.428  -5.608  13.696  1.00  0.00    -0.200 F 
ATOM     82  F   UNL     1       3.007  -8.302  13.757  1.00  0.00    -0.200 F 
ENDBRANCH  58  72
BRANCH  59  83
ATOM     83  C   UNL     1      11.203  -2.408   3.770  1.00  0.00     0.064 A 
ATOM     84  C   UNL     1      12.511  -2.812   3.474  1.00  0.00     0.173 A 
ATOM     85  C   UNL     1      10.652  -1.371   3.000  1.00  0.00     0.173 A 
ATOM     86  F   UNL     1      13.089  -3.786   4.191  1.00  0.00    -0.203 F 
ATOM     87  C   UNL     1      13.242  -2.199   2.457  1.00  0.00     0.198 A 
ATOM     88  C   UNL     1      11.372  -0.779   1.964  1.00  0.00     0.198 A 
ATOM     89  F   UNL     1       9.402  -0.947   3.240  1.00  0.00    -0.203 F 
ATOM     90  F   UNL     1      14.504  -2.580   2.218  1.00  0.00    -0.200 F 
ATOM     91  C   UNL     1      12.668  -1.189   1.698  1.00  0.00     0.200 A 
ATOM     92  F   UNL     1      10.806   0.183   1.223  1.00  0.00    -0.200 F 
ATOM     93  F   UNL     1      13.366  -0.610   0.711  1.00  0.00    -0.200 F 
ENDBRANCH  59  83
BRANCH  71  94
ATOM     94  C   UNL     1      11.756  -2.778  10.726  1.00  0.00     0.064 A 
ATOM     95  C   UNL     1      11.897  -1.407  10.985  1.00  0.00     0.173 A 
ATOM     96  C   UNL     1      12.588  -3.668  11.425  1.00  0.00     0.173 A 
ATOM     97  F   UNL     1      11.133  -0.515  10.337  1.00  0.00    -0.203 F 
ATOM     98  C   UNL     1      12.860  -0.944  11.877  1.00  0.00     0.198 A 
ATOM     99  C   UNL     1      13.521  -3.204  12.346  1.00  0.00     0.198 A 
ATOM    100  F   UNL     1      12.485  -4.990  11.224  1.00  0.00    -0.203 F 
ATOM    101  F   UNL     1      13.021   0.374  12.061  1.00  0.00    -0.200 F 
ATOM    102  C   UNL     1      13.665  -1.842  12.562  1.00  0.00     0.200 A 
ATOM    103  F   UNL     1      14.282  -4.075  13.023  1.00  0.00    -0.200 F 
ATOM    104  F   UNL     1      14.587  -1.395  13.426  1.00  0.00    -0.200 F 
ENDBRANCH  71  94
ENDBRANCH  45  46
ENDBRANCH  38  40
ENDBRANCH  37  38
ENDBRANCH  36  37
ENDBRANCH  35  36
ENDBRANCH  34  35
ENDBRANCH  33  34
ENDBRANCH  32  33
ENDBRANCH  31  32
ENDBRANCH   1  31
TORSDOF 24
