REMARK SMILES C[NH2+][C@]1(C(=O)OCCOCCOCCOCCOC(=O)c2ccc(-c3c4nc(c(-c5c(F)c(F)c(F)c(F)c5F)c5ccc([nH]5)c(-c5c(F)c(F)c(F)c(F)c5F)c5nc(c(-c6c(F)c(F)c(F)c(F)c6F)c6ccc3[nH]6)C=C5)C=C4)cc2)CCC[C@@H]1CCSc1cccc(Cl)c1
REMARK SMILES IDX 11 1 10 2 9 3 8 4 7 5 6 6 4 7 5 8 3 9 84 10 87 11 85 12
REMARK SMILES IDX 86 13 2 14 1 15 88 18 89 19 90 20 91 21 92 22 97 23 93 24
REMARK SMILES IDX 95 25 94 26 96 27 12 28 13 29 14 30 15 31 16 32 17 33 18 34
REMARK SMILES IDX 19 35 20 36 21 37 22 38 83 39 23 40 82 41 24 42 25 43 26 44
REMARK SMILES IDX 76 45 27 46 81 47 75 48 77 49 28 50 80 51 74 52 73 53 29 55
REMARK SMILES IDX 61 56 41 57 60 58 42 59 45 60 59 61 78 62 43 63 44 64 58 66
REMARK SMILES IDX 79 67 46 68 30 69 31 70 39 71 32 72 33 73 37 74 40 75 34 76
REMARK SMILES IDX 35 77 38 78 36 79 62 80 63 81 71 82 64 83 65 84 69 85 72 86
REMARK SMILES IDX 66 87 67 88 70 89 68 90 47 91 48 92 56 93 49 94 50 95 54 96
REMARK SMILES IDX 57 97 51 98 52 99 55 100 53 101
REMARK H PARENT 2 16 2 17 77 54 45 65
REMARK Flexibility Score: inf
ROOT
ATOM      1  C   UNL     1       1.307   2.521  -1.378  1.00  0.00     0.188 C 
ENDROOT
BRANCH   1   2
ATOM      2  C   UNL     1       2.126   1.873  -0.257  1.00  0.00     0.188 C 
BRANCH   2   3
ATOM      3  O   UNL     1       3.380   1.302  -0.567  1.00  0.00    -0.376 OA
BRANCH   3   4
ATOM      4  C   UNL     1       3.522   0.337  -1.595  1.00  0.00     0.202 C 
BRANCH   4   5
ATOM      5  C   UNL     1       2.413  -0.588  -2.146  1.00  0.00     0.261 C 
BRANCH   5   6
ATOM      6  O   UNL     1       1.042  -0.167  -2.111  1.00  0.00    -0.459 OA
BRANCH   6   7
ATOM      7  C   UNL     1       0.309  -0.628  -1.067  1.00  0.00     0.368 C 
ATOM      8  O   UNL     1       0.776  -1.335  -0.177  1.00  0.00    -0.245 OA
BRANCH   7   9
ATOM      9  C   UNL     1      -1.205  -0.226  -1.129  1.00  0.00     0.197 C 
ATOM     10  C   UNL     1      -1.660   0.992  -1.978  1.00  0.00     0.081 C 
ATOM     11  C   UNL     1      -1.888  -1.329  -1.968  1.00  0.00     0.063 C 
ATOM     12  C   UNL     1      -3.101   0.709  -2.415  1.00  0.00     0.008 C 
ATOM     13  C   UNL     1      -3.293  -0.795  -2.258  1.00  0.00     0.011 C 
BRANCH   9  14
ATOM     14  N   UNL     1      -1.793  -0.136   0.240  1.00  0.00    -0.334 N 
ATOM     15  C   UNL     1      -1.071   0.768   1.136  1.00  0.00     0.331 C 
ATOM     16  H   UNL     1      -2.754   0.195   0.156  1.00  0.00     0.347 HD
ATOM     17  H   UNL     1      -1.735  -1.068   0.650  1.00  0.00     0.347 HD
ENDBRANCH   9  14
BRANCH  11  18
ATOM     18  C   UNL     1      -1.861  -2.754  -1.415  1.00  0.00     0.022 C 
BRANCH  18  19
ATOM     19  C   UNL     1      -1.932  -3.832  -2.504  1.00  0.00     0.075 C 
BRANCH  19  20
ATOM     20  S   UNL     1      -0.384  -4.075  -3.484  1.00  0.00    -0.126 SA
BRANCH  20  21
ATOM     21  C   UNL     1      -0.357  -2.745  -4.683  1.00  0.00     0.009 A 
ATOM     22  C   UNL     1      -1.506  -2.170  -5.237  1.00  0.00     0.015 A 
ATOM     23  C   UNL     1       0.893  -2.239  -5.063  1.00  0.00     0.035 A 
ATOM     24  C   UNL     1      -1.415  -1.048  -6.068  1.00  0.00     0.003 A 
ATOM     25  C   UNL     1       0.982  -1.138  -5.917  1.00  0.00     0.042 A 
ATOM     26  C   UNL     1      -0.169  -0.526  -6.404  1.00  0.00     0.020 A 
ATOM     27  Cl  UNL     1       2.527  -0.522  -6.363  1.00  0.00    -0.084 Cl
ENDBRANCH  20  21
ENDBRANCH  19  20
ENDBRANCH  18  19
ENDBRANCH  11  18
ENDBRANCH   7   9
ENDBRANCH   6   7
ENDBRANCH   5   6
ENDBRANCH   4   5
ENDBRANCH   3   4
ENDBRANCH   2   3
ENDBRANCH   1   2
BRANCH   1  28
ATOM     28  O   UNL     1       1.816   2.330  -2.681  1.00  0.00    -0.377 OA
BRANCH  28  29
ATOM     29  C   UNL     1       2.768   3.273  -3.145  1.00  0.00     0.188 C 
BRANCH  29  30
ATOM     30  C   UNL     1       3.596   4.069  -2.115  1.00  0.00     0.188 C 
BRANCH  30  31
ATOM     31  O   UNL     1       2.843   4.604  -1.036  1.00  0.00    -0.376 OA
BRANCH  31  32
ATOM     32  C   UNL     1       2.353   5.934  -1.096  1.00  0.00     0.202 C 
BRANCH  32  33
ATOM     33  C   UNL     1       1.364   6.315  -2.210  1.00  0.00     0.261 C 
BRANCH  33  34
ATOM     34  O   UNL     1       1.789   6.088  -3.561  1.00  0.00    -0.460 OA
BRANCH  34  35
ATOM     35  C   UNL     1       2.938   6.659  -3.974  1.00  0.00     0.338 C 
ATOM     36  O   UNL     1       3.648   7.429  -3.350  1.00  0.00    -0.246 OA
BRANCH  35  37
ATOM     37  C   UNL     1       3.311   6.023  -5.255  1.00  0.00     0.060 A 
ATOM     38  C   UNL     1       4.536   5.347  -5.346  1.00  0.00     0.016 A 
ATOM     39  C   UNL     1       2.447   6.071  -6.351  1.00  0.00     0.016 A 
ATOM     40  C   UNL     1       4.915   4.746  -6.545  1.00  0.00     0.010 A 
ATOM     41  C   UNL     1       2.842   5.498  -7.562  1.00  0.00     0.010 A 
ATOM     42  C   UNL     1       4.094   4.866  -7.672  1.00  0.00    -0.014 A 
BRANCH  42  43
ATOM     43  C   UNL     1       4.646   4.546  -9.009  1.00  0.00     0.031 A 
ATOM     44  C   UNL     1       5.201   5.677  -9.830  1.00  0.00     0.074 A 
ATOM     45  C   UNL     1       4.683   3.287  -9.476  1.00  0.00     0.049 A 
ATOM     46  N   UNL     1       5.682   5.669 -11.046  1.00  0.00    -0.248 NA
ATOM     47  C   UNL     1       5.212   7.002  -9.187  1.00  0.00     0.031 C 
ATOM     48  C   UNL     1       4.230   2.104  -8.750  1.00  0.00     0.029 A 
ATOM     49  N   UNL     1       5.119   2.799 -10.682  1.00  0.00    -0.354 N 
ATOM     50  C   UNL     1       6.043   6.983 -11.314  1.00  0.00     0.074 A 
ATOM     51  C   UNL     1       5.696   7.768 -10.151  1.00  0.00     0.031 C 
ATOM     52  C   UNL     1       4.395   1.024  -9.534  1.00  0.00     0.029 A 
ATOM     53  C   UNL     1       4.930   1.447 -10.828  1.00  0.00     0.049 A 
ATOM     54  H   UNL     1       5.527   3.365 -11.377  1.00  0.00     0.167 HD
ATOM     55  C   UNL     1       6.621   7.487 -12.430  1.00  0.00     0.037 A 
ATOM     56  C   UNL     1       5.141   0.653 -11.895  1.00  0.00     0.037 A 
ATOM     57  C   UNL     1       6.959   6.700 -13.586  1.00  0.00     0.049 A 
ATOM     58  C   UNL     1       5.702   1.254 -13.161  1.00  0.00     0.074 A 
ATOM     59  C   UNL     1       7.556   7.112 -14.763  1.00  0.00     0.029 A 
ATOM     60  N   UNL     1       6.718   5.340 -13.712  1.00  0.00    -0.354 N 
ATOM     61  N   UNL     1       6.059   2.492 -13.406  1.00  0.00    -0.248 NA
ATOM     62  C   UNL     1       5.892   0.344 -14.300  1.00  0.00     0.031 C 
ATOM     63  C   UNL     1       7.616   6.014 -15.627  1.00  0.00     0.029 A 
ATOM     64  C   UNL     1       7.125   4.902 -14.962  1.00  0.00     0.049 A 
ATOM     65  H   UNL     1       6.317   4.770 -13.016  1.00  0.00     0.167 HD
ATOM     66  C   UNL     1       6.547   2.503 -14.707  1.00  0.00     0.074 A 
ATOM     67  C   UNL     1       6.452   1.143 -15.197  1.00  0.00     0.031 C 
ATOM     68  C   UNL     1       7.033   3.542 -15.431  1.00  0.00     0.037 A 
BRANCH  55  69
ATOM     69  C   UNL     1       6.886   8.964 -12.465  1.00  0.00     0.064 A 
ATOM     70  C   UNL     1       7.863   9.563 -11.656  1.00  0.00     0.173 A 
ATOM     71  C   UNL     1       6.164   9.790 -13.340  1.00  0.00     0.173 A 
ATOM     72  F   UNL     1       8.569   8.821 -10.788  1.00  0.00    -0.203 F 
ATOM     73  C   UNL     1       8.088  10.936 -11.701  1.00  0.00     0.198 A 
ATOM     74  C   UNL     1       6.415  11.157 -13.408  1.00  0.00     0.198 A 
ATOM     75  F   UNL     1       5.217   9.270 -14.136  1.00  0.00    -0.203 F 
ATOM     76  F   UNL     1       8.988  11.494 -10.879  1.00  0.00    -0.200 F 
ATOM     77  C   UNL     1       7.370  11.731 -12.582  1.00  0.00     0.200 A 
ATOM     78  F   UNL     1       5.730  11.921 -14.270  1.00  0.00    -0.200 F 
ATOM     79  F   UNL     1       7.593  13.051 -12.631  1.00  0.00    -0.200 F 
ENDBRANCH  55  69
BRANCH  56  80
ATOM     80  C   UNL     1       4.804  -0.795 -11.827  1.00  0.00     0.064 A 
ATOM     81  C   UNL     1       5.802  -1.777 -11.900  1.00  0.00     0.173 A 
ATOM     82  C   UNL     1       3.474  -1.227 -11.717  1.00  0.00     0.173 A 
ATOM     83  F   UNL     1       7.087  -1.417 -12.035  1.00  0.00    -0.203 F 
ATOM     84  C   UNL     1       5.481  -3.133 -11.891  1.00  0.00     0.198 A 
ATOM     85  C   UNL     1       3.156  -2.583 -11.674  1.00  0.00     0.198 A 
ATOM     86  F   UNL     1       2.478  -0.330 -11.651  1.00  0.00    -0.203 F 
ATOM     87  F   UNL     1       6.450  -4.049 -12.022  1.00  0.00    -0.200 F 
ATOM     88  C   UNL     1       4.159  -3.535 -11.771  1.00  0.00     0.200 A 
ATOM     89  F   UNL     1       1.878  -2.966 -11.551  1.00  0.00    -0.200 F 
ATOM     90  F   UNL     1       3.851  -4.839 -11.765  1.00  0.00    -0.200 F 
ENDBRANCH  56  80
BRANCH  68  91
ATOM     91  C   UNL     1       7.546   3.247 -16.813  1.00  0.00     0.064 A 
ATOM     92  C   UNL     1       6.687   2.899 -17.866  1.00  0.00     0.173 A 
ATOM     93  C   UNL     1       8.917   3.361 -17.097  1.00  0.00     0.173 A 
ATOM     94  F   UNL     1       5.370   2.765 -17.647  1.00  0.00    -0.203 F 
ATOM     95  C   UNL     1       7.184   2.647 -19.142  1.00  0.00     0.198 A 
ATOM     96  C   UNL     1       9.405   3.145 -18.382  1.00  0.00     0.198 A 
ATOM     97  F   UNL     1       9.782   3.702 -16.130  1.00  0.00    -0.203 F 
ATOM     98  F   UNL     1       6.351   2.264 -20.119  1.00  0.00    -0.200 F 
ATOM     99  C   UNL     1       8.540   2.779 -19.401  1.00  0.00     0.200 A 
ATOM    100  F   UNL     1      10.713   3.293 -18.634  1.00  0.00    -0.200 F 
ATOM    101  F   UNL     1       9.014   2.546 -20.633  1.00  0.00    -0.200 F 
ENDBRANCH  68  91
ENDBRANCH  42  43
ENDBRANCH  35  37
ENDBRANCH  34  35
ENDBRANCH  33  34
ENDBRANCH  32  33
ENDBRANCH  31  32
ENDBRANCH  30  31
ENDBRANCH  29  30
ENDBRANCH  28  29
ENDBRANCH   1  28
TORSDOF 25
