REMARK SMILES CCC[NH2+][C@@](C)(C[N@H+]1CCC(C)(C)C1)C(=O)OCCOCCOCCOCCOC(=O)c1ccc(-c2c3nc(c(-c4c(F)c(F)c(F)c(F)c4F)c4ccc([nH]4)c(-c4c(F)c(F)c(F)c(F)c4F)c4nc(c(-c5c(F)c(F)c(F)c(F)c5F)c5ccc2[nH]5)C=C4)C=C3)cc1
REMARK SMILES IDX 22 1 21 2 20 3 19 4 18 5 17 6 15 7 16 8 5 9 6 10 4 11 3 14
REMARK SMILES IDX 2 15 1 16 7 17 8 18 9 19 14 20 10 22 11 23 12 24 13 25 23 26
REMARK SMILES IDX 24 27 25 28 26 29 27 30 28 31 29 32 30 33 31 34 32 35 33 36
REMARK SMILES IDX 94 37 34 38 93 39 35 40 36 41 37 42 87 43 38 44 92 45 86 46
REMARK SMILES IDX 88 47 39 48 91 49 85 50 84 51 40 53 72 54 52 55 71 56 53 57
REMARK SMILES IDX 56 58 70 59 89 60 54 61 55 62 69 64 90 65 57 66 41 67 42 68
REMARK SMILES IDX 50 69 43 70 44 71 48 72 51 73 45 74 46 75 49 76 47 77 73 78
REMARK SMILES IDX 74 79 82 80 75 81 76 82 80 83 83 84 77 85 78 86 81 87 79 88
REMARK SMILES IDX 58 89 59 90 67 91 60 92 61 93 65 94 68 95 62 96 63 97 66 98
REMARK SMILES IDX 64 99
REMARK H PARENT 4 12 4 13 8 21 88 52 56 63
REMARK Flexibility Score: inf
ROOT
ATOM      1  C   UNL     1      -1.837   4.381   4.500  1.00  0.00     0.188 C 
ENDROOT
BRANCH   1   2
ATOM      2  C   UNL     1      -1.170   3.083   4.976  1.00  0.00     0.188 C 
BRANCH   2   3
ATOM      3  O   UNL     1      -0.588   3.029   6.269  1.00  0.00    -0.376 OA
BRANCH   3   4
ATOM      4  C   UNL     1       0.262   4.095   6.669  1.00  0.00     0.202 C 
BRANCH   4   5
ATOM      5  C   UNL     1       1.463   4.467   5.784  1.00  0.00     0.261 C 
BRANCH   5   6
ATOM      6  O   UNL     1       1.230   4.497   4.357  1.00  0.00    -0.458 OA
BRANCH   6   7
ATOM      7  C   UNL     1       1.935   3.579   3.634  1.00  0.00     0.373 C 
ATOM      8  O   UNL     1       2.707   2.774   4.157  1.00  0.00    -0.244 OA
BRANCH   7   9
ATOM      9  C   UNL     1       1.735   3.649   2.083  1.00  0.00     0.240 C 
ATOM     10  C   UNL     1       3.158   3.885   1.526  1.00  0.00     0.099 C 
BRANCH   9  11
ATOM     11  N   UNL     1       1.239   2.368   1.518  1.00  0.00    -0.328 N 
ATOM     12  H   UNL     1       0.222   2.442   1.494  1.00  0.00     0.347 HD
ATOM     13  H   UNL     1       1.754   2.308   0.640  1.00  0.00     0.347 HD
BRANCH  11  14
ATOM     14  C   UNL     1       1.536   1.093   2.130  1.00  0.00     0.261 C 
BRANCH  14  15
ATOM     15  C   UNL     1       0.750  -0.014   1.409  1.00  0.00     0.058 C 
ATOM     16  C   UNL     1       1.112  -0.176  -0.062  1.00  0.00     0.010 C 
ENDBRANCH  14  15
ENDBRANCH  11  14
ENDBRANCH   9  11
BRANCH   9  17
ATOM     17  C   UNL     1       0.775   4.823   1.554  1.00  0.00     0.343 C 
BRANCH  17  18
ATOM     18  N   UNL     1      -0.196   4.496   0.459  1.00  0.00    -0.329 N 
ATOM     19  C   UNL     1      -1.219   3.509   0.828  1.00  0.00     0.263 C 
ATOM     20  C   UNL     1      -0.940   5.637  -0.114  1.00  0.00     0.269 C 
ATOM     21  H   UNL     1       0.451   4.123  -0.235  1.00  0.00     0.348 HD
ATOM     22  C   UNL     1      -2.545   4.220   0.997  1.00  0.00     0.073 C 
ATOM     23  C   UNL     1      -2.325   5.665   0.549  1.00  0.00     0.019 C 
ATOM     24  C   UNL     1      -3.492   6.055  -0.368  1.00  0.00     0.017 C 
ATOM     25  C   UNL     1      -2.301   6.670   1.700  1.00  0.00     0.017 C 
ENDBRANCH  17  18
ENDBRANCH   9  17
ENDBRANCH   7   9
ENDBRANCH   6   7
ENDBRANCH   5   6
ENDBRANCH   4   5
ENDBRANCH   3   4
ENDBRANCH   2   3
ENDBRANCH   1   2
BRANCH   1  26
ATOM     26  O   UNL     1      -1.625   5.505   5.327  1.00  0.00    -0.377 OA
BRANCH  26  27
ATOM     27  C   UNL     1      -2.606   6.528   5.255  1.00  0.00     0.188 C 
BRANCH  27  28
ATOM     28  C   UNL     1      -3.958   6.139   5.869  1.00  0.00     0.188 C 
BRANCH  28  29
ATOM     29  O   UNL     1      -4.870   5.298   5.170  1.00  0.00    -0.376 OA
BRANCH  29  30
ATOM     30  C   UNL     1      -5.201   5.485   3.802  1.00  0.00     0.202 C 
BRANCH  30  31
ATOM     31  C   UNL     1      -5.776   6.815   3.305  1.00  0.00     0.261 C 
BRANCH  31  32
ATOM     32  O   UNL     1      -4.870   7.909   3.494  1.00  0.00    -0.460 OA
BRANCH  32  33
ATOM     33  C   UNL     1      -5.267   8.789   4.436  1.00  0.00     0.338 C 
ATOM     34  O   UNL     1      -6.307   8.782   5.068  1.00  0.00    -0.246 OA
BRANCH  33  35
ATOM     35  C   UNL     1      -4.160   9.695   4.767  1.00  0.00     0.060 A 
ATOM     36  C   UNL     1      -3.857   9.816   6.126  1.00  0.00     0.016 A 
ATOM     37  C   UNL     1      -3.541  10.506   3.810  1.00  0.00     0.016 A 
ATOM     38  C   UNL     1      -3.019  10.827   6.554  1.00  0.00     0.010 A 
ATOM     39  C   UNL     1      -2.710  11.543   4.244  1.00  0.00     0.010 A 
ATOM     40  C   UNL     1      -2.524  11.748   5.623  1.00  0.00    -0.014 A 
BRANCH  40  41
ATOM     41  C   UNL     1      -2.120  13.060   6.172  1.00  0.00     0.031 A 
ATOM     42  C   UNL     1      -3.158  14.151   6.211  1.00  0.00     0.074 A 
ATOM     43  C   UNL     1      -0.947  13.192   6.810  1.00  0.00     0.049 A 
ATOM     44  N   UNL     1      -3.115  15.323   6.789  1.00  0.00    -0.248 NA
ATOM     45  C   UNL     1      -4.430  13.873   5.521  1.00  0.00     0.031 C 
ATOM     46  C   UNL     1       0.080  12.156   6.905  1.00  0.00     0.029 A 
ATOM     47  N   UNL     1      -0.445  14.238   7.537  1.00  0.00    -0.354 N 
ATOM     48  C   UNL     1      -4.348  15.912   6.537  1.00  0.00     0.074 A 
ATOM     49  C   UNL     1      -5.105  14.993   5.721  1.00  0.00     0.031 C 
ATOM     50  C   UNL     1       1.089  12.615   7.665  1.00  0.00     0.029 A 
ATOM     51  C   UNL     1       0.786  13.982   8.084  1.00  0.00     0.049 A 
ATOM     52  H   UNL     1      -0.922  15.091   7.655  1.00  0.00     0.167 HD
ATOM     53  C   UNL     1      -4.813  17.109   6.964  1.00  0.00     0.037 A 
ATOM     54  C   UNL     1       1.575  14.774   8.833  1.00  0.00     0.037 A 
ATOM     55  C   UNL     1      -4.049  18.013   7.780  1.00  0.00     0.049 A 
ATOM     56  C   UNL     1       1.068  16.139   9.220  1.00  0.00     0.074 A 
ATOM     57  C   UNL     1      -4.404  19.262   8.255  1.00  0.00     0.029 A 
ATOM     58  N   UNL     1      -2.763  17.759   8.238  1.00  0.00    -0.354 N 
ATOM     59  N   UNL     1      -0.095  16.696   8.970  1.00  0.00    -0.248 NA
ATOM     60  C   UNL     1       1.980  16.982  10.003  1.00  0.00     0.031 C 
ATOM     61  C   UNL     1      -3.311  19.788   8.950  1.00  0.00     0.029 A 
ATOM     62  C   UNL     1      -2.299  18.840   8.968  1.00  0.00     0.049 A 
ATOM     63  H   UNL     1      -2.256  16.932   8.070  1.00  0.00     0.167 HD
ATOM     64  C   UNL     1      -0.064  17.940   9.586  1.00  0.00     0.074 A 
ATOM     65  C   UNL     1       1.224  18.043  10.243  1.00  0.00     0.031 C 
ATOM     66  C   UNL     1      -1.010  18.914   9.608  1.00  0.00     0.037 A 
BRANCH  53  67
ATOM     67  C   UNL     1      -6.186  17.521   6.515  1.00  0.00     0.064 A 
ATOM     68  C   UNL     1      -7.347  16.887   6.986  1.00  0.00     0.173 A 
ATOM     69  C   UNL     1      -6.342  18.571   5.597  1.00  0.00     0.173 A 
ATOM     70  F   UNL     1      -7.255  15.861   7.846  1.00  0.00    -0.203 F 
ATOM     71  C   UNL     1      -8.608  17.272   6.535  1.00  0.00     0.198 A 
ATOM     72  C   UNL     1      -7.605  18.975   5.174  1.00  0.00     0.198 A 
ATOM     73  F   UNL     1      -5.267  19.208   5.110  1.00  0.00    -0.203 F 
ATOM     74  F   UNL     1      -9.698  16.616   6.956  1.00  0.00    -0.200 F 
ATOM     75  C   UNL     1      -8.736  18.320   5.636  1.00  0.00     0.200 A 
ATOM     76  F   UNL     1      -7.727  19.994   4.312  1.00  0.00    -0.200 F 
ATOM     77  F   UNL     1      -9.950  18.692   5.206  1.00  0.00    -0.200 F 
ENDBRANCH  53  67
BRANCH  54  78
ATOM     78  C   UNL     1       2.924  14.305   9.247  1.00  0.00     0.064 A 
ATOM     79  C   UNL     1       3.247  14.097  10.594  1.00  0.00     0.173 A 
ATOM     80  C   UNL     1       3.929  14.078   8.294  1.00  0.00     0.173 A 
ATOM     81  F   UNL     1       2.329  14.319  11.546  1.00  0.00    -0.203 F 
ATOM     82  C   UNL     1       4.530  13.705  10.975  1.00  0.00     0.198 A 
ATOM     83  C   UNL     1       5.201  13.654   8.672  1.00  0.00     0.198 A 
ATOM     84  F   UNL     1       3.674  14.263   6.990  1.00  0.00    -0.203 F 
ATOM     85  F   UNL     1       4.828  13.566  12.274  1.00  0.00    -0.200 F 
ATOM     86  C   UNL     1       5.504  13.478  10.013  1.00  0.00     0.200 A 
ATOM     87  F   UNL     1       6.132  13.422   7.737  1.00  0.00    -0.200 F 
ATOM     88  F   UNL     1       6.736  13.100  10.379  1.00  0.00    -0.200 F 
ENDBRANCH  54  78
BRANCH  66  89
ATOM     89  C   UNL     1      -0.691  20.154  10.394  1.00  0.00     0.064 A 
ATOM     90  C   UNL     1       0.297  21.059   9.977  1.00  0.00     0.173 A 
ATOM     91  C   UNL     1      -1.393  20.447  11.573  1.00  0.00     0.173 A 
ATOM     92  F   UNL     1       1.004  20.820   8.862  1.00  0.00    -0.203 F 
ATOM     93  C   UNL     1       0.603  22.184  10.737  1.00  0.00     0.198 A 
ATOM     94  C   UNL     1      -1.113  21.594  12.309  1.00  0.00     0.198 A 
ATOM     95  F   UNL     1      -2.358  19.622  12.009  1.00  0.00    -0.203 F 
ATOM     96  F   UNL     1       1.599  22.995  10.357  1.00  0.00    -0.200 F 
ATOM     97  C   UNL     1      -0.106  22.453  11.898  1.00  0.00     0.200 A 
ATOM     98  F   UNL     1      -1.812  21.862  13.420  1.00  0.00    -0.200 F 
ATOM     99  F   UNL     1       0.191  23.537  12.629  1.00  0.00    -0.200 F 
ENDBRANCH  66  89
ENDBRANCH  40  41
ENDBRANCH  33  35
ENDBRANCH  32  33
ENDBRANCH  31  32
ENDBRANCH  30  31
ENDBRANCH  29  30
ENDBRANCH  28  29
ENDBRANCH  27  28
ENDBRANCH  26  27
ENDBRANCH   1  26
TORSDOF 25
