REMARK SMILES C[C@H](Oc1ccc(/C=C\C(=O)c2ccccc2)cc1)C(=O)OCCOCCOCCOCCOC(=O)c1ccc(-c2c3nc(c(-c4c(F)c(F)c(F)c(F)c4F)c4ccc([nH]4)c(-c4c(F)c(F)c(F)c(F)c4F)c4nc(c(-c5c(F)c(F)c(F)c(F)c5F)c5ccc2[nH]5)C=C4)C=C3)cc1
REMARK SMILES IDX 26 1 25 2 24 3 23 4 22 5 20 6 21 7 2 8 1 9 3 10 4 11 5 12
REMARK SMILES IDX 19 13 6 14 18 15 7 16 8 17 9 18 10 19 11 20 12 21 13 22
REMARK SMILES IDX 17 23 14 24 16 25 15 26 27 27 28 28 29 29 30 30 31 31 32 32
REMARK SMILES IDX 33 33 34 34 35 35 36 36 37 37 38 38 99 39 39 40 98 41 40 42
REMARK SMILES IDX 41 43 42 44 92 45 43 46 97 47 91 48 93 49 44 50 96 51 90 52
REMARK SMILES IDX 89 53 45 55 77 56 57 57 76 58 58 59 61 60 75 61 94 62 59 63
REMARK SMILES IDX 60 64 74 66 95 67 62 68 46 69 47 70 55 71 48 72 49 73 53 74
REMARK SMILES IDX 56 75 50 76 51 77 54 78 52 79 78 80 79 81 87 82 80 83 81 84
REMARK SMILES IDX 85 85 88 86 82 87 83 88 86 89 84 90 63 91 64 92 72 93 65 94
REMARK SMILES IDX 66 95 70 96 73 97 67 98 68 99 71 100 69 101
REMARK H PARENT 93 54 61 65
REMARK Flexibility Score: inf
ROOT
ATOM      1  C   UNL     1      -1.925  -1.587  -1.325  1.00  0.00     0.188 C 
ENDROOT
BRANCH   1   2
ATOM      2  O   UNL     1      -3.271  -1.852  -0.948  1.00  0.00    -0.376 OA
BRANCH   2   3
ATOM      3  C   UNL     1      -3.839  -1.348   0.252  1.00  0.00     0.202 C 
BRANCH   3   4
ATOM      4  C   UNL     1      -3.139  -1.517   1.600  1.00  0.00     0.261 C 
BRANCH   4   5
ATOM      5  O   UNL     1      -1.865  -0.876   1.713  1.00  0.00    -0.461 OA
BRANCH   5   6
ATOM      6  C   UNL     1      -0.777  -1.683   1.638  1.00  0.00     0.347 C 
ATOM      7  O   UNL     1      -0.811  -2.889   1.409  1.00  0.00    -0.248 OA
BRANCH   6   8
ATOM      8  C   UNL     1       0.502  -0.958   2.059  1.00  0.00     0.279 C 
ATOM      9  C   UNL     1       0.475  -1.163   3.575  1.00  0.00     0.066 C 
BRANCH   8  10
ATOM     10  O   UNL     1       0.563   0.421   1.649  1.00  0.00    -0.479 OA
BRANCH  10  11
ATOM     11  C   UNL     1       1.835   0.937   1.645  1.00  0.00     0.120 A 
ATOM     12  C   UNL     1       2.514   1.145   2.839  1.00  0.00     0.047 A 
ATOM     13  C   UNL     1       2.433   1.346   0.450  1.00  0.00     0.047 A 
ATOM     14  C   UNL     1       3.841   1.562   2.837  1.00  0.00     0.012 A 
ATOM     15  C   UNL     1       3.774   1.773   0.445  1.00  0.00     0.012 A 
ATOM     16  C   UNL     1       4.512   1.785   1.635  1.00  0.00    -0.025 A 
BRANCH  16  17
ATOM     17  C   UNL     1       5.966   1.990   1.640  1.00  0.00     0.012 C 
ATOM     18  C   UNL     1       6.864   1.231   2.298  1.00  0.00     0.053 C 
BRANCH  18  19
ATOM     19  C   UNL     1       6.629   0.018   3.143  1.00  0.00     0.185 C 
ATOM     20  O   UNL     1       7.260  -0.108   4.190  1.00  0.00    -0.289 OA
BRANCH  19  21
ATOM     21  C   UNL     1       5.649  -1.024   2.741  1.00  0.00     0.022 A 
ATOM     22  C   UNL     1       4.897  -1.653   3.744  1.00  0.00     0.012 A 
ATOM     23  C   UNL     1       5.451  -1.377   1.402  1.00  0.00     0.012 A 
ATOM     24  C   UNL     1       3.922  -2.593   3.405  1.00  0.00     0.001 A 
ATOM     25  C   UNL     1       4.474  -2.317   1.067  1.00  0.00     0.001 A 
ATOM     26  C   UNL     1       3.709  -2.921   2.066  1.00  0.00     0.000 A 
ENDBRANCH  19  21
ENDBRANCH  18  19
ENDBRANCH  16  17
ENDBRANCH  10  11
ENDBRANCH   8  10
ENDBRANCH   6   8
ENDBRANCH   5   6
ENDBRANCH   4   5
ENDBRANCH   3   4
ENDBRANCH   2   3
ENDBRANCH   1   2
BRANCH   1  27
ATOM     27  C   UNL     1      -1.304  -0.183  -1.188  1.00  0.00     0.188 C 
BRANCH  27  28
ATOM     28  O   UNL     1      -2.062   0.715  -0.401  1.00  0.00    -0.377 OA
BRANCH  28  29
ATOM     29  C   UNL     1      -2.922   1.613  -1.093  1.00  0.00     0.188 C 
BRANCH  29  30
ATOM     30  C   UNL     1      -3.717   1.068  -2.295  1.00  0.00     0.188 C 
BRANCH  30  31
ATOM     31  O   UNL     1      -2.899   0.449  -3.281  1.00  0.00    -0.376 OA
BRANCH  31  32
ATOM     32  C   UNL     1      -2.587   1.203  -4.444  1.00  0.00     0.202 C 
BRANCH  32  33
ATOM     33  C   UNL     1      -1.619   2.379  -4.236  1.00  0.00     0.261 C 
BRANCH  33  34
ATOM     34  O   UNL     1      -2.083   3.426  -3.365  1.00  0.00    -0.460 OA
BRANCH  34  35
ATOM     35  C   UNL     1      -3.236   4.043  -3.701  1.00  0.00     0.338 C 
ATOM     36  O   UNL     1      -3.890   3.879  -4.711  1.00  0.00    -0.246 OA
BRANCH  35  37
ATOM     37  C   UNL     1      -3.703   4.824  -2.534  1.00  0.00     0.060 A 
ATOM     38  C   UNL     1      -4.985   4.566  -2.036  1.00  0.00     0.016 A 
ATOM     39  C   UNL     1      -2.908   5.819  -1.960  1.00  0.00     0.016 A 
ATOM     40  C   UNL     1      -5.499   5.343  -0.999  1.00  0.00     0.010 A 
ATOM     41  C   UNL     1      -3.432   6.610  -0.930  1.00  0.00     0.010 A 
ATOM     42  C   UNL     1      -4.746   6.403  -0.476  1.00  0.00    -0.014 A 
BRANCH  42  43
ATOM     43  C   UNL     1      -5.421   7.392   0.401  1.00  0.00     0.031 A 
ATOM     44  C   UNL     1      -5.929   8.671  -0.211  1.00  0.00     0.074 A 
ATOM     45  C   UNL     1      -5.657   7.124   1.697  1.00  0.00     0.049 A 
ATOM     46  N   UNL     1      -6.595   9.653   0.343  1.00  0.00    -0.248 NA
ATOM     47  C   UNL     1      -5.655   8.865  -1.644  1.00  0.00     0.031 C 
ATOM     48  C   UNL     1      -5.244   5.910   2.396  1.00  0.00     0.029 A 
ATOM     49  N   UNL     1      -6.310   7.860   2.654  1.00  0.00    -0.354 N 
ATOM     50  C   UNL     1      -6.829  10.570  -0.674  1.00  0.00     0.074 A 
ATOM     51  C   UNL     1      -6.195  10.053  -1.867  1.00  0.00     0.031 C 
ATOM     52  C   UNL     1      -5.649   5.986   3.676  1.00  0.00     0.029 A 
ATOM     53  C   UNL     1      -6.329   7.263   3.890  1.00  0.00     0.049 A 
ATOM     54  H   UNL     1      -6.726   8.734   2.472  1.00  0.00     0.167 HD
ATOM     55  C   UNL     1      -7.527  11.730  -0.623  1.00  0.00     0.037 A 
ATOM     56  C   UNL     1      -6.827   7.705   5.062  1.00  0.00     0.037 A 
ATOM     57  C   UNL     1      -8.147  12.252   0.567  1.00  0.00     0.049 A 
ATOM     58  C   UNL     1      -7.538   9.035   5.105  1.00  0.00     0.074 A 
ATOM     59  C   UNL     1      -8.869  13.422   0.722  1.00  0.00     0.029 A 
ATOM     60  N   UNL     1      -8.113  11.636   1.809  1.00  0.00    -0.354 N 
ATOM     61  N   UNL     1      -7.777   9.883   4.134  1.00  0.00    -0.248 NA
ATOM     62  C   UNL     1      -8.062   9.462   6.411  1.00  0.00     0.031 C 
ATOM     63  C   UNL     1      -9.227  13.541   2.069  1.00  0.00     0.029 A 
ATOM     64  C   UNL     1      -8.783  12.414   2.741  1.00  0.00     0.049 A 
ATOM     65  H   UNL     1      -7.676  10.775   2.001  1.00  0.00     0.167 HD
ATOM     66  C   UNL     1      -8.495  10.928   4.704  1.00  0.00     0.074 A 
ATOM     67  C   UNL     1      -8.682  10.590   6.099  1.00  0.00     0.031 C 
ATOM     68  C   UNL     1      -8.956  12.067   4.129  1.00  0.00     0.037 A 
BRANCH  55  69
ATOM     69  C   UNL     1      -7.647  12.523  -1.893  1.00  0.00     0.064 A 
ATOM     70  C   UNL     1      -8.442  12.083  -2.962  1.00  0.00     0.173 A 
ATOM     71  C   UNL     1      -6.998  13.760  -2.025  1.00  0.00     0.173 A 
ATOM     72  F   UNL     1      -9.071  10.900  -2.894  1.00  0.00    -0.203 F 
ATOM     73  C   UNL     1      -8.566  12.841  -4.123  1.00  0.00     0.198 A 
ATOM     74  C   UNL     1      -7.149  14.530  -3.175  1.00  0.00     0.198 A 
ATOM     75  F   UNL     1      -6.227  14.228  -1.032  1.00  0.00    -0.203 F 
ATOM     76  F   UNL     1      -9.297  12.381  -5.148  1.00  0.00    -0.200 F 
ATOM     77  C   UNL     1      -7.928  14.068  -4.225  1.00  0.00     0.200 A 
ATOM     78  F   UNL     1      -6.541  15.721  -3.267  1.00  0.00    -0.200 F 
ATOM     79  F   UNL     1      -8.058  14.803  -5.338  1.00  0.00    -0.200 F 
ENDBRANCH  55  69
BRANCH  56  80
ATOM     80  C   UNL     1      -6.655   6.899   6.300  1.00  0.00     0.064 A 
ATOM     81  C   UNL     1      -7.754   6.346   6.973  1.00  0.00     0.173 A 
ATOM     82  C   UNL     1      -5.384   6.705   6.863  1.00  0.00     0.173 A 
ATOM     83  F   UNL     1      -8.993   6.526   6.492  1.00  0.00    -0.203 F 
ATOM     84  C   UNL     1      -7.592   5.659   8.175  1.00  0.00     0.198 A 
ATOM     85  C   UNL     1      -5.219   5.987   8.046  1.00  0.00     0.198 A 
ATOM     86  F   UNL     1      -4.298   7.215   6.263  1.00  0.00    -0.203 F 
ATOM     87  F   UNL     1      -8.666   5.199   8.831  1.00  0.00    -0.200 F 
ATOM     88  C   UNL     1      -6.324   5.476   8.708  1.00  0.00     0.200 A 
ATOM     89  F   UNL     1      -3.991   5.802   8.549  1.00  0.00    -0.200 F 
ATOM     90  F   UNL     1      -6.170   4.817   9.864  1.00  0.00    -0.200 F 
ENDBRANCH  56  80
BRANCH  68  91
ATOM     91  C   UNL     1      -9.727  13.014   5.005  1.00  0.00     0.064 A 
ATOM     92  C   UNL     1      -9.110  13.729   6.043  1.00  0.00     0.173 A 
ATOM     93  C   UNL     1     -11.102  13.214   4.802  1.00  0.00     0.173 A 
ATOM     94  F   UNL     1      -7.800  13.568   6.288  1.00  0.00    -0.203 F 
ATOM     95  C   UNL     1      -9.847  14.569   6.874  1.00  0.00     0.198 A 
ATOM     96  C   UNL     1     -11.829  14.084   5.611  1.00  0.00     0.198 A 
ATOM     97  F   UNL     1     -11.742  12.567   3.817  1.00  0.00    -0.203 F 
ATOM     98  F   UNL     1      -9.248  15.184   7.903  1.00  0.00    -0.200 F 
ATOM     99  C   UNL     1     -11.205  14.749   6.655  1.00  0.00     0.200 A 
ATOM    100  F   UNL     1     -13.137  14.270   5.386  1.00  0.00    -0.200 F 
ATOM    101  F   UNL     1     -11.914  15.554   7.458  1.00  0.00    -0.200 F 
ENDBRANCH  68  91
ENDBRANCH  42  43
ENDBRANCH  35  37
ENDBRANCH  34  35
ENDBRANCH  33  34
ENDBRANCH  32  33
ENDBRANCH  31  32
ENDBRANCH  30  31
ENDBRANCH  29  30
ENDBRANCH  28  29
ENDBRANCH  27  28
ENDBRANCH   1  27
TORSDOF 25
