REMARK SMILES Cc1cc(C(=O)OCCOCCOCCOCCOC(=O)c2ccc(-c3c4nc(c(-c5c(F)c(F)c(F)c(F)c5F)c5ccc([nH]5)c(-c5c(F)c(F)c(F)c(F)c5F)c5nc(c(-c6c(F)c(F)c(F)c(F)c6F)c6ccc3[nH]6)C=C5)C=C4)cc2)cc(S(=O)(=O)NNC(=O)c2c[nH]c3ccccc23)c1C
REMARK SMILES IDX 12 1 11 2 10 3 9 4 8 5 7 6 5 7 6 8 4 9 1 10 2 11 3 12 103 13
REMARK SMILES IDX 86 14 104 15 85 16 87 17 88 18 89 19 90 20 91 22 92 23 93 25
REMARK SMILES IDX 94 26 95 27 102 28 96 29 97 30 101 31 98 33 100 34 99 35
REMARK SMILES IDX 13 36 14 37 15 38 16 39 17 40 18 41 19 42 20 43 21 44 22 45
REMARK SMILES IDX 23 46 84 47 24 48 83 49 25 50 26 51 27 52 77 53 28 54 82 55
REMARK SMILES IDX 76 56 78 57 29 58 81 59 75 60 74 61 30 63 62 64 42 65 61 66
REMARK SMILES IDX 43 67 46 68 60 69 79 70 44 71 45 72 59 74 80 75 47 76 31 77
REMARK SMILES IDX 32 78 40 79 33 80 34 81 38 82 41 83 35 84 36 85 39 86 37 87
REMARK SMILES IDX 63 88 64 89 72 90 65 91 66 92 70 93 73 94 67 95 68 96 71 97
REMARK SMILES IDX 69 98 48 99 49 100 57 101 50 102 51 103 55 104 58 105 52 106
REMARK SMILES IDX 53 107 56 108 54 109
REMARK H PARENT 90 21 91 24 96 32 78 62 46 73
REMARK Flexibility Score: inf
ROOT
ATOM      1  C   UNL     1      -3.346   1.433  -1.970  1.00  0.00     0.188 C 
ENDROOT
BRANCH   1   2
ATOM      2  C   UNL     1      -4.593   0.960  -1.193  1.00  0.00     0.188 C 
BRANCH   2   3
ATOM      3  O   UNL     1      -5.464   2.017  -0.815  1.00  0.00    -0.376 OA
BRANCH   3   4
ATOM      4  C   UNL     1      -5.528   2.360   0.558  1.00  0.00     0.202 C 
BRANCH   4   5
ATOM      5  C   UNL     1      -4.260   2.979   1.156  1.00  0.00     0.261 C 
BRANCH   5   6
ATOM      6  O   UNL     1      -3.070   2.189   1.009  1.00  0.00    -0.460 OA
BRANCH   6   7
ATOM      7  C   UNL     1      -3.017   0.984   1.617  1.00  0.00     0.338 C 
ATOM      8  O   UNL     1      -3.862   0.493   2.350  1.00  0.00    -0.246 OA
BRANCH   7   9
ATOM      9  C   UNL     1      -1.840   0.259   1.076  1.00  0.00     0.061 A 
ATOM     10  C   UNL     1       1.698   1.168   0.051  1.00  0.00     0.044 C 
ATOM     11  C   UNL     1       0.466   0.332   0.296  1.00  0.00    -0.046 A 
ATOM     12  C   UNL     1      -0.654   0.967   0.841  1.00  0.00     0.019 A 
ATOM     13  C   UNL     1       0.405  -1.054   0.022  1.00  0.00    -0.028 A 
ATOM     14  C   UNL     1      -0.842  -1.738   0.144  1.00  0.00     0.088 A 
ATOM     15  C   UNL     1       1.668  -1.808  -0.330  1.00  0.00     0.046 C 
ATOM     16  C   UNL     1      -1.952  -1.091   0.700  1.00  0.00     0.037 A 
BRANCH  14  17
ATOM     17  S   UNL     1      -0.979  -3.406  -0.515  1.00  0.00     0.257 S 
ATOM     18  O   UNL     1      -0.538  -3.351  -1.893  1.00  0.00    -0.205 OA
ATOM     19  O   UNL     1      -0.357  -4.283   0.454  1.00  0.00    -0.205 OA
BRANCH  17  20
ATOM     20  N   UNL     1      -2.629  -3.867  -0.544  1.00  0.00    -0.123 NA
ATOM     21  H   UNL     1      -3.108  -3.314   0.166  1.00  0.00     0.167 HD
BRANCH  20  22
ATOM     22  N   UNL     1      -3.388  -3.708  -1.805  1.00  0.00    -0.273 N 
ATOM     23  C   UNL     1      -4.367  -4.615  -2.210  1.00  0.00     0.268 C 
ATOM     24  H   UNL     1      -3.194  -2.933  -2.380  1.00  0.00     0.186 HD
ATOM     25  O   UNL     1      -5.548  -4.281  -2.263  1.00  0.00    -0.268 OA
BRANCH  23  26
ATOM     26  C   UNL     1      -3.854  -5.822  -2.886  1.00  0.00     0.066 A 
ATOM     27  C   UNL     1      -2.531  -6.005  -3.269  1.00  0.00     0.097 A 
ATOM     28  C   UNL     1      -4.559  -6.641  -3.840  1.00  0.00     0.012 A 
ATOM     29  N   UNL     1      -2.607  -5.934  -4.647  1.00  0.00    -0.360 N 
ATOM     30  C   UNL     1      -3.791  -6.544  -5.008  1.00  0.00     0.046 A 
ATOM     31  C   UNL     1      -5.792  -7.322  -3.919  1.00  0.00     0.011 A 
ATOM     32  H   UNL     1      -1.946  -5.526  -5.253  1.00  0.00     0.166 HD
ATOM     33  C   UNL     1      -4.216  -7.005  -6.255  1.00  0.00     0.027 A 
ATOM     34  C   UNL     1      -6.175  -7.904  -5.141  1.00  0.00     0.001 A 
ATOM     35  C   UNL     1      -5.417  -7.713  -6.296  1.00  0.00     0.002 A 
ENDBRANCH  23  26
ENDBRANCH  20  22
ENDBRANCH  17  20
ENDBRANCH  14  17
ENDBRANCH   7   9
ENDBRANCH   6   7
ENDBRANCH   5   6
ENDBRANCH   4   5
ENDBRANCH   3   4
ENDBRANCH   2   3
ENDBRANCH   1   2
BRANCH   1  36
ATOM     36  O   UNL     1      -3.167   2.827  -2.166  1.00  0.00    -0.377 OA
BRANCH  36  37
ATOM     37  C   UNL     1      -4.241   3.612  -2.675  1.00  0.00     0.188 C 
BRANCH  37  38
ATOM     38  C   UNL     1      -5.425   2.980  -3.444  1.00  0.00     0.188 C 
BRANCH  38  39
ATOM     39  O   UNL     1      -5.204   1.650  -3.885  1.00  0.00    -0.376 OA
BRANCH  39  40
ATOM     40  C   UNL     1      -5.067   1.442  -5.279  1.00  0.00     0.202 C 
BRANCH  40  41
ATOM     41  C   UNL     1      -3.757   1.968  -5.877  1.00  0.00     0.261 C 
BRANCH  41  42
ATOM     42  O   UNL     1      -3.523   3.375  -5.702  1.00  0.00    -0.460 OA
BRANCH  42  43
ATOM     43  C   UNL     1      -4.392   4.223  -6.290  1.00  0.00     0.338 C 
ATOM     44  O   UNL     1      -5.356   3.937  -6.984  1.00  0.00    -0.246 OA
BRANCH  43  45
ATOM     45  C   UNL     1      -4.089   5.581  -5.802  1.00  0.00     0.060 A 
ATOM     46  C   UNL     1      -5.075   6.298  -5.112  1.00  0.00     0.016 A 
ATOM     47  C   UNL     1      -2.825   6.135  -6.015  1.00  0.00     0.016 A 
ATOM     48  C   UNL     1      -4.806   7.589  -4.656  1.00  0.00     0.010 A 
ATOM     49  C   UNL     1      -2.564   7.435  -5.578  1.00  0.00     0.010 A 
ATOM     50  C   UNL     1      -3.563   8.178  -4.925  1.00  0.00    -0.014 A 
BRANCH  50  51
ATOM     51  C   UNL     1      -3.374   9.633  -4.712  1.00  0.00     0.031 A 
ATOM     52  C   UNL     1      -3.557  10.550  -5.889  1.00  0.00     0.074 A 
ATOM     53  C   UNL     1      -3.056  10.133  -3.505  1.00  0.00     0.049 A 
ATOM     54  N   UNL     1      -3.388  11.845  -5.972  1.00  0.00    -0.248 NA
ATOM     55  C   UNL     1      -3.986   9.916  -7.147  1.00  0.00     0.031 C 
ATOM     56  C   UNL     1      -2.891   9.352  -2.282  1.00  0.00     0.029 A 
ATOM     57  N   UNL     1      -2.804  11.426  -3.119  1.00  0.00    -0.354 N 
ATOM     58  C   UNL     1      -3.685  12.178  -7.287  1.00  0.00     0.074 A 
ATOM     59  C   UNL     1      -4.012  10.948  -7.976  1.00  0.00     0.031 C 
ATOM     60  C   UNL     1      -2.550  10.182  -1.280  1.00  0.00     0.029 A 
ATOM     61  C   UNL     1      -2.440  11.545  -1.800  1.00  0.00     0.049 A 
ATOM     62  H   UNL     1      -2.876  12.195  -3.729  1.00  0.00     0.167 HD
ATOM     63  C   UNL     1      -3.695  13.401  -7.866  1.00  0.00     0.037 A 
ATOM     64  C   UNL     1      -2.040  12.628  -1.105  1.00  0.00     0.037 A 
ATOM     65  C   UNL     1      -3.365  14.621  -7.181  1.00  0.00     0.049 A 
ATOM     66  C   UNL     1      -1.977  13.969  -1.796  1.00  0.00     0.074 A 
ATOM     67  C   UNL     1      -3.360  15.914  -7.675  1.00  0.00     0.029 A 
ATOM     68  N   UNL     1      -2.970  14.698  -5.853  1.00  0.00    -0.354 N 
ATOM     69  N   UNL     1      -2.289  14.283  -3.030  1.00  0.00    -0.248 NA
ATOM     70  C   UNL     1      -1.506  15.107  -0.993  1.00  0.00     0.031 C 
ATOM     71  C   UNL     1      -2.906  16.765  -6.663  1.00  0.00     0.029 A 
ATOM     72  C   UNL     1      -2.690  16.013  -5.520  1.00  0.00     0.049 A 
ATOM     73  H   UNL     1      -2.900  13.931  -5.239  1.00  0.00     0.167 HD
ATOM     74  C   UNL     1      -2.085  15.653  -3.142  1.00  0.00     0.074 A 
ATOM     75  C   UNL     1      -1.635  16.114  -1.846  1.00  0.00     0.031 C 
ATOM     76  C   UNL     1      -2.254  16.458  -4.221  1.00  0.00     0.037 A 
BRANCH  63  77
ATOM     77  C   UNL     1      -4.047  13.475  -9.323  1.00  0.00     0.064 A 
ATOM     78  C   UNL     1      -5.353  13.241  -9.779  1.00  0.00     0.173 A 
ATOM     79  C   UNL     1      -3.072  13.818 -10.271  1.00  0.00     0.173 A 
ATOM     80  F   UNL     1      -6.319  12.893  -8.915  1.00  0.00    -0.203 F 
ATOM     81  C   UNL     1      -5.663  13.323 -11.134  1.00  0.00     0.198 A 
ATOM     82  C   UNL     1      -3.393  13.931 -11.621  1.00  0.00     0.198 A 
ATOM     83  F   UNL     1      -1.808  14.054  -9.887  1.00  0.00    -0.203 F 
ATOM     84  F   UNL     1      -6.906  13.049 -11.553  1.00  0.00    -0.200 F 
ATOM     85  C   UNL     1      -4.686  13.677 -12.052  1.00  0.00     0.200 A 
ATOM     86  F   UNL     1      -2.449  14.285 -12.505  1.00  0.00    -0.200 F 
ATOM     87  F   UNL     1      -4.988  13.766 -13.355  1.00  0.00    -0.200 F 
ENDBRANCH  63  77
BRANCH  64  88
ATOM     88  C   UNL     1      -1.645  12.498   0.324  1.00  0.00     0.064 A 
ATOM     89  C   UNL     1      -2.394  13.106   1.341  1.00  0.00     0.173 A 
ATOM     90  C   UNL     1      -0.488  11.798   0.698  1.00  0.00     0.173 A 
ATOM     91  F   UNL     1      -3.492  13.812   1.034  1.00  0.00    -0.203 F 
ATOM     92  C   UNL     1      -1.988  13.040   2.673  1.00  0.00     0.198 A 
ATOM     93  C   UNL     1      -0.101  11.705   2.034  1.00  0.00     0.198 A 
ATOM     94  F   UNL     1       0.268  11.201  -0.235  1.00  0.00    -0.203 F 
ATOM     95  F   UNL     1      -2.691  13.680   3.618  1.00  0.00    -0.200 F 
ATOM     96  C   UNL     1      -0.846  12.335   3.019  1.00  0.00     0.200 A 
ATOM     97  F   UNL     1       0.998  11.014   2.364  1.00  0.00    -0.200 F 
ATOM     98  F   UNL     1      -0.455  12.273   4.299  1.00  0.00    -0.200 F 
ENDBRANCH  64  88
BRANCH  76  99
ATOM     99  C   UNL     1      -1.994  17.927  -4.040  1.00  0.00     0.064 A 
ATOM    100  C   UNL     1      -0.697  18.433  -3.870  1.00  0.00     0.173 A 
ATOM    101  C   UNL     1      -3.054  18.846  -4.090  1.00  0.00     0.173 A 
ATOM    102  F   UNL     1       0.351  17.597  -3.803  1.00  0.00    -0.203 F 
ATOM    103  C   UNL     1      -0.474  19.801  -3.731  1.00  0.00     0.198 A 
ATOM    104  C   UNL     1      -2.824  20.214  -3.984  1.00  0.00     0.198 A 
ATOM    105  F   UNL     1      -4.314  18.416  -4.260  1.00  0.00    -0.203 F 
ATOM    106  F   UNL     1       0.769  20.257  -3.522  1.00  0.00    -0.200 F 
ATOM    107  C   UNL     1      -1.536  20.690  -3.797  1.00  0.00     0.200 A 
ATOM    108  F   UNL     1      -3.850  21.073  -4.066  1.00  0.00    -0.200 F 
ATOM    109  F   UNL     1      -1.318  22.007  -3.675  1.00  0.00    -0.200 F 
ENDBRANCH  76  99
ENDBRANCH  50  51
ENDBRANCH  43  45
ENDBRANCH  42  43
ENDBRANCH  41  42
ENDBRANCH  40  41
ENDBRANCH  39  40
ENDBRANCH  38  39
ENDBRANCH  37  38
ENDBRANCH  36  37
ENDBRANCH   1  36
TORSDOF 24
