REMARK SMILES O=C(NC[C@@H]1CC[C@H](C(=O)OCCOCCOCCOCCOC(=O)c2ccc(-c3c4nc(c(-c5c(F)c(F)c(F)c(F)c5F)c5ccc([nH]5)c(-c5c(F)c(F)c(F)c(F)c5F)c5nc(c(-c6c(F)c(F)c(F)c(F)c6F)c6ccc3[nH]6)C=C5)C=C4)cc2)O1)c1ccc(CO)cc1
REMARK SMILES IDX 15 1 14 2 13 3 12 4 11 5 9 6 10 7 8 8 5 9 6 10 89 11 7 12
REMARK SMILES IDX 4 13 3 14 1 15 2 16 90 18 91 19 97 20 92 21 96 22 93 23
REMARK SMILES IDX 94 24 95 25 16 27 17 28 18 29 19 30 20 31 21 32 22 33 23 34
REMARK SMILES IDX 24 35 25 36 26 37 27 38 88 39 28 40 87 41 29 42 30 43 31 44
REMARK SMILES IDX 81 45 32 46 86 47 80 48 82 49 33 50 85 51 79 52 78 53 34 55
REMARK SMILES IDX 66 56 46 57 65 58 47 59 50 60 64 61 83 62 48 63 49 64 63 66
REMARK SMILES IDX 84 67 51 68 35 69 36 70 44 71 37 72 38 73 42 74 45 75 39 76
REMARK SMILES IDX 40 77 43 78 41 79 67 80 68 81 76 82 69 83 70 84 74 85 77 86
REMARK SMILES IDX 71 87 72 88 75 89 73 90 52 91 53 92 61 93 54 94 55 95 59 96
REMARK SMILES IDX 62 97 56 98 57 99 60 100 58 101
REMARK H PARENT 3 17 95 26 82 54 50 65
REMARK Flexibility Score: inf
ROOT
ATOM      1  C   UNL     1       9.750   2.587   2.064  1.00  0.00     0.188 C 
ENDROOT
BRANCH   1   2
ATOM      2  O   UNL     1      10.326   2.632   0.773  1.00  0.00    -0.376 OA
BRANCH   2   3
ATOM      3  C   UNL     1       9.634   2.118  -0.358  1.00  0.00     0.202 C 
BRANCH   3   4
ATOM      4  C   UNL     1       8.636   0.947  -0.284  1.00  0.00     0.261 C 
BRANCH   4   5
ATOM      5  O   UNL     1       7.651   1.014   0.764  1.00  0.00    -0.461 OA
BRANCH   5   6
ATOM      6  C   UNL     1       7.656  -0.015   1.647  1.00  0.00     0.335 C 
ATOM      7  O   UNL     1       8.408  -0.983   1.557  1.00  0.00    -0.249 OA
BRANCH   6   8
ATOM      8  C   UNL     1       6.672   0.135   2.821  1.00  0.00     0.228 C 
ATOM      9  C   UNL     1       4.513  -0.672   2.415  1.00  0.00     0.138 C 
ATOM     10  C   UNL     1       4.487   0.832   2.208  1.00  0.00     0.037 C 
ATOM     11  O   UNL     1       5.836  -1.035   2.849  1.00  0.00    -0.361 OA
ATOM     12  C   UNL     1       5.707   1.300   2.938  1.00  0.00     0.047 C 
BRANCH   9  13
ATOM     13  C   UNL     1       4.160  -1.426   1.131  1.00  0.00     0.148 C 
BRANCH  13  14
ATOM     14  N   UNL     1       2.766  -1.219   0.750  1.00  0.00    -0.349 N 
ATOM     15  O   UNL     1       1.022  -0.091  -0.121  1.00  0.00    -0.269 OA
ATOM     16  C   UNL     1       2.221  -0.353  -0.167  1.00  0.00     0.251 C 
ATOM     17  H   UNL     1       2.117  -1.788   1.223  1.00  0.00     0.163 HD
BRANCH  16  18
ATOM     18  C   UNL     1       3.075   0.290  -1.190  1.00  0.00     0.039 A 
ATOM     19  C   UNL     1       4.026  -0.447  -1.896  1.00  0.00     0.014 A 
ATOM     20  C   UNL     1       2.915   1.653  -1.457  1.00  0.00     0.014 A 
ATOM     21  C   UNL     1       4.899   0.195  -2.771  1.00  0.00     0.007 A 
ATOM     22  C   UNL     1       3.779   2.292  -2.353  1.00  0.00     0.007 A 
ATOM     23  C   UNL     1       4.798   1.573  -2.999  1.00  0.00    -0.023 A 
BRANCH  23  24
ATOM     24  C   UNL     1       5.814   2.221  -3.898  1.00  0.00     0.191 C 
BRANCH  24  25
ATOM     25  O   UNL     1       7.014   2.475  -3.186  1.00  0.00    -0.392 OA
ATOM     26  H   UNL     1       6.829   3.072  -2.444  1.00  0.00     0.211 HD
ENDBRANCH  24  25
ENDBRANCH  23  24
ENDBRANCH  16  18
ENDBRANCH  13  14
ENDBRANCH   9  13
ENDBRANCH   6   8
ENDBRANCH   5   6
ENDBRANCH   4   5
ENDBRANCH   3   4
ENDBRANCH   2   3
ENDBRANCH   1   2
BRANCH   1  27
ATOM     27  C   UNL     1       8.451   3.353   2.342  1.00  0.00     0.188 C 
BRANCH  27  28
ATOM     28  O   UNL     1       7.608   3.551   1.222  1.00  0.00    -0.377 OA
BRANCH  28  29
ATOM     29  C   UNL     1       7.768   4.716   0.425  1.00  0.00     0.188 C 
BRANCH  29  30
ATOM     30  C   UNL     1       9.053   5.556   0.530  1.00  0.00     0.188 C 
BRANCH  30  31
ATOM     31  O   UNL     1       9.485   5.799   1.858  1.00  0.00    -0.376 OA
BRANCH  31  32
ATOM     32  C   UNL     1       9.047   6.976   2.521  1.00  0.00     0.202 C 
BRANCH  32  33
ATOM     33  C   UNL     1       7.536   7.181   2.718  1.00  0.00     0.261 C 
BRANCH  33  34
ATOM     34  O   UNL     1       6.731   7.297   1.529  1.00  0.00    -0.460 OA
BRANCH  34  35
ATOM     35  C   UNL     1       7.078   8.216   0.604  1.00  0.00     0.338 C 
ATOM     36  O   UNL     1       7.971   9.033   0.673  1.00  0.00    -0.246 OA
BRANCH  35  37
ATOM     37  C   UNL     1       6.285   7.955  -0.620  1.00  0.00     0.060 A 
ATOM     38  C   UNL     1       6.956   7.670  -1.816  1.00  0.00     0.016 A 
ATOM     39  C   UNL     1       4.892   8.036  -0.596  1.00  0.00     0.016 A 
ATOM     40  C   UNL     1       6.236   7.519  -3.004  1.00  0.00     0.010 A 
ATOM     41  C   UNL     1       4.173   7.901  -1.790  1.00  0.00     0.010 A 
ATOM     42  C   UNL     1       4.843   7.683  -3.007  1.00  0.00    -0.014 A 
BRANCH  42  43
ATOM     43  C   UNL     1       4.105   7.785  -4.294  1.00  0.00     0.031 A 
ATOM     44  C   UNL     1       3.748   9.137  -4.822  1.00  0.00     0.074 A 
ATOM     45  C   UNL     1       3.746   6.696  -4.994  1.00  0.00     0.049 A 
ATOM     46  N   UNL     1       3.062   9.449  -5.890  1.00  0.00    -0.248 NA
ATOM     47  C   UNL     1       4.211  10.289  -4.035  1.00  0.00     0.031 C 
ATOM     48  C   UNL     1       4.040   5.337  -4.581  1.00  0.00     0.029 A 
ATOM     49  N   UNL     1       3.058   6.545  -6.174  1.00  0.00    -0.354 N 
ATOM     50  C   UNL     1       2.996  10.832  -5.898  1.00  0.00     0.074 A 
ATOM     51  C   UNL     1       3.687  11.298  -4.713  1.00  0.00     0.031 C 
ATOM     52  C   UNL     1       3.537   4.483  -5.486  1.00  0.00     0.029 A 
ATOM     53  C   UNL     1       2.863   5.233  -6.535  1.00  0.00     0.049 A 
ATOM     54  H   UNL     1       2.735   7.305  -6.710  1.00  0.00     0.167 HD
ATOM     55  C   UNL     1       2.411  11.636  -6.816  1.00  0.00     0.037 A 
ATOM     56  C   UNL     1       2.205   4.682  -7.574  1.00  0.00     0.037 A 
ATOM     57  C   UNL     1       1.713  11.164  -7.983  1.00  0.00     0.049 A 
ATOM     58  C   UNL     1       1.525   5.596  -8.554  1.00  0.00     0.074 A 
ATOM     59  C   UNL     1       1.099  11.907  -8.976  1.00  0.00     0.029 A 
ATOM     60  N   UNL     1       1.521   9.828  -8.310  1.00  0.00    -0.354 N 
ATOM     61  N   UNL     1       1.491   6.905  -8.567  1.00  0.00    -0.248 NA
ATOM     62  C   UNL     1       0.783   4.963  -9.652  1.00  0.00     0.031 C 
ATOM     63  C   UNL     1       0.485  11.024  -9.869  1.00  0.00     0.029 A 
ATOM     64  C   UNL     1       0.774   9.727  -9.475  1.00  0.00     0.049 A 
ATOM     65  H   UNL     1       1.864   9.065  -7.792  1.00  0.00     0.167 HD
ATOM     66  C   UNL     1       0.742   7.255  -9.680  1.00  0.00     0.074 A 
ATOM     67  C   UNL     1       0.362   6.019 -10.332  1.00  0.00     0.031 C 
ATOM     68  C   UNL     1       0.397   8.491 -10.115  1.00  0.00     0.037 A 
BRANCH  55  69
ATOM     69  C   UNL     1       2.470  13.112  -6.559  1.00  0.00     0.064 A 
ATOM     70  C   UNL     1       3.673  13.830  -6.639  1.00  0.00     0.173 A 
ATOM     71  C   UNL     1       1.304  13.816  -6.225  1.00  0.00     0.173 A 
ATOM     72  F   UNL     1       4.820  13.197  -6.931  1.00  0.00    -0.203 F 
ATOM     73  C   UNL     1       3.711  15.194  -6.364  1.00  0.00     0.198 A 
ATOM     74  C   UNL     1       1.340  15.186  -5.984  1.00  0.00     0.198 A 
ATOM     75  F   UNL     1       0.130  13.175  -6.130  1.00  0.00    -0.203 F 
ATOM     76  F   UNL     1       4.881  15.847  -6.386  1.00  0.00    -0.200 F 
ATOM     77  C   UNL     1       2.544  15.872  -6.044  1.00  0.00     0.200 A 
ATOM     78  F   UNL     1       0.210  15.841  -5.685  1.00  0.00    -0.200 F 
ATOM     79  F   UNL     1       2.582  17.185  -5.782  1.00  0.00    -0.200 F 
ENDBRANCH  55  69
BRANCH  56  80
ATOM     80  C   UNL     1       2.148   3.201  -7.740  1.00  0.00     0.064 A 
ATOM     81  C   UNL     1       2.755   2.569  -8.836  1.00  0.00     0.173 A 
ATOM     82  C   UNL     1       1.481   2.384  -6.814  1.00  0.00     0.173 A 
ATOM     83  F   UNL     1       3.389   3.301  -9.764  1.00  0.00    -0.203 F 
ATOM     84  C   UNL     1       2.680   1.187  -9.008  1.00  0.00     0.198 A 
ATOM     85  C   UNL     1       1.439   0.999  -6.966  1.00  0.00     0.198 A 
ATOM     86  F   UNL     1       0.886   2.932  -5.744  1.00  0.00    -0.203 F 
ATOM     87  F   UNL     1       3.227   0.618 -10.091  1.00  0.00    -0.200 F 
ATOM     88  C   UNL     1       2.030   0.402  -8.068  1.00  0.00     0.200 A 
ATOM     89  F   UNL     1       0.827   0.244  -6.044  1.00  0.00    -0.200 F 
ATOM     90  F   UNL     1       1.968  -0.927  -8.228  1.00  0.00    -0.200 F 
ENDBRANCH  56  80
BRANCH  68  91
ATOM     91  C   UNL     1      -0.405   8.568 -11.382  1.00  0.00     0.064 A 
ATOM     92  C   UNL     1      -1.744   8.151 -11.437  1.00  0.00     0.173 A 
ATOM     93  C   UNL     1       0.170   9.085 -12.552  1.00  0.00     0.173 A 
ATOM     94  F   UNL     1      -2.335   7.630 -10.351  1.00  0.00    -0.203 F 
ATOM     95  C   UNL     1      -2.466   8.222 -12.625  1.00  0.00     0.198 A 
ATOM     96  C   UNL     1      -0.565   9.188 -13.728  1.00  0.00     0.198 A 
ATOM     97  F   UNL     1       1.446   9.500 -12.552  1.00  0.00    -0.203 F 
ATOM     98  F   UNL     1      -3.725   7.764 -12.670  1.00  0.00    -0.200 F 
ATOM     99  C   UNL     1      -1.879   8.747 -13.767  1.00  0.00     0.200 A 
ATOM    100  F   UNL     1      -0.001   9.709 -14.826  1.00  0.00    -0.200 F 
ATOM    101  F   UNL     1      -2.578   8.820 -14.908  1.00  0.00    -0.200 F 
ENDBRANCH  68  91
ENDBRANCH  42  43
ENDBRANCH  35  37
ENDBRANCH  34  35
ENDBRANCH  33  34
ENDBRANCH  32  33
ENDBRANCH  31  32
ENDBRANCH  30  31
ENDBRANCH  29  30
ENDBRANCH  28  29
ENDBRANCH  27  28
ENDBRANCH   1  27
TORSDOF 25
