REMARK SMILES O=C(OCCOCCOCCOCCOC(=O)c1ccc2nc(C3CCCCC3)[nH]c2c1)c1ccc(-c2c3nc(c(-c4c(F)c(F)c(F)c(F)c4F)c4ccc([nH]4)c(-c4c(F)c(F)c(F)c(F)c4F)c4nc(c(-c5c(F)c(F)c(F)c(F)c5F)c5ccc2[nH]5)C=C4)C=C3)cc1
REMARK SMILES IDX 8 1 7 2 6 3 5 4 4 5 3 6 2 7 1 8 33 9 34 10 95 11 35 12 94 13
REMARK SMILES IDX 36 14 37 15 38 16 88 17 39 18 93 19 87 20 89 21 40 22 92 23
REMARK SMILES IDX 86 24 85 25 41 27 73 28 53 29 72 30 54 31 57 32 71 33 90 34
REMARK SMILES IDX 55 35 56 36 70 38 91 39 58 40 42 41 43 42 51 43 44 44 45 45
REMARK SMILES IDX 49 46 52 47 46 48 47 49 50 50 48 51 74 52 75 53 83 54 76 55
REMARK SMILES IDX 77 56 81 57 84 58 78 59 79 60 82 61 80 62 59 63 60 64 68 65
REMARK SMILES IDX 61 66 62 67 66 68 69 69 63 70 64 71 67 72 65 73 9 74 10 75
REMARK SMILES IDX 11 76 12 77 13 78 14 79 15 80 16 81 17 82 18 83 19 84 32 85
REMARK SMILES IDX 20 86 31 87 21 88 30 89 22 90 23 91 24 93 25 94 29 95 26 96
REMARK SMILES IDX 28 97 27 98
REMARK H PARENT 89 26 57 37 30 92
REMARK Flexibility Score: inf
ROOT
ATOM      1  C   UNL     1       1.832  -0.494  -2.749  1.00  0.00     0.188 C 
ENDROOT
BRANCH   1   2
ATOM      2  C   UNL     1       2.253  -0.881  -1.333  1.00  0.00     0.188 C 
BRANCH   2   3
ATOM      3  O   UNL     1       3.595  -0.457  -1.069  1.00  0.00    -0.376 OA
BRANCH   3   4
ATOM      4  C   UNL     1       4.378  -1.377  -0.308  1.00  0.00     0.202 C 
BRANCH   4   5
ATOM      5  C   UNL     1       4.215  -1.230   1.206  1.00  0.00     0.261 C 
BRANCH   5   6
ATOM      6  O   UNL     1       2.860  -0.940   1.577  1.00  0.00    -0.460 OA
BRANCH   6   7
ATOM      7  C   UNL     1       2.277   0.275   1.732  1.00  0.00     0.338 C 
ATOM      8  O   UNL     1       1.098   0.309   2.082  1.00  0.00    -0.246 OA
BRANCH   7   9
ATOM      9  C   UNL     1       2.976   1.588   1.531  1.00  0.00     0.060 A 
ATOM     10  C   UNL     1       4.132   1.800   0.776  1.00  0.00     0.016 A 
ATOM     11  C   UNL     1       2.378   2.712   2.130  1.00  0.00     0.016 A 
ATOM     12  C   UNL     1       4.731   3.049   0.689  1.00  0.00     0.010 A 
ATOM     13  C   UNL     1       2.958   3.981   2.034  1.00  0.00     0.010 A 
ATOM     14  C   UNL     1       4.165   4.136   1.347  1.00  0.00    -0.014 A 
BRANCH  14  15
ATOM     15  C   UNL     1       4.986   5.350   1.485  1.00  0.00     0.031 A 
ATOM     16  C   UNL     1       5.726   5.537   2.775  1.00  0.00     0.074 A 
ATOM     17  C   UNL     1       5.183   6.160   0.433  1.00  0.00     0.049 A 
ATOM     18  N   UNL     1       6.495   6.518   3.162  1.00  0.00    -0.248 NA
ATOM     19  C   UNL     1       5.596   4.448   3.760  1.00  0.00     0.031 C 
ATOM     20  C   UNL     1       4.620   5.958  -0.902  1.00  0.00     0.029 A 
ATOM     21  N   UNL     1       5.939   7.294   0.313  1.00  0.00    -0.354 N 
ATOM     22  C   UNL     1       6.909   6.181   4.444  1.00  0.00     0.074 A 
ATOM     23  C   UNL     1       6.311   4.908   4.772  1.00  0.00     0.031 C 
ATOM     24  C   UNL     1       5.067   6.929  -1.715  1.00  0.00     0.029 A 
ATOM     25  C   UNL     1       5.892   7.852  -0.941  1.00  0.00     0.049 A 
ATOM     26  H   UNL     1       6.465   7.674   1.053  1.00  0.00     0.167 HD
ATOM     27  C   UNL     1       7.712   6.886   5.273  1.00  0.00     0.037 A 
ATOM     28  C   UNL     1       6.436   9.000  -1.386  1.00  0.00     0.037 A 
ATOM     29  C   UNL     1       8.286   8.152   4.913  1.00  0.00     0.049 A 
ATOM     30  C   UNL     1       7.236   9.824  -0.412  1.00  0.00     0.074 A 
ATOM     31  C   UNL     1       9.053   9.009   5.678  1.00  0.00     0.029 A 
ATOM     32  N   UNL     1       8.144   8.742   3.662  1.00  0.00    -0.354 N 
ATOM     33  N   UNL     1       7.561   9.552   0.831  1.00  0.00    -0.248 NA
ATOM     34  C   UNL     1       7.729  11.120  -0.891  1.00  0.00     0.031 C 
ATOM     35  C   UNL     1       9.337  10.140   4.902  1.00  0.00     0.029 A 
ATOM     36  C   UNL     1       8.793   9.963   3.637  1.00  0.00     0.049 A 
ATOM     37  H   UNL     1       7.653   8.349   2.905  1.00  0.00     0.167 HD
ATOM     38  C   UNL     1       8.309  10.630   1.279  1.00  0.00     0.074 A 
ATOM     39  C   UNL     1       8.403  11.555   0.165  1.00  0.00     0.031 C 
ATOM     40  C   UNL     1       8.866  10.845   2.498  1.00  0.00     0.037 A 
BRANCH  27  41
ATOM     41  C   UNL     1       7.912   6.332   6.653  1.00  0.00     0.064 A 
ATOM     42  C   UNL     1       8.662   5.170   6.891  1.00  0.00     0.173 A 
ATOM     43  C   UNL     1       7.271   6.933   7.747  1.00  0.00     0.173 A 
ATOM     44  F   UNL     1       9.266   4.536   5.875  1.00  0.00    -0.203 F 
ATOM     45  C   UNL     1       8.723   4.605   8.164  1.00  0.00     0.198 A 
ATOM     46  C   UNL     1       7.359   6.382   9.023  1.00  0.00     0.198 A 
ATOM     47  F   UNL     1       6.533   8.040   7.575  1.00  0.00    -0.203 F 
ATOM     48  F   UNL     1       9.377   3.450   8.352  1.00  0.00    -0.200 F 
ATOM     49  C   UNL     1       8.072   5.211   9.228  1.00  0.00     0.200 A 
ATOM     50  F   UNL     1       6.729   6.970  10.050  1.00  0.00    -0.200 F 
ATOM     51  F   UNL     1       8.114   4.655  10.447  1.00  0.00    -0.200 F 
ENDBRANCH  27  41
BRANCH  28  52
ATOM     52  C   UNL     1       6.207   9.442  -2.788  1.00  0.00     0.064 A 
ATOM     53  C   UNL     1       7.263   9.530  -3.706  1.00  0.00     0.173 A 
ATOM     54  C   UNL     1       4.923   9.782  -3.244  1.00  0.00     0.173 A 
ATOM     55  F   UNL     1       8.513   9.240  -3.317  1.00  0.00    -0.203 F 
ATOM     56  C   UNL     1       7.045   9.945  -5.020  1.00  0.00     0.198 A 
ATOM     57  C   UNL     1       4.701  10.168  -4.564  1.00  0.00     0.198 A 
ATOM     58  F   UNL     1       3.876   9.723  -2.408  1.00  0.00    -0.203 F 
ATOM     59  F   UNL     1       8.078  10.054  -5.866  1.00  0.00    -0.200 F 
ATOM     60  C   UNL     1       5.763  10.255  -5.450  1.00  0.00     0.200 A 
ATOM     61  F   UNL     1       3.459  10.454  -4.977  1.00  0.00    -0.200 F 
ATOM     62  F   UNL     1       5.553  10.644  -6.715  1.00  0.00    -0.200 F 
ENDBRANCH  28  52
BRANCH  40  63
ATOM     63  C   UNL     1       9.652  12.109   2.668  1.00  0.00     0.064 A 
ATOM     64  C   UNL     1       9.023  13.357   2.776  1.00  0.00     0.173 A 
ATOM     65  C   UNL     1      11.049  12.059   2.783  1.00  0.00     0.173 A 
ATOM     66  F   UNL     1       7.690  13.454   2.658  1.00  0.00    -0.203 F 
ATOM     67  C   UNL     1       9.769  14.515   2.972  1.00  0.00     0.198 A 
ATOM     68  C   UNL     1      11.788  13.214   3.010  1.00  0.00     0.198 A 
ATOM     69  F   UNL     1      11.694  10.885   2.695  1.00  0.00    -0.203 F 
ATOM     70  F   UNL     1       9.153  15.704   3.030  1.00  0.00    -0.200 F 
ATOM     71  C   UNL     1      11.149  14.442   3.098  1.00  0.00     0.200 A 
ATOM     72  F   UNL     1      13.120  13.140   3.146  1.00  0.00    -0.200 F 
ATOM     73  F   UNL     1      11.864  15.557   3.298  1.00  0.00    -0.200 F 
ENDBRANCH  40  63
ENDBRANCH  14  15
ENDBRANCH   7   9
ENDBRANCH   6   7
ENDBRANCH   5   6
ENDBRANCH   4   5
ENDBRANCH   3   4
ENDBRANCH   2   3
ENDBRANCH   1   2
BRANCH   1  74
ATOM     74  O   UNL     1       2.492  -1.208  -3.790  1.00  0.00    -0.377 OA
BRANCH  74  75
ATOM     75  C   UNL     1       3.912  -1.253  -3.740  1.00  0.00     0.188 C 
BRANCH  75  76
ATOM     76  C   UNL     1       4.697   0.076  -3.756  1.00  0.00     0.188 C 
BRANCH  76  77
ATOM     77  O   UNL     1       3.901   1.249  -3.862  1.00  0.00    -0.376 OA
BRANCH  77  78
ATOM     78  C   UNL     1       3.883   1.862  -5.148  1.00  0.00     0.202 C 
BRANCH  78  79
ATOM     79  C   UNL     1       3.074   1.109  -6.212  1.00  0.00     0.261 C 
BRANCH  79  80
ATOM     80  O   UNL     1       3.566  -0.198  -6.559  1.00  0.00    -0.460 OA
BRANCH  80  81
ATOM     81  C   UNL     1       4.819  -0.322  -7.051  1.00  0.00     0.338 C 
ATOM     82  O   UNL     1       5.605   0.574  -7.301  1.00  0.00    -0.246 OA
BRANCH  81  83
ATOM     83  C   UNL     1       5.164  -1.766  -6.992  1.00  0.00     0.062 A 
ATOM     84  C   UNL     1       4.256  -2.725  -7.461  1.00  0.00     0.018 A 
ATOM     85  C   UNL     1       6.338  -2.139  -6.307  1.00  0.00     0.044 A 
ATOM     86  C   UNL     1       4.493  -4.091  -7.253  1.00  0.00     0.031 A 
ATOM     87  C   UNL     1       6.519  -3.508  -6.079  1.00  0.00     0.066 A 
ATOM     88  C   UNL     1       5.640  -4.480  -6.545  1.00  0.00     0.089 A 
ATOM     89  N   UNL     1       7.479  -4.222  -5.405  1.00  0.00    -0.342 N 
ATOM     90  N   UNL     1       6.086  -5.736  -6.221  1.00  0.00    -0.233 NA
ATOM     91  C   UNL     1       7.232  -5.564  -5.592  1.00  0.00     0.110 A 
ATOM     92  H   UNL     1       8.217  -3.840  -4.877  1.00  0.00     0.168 HD
BRANCH  91  93
ATOM     93  C   UNL     1       8.195  -6.658  -5.224  1.00  0.00     0.055 C 
ATOM     94  C   UNL     1       9.654  -6.257  -5.492  1.00  0.00     0.011 C 
ATOM     95  C   UNL     1       8.024  -7.144  -3.780  1.00  0.00     0.011 C 
ATOM     96  C   UNL     1      10.609  -7.409  -5.199  1.00  0.00     0.001 C 
ATOM     97  C   UNL     1       8.986  -8.298  -3.475  1.00  0.00     0.001 C 
ATOM     98  C   UNL     1      10.437  -7.930  -3.776  1.00  0.00     0.000 C 
ENDBRANCH  91  93
ENDBRANCH  81  83
ENDBRANCH  80  81
ENDBRANCH  79  80
ENDBRANCH  78  79
ENDBRANCH  77  78
ENDBRANCH  76  77
ENDBRANCH  75  76
ENDBRANCH  74  75
ENDBRANCH   1  74
TORSDOF 21
