REMARK SMILES CC(C)(C[S@](=O)c1cccc(Cl)c1)C(=O)OCCOCCOCCOCCOC(=O)c1ccc(-c2c3nc(c(-c4c(F)c(F)c(F)c(F)c4F)c4ccc([nH]4)c(-c4c(F)c(F)c(F)c(F)c4F)c4nc(c(-c5c(F)c(F)c(F)c(F)c5F)c5ccc2[nH]5)C=C4)C=C3)cc1
REMARK SMILES IDX 21 1 20 2 19 3 18 4 17 5 16 6 14 7 15 8 2 9 1 10 3 11 4 12
REMARK SMILES IDX 5 13 6 14 7 15 8 16 13 17 9 18 11 19 10 20 12 21 22 22 23 23
REMARK SMILES IDX 24 24 25 25 26 26 27 27 28 28 29 29 30 30 31 31 32 32 93 33
REMARK SMILES IDX 33 34 92 35 34 36 35 37 36 38 86 39 37 40 91 41 85 42 87 43
REMARK SMILES IDX 38 44 90 45 84 46 83 47 39 49 71 50 51 51 70 52 52 53 55 54
REMARK SMILES IDX 69 55 88 56 53 57 54 58 68 60 89 61 56 62 40 63 41 64 49 65
REMARK SMILES IDX 42 66 43 67 47 68 50 69 44 70 45 71 48 72 46 73 72 74 73 75
REMARK SMILES IDX 81 76 74 77 75 78 79 79 82 80 76 81 77 82 80 83 78 84 57 85
REMARK SMILES IDX 58 86 66 87 59 88 60 89 64 90 67 91 61 92 62 93 65 94 63 95
REMARK H PARENT 87 48 55 59
REMARK Flexibility Score: inf
ROOT
ATOM      1  C   UNL     1      -1.502  -0.133  -3.374  1.00  0.00     0.188 C 
ENDROOT
BRANCH   1   2
ATOM      2  C   UNL     1      -1.446  -1.673  -3.301  1.00  0.00     0.188 C 
BRANCH   2   3
ATOM      3  O   UNL     1      -1.720  -2.289  -4.540  1.00  0.00    -0.376 OA
BRANCH   3   4
ATOM      4  C   UNL     1      -3.052  -2.693  -4.785  1.00  0.00     0.202 C 
BRANCH   4   5
ATOM      5  C   UNL     1      -4.229  -1.732  -4.509  1.00  0.00     0.261 C 
BRANCH   5   6
ATOM      6  O   UNL     1      -4.257  -0.965  -3.277  1.00  0.00    -0.463 OA
BRANCH   6   7
ATOM      7  C   UNL     1      -4.436  -1.647  -2.120  1.00  0.00     0.312 C 
ATOM      8  O   UNL     1      -4.554  -2.868  -2.096  1.00  0.00    -0.252 OA
BRANCH   7   9
ATOM      9  C   UNL     1      -4.643  -0.744  -0.873  1.00  0.00     0.074 C 
ATOM     10  C   UNL     1      -4.416  -1.641   0.360  1.00  0.00     0.024 C 
ATOM     11  C   UNL     1      -6.147  -0.389  -0.943  1.00  0.00     0.024 C 
BRANCH   9  12
ATOM     12  C   UNL     1      -3.883   0.614  -0.696  1.00  0.00     0.128 C 
BRANCH  12  13
ATOM     13  S   UNL     1      -2.095   0.564  -0.410  1.00  0.00     0.054 S 
ATOM     14  O   UNL     1      -1.648  -0.775   0.076  1.00  0.00    -0.254 OA
BRANCH  13  15
ATOM     15  C   UNL     1      -1.691   1.764   0.869  1.00  0.00     0.040 A 
ATOM     16  C   UNL     1      -0.944   1.328   1.977  1.00  0.00     0.018 A 
ATOM     17  C   UNL     1      -1.865   3.140   0.682  1.00  0.00     0.038 A 
ATOM     18  C   UNL     1      -0.376   2.233   2.877  1.00  0.00     0.003 A 
ATOM     19  C   UNL     1      -1.292   4.045   1.589  1.00  0.00     0.042 A 
ATOM     20  C   UNL     1      -0.546   3.599   2.680  1.00  0.00     0.020 A 
ATOM     21  Cl  UNL     1      -1.455   5.740   1.327  1.00  0.00    -0.084 Cl
ENDBRANCH  13  15
ENDBRANCH  12  13
ENDBRANCH   9  12
ENDBRANCH   7   9
ENDBRANCH   6   7
ENDBRANCH   5   6
ENDBRANCH   4   5
ENDBRANCH   3   4
ENDBRANCH   2   3
ENDBRANCH   1   2
BRANCH   1  22
ATOM     22  O   UNL     1      -1.468   0.596  -4.591  1.00  0.00    -0.377 OA
BRANCH  22  23
ATOM     23  C   UNL     1      -0.801   0.015  -5.690  1.00  0.00     0.188 C 
BRANCH  23  24
ATOM     24  C   UNL     1       0.648  -0.461  -5.482  1.00  0.00     0.188 C 
BRANCH  24  25
ATOM     25  O   UNL     1       0.987  -0.702  -4.129  1.00  0.00    -0.376 OA
BRANCH  25  26
ATOM     26  C   UNL     1       1.898   0.157  -3.466  1.00  0.00     0.202 C 
BRANCH  26  27
ATOM     27  C   UNL     1       1.583   1.655  -3.308  1.00  0.00     0.261 C 
BRANCH  27  28
ATOM     28  O   UNL     1       0.957   2.306  -4.415  1.00  0.00    -0.460 OA
BRANCH  28  29
ATOM     29  C   UNL     1       1.726   2.587  -5.484  1.00  0.00     0.338 C 
ATOM     30  O   UNL     1       2.904   2.312  -5.650  1.00  0.00    -0.246 OA
BRANCH  29  31
ATOM     31  C   UNL     1       0.835   3.159  -6.505  1.00  0.00     0.060 A 
ATOM     32  C   UNL     1       0.584   2.442  -7.683  1.00  0.00     0.016 A 
ATOM     33  C   UNL     1       0.214   4.387  -6.270  1.00  0.00     0.016 A 
ATOM     34  C   UNL     1      -0.322   2.935  -8.619  1.00  0.00     0.010 A 
ATOM     35  C   UNL     1      -0.644   4.910  -7.234  1.00  0.00     0.010 A 
ATOM     36  C   UNL     1      -0.901   4.192  -8.417  1.00  0.00    -0.014 A 
BRANCH  36  37
ATOM     37  C   UNL     1      -1.550   4.894  -9.543  1.00  0.00     0.031 A 
ATOM     38  C   UNL     1      -0.679   5.783 -10.381  1.00  0.00     0.074 A 
ATOM     39  C   UNL     1      -2.865   4.781  -9.787  1.00  0.00     0.049 A 
ATOM     40  N   UNL     1      -1.010   6.645 -11.304  1.00  0.00    -0.248 NA
ATOM     41  C   UNL     1       0.770   5.693 -10.128  1.00  0.00     0.031 C 
ATOM     42  C   UNL     1      -3.787   3.896  -9.080  1.00  0.00     0.029 A 
ATOM     43  N   UNL     1      -3.657   5.445 -10.690  1.00  0.00    -0.354 N 
ATOM     44  C   UNL     1       0.186   7.207 -11.730  1.00  0.00     0.074 A 
ATOM     45  C   UNL     1       1.247   6.610 -10.953  1.00  0.00     0.031 C 
ATOM     46  C   UNL     1      -5.029   4.093  -9.558  1.00  0.00     0.029 A 
ATOM     47  C   UNL     1      -4.992   5.153 -10.566  1.00  0.00     0.049 A 
ATOM     48  H   UNL     1      -3.301   6.070 -11.363  1.00  0.00     0.167 HD
ATOM     49  C   UNL     1       0.377   8.144 -12.686  1.00  0.00     0.037 A 
ATOM     50  C   UNL     1      -6.057   5.716 -11.171  1.00  0.00     0.037 A 
ATOM     51  C   UNL     1      -0.692   8.744 -13.434  1.00  0.00     0.049 A 
ATOM     52  C   UNL     1      -5.829   6.837 -12.158  1.00  0.00     0.074 A 
ATOM     53  C   UNL     1      -0.619   9.712 -14.418  1.00  0.00     0.029 A 
ATOM     54  N   UNL     1      -2.035   8.437 -13.267  1.00  0.00    -0.354 N 
ATOM     55  N   UNL     1      -4.700   7.370 -12.563  1.00  0.00    -0.248 NA
ATOM     56  C   UNL     1      -7.023   7.440 -12.769  1.00  0.00     0.031 C 
ATOM     57  C   UNL     1      -1.922  10.034 -14.804  1.00  0.00     0.029 A 
ATOM     58  C   UNL     1      -2.803   9.213 -14.116  1.00  0.00     0.049 A 
ATOM     59  H   UNL     1      -2.389   7.767 -12.638  1.00  0.00     0.167 HD
ATOM     60  C   UNL     1      -5.044   8.330 -13.507  1.00  0.00     0.074 A 
ATOM     61  C   UNL     1      -6.487   8.312 -13.611  1.00  0.00     0.031 C 
ATOM     62  C   UNL     1      -4.238   9.148 -14.228  1.00  0.00     0.037 A 
BRANCH  49  63
ATOM     63  C   UNL     1       1.783   8.600 -12.936  1.00  0.00     0.064 A 
ATOM     64  C   UNL     1       2.740   7.758 -13.523  1.00  0.00     0.173 A 
ATOM     65  C   UNL     1       2.176   9.902 -12.595  1.00  0.00     0.173 A 
ATOM     66  F   UNL     1       2.421   6.495 -13.848  1.00  0.00    -0.203 F 
ATOM     67  C   UNL     1       4.045   8.194 -13.734  1.00  0.00     0.198 A 
ATOM     68  C   UNL     1       3.472  10.347 -12.839  1.00  0.00     0.198 A 
ATOM     69  F   UNL     1       1.302  10.746 -12.027  1.00  0.00    -0.203 F 
ATOM     70  F   UNL     1       4.956   7.355 -14.244  1.00  0.00    -0.200 F 
ATOM     71  C   UNL     1       4.407   9.491 -13.400  1.00  0.00     0.200 A 
ATOM     72  F   UNL     1       3.817  11.604 -12.526  1.00  0.00    -0.200 F 
ATOM     73  F   UNL     1       5.662   9.912 -13.611  1.00  0.00    -0.200 F 
ENDBRANCH  49  63
BRANCH  50  74
ATOM     74  C   UNL     1      -7.436   5.256 -10.851  1.00  0.00     0.064 A 
ATOM     75  C   UNL     1      -8.230   4.627 -11.821  1.00  0.00     0.173 A 
ATOM     76  C   UNL     1      -8.002   5.465  -9.584  1.00  0.00     0.173 A 
ATOM     77  F   UNL     1      -7.745   4.427 -13.055  1.00  0.00    -0.203 F 
ATOM     78  C   UNL     1      -9.543   4.250 -11.545  1.00  0.00     0.198 A 
ATOM     79  C   UNL     1      -9.305   5.057  -9.300  1.00  0.00     0.198 A 
ATOM     80  F   UNL     1      -7.290   6.064  -8.619  1.00  0.00    -0.203 F 
ATOM     81  F   UNL     1     -10.296   3.703 -12.509  1.00  0.00    -0.200 F 
ATOM     82  C   UNL     1     -10.077   4.460 -10.283  1.00  0.00     0.200 A 
ATOM     83  F   UNL     1      -9.812   5.250  -8.075  1.00  0.00    -0.200 F 
ATOM     84  F   UNL     1     -11.340   4.097 -10.019  1.00  0.00    -0.200 F 
ENDBRANCH  50  74
BRANCH  62  85
ATOM     85  C   UNL     1      -4.876  10.036 -15.257  1.00  0.00     0.064 A 
ATOM     86  C   UNL     1      -5.622  11.169 -14.905  1.00  0.00     0.173 A 
ATOM     87  C   UNL     1      -4.648   9.796 -16.622  1.00  0.00     0.173 A 
ATOM     88  F   UNL     1      -5.878  11.435 -13.615  1.00  0.00    -0.203 F 
ATOM     89  C   UNL     1      -6.124  12.025 -15.882  1.00  0.00     0.198 A 
ATOM     90  C   UNL     1      -5.122  10.672 -17.593  1.00  0.00     0.198 A 
ATOM     91  F   UNL     1      -3.931   8.730 -17.011  1.00  0.00    -0.203 F 
ATOM     92  F   UNL     1      -6.861  13.086 -15.525  1.00  0.00    -0.200 F 
ATOM     93  C   UNL     1      -5.862  11.783 -17.223  1.00  0.00     0.200 A 
ATOM     94  F   UNL     1      -4.849  10.447 -18.886  1.00  0.00    -0.200 F 
ATOM     95  F   UNL     1      -6.324  12.623 -18.159  1.00  0.00    -0.200 F 
ENDBRANCH  62  85
ENDBRANCH  36  37
ENDBRANCH  29  31
ENDBRANCH  28  29
ENDBRANCH  27  28
ENDBRANCH  26  27
ENDBRANCH  25  26
ENDBRANCH  24  25
ENDBRANCH  23  24
ENDBRANCH  22  23
ENDBRANCH   1  22
TORSDOF 23
