REMARK SMILES Cc1c(Cl)cccc1NC(=O)C[C@H](C(=O)OCCOCCOCCOCCOC(=O)c1ccc(-c2c3nc(c(-c4c(F)c(F)c(F)c(F)c4F)c4ccc([nH]4)c(-c4c(F)c(F)c(F)c(F)c4F)c4nc(c(-c5c(F)c(F)c(F)c(F)c5F)c5ccc2[nH]5)C=C4)C=C3)cc1)[C@H](C)c1ccccc1
REMARK SMILES IDX 21 1 20 2 19 3 18 4 17 5 16 6 14 7 15 8 13 9 12 10 10 11
REMARK SMILES IDX 9 12 11 14 8 15 1 16 2 17 3 18 4 19 5 20 7 21 6 22 94 23
REMARK SMILES IDX 95 24 96 25 97 26 101 27 98 28 100 29 99 30 22 31 23 32
REMARK SMILES IDX 24 33 25 34 26 35 27 36 28 37 29 38 30 39 31 40 32 41 93 42
REMARK SMILES IDX 33 43 92 44 34 45 35 46 36 47 86 48 37 49 91 50 85 51 87 52
REMARK SMILES IDX 38 53 90 54 84 55 83 56 39 58 71 59 51 60 70 61 52 62 55 63
REMARK SMILES IDX 69 64 88 65 53 66 54 67 68 69 89 70 56 71 40 72 41 73 49 74
REMARK SMILES IDX 42 75 43 76 47 77 50 78 44 79 45 80 48 81 46 82 72 83 73 84
REMARK SMILES IDX 81 85 74 86 75 87 79 88 82 89 76 90 77 91 80 92 78 93 57 94
REMARK SMILES IDX 58 95 66 96 59 97 60 98 64 99 67 100 61 101 62 102 65 103
REMARK SMILES IDX 63 104
REMARK H PARENT 9 13 87 57 55 68
REMARK Flexibility Score: inf
ROOT
ATOM      1  C   UNL     1      -9.702   0.566   0.658  1.00  0.00     0.188 C 
ENDROOT
BRANCH   1   2
ATOM      2  C   UNL     1      -9.992  -0.858   0.181  1.00  0.00     0.188 C 
BRANCH   2   3
ATOM      3  O   UNL     1     -10.095  -1.833   1.217  1.00  0.00    -0.376 OA
BRANCH   3   4
ATOM      4  C   UNL     1      -8.933  -2.085   2.005  1.00  0.00     0.202 C 
BRANCH   4   5
ATOM      5  C   UNL     1      -7.675  -2.588   1.274  1.00  0.00     0.261 C 
BRANCH   5   6
ATOM      6  O   UNL     1      -6.973  -1.598   0.476  1.00  0.00    -0.463 OA
BRANCH   6   7
ATOM      7  C   UNL     1      -6.914  -1.824  -0.866  1.00  0.00     0.310 C 
ATOM      8  O   UNL     1      -7.476  -2.768  -1.413  1.00  0.00    -0.252 OA
BRANCH   7   9
ATOM      9  C   UNL     1      -6.011  -0.846  -1.649  1.00  0.00     0.116 C 
BRANCH   9  10
ATOM     10  C   UNL     1      -6.272   0.622  -1.253  1.00  0.00     0.116 C 
BRANCH  10  11
ATOM     11  C   UNL     1      -5.224   1.713  -1.281  1.00  0.00     0.225 C 
ATOM     12  N   UNL     1      -4.342   1.980  -0.276  1.00  0.00    -0.326 N 
ATOM     13  H   UNL     1      -3.848   2.823  -0.398  1.00  0.00     0.169 HD
ATOM     14  O   UNL     1      -5.149   2.444  -2.279  1.00  0.00    -0.275 OA
BRANCH  12  15
ATOM     15  C   UNL     1      -3.997   1.291   0.905  1.00  0.00     0.045 A 
ATOM     16  C   UNL     1      -1.539   1.992   0.589  1.00  0.00     0.048 C 
ATOM     17  C   UNL     1      -2.643   1.269   1.326  1.00  0.00    -0.009 A 
ATOM     18  C   UNL     1      -2.288   0.411   2.393  1.00  0.00     0.046 A 
ATOM     19  Cl  UNL     1      -0.649   0.244   2.925  1.00  0.00    -0.084 Cl
ATOM     20  C   UNL     1      -3.238  -0.388   3.031  1.00  0.00     0.021 A 
ATOM     21  C   UNL     1      -4.933   0.530   1.604  1.00  0.00     0.026 A 
ATOM     22  C   UNL     1      -4.565  -0.315   2.647  1.00  0.00     0.004 A 
ENDBRANCH  12  15
ENDBRANCH  10  11
ENDBRANCH   9  10
BRANCH   9  23
ATOM     23  C   UNL     1      -4.620  -1.539  -1.763  1.00  0.00     0.031 C 
ATOM     24  C   UNL     1      -3.317  -0.751  -1.689  1.00  0.00     0.013 C 
BRANCH  23  25
ATOM     25  C   UNL     1      -4.572  -2.372  -3.051  1.00  0.00    -0.044 A 
ATOM     26  C   UNL     1      -4.887  -3.737  -3.016  1.00  0.00     0.004 A 
ATOM     27  C   UNL     1      -4.226  -1.794  -4.285  1.00  0.00     0.004 A 
ATOM     28  C   UNL     1      -4.805  -4.512  -4.172  1.00  0.00     0.000 A 
ATOM     29  C   UNL     1      -4.116  -2.576  -5.434  1.00  0.00     0.000 A 
ATOM     30  C   UNL     1      -4.398  -3.938  -5.375  1.00  0.00     0.000 A 
ENDBRANCH  23  25
ENDBRANCH   9  23
ENDBRANCH   7   9
ENDBRANCH   6   7
ENDBRANCH   5   6
ENDBRANCH   4   5
ENDBRANCH   3   4
ENDBRANCH   2   3
ENDBRANCH   1   2
BRANCH   1  31
ATOM     31  O   UNL     1      -8.457   0.633   1.341  1.00  0.00    -0.377 OA
BRANCH  31  32
ATOM     32  C   UNL     1      -8.343   1.378   2.551  1.00  0.00     0.188 C 
BRANCH  32  33
ATOM     33  C   UNL     1      -9.586   2.075   3.095  1.00  0.00     0.188 C 
BRANCH  33  34
ATOM     34  O   UNL     1     -10.161   3.092   2.274  1.00  0.00    -0.376 OA
BRANCH  34  35
ATOM     35  C   UNL     1      -9.309   3.837   1.405  1.00  0.00     0.202 C 
BRANCH  35  36
ATOM     36  C   UNL     1      -8.551   4.995   2.054  1.00  0.00     0.261 C 
BRANCH  36  37
ATOM     37  O   UNL     1      -7.555   4.541   2.983  1.00  0.00    -0.460 OA
BRANCH  37  38
ATOM     38  C   UNL     1      -7.927   4.571   4.278  1.00  0.00     0.338 C 
ATOM     39  O   UNL     1      -9.000   4.942   4.742  1.00  0.00    -0.246 OA
BRANCH  38  40
ATOM     40  C   UNL     1      -6.884   3.948   5.103  1.00  0.00     0.060 A 
ATOM     41  C   UNL     1      -7.261   2.956   6.018  1.00  0.00     0.016 A 
ATOM     42  C   UNL     1      -5.570   4.417   5.053  1.00  0.00     0.016 A 
ATOM     43  C   UNL     1      -6.334   2.470   6.932  1.00  0.00     0.010 A 
ATOM     44  C   UNL     1      -4.645   3.940   5.979  1.00  0.00     0.010 A 
ATOM     45  C   UNL     1      -5.040   3.003   6.950  1.00  0.00    -0.014 A 
BRANCH  45  46
ATOM     46  C   UNL     1      -4.162   2.736   8.108  1.00  0.00     0.031 A 
ATOM     47  C   UNL     1      -4.083   3.769   9.196  1.00  0.00     0.074 A 
ATOM     48  C   UNL     1      -3.470   1.590   8.189  1.00  0.00     0.049 A 
ATOM     49  N   UNL     1      -3.333   3.796  10.266  1.00  0.00    -0.248 NA
ATOM     50  C   UNL     1      -4.970   4.936   9.053  1.00  0.00     0.031 C 
ATOM     51  C   UNL     1      -3.518   0.505   7.211  1.00  0.00     0.029 A 
ATOM     52  N   UNL     1      -2.581   1.156   9.137  1.00  0.00    -0.354 N 
ATOM     53  C   UNL     1      -3.646   4.984  10.913  1.00  0.00     0.074 A 
ATOM     54  C   UNL     1      -4.631   5.666  10.104  1.00  0.00     0.031 C 
ATOM     55  C   UNL     1      -2.679  -0.468   7.603  1.00  0.00     0.029 A 
ATOM     56  C   UNL     1      -2.009  -0.053   8.834  1.00  0.00     0.049 A 
ATOM     57  H   UNL     1      -2.374   1.663   9.955  1.00  0.00     0.167 HD
ATOM     58  C   UNL     1      -3.155   5.458  12.083  1.00  0.00     0.037 A 
ATOM     59  C   UNL     1      -1.032  -0.726   9.470  1.00  0.00     0.037 A 
ATOM     60  C   UNL     1      -2.170   4.767  12.873  1.00  0.00     0.049 A 
ATOM     61  C   UNL     1      -0.445  -0.141  10.729  1.00  0.00     0.074 A 
ATOM     62  C   UNL     1      -1.612   5.144  14.081  1.00  0.00     0.029 A 
ATOM     63  N   UNL     1      -1.589   3.555  12.523  1.00  0.00    -0.354 N 
ATOM     64  N   UNL     1      -0.756   0.972  11.351  1.00  0.00    -0.248 NA
ATOM     65  C   UNL     1       0.628  -0.907  11.376  1.00  0.00     0.031 C 
ATOM     66  C   UNL     1      -0.648   4.191  14.430  1.00  0.00     0.029 A 
ATOM     67  C   UNL     1      -0.655   3.185  13.476  1.00  0.00     0.049 A 
ATOM     68  H   UNL     1      -1.809   3.036  11.716  1.00  0.00     0.167 HD
ATOM     69  C   UNL     1       0.059   1.025  12.475  1.00  0.00     0.074 A 
ATOM     70  C   UNL     1       0.867  -0.177  12.456  1.00  0.00     0.031 C 
ATOM     71  C   UNL     1       0.134   1.979  13.437  1.00  0.00     0.037 A 
BRANCH  58  72
ATOM     72  C   UNL     1      -3.644   6.798  12.552  1.00  0.00     0.064 A 
ATOM     73  C   UNL     1      -4.963   6.996  12.990  1.00  0.00     0.173 A 
ATOM     74  C   UNL     1      -2.775   7.900  12.578  1.00  0.00     0.173 A 
ATOM     75  F   UNL     1      -5.841   5.982  12.970  1.00  0.00    -0.203 F 
ATOM     76  C   UNL     1      -5.399   8.252  13.408  1.00  0.00     0.198 A 
ATOM     77  C   UNL     1      -3.205   9.145  13.028  1.00  0.00     0.198 A 
ATOM     78  F   UNL     1      -1.504   7.768  12.171  1.00  0.00    -0.203 F 
ATOM     79  F   UNL     1      -6.678   8.429  13.769  1.00  0.00    -0.200 F 
ATOM     80  C   UNL     1      -4.519   9.323  13.434  1.00  0.00     0.200 A 
ATOM     81  F   UNL     1      -2.349  10.175  13.064  1.00  0.00    -0.200 F 
ATOM     82  F   UNL     1      -4.939  10.528  13.841  1.00  0.00    -0.200 F 
ENDBRANCH  58  72
BRANCH  59  83
ATOM     83  C   UNL     1      -0.541  -2.016   8.921  1.00  0.00     0.064 A 
ATOM     84  C   UNL     1      -0.753  -3.221   9.604  1.00  0.00     0.173 A 
ATOM     85  C   UNL     1       0.154  -2.072   7.703  1.00  0.00     0.173 A 
ATOM     86  F   UNL     1      -1.396  -3.217  10.781  1.00  0.00    -0.203 F 
ATOM     87  C   UNL     1      -0.273  -4.428   9.102  1.00  0.00     0.198 A 
ATOM     88  C   UNL     1       0.606  -3.284   7.186  1.00  0.00     0.198 A 
ATOM     89  F   UNL     1       0.381  -0.949   7.006  1.00  0.00    -0.203 F 
ATOM     90  F   UNL     1      -0.451  -5.559   9.799  1.00  0.00    -0.200 F 
ATOM     91  C   UNL     1       0.400  -4.460   7.890  1.00  0.00     0.200 A 
ATOM     92  F   UNL     1       1.240  -3.312   6.005  1.00  0.00    -0.200 F 
ATOM     93  F   UNL     1       0.854  -5.623   7.404  1.00  0.00    -0.200 F 
ENDBRANCH  59  83
BRANCH  71  94
ATOM     94  C   UNL     1       1.092   1.741  14.569  1.00  0.00     0.064 A 
ATOM     95  C   UNL     1       2.482   1.799  14.388  1.00  0.00     0.173 A 
ATOM     96  C   UNL     1       0.610   1.493  15.864  1.00  0.00     0.173 A 
ATOM     97  F   UNL     1       2.995   2.020  13.168  1.00  0.00    -0.203 F 
ATOM     98  C   UNL     1       3.352   1.586  15.454  1.00  0.00     0.198 A 
ATOM     99  C   UNL     1       1.482   1.317  16.934  1.00  0.00     0.198 A 
ATOM    100  F   UNL     1      -0.711   1.436  16.095  1.00  0.00    -0.203 F 
ATOM    101  F   UNL     1       4.676   1.591  15.245  1.00  0.00    -0.200 F 
ATOM    102  C   UNL     1       2.852   1.355  16.726  1.00  0.00     0.200 A 
ATOM    103  F   UNL     1       0.997   1.112  18.166  1.00  0.00    -0.200 F 
ATOM    104  F   UNL     1       3.692   1.159  17.752  1.00  0.00    -0.200 F 
ENDBRANCH  71  94
ENDBRANCH  45  46
ENDBRANCH  38  40
ENDBRANCH  37  38
ENDBRANCH  36  37
ENDBRANCH  35  36
ENDBRANCH  34  35
ENDBRANCH  33  34
ENDBRANCH  32  33
ENDBRANCH  31  32
ENDBRANCH   1  31
TORSDOF 25
