REMARK SMILES Cc1cccc(-c2ccc(Cl)c(C(=O)OCCOCCOCCOCCOC(=O)c3ccc(-c4c5nc(c(-c6c(F)c(F)c(F)c(F)c6F)c6ccc([nH]6)c(-c6c(F)c(F)c(F)c(F)c6F)c6nc(c(-c7c(F)c(F)c(F)c(F)c7F)c7ccc4[nH]7)C=C6)C=C5)cc3)c2)c1
REMARK SMILES IDX 22 1 21 2 20 3 19 4 18 5 17 6 16 7 15 8 13 9 14 10 12 11
REMARK SMILES IDX 7 12 8 13 93 14 9 15 10 16 11 17 6 18 1 19 2 20 3 21 94 22
REMARK SMILES IDX 4 23 5 24 23 25 24 26 25 27 26 28 27 29 28 30 29 31 30 32
REMARK SMILES IDX 31 33 92 34 32 35 91 36 33 37 34 38 35 39 85 40 36 41 90 42
REMARK SMILES IDX 84 43 86 44 37 45 89 46 83 47 82 48 38 50 70 51 50 52 69 53
REMARK SMILES IDX 51 54 54 55 68 56 87 57 52 58 53 59 67 61 88 62 55 63 39 64
REMARK SMILES IDX 40 65 48 66 41 67 42 68 46 69 49 70 43 71 44 72 47 73 45 74
REMARK SMILES IDX 71 75 72 76 80 77 73 78 74 79 78 80 81 81 75 82 76 83 79 84
REMARK SMILES IDX 77 85 56 86 57 87 65 88 58 89 59 90 63 91 66 92 60 93 61 94
REMARK SMILES IDX 64 95 62 96
REMARK H PARENT 86 49 54 60
REMARK Flexibility Score: inf
ROOT
ATOM      1  C   UNL     1      -7.141   4.585   0.291  1.00  0.00     0.188 C 
ENDROOT
BRANCH   1   2
ATOM      2  O   UNL     1      -5.786   4.133   0.338  1.00  0.00    -0.377 OA
BRANCH   2   3
ATOM      3  C   UNL     1      -5.517   2.802  -0.070  1.00  0.00     0.188 C 
BRANCH   3   4
ATOM      4  C   UNL     1      -4.983   1.844   1.014  1.00  0.00     0.188 C 
BRANCH   4   5
ATOM      5  O   UNL     1      -5.582   1.815   2.302  1.00  0.00    -0.376 OA
BRANCH   5   6
ATOM      6  C   UNL     1      -5.269   2.918   3.148  1.00  0.00     0.202 C 
BRANCH   6   7
ATOM      7  C   UNL     1      -3.797   3.165   3.416  1.00  0.00     0.261 C 
BRANCH   7   8
ATOM      8  O   UNL     1      -3.267   3.874   2.293  1.00  0.00    -0.460 OA
BRANCH   8   9
ATOM      9  C   UNL     1      -1.969   3.629   2.067  1.00  0.00     0.339 C 
ATOM     10  O   UNL     1      -1.166   3.134   2.833  1.00  0.00    -0.246 OA
BRANCH   9  11
ATOM     11  C   UNL     1      -1.814   3.515   0.616  1.00  0.00     0.079 A 
ATOM     12  C   UNL     1      -1.099   1.866  -1.013  1.00  0.00    -0.017 A 
ATOM     13  C   UNL     1      -1.100   2.847  -1.999  1.00  0.00     0.010 A 
ATOM     14  C   UNL     1      -1.477   2.216   0.277  1.00  0.00     0.026 A 
ATOM     15  C   UNL     1      -1.573   4.129  -1.691  1.00  0.00     0.022 A 
ATOM     16  C   UNL     1      -1.954   4.462  -0.384  1.00  0.00     0.055 A 
ATOM     17  Cl  UNL     1      -2.564   6.038  -0.141  1.00  0.00    -0.083 Cl
BRANCH  12  18
ATOM     18  C   UNL     1      -0.487   0.552  -1.079  1.00  0.00    -0.018 A 
ATOM     19  C   UNL     1       2.955  -0.554   0.035  1.00  0.00     0.044 C 
ATOM     20  C   UNL     1       1.503  -0.615  -0.325  1.00  0.00    -0.051 A 
ATOM     21  C   UNL     1       0.730  -1.760  -0.099  1.00  0.00     0.003 A 
ATOM     22  C   UNL     1       0.895   0.519  -0.856  1.00  0.00     0.012 A 
ATOM     23  C   UNL     1      -0.640  -1.758  -0.373  1.00  0.00     0.001 A 
ATOM     24  C   UNL     1      -1.252  -0.605  -0.861  1.00  0.00     0.009 A 
ENDBRANCH  12  18
ENDBRANCH   9  11
ENDBRANCH   8   9
ENDBRANCH   7   8
ENDBRANCH   6   7
ENDBRANCH   5   6
ENDBRANCH   4   5
ENDBRANCH   3   4
ENDBRANCH   2   3
ENDBRANCH   1   2
BRANCH   1  25
ATOM     25  C   UNL     1      -8.271   3.597   0.072  1.00  0.00     0.188 C 
BRANCH  25  26
ATOM     26  O   UNL     1      -8.163   2.610   1.088  1.00  0.00    -0.376 OA
BRANCH  26  27
ATOM     27  C   UNL     1      -8.730   1.346   0.780  1.00  0.00     0.202 C 
BRANCH  27  28
ATOM     28  C   UNL     1     -10.235   1.431   0.509  1.00  0.00     0.261 C 
BRANCH  28  29
ATOM     29  O   UNL     1     -10.911   1.856   1.715  1.00  0.00    -0.460 OA
BRANCH  29  30
ATOM     30  C   UNL     1     -11.259   3.174   1.763  1.00  0.00     0.338 C 
ATOM     31  O   UNL     1     -11.925   3.749   0.918  1.00  0.00    -0.246 OA
BRANCH  30  32
ATOM     32  C   UNL     1     -10.486   3.879   2.836  1.00  0.00     0.060 A 
ATOM     33  C   UNL     1     -10.451   5.284   2.897  1.00  0.00     0.016 A 
ATOM     34  C   UNL     1      -9.543   3.160   3.547  1.00  0.00     0.016 A 
ATOM     35  C   UNL     1      -9.356   5.956   3.492  1.00  0.00     0.010 A 
ATOM     36  C   UNL     1      -8.433   3.829   4.033  1.00  0.00     0.010 A 
ATOM     37  C   UNL     1      -8.274   5.227   3.980  1.00  0.00    -0.014 A 
BRANCH  37  38
ATOM     38  C   UNL     1      -6.911   5.741   4.324  1.00  0.00     0.031 A 
ATOM     39  C   UNL     1      -6.199   5.160   5.550  1.00  0.00     0.074 A 
ATOM     40  C   UNL     1      -6.148   6.405   3.401  1.00  0.00     0.049 A 
ATOM     41  N   UNL     1      -4.964   5.368   5.876  1.00  0.00    -0.248 NA
ATOM     42  C   UNL     1      -6.821   4.243   6.508  1.00  0.00     0.031 C 
ATOM     43  C   UNL     1      -4.693   6.306   3.333  1.00  0.00     0.029 A 
ATOM     44  N   UNL     1      -6.430   7.217   2.279  1.00  0.00    -0.354 N 
ATOM     45  C   UNL     1      -4.542   4.399   6.772  1.00  0.00     0.074 A 
ATOM     46  C   UNL     1      -5.769   3.784   7.203  1.00  0.00     0.031 C 
ATOM     47  C   UNL     1      -4.179   7.094   2.396  1.00  0.00     0.029 A 
ATOM     48  C   UNL     1      -5.245   7.926   1.947  1.00  0.00     0.049 A 
ATOM     49  H   UNL     1      -7.294   7.279   1.810  1.00  0.00     0.167 HD
ATOM     50  C   UNL     1      -3.195   4.166   6.929  1.00  0.00     0.037 A 
ATOM     51  C   UNL     1      -5.123   9.277   1.857  1.00  0.00     0.037 A 
ATOM     52  C   UNL     1      -2.397   5.139   6.154  1.00  0.00     0.049 A 
ATOM     53  C   UNL     1      -4.077   9.733   2.853  1.00  0.00     0.074 A 
ATOM     54  C   UNL     1      -1.397   5.032   5.202  1.00  0.00     0.029 A 
ATOM     55  N   UNL     1      -2.708   6.497   6.213  1.00  0.00    -0.354 N 
ATOM     56  N   UNL     1      -3.903   9.111   4.000  1.00  0.00    -0.248 NA
ATOM     57  C   UNL     1      -2.992  10.670   2.555  1.00  0.00     0.031 C 
ATOM     58  C   UNL     1      -1.188   6.313   4.620  1.00  0.00     0.029 A 
ATOM     59  C   UNL     1      -1.981   7.226   5.299  1.00  0.00     0.049 A 
ATOM     60  H   UNL     1      -3.367   6.887   6.833  1.00  0.00     0.167 HD
ATOM     61  C   UNL     1      -2.657   9.412   4.478  1.00  0.00     0.074 A 
ATOM     62  C   UNL     1      -2.147  10.437   3.578  1.00  0.00     0.031 C 
ATOM     63  C   UNL     1      -1.946   8.671   5.377  1.00  0.00     0.037 A 
BRANCH  50  64
ATOM     64  C   UNL     1      -2.503   2.967   7.619  1.00  0.00     0.064 A 
ATOM     65  C   UNL     1      -1.085   2.918   7.730  1.00  0.00     0.173 A 
ATOM     66  C   UNL     1      -3.138   1.809   8.116  1.00  0.00     0.173 A 
ATOM     67  F   UNL     1      -0.321   3.962   7.386  1.00  0.00    -0.203 F 
ATOM     68  C   UNL     1      -0.381   1.804   8.216  1.00  0.00     0.198 A 
ATOM     69  C   UNL     1      -2.434   0.716   8.658  1.00  0.00     0.198 A 
ATOM     70  F   UNL     1      -4.463   1.657   8.082  1.00  0.00    -0.203 F 
ATOM     71  F   UNL     1       0.960   1.812   8.226  1.00  0.00    -0.200 F 
ATOM     72  C   UNL     1      -1.056   0.703   8.688  1.00  0.00     0.200 A 
ATOM     73  F   UNL     1      -3.112  -0.336   9.143  1.00  0.00    -0.200 F 
ATOM     74  F   UNL     1      -0.391  -0.355   9.173  1.00  0.00    -0.200 F 
ENDBRANCH  50  64
BRANCH  51  75
ATOM     75  C   UNL     1      -6.344   9.889   1.262  1.00  0.00     0.064 A 
ATOM     76  C   UNL     1      -6.487   9.585  -0.115  1.00  0.00     0.173 A 
ATOM     77  C   UNL     1      -7.516   9.896   2.037  1.00  0.00     0.173 A 
ATOM     78  F   UNL     1      -5.409   9.611  -0.918  1.00  0.00    -0.203 F 
ATOM     79  C   UNL     1      -7.655   8.998  -0.603  1.00  0.00     0.198 A 
ATOM     80  C   UNL     1      -8.689   9.316   1.538  1.00  0.00     0.198 A 
ATOM     81  F   UNL     1      -7.452  10.202   3.340  1.00  0.00    -0.203 F 
ATOM     82  F   UNL     1      -7.683   8.486  -1.843  1.00  0.00    -0.200 F 
ATOM     83  C   UNL     1      -8.732   8.805   0.246  1.00  0.00     0.200 A 
ATOM     84  F   UNL     1      -9.729   9.107   2.357  1.00  0.00    -0.200 F 
ATOM     85  F   UNL     1      -9.771   8.056  -0.151  1.00  0.00    -0.200 F 
ENDBRANCH  51  75
BRANCH  63  86
ATOM     86  C   UNL     1      -1.147   9.304   6.492  1.00  0.00     0.064 A 
ATOM     87  C   UNL     1      -1.200  10.676   6.774  1.00  0.00     0.173 A 
ATOM     88  C   UNL     1      -0.463   8.508   7.450  1.00  0.00     0.173 A 
ATOM     89  F   UNL     1      -1.884  11.527   5.997  1.00  0.00    -0.203 F 
ATOM     90  C   UNL     1      -0.589  11.217   7.904  1.00  0.00     0.198 A 
ATOM     91  C   UNL     1       0.099   9.046   8.602  1.00  0.00     0.198 A 
ATOM     92  F   UNL     1      -0.353   7.178   7.333  1.00  0.00    -0.203 F 
ATOM     93  F   UNL     1      -0.649  12.539   8.113  1.00  0.00    -0.200 F 
ATOM     94  C   UNL     1       0.048  10.404   8.822  1.00  0.00     0.200 A 
ATOM     95  F   UNL     1       0.663   8.235   9.508  1.00  0.00    -0.200 F 
ATOM     96  F   UNL     1       0.598  10.928   9.925  1.00  0.00    -0.200 F 
ENDBRANCH  63  86
ENDBRANCH  37  38
ENDBRANCH  30  32
ENDBRANCH  29  30
ENDBRANCH  28  29
ENDBRANCH  27  28
ENDBRANCH  26  27
ENDBRANCH  25  26
ENDBRANCH   1  25
TORSDOF 21
