REMARK SMILES C[C@H]1[NH2+]CC[C@H]1C(=O)N1CC(C(=O)OCCOCCOCCOCCOC(=O)c2ccc(-c3c4nc(c(-c5c(F)c(F)c(F)c(F)c5F)c5ccc([nH]5)c(-c5c(F)c(F)c(F)c(F)c5F)c5nc(c(-c6c(F)c(F)c(F)c(F)c6F)c6ccc3[nH]6)C=C5)C=C4)cc2)C1
REMARK SMILES IDX 21 1 20 2 19 3 18 4 17 5 16 6 15 7 14 8 12 9 13 10 11 11
REMARK SMILES IDX 7 12 8 13 9 14 10 15 92 16 6 17 1 18 2 19 3 20 4 21 5 24
REMARK SMILES IDX 22 25 23 26 24 27 25 28 26 29 27 30 28 31 29 32 30 33 91 34
REMARK SMILES IDX 31 35 90 36 32 37 33 38 34 39 84 40 35 41 89 42 83 43 85 44
REMARK SMILES IDX 36 45 88 46 82 47 81 48 37 50 69 51 49 52 68 53 50 54 53 55
REMARK SMILES IDX 67 56 86 57 51 58 52 59 66 61 87 62 54 63 38 64 39 65 47 66
REMARK SMILES IDX 40 67 41 68 45 69 48 70 42 71 43 72 46 73 44 74 70 75 71 76
REMARK SMILES IDX 79 77 72 78 73 79 77 80 80 81 74 82 75 83 78 84 76 85 55 86
REMARK SMILES IDX 56 87 64 88 57 89 58 90 62 91 65 92 59 93 60 94 63 95 61 96
REMARK H PARENT 3 22 3 23 85 49 53 60
REMARK Flexibility Score: inf
ROOT
ATOM      1  C   UNL     1       4.837   0.067   5.571  1.00  0.00     0.188 C 
ENDROOT
BRANCH   1   2
ATOM      2  O   UNL     1       4.078   1.044   4.866  1.00  0.00    -0.377 OA
BRANCH   2   3
ATOM      3  C   UNL     1       4.736   1.661   3.778  1.00  0.00     0.188 C 
BRANCH   3   4
ATOM      4  C   UNL     1       5.258   3.077   4.070  1.00  0.00     0.188 C 
BRANCH   4   5
ATOM      5  O   UNL     1       5.424   3.534   5.405  1.00  0.00    -0.376 OA
BRANCH   5   6
ATOM      6  C   UNL     1       4.425   3.339   6.395  1.00  0.00     0.202 C 
BRANCH   6   7
ATOM      7  C   UNL     1       2.924   3.545   6.123  1.00  0.00     0.261 C 
BRANCH   7   8
ATOM      8  O   UNL     1       2.492   3.280   4.785  1.00  0.00    -0.463 OA
BRANCH   8   9
ATOM      9  C   UNL     1       2.171   4.350   4.005  1.00  0.00     0.312 C 
ATOM     10  O   UNL     1       2.157   5.506   4.422  1.00  0.00    -0.252 OA
BRANCH   9  11
ATOM     11  C   UNL     1       1.906   3.951   2.543  1.00  0.00     0.138 C 
ATOM     12  C   UNL     1       0.607   2.494   0.031  1.00  0.00     0.231 C 
ATOM     13  O   UNL     1       1.133   3.252  -0.781  1.00  0.00    -0.274 OA
ATOM     14  N   UNL     1       0.650   2.721   1.393  1.00  0.00    -0.340 N 
ATOM     15  C   UNL     1       0.475   4.037   2.032  1.00  0.00     0.136 C 
ATOM     16  C   UNL     1       1.883   2.481   2.144  1.00  0.00     0.136 C 
BRANCH  12  17
ATOM     17  C   UNL     1      -0.101   1.213  -0.391  1.00  0.00     0.142 C 
ATOM     18  C   UNL     1       1.800  -0.345   0.514  1.00  0.00     0.076 C 
ATOM     19  C   UNL     1       0.730  -0.063  -0.537  1.00  0.00     0.192 C 
ATOM     20  N   UNL     1      -0.272  -1.149  -0.516  1.00  0.00    -0.343 N 
ATOM     21  C   UNL     1      -1.488  -0.659   0.135  1.00  0.00     0.261 C 
ATOM     22  H   UNL     1       0.097  -1.945   0.004  1.00  0.00     0.346 HD
ATOM     23  H   UNL     1      -0.484  -1.442  -1.469  1.00  0.00     0.346 HD
ATOM     24  C   UNL     1      -1.244   0.788   0.517  1.00  0.00     0.081 C 
ENDBRANCH  12  17
ENDBRANCH   9  11
ENDBRANCH   8   9
ENDBRANCH   7   8
ENDBRANCH   6   7
ENDBRANCH   5   6
ENDBRANCH   4   5
ENDBRANCH   3   4
ENDBRANCH   2   3
ENDBRANCH   1   2
BRANCH   1  25
ATOM     25  C   UNL     1       6.333   0.357   5.828  1.00  0.00     0.188 C 
BRANCH  25  26
ATOM     26  O   UNL     1       7.062   0.747   4.670  1.00  0.00    -0.376 OA
BRANCH  26  27
ATOM     27  C   UNL     1       7.855  -0.222   4.000  1.00  0.00     0.202 C 
BRANCH  27  28
ATOM     28  C   UNL     1       7.119  -1.362   3.275  1.00  0.00     0.261 C 
BRANCH  28  29
ATOM     29  O   UNL     1       6.239  -2.159   4.083  1.00  0.00    -0.460 OA
BRANCH  29  30
ATOM     30  C   UNL     1       6.789  -2.821   5.119  1.00  0.00     0.338 C 
ATOM     31  O   UNL     1       7.973  -2.873   5.415  1.00  0.00    -0.246 OA
BRANCH  30  32
ATOM     32  C   UNL     1       5.702  -3.329   5.979  1.00  0.00     0.060 A 
ATOM     33  C   UNL     1       5.693  -2.960   7.331  1.00  0.00     0.016 A 
ATOM     34  C   UNL     1       4.724  -4.188   5.472  1.00  0.00     0.016 A 
ATOM     35  C   UNL     1       4.753  -3.512   8.198  1.00  0.00     0.010 A 
ATOM     36  C   UNL     1       3.792  -4.757   6.346  1.00  0.00     0.010 A 
ATOM     37  C   UNL     1       3.844  -4.466   7.722  1.00  0.00    -0.014 A 
BRANCH  37  38
ATOM     38  C   UNL     1       3.156  -5.345   8.700  1.00  0.00     0.031 A 
ATOM     39  C   UNL     1       3.757  -6.699   8.973  1.00  0.00     0.074 A 
ATOM     40  C   UNL     1       2.073  -4.935   9.382  1.00  0.00     0.049 A 
ATOM     41  N   UNL     1       3.352  -7.647   9.780  1.00  0.00    -0.248 NA
ATOM     42  C   UNL     1       4.985  -7.028   8.231  1.00  0.00     0.031 C 
ATOM     43  C   UNL     1       1.431  -3.631   9.247  1.00  0.00     0.029 A 
ATOM     44  N   UNL     1       1.325  -5.585  10.332  1.00  0.00    -0.354 N 
ATOM     45  C   UNL     1       4.271  -8.680   9.636  1.00  0.00     0.074 A 
ATOM     46  C   UNL     1       5.227  -8.264   8.635  1.00  0.00     0.031 C 
ATOM     47  C   UNL     1       0.378  -3.577  10.082  1.00  0.00     0.029 A 
ATOM     48  C   UNL     1       0.258  -4.853  10.787  1.00  0.00     0.049 A 
ATOM     49  H   UNL     1       1.535  -6.491  10.655  1.00  0.00     0.167 HD
ATOM     50  C   UNL     1       4.323  -9.865  10.290  1.00  0.00     0.037 A 
ATOM     51  C   UNL     1      -0.711  -5.186  11.663  1.00  0.00     0.037 A 
ATOM     52  C   UNL     1       3.369 -10.278  11.285  1.00  0.00     0.049 A 
ATOM     53  C   UNL     1      -0.673  -6.543  12.324  1.00  0.00     0.074 A 
ATOM     54  C   UNL     1       3.328 -11.459  12.005  1.00  0.00     0.029 A 
ATOM     55  N   UNL     1       2.280  -9.522  11.694  1.00  0.00    -0.354 N 
ATOM     56  N   UNL     1       0.204  -7.509  12.193  1.00  0.00    -0.248 NA
ATOM     57  C   UNL     1      -1.759  -6.847  13.267  1.00  0.00     0.031 C 
ATOM     58  C   UNL     1       2.182 -11.443  12.806  1.00  0.00     0.029 A 
ATOM     59  C   UNL     1       1.551 -10.220  12.644  1.00  0.00     0.049 A 
ATOM     60  H   UNL     1       2.059  -8.623  11.360  1.00  0.00     0.167 HD
ATOM     61  C   UNL     1      -0.196  -8.512  13.070  1.00  0.00     0.074 A 
ATOM     62  C   UNL     1      -1.389  -8.030  13.733  1.00  0.00     0.031 C 
ATOM     63  C   UNL     1       0.375  -9.720  13.310  1.00  0.00     0.037 A 
BRANCH  50  64
ATOM     64  C   UNL     1       5.433 -10.809   9.924  1.00  0.00     0.064 A 
ATOM     65  C   UNL     1       6.775 -10.534  10.234  1.00  0.00     0.173 A 
ATOM     66  C   UNL     1       5.149 -12.014   9.265  1.00  0.00     0.173 A 
ATOM     67  F   UNL     1       7.105  -9.386  10.846  1.00  0.00    -0.203 F 
ATOM     68  C   UNL     1       7.790 -11.415   9.870  1.00  0.00     0.198 A 
ATOM     69  C   UNL     1       6.163 -12.909   8.935  1.00  0.00     0.198 A 
ATOM     70  F   UNL     1       3.885 -12.328   8.944  1.00  0.00    -0.203 F 
ATOM     71  F   UNL     1       9.069 -11.102  10.123  1.00  0.00    -0.200 F 
ATOM     72  C   UNL     1       7.483 -12.605   9.229  1.00  0.00     0.200 A 
ATOM     73  F   UNL     1       5.862 -14.065   8.327  1.00  0.00    -0.200 F 
ATOM     74  F   UNL     1       8.461 -13.454   8.885  1.00  0.00    -0.200 F 
ENDBRANCH  50  64
BRANCH  51  75
ATOM     75  C   UNL     1      -1.804  -4.225  11.974  1.00  0.00     0.064 A 
ATOM     76  C   UNL     1      -1.942  -3.672  13.255  1.00  0.00     0.173 A 
ATOM     77  C   UNL     1      -2.758  -3.873  11.008  1.00  0.00     0.173 A 
ATOM     78  F   UNL     1      -1.071  -3.996  14.222  1.00  0.00    -0.203 F 
ATOM     79  C   UNL     1      -3.008  -2.829  13.566  1.00  0.00     0.198 A 
ATOM     80  C   UNL     1      -3.804  -3.003  11.310  1.00  0.00     0.198 A 
ATOM     81  F   UNL     1      -2.675  -4.375   9.767  1.00  0.00    -0.203 F 
ATOM     82  F   UNL     1      -3.150  -2.365  14.815  1.00  0.00    -0.200 F 
ATOM     83  C   UNL     1      -3.935  -2.492  12.592  1.00  0.00     0.200 A 
ATOM     84  F   UNL     1      -4.689  -2.670  10.361  1.00  0.00    -0.200 F 
ATOM     85  F   UNL     1      -4.961  -1.683  12.891  1.00  0.00    -0.200 F 
ENDBRANCH  51  75
BRANCH  63  86
ATOM     86  C   UNL     1      -0.238 -10.573  14.388  1.00  0.00     0.064 A 
ATOM     87  C   UNL     1      -1.508 -11.152  14.254  1.00  0.00     0.173 A 
ATOM     88  C   UNL     1       0.472 -10.824  15.573  1.00  0.00     0.173 A 
ATOM     89  F   UNL     1      -2.234 -10.940  13.145  1.00  0.00    -0.203 F 
ATOM     90  C   UNL     1      -2.065 -11.907  15.284  1.00  0.00     0.198 A 
ATOM     91  C   UNL     1      -0.070 -11.613  16.584  1.00  0.00     0.198 A 
ATOM     92  F   UNL     1       1.698 -10.308  15.751  1.00  0.00    -0.203 F 
ATOM     93  F   UNL     1      -3.310 -12.387  15.162  1.00  0.00    -0.200 F 
ATOM     94  C   UNL     1      -1.344 -12.141  16.445  1.00  0.00     0.200 A 
ATOM     95  F   UNL     1       0.638 -11.855  17.696  1.00  0.00    -0.200 F 
ATOM     96  F   UNL     1      -1.881 -12.866  17.436  1.00  0.00    -0.200 F 
ENDBRANCH  63  86
ENDBRANCH  37  38
ENDBRANCH  30  32
ENDBRANCH  29  30
ENDBRANCH  28  29
ENDBRANCH  27  28
ENDBRANCH  26  27
ENDBRANCH  25  26
ENDBRANCH   1  25
TORSDOF 21
