REMARK SMILES O=C(OCCOCCOCCOCCOC(=O)[C@@H](Cc1ccccc1)N1C(=O)/C(=C/c2ccncc2)SC1=S)c1ccc(-c2c3nc(c(-c4c(F)c(F)c(F)c(F)c4F)c4ccc([nH]4)c(-c4c(F)c(F)c(F)c(F)c4F)c4nc(c(-c5c(F)c(F)c(F)c(F)c5F)c5ccc2[nH]5)C=C4)C=C3)cc1
REMARK SMILES IDX 9 1 8 2 7 3 6 4 5 5 4 6 3 7 2 8 1 9 40 10 41 11 102 12 42 13
REMARK SMILES IDX 101 14 43 15 44 16 45 17 95 18 46 19 100 20 94 21 96 22
REMARK SMILES IDX 47 23 99 24 93 25 92 26 48 28 80 29 60 30 79 31 61 32 64 33
REMARK SMILES IDX 78 34 97 35 62 36 63 37 77 39 98 40 65 41 49 42 50 43 58 44
REMARK SMILES IDX 51 45 52 46 56 47 59 48 53 49 54 50 57 51 55 52 81 53 82 54
REMARK SMILES IDX 90 55 83 56 84 57 88 58 91 59 85 60 86 61 89 62 87 63 66 64
REMARK SMILES IDX 67 65 75 66 68 67 69 68 73 69 76 70 70 71 71 72 74 73 72 74
REMARK SMILES IDX 10 75 11 76 12 77 13 78 14 79 15 80 16 81 17 82 18 83 19 84
REMARK SMILES IDX 20 85 21 86 25 87 22 88 24 89 23 90 26 91 27 92 38 93 28 94
REMARK SMILES IDX 29 95 37 96 39 97 30 98 31 99 32 100 36 101 33 102 35 103
REMARK SMILES IDX 34 104
REMARK H PARENT 96 27 64 38
REMARK Flexibility Score: inf
ROOT
ATOM      1  O   UNL     1       3.566   0.956   3.461  1.00  0.00    -0.377 OA
ENDROOT
BRANCH   1   2
ATOM      2  C   UNL     1       2.533   0.441   2.631  1.00  0.00     0.188 C 
BRANCH   2   3
ATOM      3  C   UNL     1       2.771   0.658   1.151  1.00  0.00     0.188 C 
BRANCH   3   4
ATOM      4  O   UNL     1       4.093   0.257   0.871  1.00  0.00    -0.376 OA
BRANCH   4   5
ATOM      5  C   UNL     1       4.849   0.803  -0.184  1.00  0.00     0.202 C 
BRANCH   5   6
ATOM      6  C   UNL     1       4.112   1.248  -1.426  1.00  0.00     0.261 C 
BRANCH   6   7
ATOM      7  O   UNL     1       2.782   0.731  -1.675  1.00  0.00    -0.460 OA
BRANCH   7   8
ATOM      8  C   UNL     1       2.192  -0.467  -1.852  1.00  0.00     0.338 C 
ATOM      9  O   UNL     1       0.993  -0.494  -2.129  1.00  0.00    -0.246 OA
BRANCH   8  10
ATOM     10  C   UNL     1       2.886  -1.773  -1.753  1.00  0.00     0.060 A 
ATOM     11  C   UNL     1       3.868  -2.062  -0.822  1.00  0.00     0.016 A 
ATOM     12  C   UNL     1       2.421  -2.838  -2.534  1.00  0.00     0.016 A 
ATOM     13  C   UNL     1       4.543  -3.254  -0.783  1.00  0.00     0.010 A 
ATOM     14  C   UNL     1       3.006  -4.106  -2.427  1.00  0.00     0.010 A 
ATOM     15  C   UNL     1       4.105  -4.291  -1.579  1.00  0.00    -0.014 A 
BRANCH  15  16
ATOM     16  C   UNL     1       4.969  -5.471  -1.603  1.00  0.00     0.031 A 
ATOM     17  C   UNL     1       5.824  -5.647  -2.813  1.00  0.00     0.074 A 
ATOM     18  C   UNL     1       5.141  -6.193  -0.480  1.00  0.00     0.049 A 
ATOM     19  N   UNL     1       6.606  -6.635  -3.137  1.00  0.00    -0.248 NA
ATOM     20  C   UNL     1       5.815  -4.538  -3.789  1.00  0.00     0.031 C 
ATOM     21  C   UNL     1       4.514  -5.911   0.819  1.00  0.00     0.029 A 
ATOM     22  N   UNL     1       5.929  -7.281  -0.234  1.00  0.00    -0.354 N 
ATOM     23  C   UNL     1       7.130  -6.296  -4.375  1.00  0.00     0.074 A 
ATOM     24  C   UNL     1       6.605  -5.004  -4.741  1.00  0.00     0.031 C 
ATOM     25  C   UNL     1       4.949  -6.804   1.721  1.00  0.00     0.029 A 
ATOM     26  C   UNL     1       5.794  -7.774   1.041  1.00  0.00     0.049 A 
ATOM     27  H   UNL     1       6.535  -7.673  -0.905  1.00  0.00     0.167 HD
ATOM     28  C   UNL     1       7.961  -7.037  -5.137  1.00  0.00     0.037 A 
ATOM     29  C   UNL     1       6.254  -8.927   1.556  1.00  0.00     0.037 A 
ATOM     30  C   UNL     1       8.455  -8.314  -4.709  1.00  0.00     0.049 A 
ATOM     31  C   UNL     1       7.056  -9.806   0.631  1.00  0.00     0.074 A 
ATOM     32  C   UNL     1       9.222  -9.227  -5.401  1.00  0.00     0.029 A 
ATOM     33  N   UNL     1       8.215  -8.853  -3.448  1.00  0.00    -0.354 N 
ATOM     34  N   UNL     1       7.457  -9.564  -0.597  1.00  0.00    -0.248 NA
ATOM     35  C   UNL     1       7.449 -11.121   1.144  1.00  0.00     0.031 C 
ATOM     36  C   UNL     1       9.396 -10.345  -4.579  1.00  0.00     0.029 A 
ATOM     37  C   UNL     1       8.798 -10.100  -3.349  1.00  0.00     0.049 A 
ATOM     38  H   UNL     1       7.705  -8.409  -2.732  1.00  0.00     0.167 HD
ATOM     39  C   UNL     1       8.169 -10.683  -0.996  1.00  0.00     0.074 A 
ATOM     40  C   UNL     1       8.162 -11.595   0.133  1.00  0.00     0.031 C 
ATOM     41  C   UNL     1       8.770 -10.948  -2.183  1.00  0.00     0.037 A 
BRANCH  28  42
ATOM     42  C   UNL     1       8.261  -6.533  -6.514  1.00  0.00     0.064 A 
ATOM     43  C   UNL     1       9.082  -5.421  -6.749  1.00  0.00     0.173 A 
ATOM     44  C   UNL     1       7.665  -7.154  -7.622  1.00  0.00     0.173 A 
ATOM     45  F   UNL     1       9.636  -4.761  -5.721  1.00  0.00    -0.203 F 
ATOM     46  C   UNL     1       9.282  -4.940  -8.042  1.00  0.00     0.198 A 
ATOM     47  C   UNL     1       7.889  -6.689  -8.914  1.00  0.00     0.198 A 
ATOM     48  F   UNL     1       6.849  -8.205  -7.450  1.00  0.00    -0.203 F 
ATOM     49  F   UNL     1      10.022  -3.840  -8.239  1.00  0.00    -0.200 F 
ATOM     50  C   UNL     1       8.692  -5.578  -9.123  1.00  0.00     0.200 A 
ATOM     51  F   UNL     1       7.313  -7.305  -9.955  1.00  0.00    -0.200 F 
ATOM     52  F   UNL     1       8.883  -5.113 -10.365  1.00  0.00    -0.200 F 
ENDBRANCH  28  42
BRANCH  29  53
ATOM     53  C   UNL     1       5.886  -9.360   2.932  1.00  0.00     0.064 A 
ATOM     54  C   UNL     1       6.862  -9.613   3.905  1.00  0.00     0.173 A 
ATOM     55  C   UNL     1       4.546  -9.587   3.292  1.00  0.00     0.173 A 
ATOM     56  F   UNL     1       8.159  -9.429   3.616  1.00  0.00    -0.203 F 
ATOM     57  C   UNL     1       6.519 -10.111   5.163  1.00  0.00     0.198 A 
ATOM     58  C   UNL     1       4.200 -10.048   4.561  1.00  0.00     0.198 A 
ATOM     59  F   UNL     1       3.563  -9.366   2.406  1.00  0.00    -0.203 F 
ATOM     60  F   UNL     1       7.480 -10.410   6.047  1.00  0.00    -0.200 F 
ATOM     61  C   UNL     1       5.189 -10.326   5.490  1.00  0.00     0.200 A 
ATOM     62  F   UNL     1       2.912 -10.237   4.875  1.00  0.00    -0.200 F 
ATOM     63  F   UNL     1       4.861 -10.815   6.694  1.00  0.00    -0.200 F 
ENDBRANCH  29  53
BRANCH  41  64
ATOM     64  C   UNL     1       9.508 -12.247  -2.285  1.00  0.00     0.064 A 
ATOM     65  C   UNL     1       8.833 -13.472  -2.362  1.00  0.00     0.173 A 
ATOM     66  C   UNL     1      10.907 -12.249  -2.370  1.00  0.00     0.173 A 
ATOM     67  F   UNL     1       7.495 -13.515  -2.269  1.00  0.00    -0.203 F 
ATOM     68  C   UNL     1       9.539 -14.662  -2.496  1.00  0.00     0.198 A 
ATOM     69  C   UNL     1      11.606 -13.437  -2.544  1.00  0.00     0.198 A 
ATOM     70  F   UNL     1      11.592 -11.097  -2.311  1.00  0.00    -0.203 F 
ATOM     71  F   UNL     1       8.881 -15.829  -2.517  1.00  0.00    -0.200 F 
ATOM     72  C   UNL     1      10.923 -14.642  -2.599  1.00  0.00     0.200 A 
ATOM     73  F   UNL     1      12.941 -13.414  -2.666  1.00  0.00    -0.200 F 
ATOM     74  F   UNL     1      11.600 -15.789  -2.746  1.00  0.00    -0.200 F 
ENDBRANCH  41  64
ENDBRANCH  15  16
ENDBRANCH   8  10
ENDBRANCH   7   8
ENDBRANCH   6   7
ENDBRANCH   5   6
ENDBRANCH   4   5
ENDBRANCH   3   4
ENDBRANCH   2   3
ENDBRANCH   1   2
BRANCH   1  75
ATOM     75  C   UNL     1       4.925   0.563   3.270  1.00  0.00     0.188 C 
BRANCH  75  76
ATOM     76  C   UNL     1       5.317  -0.922   3.380  1.00  0.00     0.188 C 
BRANCH  76  77
ATOM     77  O   UNL     1       4.259  -1.841   3.204  1.00  0.00    -0.376 OA
BRANCH  77  78
ATOM     78  C   UNL     1       3.615  -2.370   4.359  1.00  0.00     0.202 C 
BRANCH  78  79
ATOM     79  C   UNL     1       3.635  -1.661   5.727  1.00  0.00     0.261 C 
BRANCH  79  80
ATOM     80  O   UNL     1       3.644  -0.228   5.690  1.00  0.00    -0.462 OA
BRANCH  80  81
ATOM     81  C   UNL     1       4.692   0.405   6.273  1.00  0.00     0.329 C 
ATOM     82  O   UNL     1       5.665  -0.184   6.746  1.00  0.00    -0.250 OA
BRANCH  81  83
ATOM     83  C   UNL     1       4.554   1.942   6.406  1.00  0.00     0.206 C 
BRANCH  83  84
ATOM     84  C   UNL     1       3.743   2.892   5.496  1.00  0.00     0.073 C 
BRANCH  84  85
ATOM     85  C   UNL     1       2.237   2.993   5.451  1.00  0.00    -0.045 A 
ATOM     86  C   UNL     1       1.688   4.210   4.999  1.00  0.00     0.004 A 
ATOM     87  C   UNL     1       1.363   1.929   5.675  1.00  0.00     0.004 A 
ATOM     88  C   UNL     1       0.320   4.350   4.770  1.00  0.00     0.000 A 
ATOM     89  C   UNL     1      -0.007   2.061   5.428  1.00  0.00     0.000 A 
ATOM     90  C   UNL     1      -0.528   3.269   4.973  1.00  0.00     0.000 A 
ENDBRANCH  84  85
ENDBRANCH  83  84
BRANCH  83  91
ATOM     91  N   UNL     1       4.415   2.284   7.820  1.00  0.00    -0.278 N 
ATOM     92  C   UNL     1       3.544   1.527   8.582  1.00  0.00     0.267 C 
ATOM     93  C   UNL     1       4.978   3.391   8.423  1.00  0.00     0.149 C 
ATOM     94  O   UNL     1       2.923   0.538   8.240  1.00  0.00    -0.268 OA
ATOM     95  C   UNL     1       3.453   2.092   9.933  1.00  0.00     0.081 C 
ATOM     96  S   UNL     1       4.335   3.556  10.048  1.00  0.00    -0.054 SA
ATOM     97  S   UNL     1       6.082   4.480   7.802  1.00  0.00    -0.052 S 
ATOM     98  C   UNL     1       2.713   1.474  10.856  1.00  0.00     0.029 C 
BRANCH  98  99
ATOM     99  C   UNL     1       2.433   2.106  12.130  1.00  0.00    -0.021 A 
ATOM    100  C   UNL     1       1.412   3.052  12.182  1.00  0.00     0.028 A 
ATOM    101  C   UNL     1       3.244   1.881  13.234  1.00  0.00     0.028 A 
ATOM    102  C   UNL     1       1.254   3.761  13.353  1.00  0.00     0.111 A 
ATOM    103  C   UNL     1       3.000   2.640  14.361  1.00  0.00     0.111 A 
ATOM    104  N   UNL     1       2.025   3.574  14.446  1.00  0.00    -0.265 NA
ENDBRANCH  98  99
ENDBRANCH  83  91
ENDBRANCH  81  83
ENDBRANCH  80  81
ENDBRANCH  79  80
ENDBRANCH  78  79
ENDBRANCH  77  78
ENDBRANCH  76  77
ENDBRANCH  75  76
ENDBRANCH   1  75
TORSDOF 24
