REMARK SMILES Cc1ccc2nc(C(=O)OCCOCCOCCOCCOC(=O)c3ccc(-c4c5nc(c(-c6c(F)c(F)c(F)c(F)c6F)c6ccc([nH]6)c(-c6c(F)c(F)c(F)c(F)c6F)c6nc(c(-c7c(F)c(F)c(F)c(F)c7F)c7ccc4[nH]7)C=C6)C=C5)cc3)cc(N3CCOCC3)c2c1
REMARK SMILES IDX 17 1 16 2 15 3 14 4 13 5 12 6 11 7 10 8 8 9 9 10 7 11 1 12
REMARK SMILES IDX 2 13 3 14 97 15 4 16 96 17 5 18 89 19 6 20 88 21 90 22 91 23
REMARK SMILES IDX 95 24 92 25 94 26 93 27 18 28 19 29 20 30 21 31 22 32 23 33
REMARK SMILES IDX 24 34 25 35 26 36 87 37 27 38 86 39 28 40 29 41 30 42 80 43
REMARK SMILES IDX 31 44 85 45 79 46 81 47 32 48 84 49 78 50 77 51 33 53 65 54
REMARK SMILES IDX 45 55 64 56 46 57 49 58 63 59 82 60 47 61 48 62 62 64 83 65
REMARK SMILES IDX 50 66 34 67 35 68 43 69 36 70 37 71 41 72 44 73 38 74 39 75
REMARK SMILES IDX 42 76 40 77 66 78 67 79 75 80 68 81 69 82 73 83 76 84 70 85
REMARK SMILES IDX 71 86 74 87 72 88 51 89 52 90 60 91 53 92 54 93 58 94 61 95
REMARK SMILES IDX 55 96 56 97 59 98 57 99
REMARK H PARENT 81 52 49 63
REMARK Flexibility Score: inf
ROOT
ATOM      1  C   UNL     1      -6.431   0.399   2.692  1.00  0.00     0.188 C 
ENDROOT
BRANCH   1   2
ATOM      2  O   UNL     1      -5.144   0.047   2.184  1.00  0.00    -0.377 OA
BRANCH   2   3
ATOM      3  C   UNL     1      -4.173   1.061   1.960  1.00  0.00     0.188 C 
BRANCH   3   4
ATOM      4  C   UNL     1      -4.567   2.256   1.067  1.00  0.00     0.188 C 
BRANCH   4   5
ATOM      5  O   UNL     1      -5.965   2.344   0.833  1.00  0.00    -0.376 OA
BRANCH   5   6
ATOM      6  C   UNL     1      -6.453   2.056  -0.463  1.00  0.00     0.202 C 
BRANCH   6   7
ATOM      7  C   UNL     1      -6.250   0.639  -1.025  1.00  0.00     0.261 C 
BRANCH   7   8
ATOM      8  O   UNL     1      -4.954   0.064  -0.825  1.00  0.00    -0.459 OA
BRANCH   8   9
ATOM      9  C   UNL     1      -3.954   0.552  -1.597  1.00  0.00     0.357 C 
ATOM     10  O   UNL     1      -4.081   1.366  -2.496  1.00  0.00    -0.244 OA
BRANCH   9  11
ATOM     11  C   UNL     1      -2.654   0.052  -1.054  1.00  0.00     0.151 A 
ATOM     12  C   UNL     1       3.638  -0.532   0.074  1.00  0.00     0.044 C 
ATOM     13  C   UNL     1       2.203  -0.112  -0.027  1.00  0.00    -0.050 A 
ATOM     14  C   UNL     1       1.837   1.225  -0.123  1.00  0.00     0.005 A 
ATOM     15  C   UNL     1       1.197  -1.083  -0.078  1.00  0.00     0.016 A 
ATOM     16  C   UNL     1       0.505   1.562  -0.369  1.00  0.00     0.029 A 
ATOM     17  C   UNL     1      -0.170  -0.755  -0.257  1.00  0.00     0.024 A 
ATOM     18  C   UNL     1      -0.486   0.598  -0.501  1.00  0.00     0.073 A 
ATOM     19  C   UNL     1      -1.225  -1.716  -0.277  1.00  0.00     0.049 A 
ATOM     20  N   UNL     1      -1.698   0.998  -0.898  1.00  0.00    -0.241 NA
ATOM     21  C   UNL     1      -2.483  -1.280  -0.706  1.00  0.00     0.062 A 
BRANCH  19  22
ATOM     22  N   UNL     1      -1.019  -3.044   0.074  1.00  0.00    -0.366 N 
ATOM     23  C   UNL     1      -0.410  -3.411   1.370  1.00  0.00     0.145 C 
ATOM     24  C   UNL     1      -1.781  -4.148  -0.527  1.00  0.00     0.145 C 
ATOM     25  C   UNL     1       0.478  -4.652   1.159  1.00  0.00     0.181 C 
ATOM     26  C   UNL     1      -0.853  -5.368  -0.661  1.00  0.00     0.181 C 
ATOM     27  O   UNL     1      -0.275  -5.744   0.602  1.00  0.00    -0.378 OA
ENDBRANCH  19  22
ENDBRANCH   9  11
ENDBRANCH   8   9
ENDBRANCH   7   8
ENDBRANCH   6   7
ENDBRANCH   5   6
ENDBRANCH   4   5
ENDBRANCH   3   4
ENDBRANCH   2   3
ENDBRANCH   1   2
BRANCH   1  28
ATOM     28  C   UNL     1      -6.708   1.749   3.399  1.00  0.00     0.188 C 
BRANCH  28  29
ATOM     29  O   UNL     1      -5.551   2.483   3.756  1.00  0.00    -0.376 OA
BRANCH  29  30
ATOM     30  C   UNL     1      -5.208   2.551   5.127  1.00  0.00     0.202 C 
BRANCH  30  31
ATOM     31  C   UNL     1      -4.825   1.228   5.804  1.00  0.00     0.261 C 
BRANCH  31  32
ATOM     32  O   UNL     1      -5.782   0.164   5.692  1.00  0.00    -0.460 OA
BRANCH  32  33
ATOM     33  C   UNL     1      -6.968   0.328   6.314  1.00  0.00     0.338 C 
ATOM     34  O   UNL     1      -7.331   1.285   6.979  1.00  0.00    -0.246 OA
BRANCH  33  35
ATOM     35  C   UNL     1      -7.844  -0.788   5.903  1.00  0.00     0.060 A 
ATOM     36  C   UNL     1      -9.032  -0.510   5.214  1.00  0.00     0.016 A 
ATOM     37  C   UNL     1      -7.482  -2.106   6.189  1.00  0.00     0.016 A 
ATOM     38  C   UNL     1      -9.880  -1.553   4.838  1.00  0.00     0.010 A 
ATOM     39  C   UNL     1      -8.341  -3.147   5.830  1.00  0.00     0.010 A 
ATOM     40  C   UNL     1      -9.559  -2.872   5.183  1.00  0.00    -0.014 A 
BRANCH  40  41
ATOM     41  C   UNL     1     -10.578  -3.942   5.048  1.00  0.00     0.031 A 
ATOM     42  C   UNL     1     -11.364  -4.334   6.268  1.00  0.00     0.074 A 
ATOM     43  C   UNL     1     -10.810  -4.548   3.871  1.00  0.00     0.049 A 
ATOM     44  N   UNL     1     -12.260  -5.276   6.418  1.00  0.00    -0.248 NA
ATOM     45  C   UNL     1     -11.096  -3.558   7.489  1.00  0.00     0.031 C 
ATOM     46  C   UNL     1     -10.145  -4.228   2.611  1.00  0.00     0.029 A 
ATOM     47  N   UNL     1     -11.668  -5.571   3.553  1.00  0.00    -0.354 N 
ATOM     48  C   UNL     1     -12.655  -5.210   7.748  1.00  0.00     0.074 A 
ATOM     49  C   UNL     1     -11.877  -4.162   8.371  1.00  0.00     0.031 C 
ATOM     50  C   UNL     1     -10.613  -5.049   1.654  1.00  0.00     0.029 A 
ATOM     51  C   UNL     1     -11.581  -5.974   2.243  1.00  0.00     0.049 A 
ATOM     52  H   UNL     1     -12.287  -5.977   4.202  1.00  0.00     0.167 HD
ATOM     53  C   UNL     1     -13.589  -5.952   8.389  1.00  0.00     0.037 A 
ATOM     54  C   UNL     1     -12.194  -6.990   1.605  1.00  0.00     0.037 A 
ATOM     55  C   UNL     1     -14.355  -6.999   7.767  1.00  0.00     0.049 A 
ATOM     56  C   UNL     1     -13.168  -7.859   2.362  1.00  0.00     0.074 A 
ATOM     57  C   UNL     1     -15.339  -7.796   8.324  1.00  0.00     0.029 A 
ATOM     58  N   UNL     1     -14.212  -7.403   6.447  1.00  0.00    -0.354 N 
ATOM     59  N   UNL     1     -13.560  -7.775   3.610  1.00  0.00    -0.248 NA
ATOM     60  C   UNL     1     -13.788  -8.964   1.616  1.00  0.00     0.031 C 
ATOM     61  C   UNL     1     -15.744  -8.727   7.361  1.00  0.00     0.029 A 
ATOM     62  C   UNL     1     -15.066  -8.463   6.182  1.00  0.00     0.049 A 
ATOM     63  H   UNL     1     -13.596  -6.997   5.795  1.00  0.00     0.167 HD
ATOM     64  C   UNL     1     -14.492  -8.790   3.791  1.00  0.00     0.074 A 
ATOM     65  C   UNL     1     -14.617  -9.470   2.518  1.00  0.00     0.031 C 
ATOM     66  C   UNL     1     -15.184  -9.128   4.908  1.00  0.00     0.037 A 
BRANCH  53  67
ATOM     67  C   UNL     1     -13.802  -5.679   9.851  1.00  0.00     0.064 A 
ATOM     68  C   UNL     1     -14.380  -4.484  10.307  1.00  0.00     0.173 A 
ATOM     69  C   UNL     1     -13.433  -6.635  10.810  1.00  0.00     0.173 A 
ATOM     70  F   UNL     1     -14.738  -3.530   9.434  1.00  0.00    -0.203 F 
ATOM     71  C   UNL     1     -14.547  -4.242  11.668  1.00  0.00     0.198 A 
ATOM     72  C   UNL     1     -13.635  -6.404  12.168  1.00  0.00     0.198 A 
ATOM     73  F   UNL     1     -12.879  -7.796  10.431  1.00  0.00    -0.203 F 
ATOM     74  F   UNL     1     -15.045  -3.069  12.082  1.00  0.00    -0.200 F 
ATOM     75  C   UNL     1     -14.181  -5.205  12.597  1.00  0.00     0.200 A 
ATOM     76  F   UNL     1     -13.293  -7.342  13.063  1.00  0.00    -0.200 F 
ATOM     77  F   UNL     1     -14.346  -4.972  13.906  1.00  0.00    -0.200 F 
ENDBRANCH  53  67
BRANCH  54  78
ATOM     78  C   UNL     1     -11.902  -7.252   0.170  1.00  0.00     0.064 A 
ATOM     79  C   UNL     1     -12.882  -7.064  -0.815  1.00  0.00     0.173 A 
ATOM     80  C   UNL     1     -10.642  -7.711  -0.244  1.00  0.00     0.173 A 
ATOM     81  F   UNL     1     -14.110  -6.653  -0.467  1.00  0.00    -0.203 F 
ATOM     82  C   UNL     1     -12.619  -7.343  -2.155  1.00  0.00     0.198 A 
ATOM     83  C   UNL     1     -10.371  -7.958  -1.589  1.00  0.00     0.198 A 
ATOM     84  F   UNL     1      -9.670  -7.912   0.657  1.00  0.00    -0.203 F 
ATOM     85  F   UNL     1     -13.589  -7.201  -3.068  1.00  0.00    -0.200 F 
ATOM     86  C   UNL     1     -11.362  -7.782  -2.542  1.00  0.00     0.200 A 
ATOM     87  F   UNL     1      -9.151  -8.370  -1.959  1.00  0.00    -0.200 F 
ATOM     88  F   UNL     1     -11.109  -8.043  -3.831  1.00  0.00    -0.200 F 
ENDBRANCH  54  78
BRANCH  66  89
ATOM     89  C   UNL     1     -16.173 -10.256   4.799  1.00  0.00     0.064 A 
ATOM     90  C   UNL     1     -15.765 -11.588   4.635  1.00  0.00     0.173 A 
ATOM     91  C   UNL     1     -17.550 -10.002   4.906  1.00  0.00     0.173 A 
ATOM     92  F   UNL     1     -14.462 -11.885   4.514  1.00  0.00    -0.203 F 
ATOM     93  C   UNL     1     -16.698 -12.618   4.551  1.00  0.00     0.198 A 
ATOM     94  C   UNL     1     -18.478 -11.039   4.859  1.00  0.00     0.198 A 
ATOM     95  F   UNL     1     -17.997  -8.749   5.074  1.00  0.00    -0.203 F 
ATOM     96  F   UNL     1     -16.286 -13.876   4.340  1.00  0.00    -0.200 F 
ATOM     97  C   UNL     1     -18.052 -12.345   4.672  1.00  0.00     0.200 A 
ATOM     98  F   UNL     1     -19.785 -10.774   4.995  1.00  0.00    -0.200 F 
ATOM     99  F   UNL     1     -18.948 -13.340   4.602  1.00  0.00    -0.200 F 
ENDBRANCH  66  89
ENDBRANCH  40  41
ENDBRANCH  33  35
ENDBRANCH  32  33
ENDBRANCH  31  32
ENDBRANCH  30  31
ENDBRANCH  29  30
ENDBRANCH  28  29
ENDBRANCH   1  28
TORSDOF 21
