REMARK SMILES NS(=O)(=O)c1ccc(-n2nc(C(=O)OCCOCCOCCOCCOC(=O)c3ccc(-c4c5nc(c(-c6c(F)c(F)c(F)c(F)c6F)c6ccc([nH]6)c(-c6c(F)c(F)c(F)c(F)c6F)c6nc(c(-c7c(F)c(F)c(F)c(F)c7F)c7ccc4[nH]7)C=C6)C=C5)cc3)cc2-c2cc3ccccc3s2)cc1
REMARK SMILES IDX 19 1 18 2 17 3 16 4 15 5 14 6 12 7 13 8 11 9 9 10 10 11
REMARK SMILES IDX 93 12 92 13 8 14 5 15 6 16 104 17 7 18 103 19 2 20 3 21 4 22
REMARK SMILES IDX 1 23 94 26 95 27 102 28 96 29 101 30 97 31 100 32 98 33
REMARK SMILES IDX 99 34 20 35 21 36 22 37 23 38 24 39 25 40 26 41 27 42 28 43
REMARK SMILES IDX 29 44 30 45 91 46 31 47 90 48 32 49 33 50 34 51 84 52 35 53
REMARK SMILES IDX 89 54 83 55 85 56 36 57 88 58 82 59 81 60 37 62 69 63 49 64
REMARK SMILES IDX 68 65 50 66 53 67 67 68 86 69 51 70 52 71 66 73 87 74 54 75
REMARK SMILES IDX 38 76 39 77 47 78 40 79 41 80 45 81 48 82 42 83 43 84 46 85
REMARK SMILES IDX 44 86 70 87 71 88 79 89 72 90 73 91 77 92 80 93 74 94 75 95
REMARK SMILES IDX 78 96 76 97 55 98 56 99 64 100 57 101 58 102 62 103 65 104
REMARK SMILES IDX 59 105 60 106 63 107 61 108
REMARK H PARENT 1 24 1 25 85 61 53 72
REMARK Flexibility Score: inf
ROOT
ATOM      1  C   UNL     1       4.577  -4.532  -8.287  1.00  0.00     0.188 C 
ENDROOT
BRANCH   1   2
ATOM      2  C   UNL     1       5.758  -5.007  -7.413  1.00  0.00     0.188 C 
BRANCH   2   3
ATOM      3  O   UNL     1       6.726  -5.913  -7.919  1.00  0.00    -0.376 OA
BRANCH   3   4
ATOM      4  C   UNL     1       6.423  -7.143  -8.552  1.00  0.00     0.202 C 
BRANCH   4   5
ATOM      5  C   UNL     1       5.207  -8.024  -8.231  1.00  0.00     0.261 C 
BRANCH   5   6
ATOM      6  O   UNL     1       4.124  -7.395  -7.568  1.00  0.00    -0.458 OA
BRANCH   6   7
ATOM      7  C   UNL     1       4.195  -7.320  -6.209  1.00  0.00     0.358 C 
ATOM      8  O   UNL     1       5.044  -7.874  -5.522  1.00  0.00    -0.244 OA
BRANCH   7   9
ATOM      9  C   UNL     1       3.142  -6.427  -5.712  1.00  0.00     0.171 A 
ATOM     10  N   UNL     1       1.886  -5.281  -4.426  1.00  0.00    -0.231 N 
ATOM     11  N   UNL     1       3.154  -5.762  -4.542  1.00  0.00    -0.160 NA
ATOM     12  C   UNL     1       1.091  -5.684  -5.471  1.00  0.00     0.085 A 
ATOM     13  C   UNL     1       1.982  -6.097  -6.439  1.00  0.00     0.068 A 
BRANCH  10  14
ATOM     14  C   UNL     1       1.546  -4.423  -3.371  1.00  0.00     0.065 A 
ATOM     15  C   UNL     1       0.908  -2.728  -1.282  1.00  0.00     0.082 A 
ATOM     16  C   UNL     1       0.395  -4.033  -1.306  1.00  0.00     0.024 A 
ATOM     17  C   UNL     1       1.743  -2.264  -2.303  1.00  0.00     0.024 A 
ATOM     18  C   UNL     1       0.701  -4.883  -2.365  1.00  0.00     0.030 A 
ATOM     19  C   UNL     1       2.084  -3.126  -3.346  1.00  0.00     0.030 A 
BRANCH  15  20
ATOM     20  S   UNL     1       0.459  -1.711   0.093  1.00  0.00     0.238 S 
ATOM     21  O   UNL     1       1.114  -2.244   1.277  1.00  0.00    -0.207 OA
ATOM     22  O   UNL     1      -0.950  -1.460   0.029  1.00  0.00    -0.207 OA
BRANCH  20  23
ATOM     23  N   UNL     1       1.199  -0.228  -0.189  1.00  0.00    -0.225 NA
ATOM     24  H   UNL     1       0.979   0.412   0.574  1.00  0.00     0.137 HD
ATOM     25  H   UNL     1       0.858   0.161  -1.068  1.00  0.00     0.137 HD
ENDBRANCH  20  23
ENDBRANCH  15  20
ENDBRANCH  10  14
BRANCH  12  26
ATOM     26  C   UNL     1      -0.331  -5.903  -5.548  1.00  0.00     0.054 A 
ATOM     27  C   UNL     1      -1.218  -5.314  -6.447  1.00  0.00     0.031 A 
ATOM     28  S   UNL     1      -0.795  -7.603  -5.585  1.00  0.00    -0.134 S 
ATOM     29  C   UNL     1      -1.215  -6.158  -7.637  1.00  0.00    -0.007 A 
ATOM     30  C   UNL     1      -0.769  -7.451  -7.322  1.00  0.00     0.035 A 
ATOM     31  C   UNL     1      -1.409  -5.838  -8.998  1.00  0.00     0.009 A 
ATOM     32  C   UNL     1      -0.339  -8.362  -8.298  1.00  0.00     0.019 A 
ATOM     33  C   UNL     1      -0.956  -6.728  -9.981  1.00  0.00     0.001 A 
ATOM     34  C   UNL     1      -0.384  -7.949  -9.632  1.00  0.00     0.001 A 
ENDBRANCH  12  26
ENDBRANCH   7   9
ENDBRANCH   6   7
ENDBRANCH   5   6
ENDBRANCH   4   5
ENDBRANCH   3   4
ENDBRANCH   2   3
ENDBRANCH   1   2
BRANCH   1  35
ATOM     35  O   UNL     1       4.381  -5.302  -9.459  1.00  0.00    -0.377 OA
BRANCH  35  36
ATOM     36  C   UNL     1       5.034  -4.828 -10.635  1.00  0.00     0.188 C 
BRANCH  36  37
ATOM     37  C   UNL     1       6.456  -4.206 -10.540  1.00  0.00     0.188 C 
BRANCH  37  38
ATOM     38  O   UNL     1       6.720  -3.471  -9.354  1.00  0.00    -0.376 OA
BRANCH  38  39
ATOM     39  C   UNL     1       6.835  -2.062  -9.299  1.00  0.00     0.202 C 
BRANCH  39  40
ATOM     40  C   UNL     1       5.583  -1.237  -9.573  1.00  0.00     0.261 C 
BRANCH  40  41
ATOM     41  O   UNL     1       4.801  -1.759 -10.626  1.00  0.00    -0.460 OA
BRANCH  41  42
ATOM     42  C   UNL     1       5.375  -1.659 -11.838  1.00  0.00     0.338 C 
ATOM     43  O   UNL     1       6.513  -1.308 -12.096  1.00  0.00    -0.246 OA
BRANCH  42  44
ATOM     44  C   UNL     1       4.340  -1.907 -12.839  1.00  0.00     0.060 A 
ATOM     45  C   UNL     1       4.771  -1.857 -14.162  1.00  0.00     0.016 A 
ATOM     46  C   UNL     1       3.005  -1.696 -12.458  1.00  0.00     0.016 A 
ATOM     47  C   UNL     1       3.936  -1.254 -15.062  1.00  0.00     0.010 A 
ATOM     48  C   UNL     1       2.186  -1.065 -13.348  1.00  0.00     0.010 A 
ATOM     49  C   UNL     1       2.714  -0.757 -14.596  1.00  0.00    -0.014 A 
BRANCH  49  50
ATOM     50  C   UNL     1       1.937   0.052 -15.495  1.00  0.00     0.031 A 
ATOM     51  C   UNL     1       1.210  -0.787 -16.457  1.00  0.00     0.074 A 
ATOM     52  C   UNL     1       1.864   1.388 -15.376  1.00  0.00     0.049 A 
ATOM     53  N   UNL     1       1.521  -1.001 -17.689  1.00  0.00    -0.248 NA
ATOM     54  C   UNL     1       0.175  -1.689 -15.925  1.00  0.00     0.031 C 
ATOM     55  C   UNL     1       2.326   2.224 -14.263  1.00  0.00     0.029 A 
ATOM     56  N   UNL     1       1.263   2.280 -16.207  1.00  0.00    -0.354 N 
ATOM     57  C   UNL     1       0.551  -1.881 -18.149  1.00  0.00     0.074 A 
ATOM     58  C   UNL     1      -0.057  -2.463 -16.986  1.00  0.00     0.031 C 
ATOM     59  C   UNL     1       1.787   3.459 -14.383  1.00  0.00     0.029 A 
ATOM     60  C   UNL     1       1.070   3.535 -15.645  1.00  0.00     0.049 A 
ATOM     61  H   UNL     1       0.989   2.056 -17.126  1.00  0.00     0.167 HD
ATOM     62  C   UNL     1       0.080  -1.757 -19.418  1.00  0.00     0.037 A 
ATOM     63  C   UNL     1       0.294   4.511 -16.174  1.00  0.00     0.037 A 
ATOM     64  C   UNL     1       0.968  -0.937 -20.206  1.00  0.00     0.049 A 
ATOM     65  C   UNL     1       0.142   4.214 -17.621  1.00  0.00     0.074 A 
ATOM     66  C   UNL     1       2.225  -1.069 -20.752  1.00  0.00     0.029 A 
ATOM     67  N   UNL     1       0.688   0.404 -20.142  1.00  0.00    -0.354 N 
ATOM     68  N   UNL     1       1.129   4.260 -18.474  1.00  0.00    -0.248 NA
ATOM     69  C   UNL     1      -1.038   3.487 -18.077  1.00  0.00     0.031 C 
ATOM     70  C   UNL     1       2.763   0.252 -20.829  1.00  0.00     0.029 A 
ATOM     71  C   UNL     1       1.808   1.156 -20.365  1.00  0.00     0.049 A 
ATOM     72  H   UNL     1      -0.204   0.777 -19.960  1.00  0.00     0.167 HD
ATOM     73  C   UNL     1       0.866   3.238 -19.368  1.00  0.00     0.074 A 
ATOM     74  C   UNL     1      -0.544   2.921 -19.182  1.00  0.00     0.031 C 
ATOM     75  C   UNL     1       1.889   2.536 -19.936  1.00  0.00     0.037 A 
BRANCH  62  76
ATOM     76  C   UNL     1      -1.384  -1.893 -19.784  1.00  0.00     0.064 A 
ATOM     77  C   UNL     1      -1.741  -1.812 -21.144  1.00  0.00     0.173 A 
ATOM     78  C   UNL     1      -2.458  -1.777 -18.871  1.00  0.00     0.173 A 
ATOM     79  F   UNL     1      -0.802  -1.883 -22.100  1.00  0.00    -0.203 F 
ATOM     80  C   UNL     1      -3.055  -1.563 -21.550  1.00  0.00     0.198 A 
ATOM     81  C   UNL     1      -3.774  -1.584 -19.282  1.00  0.00     0.198 A 
ATOM     82  F   UNL     1      -2.284  -1.726 -17.547  1.00  0.00    -0.203 F 
ATOM     83  F   UNL     1      -3.325  -1.371 -22.848  1.00  0.00    -0.200 F 
ATOM     84  C   UNL     1      -4.070  -1.445 -20.618  1.00  0.00     0.200 A 
ATOM     85  F   UNL     1      -4.736  -1.446 -18.357  1.00  0.00    -0.200 F 
ATOM     86  F   UNL     1      -5.318  -1.149 -21.000  1.00  0.00    -0.200 F 
ENDBRANCH  62  76
BRANCH  63  87
ATOM     87  C   UNL     1      -0.588   5.466 -15.463  1.00  0.00     0.064 A 
ATOM     88  C   UNL     1      -1.106   6.595 -16.120  1.00  0.00     0.173 A 
ATOM     89  C   UNL     1      -1.177   5.135 -14.227  1.00  0.00     0.173 A 
ATOM     90  F   UNL     1      -0.629   6.952 -17.321  1.00  0.00    -0.203 F 
ATOM     91  C   UNL     1      -2.175   7.325 -15.590  1.00  0.00     0.198 A 
ATOM     92  C   UNL     1      -2.240   5.868 -13.698  1.00  0.00     0.198 A 
ATOM     93  F   UNL     1      -0.802   4.035 -13.559  1.00  0.00    -0.203 F 
ATOM     94  F   UNL     1      -2.689   8.353 -16.280  1.00  0.00    -0.200 F 
ATOM     95  C   UNL     1      -2.750   6.953 -14.386  1.00  0.00     0.200 A 
ATOM     96  F   UNL     1      -2.812   5.473 -12.551  1.00  0.00    -0.200 F 
ATOM     97  F   UNL     1      -3.818   7.608 -13.913  1.00  0.00    -0.200 F 
ENDBRANCH  63  87
BRANCH  75  98
ATOM     98  C   UNL     1       3.234   3.196 -19.970  1.00  0.00     0.064 A 
ATOM     99  C   UNL     1       4.011   3.484 -18.836  1.00  0.00     0.173 A 
ATOM    100  C   UNL     1       3.793   3.468 -21.226  1.00  0.00     0.173 A 
ATOM    101  F   UNL     1       3.576   3.176 -17.607  1.00  0.00    -0.203 F 
ATOM    102  C   UNL     1       5.276   4.057 -18.960  1.00  0.00     0.198 A 
ATOM    103  C   UNL     1       5.070   4.003 -21.348  1.00  0.00     0.198 A 
ATOM    104  F   UNL     1       3.109   3.173 -22.343  1.00  0.00    -0.203 F 
ATOM    105  F   UNL     1       5.995   4.342 -17.864  1.00  0.00    -0.200 F 
ATOM    106  C   UNL     1       5.807   4.308 -20.216  1.00  0.00     0.200 A 
ATOM    107  F   UNL     1       5.595   4.201 -22.565  1.00  0.00    -0.200 F 
ATOM    108  F   UNL     1       7.039   4.823 -20.336  1.00  0.00    -0.200 F 
ENDBRANCH  75  98
ENDBRANCH  49  50
ENDBRANCH  42  44
ENDBRANCH  41  42
ENDBRANCH  40  41
ENDBRANCH  39  40
ENDBRANCH  38  39
ENDBRANCH  37  38
ENDBRANCH  36  37
ENDBRANCH  35  36
ENDBRANCH   1  35
TORSDOF 24
