REMARK SMILES O=C(Cc1ccccc1C(=O)OCCOCCOCCOCCOC(=O)c1ccc(-c2c3nc(c(-c4c(F)c(F)c(F)c(F)c4F)c4ccc([nH]4)c(-c4c(F)c(F)c(F)c(F)c4F)c4nc(c(-c5c(F)c(F)c(F)c(F)c5F)c5ccc2[nH]5)C=C4)C=C3)cc1)Nc1cccc(OC[C@@H]2CCCO2)c1
REMARK SMILES IDX 16 1 15 2 14 3 13 4 12 5 10 6 11 7 9 8 4 9 5 10 6 11 8 12
REMARK SMILES IDX 7 13 3 14 2 15 1 16 90 17 91 19 92 20 103 21 93 22 95 23
REMARK SMILES IDX 94 24 96 25 97 26 98 27 99 28 102 29 100 30 101 31 17 32
REMARK SMILES IDX 18 33 19 34 20 35 21 36 22 37 23 38 24 39 25 40 26 41 27 42
REMARK SMILES IDX 28 43 89 44 29 45 88 46 30 47 31 48 32 49 82 50 33 51 87 52
REMARK SMILES IDX 81 53 83 54 34 55 86 56 80 57 79 58 35 60 67 61 47 62 66 63
REMARK SMILES IDX 48 64 51 65 65 66 84 67 49 68 50 69 64 71 85 72 52 73 36 74
REMARK SMILES IDX 37 75 45 76 38 77 39 78 43 79 46 80 40 81 41 82 44 83 42 84
REMARK SMILES IDX 68 85 69 86 77 87 70 88 71 89 75 90 78 91 72 92 73 93 76 94
REMARK SMILES IDX 74 95 53 96 54 97 62 98 55 99 56 100 60 101 63 102 57 103
REMARK SMILES IDX 58 104 61 105 59 106
REMARK H PARENT 90 18 83 59 51 70
REMARK Flexibility Score: inf
ROOT
ATOM      1  C   UNL     1       7.570   0.440  -0.557  1.00  0.00     0.188 C 
ENDROOT
BRANCH   1   2
ATOM      2  O   UNL     1       7.641   1.787  -1.014  1.00  0.00    -0.376 OA
BRANCH   2   3
ATOM      3  C   UNL     1       6.461   2.574  -1.080  1.00  0.00     0.202 C 
BRANCH   3   4
ATOM      4  C   UNL     1       5.204   1.990  -1.727  1.00  0.00     0.261 C 
BRANCH   4   5
ATOM      5  O   UNL     1       4.861   0.667  -1.264  1.00  0.00    -0.460 OA
BRANCH   5   6
ATOM      6  C   UNL     1       4.736  -0.287  -2.219  1.00  0.00     0.338 C 
ATOM      7  O   UNL     1       4.862  -0.112  -3.421  1.00  0.00    -0.246 OA
BRANCH   6   8
ATOM      8  C   UNL     1       4.593  -1.652  -1.629  1.00  0.00     0.063 A 
ATOM      9  C   UNL     1       3.717  -2.038  -0.590  1.00  0.00    -0.024 A 
ATOM     10  C   UNL     1       3.697  -3.391  -0.191  1.00  0.00     0.005 A 
ATOM     11  C   UNL     1       4.521  -4.335  -0.798  1.00  0.00     0.000 A 
ATOM     12  C   UNL     1       5.423  -2.618  -2.223  1.00  0.00     0.016 A 
ATOM     13  C   UNL     1       5.391  -3.948  -1.809  1.00  0.00     0.001 A 
BRANCH   9  14
ATOM     14  C   UNL     1       2.791  -1.101   0.141  1.00  0.00     0.136 C 
BRANCH  14  15
ATOM     15  C   UNL     1       1.890  -0.332  -0.798  1.00  0.00     0.228 C 
ATOM     16  O   UNL     1       0.951  -0.852  -1.392  1.00  0.00    -0.274 OA
ATOM     17  N   UNL     1       2.256   0.993  -0.875  1.00  0.00    -0.326 N 
ATOM     18  H   UNL     1       2.950   1.315  -0.256  1.00  0.00     0.169 HD
BRANCH  17  19
ATOM     19  C   UNL     1       1.709   1.905  -1.769  1.00  0.00     0.044 A 
ATOM     20  C   UNL     1       1.817   1.760  -3.150  1.00  0.00     0.026 A 
ATOM     21  C   UNL     1       1.041   2.979  -1.206  1.00  0.00     0.072 A 
ATOM     22  C   UNL     1       1.241   2.726  -3.972  1.00  0.00     0.006 A 
ATOM     23  C   UNL     1       0.262   3.777  -2.021  1.00  0.00     0.121 A 
ATOM     24  C   UNL     1       0.434   3.716  -3.406  1.00  0.00     0.046 A 
BRANCH  23  25
ATOM     25  O   UNL     1      -0.727   4.590  -1.558  1.00  0.00    -0.491 OA
BRANCH  25  26
ATOM     26  C   UNL     1      -1.336   4.256  -0.297  1.00  0.00     0.261 C 
BRANCH  26  27
ATOM     27  C   UNL     1      -2.245   3.004  -0.239  1.00  0.00     0.156 C 
ATOM     28  C   UNL     1      -1.613   1.637  -0.002  1.00  0.00     0.038 C 
ATOM     29  O   UNL     1      -3.078   2.873  -1.405  1.00  0.00    -0.375 OA
ATOM     30  C   UNL     1      -2.670   0.705  -0.538  1.00  0.00     0.031 C 
ATOM     31  C   UNL     1      -3.148   1.478  -1.749  1.00  0.00     0.161 C 
ENDBRANCH  26  27
ENDBRANCH  25  26
ENDBRANCH  23  25
ENDBRANCH  17  19
ENDBRANCH  14  15
ENDBRANCH   9  14
ENDBRANCH   6   8
ENDBRANCH   5   6
ENDBRANCH   4   5
ENDBRANCH   3   4
ENDBRANCH   2   3
ENDBRANCH   1   2
BRANCH   1  32
ATOM     32  C   UNL     1       6.785   0.083   0.728  1.00  0.00     0.188 C 
BRANCH  32  33
ATOM     33  O   UNL     1       5.958   1.123   1.238  1.00  0.00    -0.377 OA
BRANCH  33  34
ATOM     34  C   UNL     1       6.507   1.843   2.343  1.00  0.00     0.188 C 
BRANCH  34  35
ATOM     35  C   UNL     1       7.951   2.359   2.187  1.00  0.00     0.188 C 
BRANCH  35  36
ATOM     36  O   UNL     1       8.893   1.311   1.969  1.00  0.00    -0.376 OA
BRANCH  36  37
ATOM     37  C   UNL     1       9.697   0.920   3.075  1.00  0.00     0.202 C 
BRANCH  37  38
ATOM     38  C   UNL     1       8.964   0.080   4.132  1.00  0.00     0.261 C 
BRANCH  38  39
ATOM     39  O   UNL     1       7.918   0.767   4.840  1.00  0.00    -0.460 OA
BRANCH  39  40
ATOM     40  C   UNL     1       8.260   1.884   5.513  1.00  0.00     0.338 C 
ATOM     41  O   UNL     1       9.377   2.347   5.662  1.00  0.00    -0.246 OA
BRANCH  40  42
ATOM     42  C   UNL     1       7.021   2.581   5.900  1.00  0.00     0.060 A 
ATOM     43  C   UNL     1       6.848   3.912   5.501  1.00  0.00     0.016 A 
ATOM     44  C   UNL     1       6.055   1.939   6.679  1.00  0.00     0.016 A 
ATOM     45  C   UNL     1       5.728   4.622   5.925  1.00  0.00     0.010 A 
ATOM     46  C   UNL     1       4.940   2.657   7.117  1.00  0.00     0.010 A 
ATOM     47  C   UNL     1       4.794   4.012   6.774  1.00  0.00    -0.014 A 
BRANCH  47  48
ATOM     48  C   UNL     1       3.780   4.848   7.457  1.00  0.00     0.031 A 
ATOM     49  C   UNL     1       4.088   5.361   8.837  1.00  0.00     0.074 A 
ATOM     50  C   UNL     1       2.626   5.175   6.852  1.00  0.00     0.049 A 
ATOM     51  N   UNL     1       3.369   6.122   9.622  1.00  0.00    -0.248 NA
ATOM     52  C   UNL     1       5.385   4.960   9.408  1.00  0.00     0.031 C 
ATOM     53  C   UNL     1       2.230   4.760   5.508  1.00  0.00     0.029 A 
ATOM     54  N   UNL     1       1.574   5.934   7.297  1.00  0.00    -0.354 N 
ATOM     55  C   UNL     1       4.128   6.296  10.772  1.00  0.00     0.074 A 
ATOM     56  C   UNL     1       5.344   5.532  10.601  1.00  0.00     0.031 C 
ATOM     57  C   UNL     1       1.014   5.268   5.239  1.00  0.00     0.029 A 
ATOM     58  C   UNL     1       0.541   6.022   6.398  1.00  0.00     0.049 A 
ATOM     59  H   UNL     1       1.561   6.373   8.178  1.00  0.00     0.167 HD
ATOM     60  C   UNL     1       3.842   7.039  11.867  1.00  0.00     0.037 A 
ATOM     61  C   UNL     1      -0.654   6.636   6.509  1.00  0.00     0.037 A 
ATOM     62  C   UNL     1       2.627   7.790  12.041  1.00  0.00     0.049 A 
ATOM     63  C   UNL     1      -0.977   7.400   7.769  1.00  0.00     0.074 A 
ATOM     64  C   UNL     1       2.249   8.588  13.106  1.00  0.00     0.029 A 
ATOM     65  N   UNL     1       1.587   7.826  11.124  1.00  0.00    -0.354 N 
ATOM     66  N   UNL     1      -0.237   7.595   8.834  1.00  0.00    -0.248 NA
ATOM     67  C   UNL     1      -2.300   8.037   7.835  1.00  0.00     0.031 C 
ATOM     68  C   UNL     1       0.958   9.066  12.857  1.00  0.00     0.029 A 
ATOM     69  C   UNL     1       0.553   8.609  11.612  1.00  0.00     0.049 A 
ATOM     70  H   UNL     1       1.583   7.363  10.255  1.00  0.00     0.167 HD
ATOM     71  C   UNL     1      -0.992   8.395   9.684  1.00  0.00     0.074 A 
ATOM     72  C   UNL     1      -2.240   8.665   9.000  1.00  0.00     0.031 C 
ATOM     73  C   UNL     1      -0.683   8.864  10.918  1.00  0.00     0.037 A 
BRANCH  60  74
ATOM     74  C   UNL     1       4.855   7.053  12.973  1.00  0.00     0.064 A 
ATOM     75  C   UNL     1       6.080   7.725  12.840  1.00  0.00     0.173 A 
ATOM     76  C   UNL     1       4.590   6.405  14.188  1.00  0.00     0.173 A 
ATOM     77  F   UNL     1       6.389   8.344  11.690  1.00  0.00    -0.203 F 
ATOM     78  C   UNL     1       7.013   7.726  13.874  1.00  0.00     0.198 A 
ATOM     79  C   UNL     1       5.513   6.431  15.230  1.00  0.00     0.198 A 
ATOM     80  F   UNL     1       3.435   5.747  14.366  1.00  0.00    -0.203 F 
ATOM     81  F   UNL     1       8.196   8.332  13.707  1.00  0.00    -0.200 F 
ATOM     82  C   UNL     1       6.726   7.085  15.070  1.00  0.00     0.200 A 
ATOM     83  F   UNL     1       5.231   5.818  16.388  1.00  0.00    -0.200 F 
ATOM     84  F   UNL     1       7.622   7.089  16.066  1.00  0.00    -0.200 F 
ENDBRANCH  60  74
BRANCH  61  85
ATOM     85  C   UNL     1      -1.638   6.555   5.398  1.00  0.00     0.064 A 
ATOM     86  C   UNL     1      -1.984   7.690   4.652  1.00  0.00     0.173 A 
ATOM     87  C   UNL     1      -2.268   5.345   5.073  1.00  0.00     0.173 A 
ATOM     88  F   UNL     1      -1.424   8.875   4.939  1.00  0.00    -0.203 F 
ATOM     89  C   UNL     1      -2.937   7.623   3.637  1.00  0.00     0.198 A 
ATOM     90  C   UNL     1      -3.198   5.272   4.038  1.00  0.00     0.198 A 
ATOM     91  F   UNL     1      -1.972   4.229   5.755  1.00  0.00    -0.203 F 
ATOM     92  F   UNL     1      -3.283   8.733   2.972  1.00  0.00    -0.200 F 
ATOM     93  C   UNL     1      -3.538   6.412   3.327  1.00  0.00     0.200 A 
ATOM     94  F   UNL     1      -3.760   4.096   3.728  1.00  0.00    -0.200 F 
ATOM     95  F   UNL     1      -4.449   6.345   2.347  1.00  0.00    -0.200 F 
ENDBRANCH  61  85
BRANCH  73  96
ATOM     96  C   UNL     1      -1.701   9.736  11.596  1.00  0.00     0.064 A 
ATOM     97  C   UNL     1      -2.905   9.214  12.091  1.00  0.00     0.173 A 
ATOM     98  C   UNL     1      -1.457  11.107  11.777  1.00  0.00     0.173 A 
ATOM     99  F   UNL     1      -3.192   7.913  11.932  1.00  0.00    -0.203 F 
ATOM    100  C   UNL     1      -3.841  10.037  12.711  1.00  0.00     0.198 A 
ATOM    101  C   UNL     1      -2.382  11.920  12.425  1.00  0.00     0.198 A 
ATOM    102  F   UNL     1      -0.317  11.655  11.331  1.00  0.00    -0.203 F 
ATOM    103  F   UNL     1      -5.009   9.525  13.127  1.00  0.00    -0.200 F 
ATOM    104  C   UNL     1      -3.577  11.387  12.883  1.00  0.00     0.200 A 
ATOM    105  F   UNL     1      -2.118  13.222  12.604  1.00  0.00    -0.200 F 
ATOM    106  F   UNL     1      -4.479  12.177  13.482  1.00  0.00    -0.200 F 
ENDBRANCH  73  96
ENDBRANCH  47  48
ENDBRANCH  40  42
ENDBRANCH  39  40
ENDBRANCH  38  39
ENDBRANCH  37  38
ENDBRANCH  36  37
ENDBRANCH  35  36
ENDBRANCH  34  35
ENDBRANCH  33  34
ENDBRANCH  32  33
ENDBRANCH   1  32
TORSDOF 26
