REMARK SMILES Cc1ccc(C(=O)OCCOCCOCCOCCOC(=O)c2ccc(-c3c4nc(c(-c5c(F)c(F)c(F)c(F)c5F)c5ccc([nH]5)c(-c5c(F)c(F)c(F)c(F)c5F)c5nc(c(-c6c(F)c(F)c(F)c(F)c6F)c6ccc3[nH]6)C=C5)C=C4)cc2)cc1N1CC(C)C1
REMARK SMILES IDX 15 1 14 2 13 3 12 4 11 5 10 6 9 7 8 8 6 9 7 10 5 11 1 12
REMARK SMILES IDX 2 13 3 14 87 15 4 16 86 17 88 18 89 19 92 20 90 21 91 22
REMARK SMILES IDX 16 23 17 24 18 25 19 26 20 27 21 28 22 29 23 30 24 31 85 32
REMARK SMILES IDX 25 33 84 34 26 35 27 36 28 37 78 38 29 39 83 40 77 41 79 42
REMARK SMILES IDX 30 43 82 44 76 45 75 46 31 48 63 49 43 50 62 51 44 52 47 53
REMARK SMILES IDX 61 54 80 55 45 56 46 57 60 59 81 60 48 61 32 62 33 63 41 64
REMARK SMILES IDX 34 65 35 66 39 67 42 68 36 69 37 70 40 71 38 72 64 73 65 74
REMARK SMILES IDX 73 75 66 76 67 77 71 78 74 79 68 80 69 81 72 82 70 83 49 84
REMARK SMILES IDX 50 85 58 86 51 87 52 88 56 89 59 90 53 91 54 92 57 93 55 94
REMARK H PARENT 79 47 47 58
REMARK Flexibility Score: inf
ROOT
ATOM      1  C   UNL     1      -3.477   2.941  -5.290  1.00  0.00     0.188 C 
ENDROOT
BRANCH   1   2
ATOM      2  O   UNL     1      -2.376   2.169  -4.852  1.00  0.00    -0.377 OA
BRANCH   2   3
ATOM      3  C   UNL     1      -2.529   1.716  -3.511  1.00  0.00     0.188 C 
BRANCH   3   4
ATOM      4  C   UNL     1      -3.947   1.197  -3.052  1.00  0.00     0.188 C 
BRANCH   4   5
ATOM      5  O   UNL     1      -4.954   2.060  -2.276  1.00  0.00    -0.376 OA
BRANCH   5   6
ATOM      6  C   UNL     1      -5.836   1.735  -0.949  1.00  0.00     0.202 C 
BRANCH   6   7
ATOM      7  C   UNL     1      -5.701   0.878   0.697  1.00  0.00     0.261 C 
BRANCH   7   8
ATOM      8  O   UNL     1      -4.477  -0.278   1.438  1.00  0.00    -0.460 OA
BRANCH   8   9
ATOM      9  C   UNL     1      -3.220  -1.262   1.196  1.00  0.00     0.338 C 
ATOM     10  O   UNL     1      -3.382  -2.454   1.509  1.00  0.00    -0.246 OA
BRANCH   9  11
ATOM     11  C   UNL     1      -1.612  -1.019   0.691  1.00  0.00     0.062 A 
ATOM     12  C   UNL     1       2.772  -0.614   0.149  1.00  0.00     0.046 C 
ATOM     13  C   UNL     1       1.287  -0.716   0.310  1.00  0.00    -0.028 A 
ATOM     14  C   UNL     1       0.683  -1.928   0.720  1.00  0.00     0.006 A 
ATOM     15  C   UNL     1       0.459   0.348   0.028  1.00  0.00     0.040 A 
ATOM     16  C   UNL     1      -0.718  -2.060   0.950  1.00  0.00     0.016 A 
ATOM     17  C   UNL     1      -0.932   0.094   0.097  1.00  0.00     0.041 A 
BRANCH  15  18
ATOM     18  N   UNL     1       0.854   1.674  -0.262  1.00  0.00    -0.371 N 
ATOM     19  C   UNL     1       0.888   2.803   0.632  1.00  0.00     0.121 C 
ATOM     20  C   UNL     1       1.746   2.287  -1.195  1.00  0.00     0.121 C 
ATOM     21  C   UNL     1       1.349   3.648  -0.566  1.00  0.00     0.025 C 
ATOM     22  C   UNL     1       2.406   4.710  -0.319  1.00  0.00     0.011 C 
ENDBRANCH  15  18
ENDBRANCH   9  11
ENDBRANCH   8   9
ENDBRANCH   7   8
ENDBRANCH   6   7
ENDBRANCH   5   6
ENDBRANCH   4   5
ENDBRANCH   3   4
ENDBRANCH   2   3
ENDBRANCH   1   2
BRANCH   1  23
ATOM     23  C   UNL     1      -4.382   2.125  -6.218  1.00  0.00     0.188 C 
BRANCH  23  24
ATOM     24  O   UNL     1      -4.412   0.753  -5.847  1.00  0.00    -0.376 OA
BRANCH  24  25
ATOM     25  C   UNL     1      -3.827  -0.177  -6.743  1.00  0.00     0.202 C 
BRANCH  25  26
ATOM     26  C   UNL     1      -4.915  -0.669  -7.702  1.00  0.00     0.261 C 
BRANCH  26  27
ATOM     27  O   UNL     1      -5.886  -1.463  -6.984  1.00  0.00    -0.460 OA
BRANCH  27  28
ATOM     28  C   UNL     1      -6.759  -0.762  -6.221  1.00  0.00     0.338 C 
ATOM     29  O   UNL     1      -7.473   0.170  -6.630  1.00  0.00    -0.246 OA
BRANCH  28  30
ATOM     30  C   UNL     1      -6.560  -1.100  -4.780  1.00  0.00     0.060 A 
ATOM     31  C   UNL     1      -7.234  -0.394  -3.801  1.00  0.00     0.016 A 
ATOM     32  C   UNL     1      -5.503  -1.927  -4.387  1.00  0.00     0.016 A 
ATOM     33  C   UNL     1      -6.715  -0.391  -2.497  1.00  0.00     0.010 A 
ATOM     34  C   UNL     1      -4.881  -1.742  -3.144  1.00  0.00     0.010 A 
ATOM     35  C   UNL     1      -5.396  -0.828  -2.221  1.00  0.00    -0.014 A 
BRANCH  35  36
ATOM     36  C   UNL     1      -4.566  -0.491  -0.861  1.00  0.00     0.031 A 
ATOM     37  C   UNL     1      -5.483  -1.754   0.025  1.00  0.00     0.074 A 
ATOM     38  C   UNL     1      -3.644   0.794  -0.321  1.00  0.00     0.049 A 
ATOM     39  N   UNL     1      -6.232  -1.587   1.103  1.00  0.00    -0.248 NA
ATOM     40  C   UNL     1      -5.709  -3.132  -0.469  1.00  0.00     0.031 C 
ATOM     41  C   UNL     1      -2.967   1.231   1.179  1.00  0.00     0.029 A 
ATOM     42  N   UNL     1      -3.356   2.223  -0.744  1.00  0.00    -0.354 N 
ATOM     43  C   UNL     1      -6.341  -2.799   1.709  1.00  0.00     0.074 A 
ATOM     44  C   UNL     1      -6.350  -3.692   0.570  1.00  0.00     0.031 C 
ATOM     45  C   UNL     1      -2.589   2.494   1.334  1.00  0.00     0.029 A 
ATOM     46  C   UNL     1      -3.254   3.179   0.310  1.00  0.00     0.049 A 
ATOM     47  H   UNL     1      -3.245   2.476  -1.689  1.00  0.00     0.167 HD
ATOM     48  C   UNL     1      -6.006  -2.983   3.038  1.00  0.00     0.037 A 
ATOM     49  C   UNL     1      -4.066   4.238   0.645  1.00  0.00     0.037 A 
ATOM     50  C   UNL     1      -5.450  -1.764   3.726  1.00  0.00     0.049 A 
ATOM     51  C   UNL     1      -4.631   4.037   2.092  1.00  0.00     0.074 A 
ATOM     52  C   UNL     1      -4.153  -1.488   4.161  1.00  0.00     0.029 A 
ATOM     53  N   UNL     1      -6.111  -0.520   3.821  1.00  0.00    -0.354 N 
ATOM     54  N   UNL     1      -4.816   2.856   2.638  1.00  0.00    -0.248 NA
ATOM     55  C   UNL     1      -4.969   5.096   3.034  1.00  0.00     0.031 C 
ATOM     56  C   UNL     1      -4.015  -0.109   4.448  1.00  0.00     0.029 A 
ATOM     57  C   UNL     1      -5.244   0.500   4.261  1.00  0.00     0.049 A 
ATOM     58  H   UNL     1      -7.062  -0.383   3.606  1.00  0.00     0.167 HD
ATOM     59  C   UNL     1      -5.317   2.944   3.906  1.00  0.00     0.074 A 
ATOM     60  C   UNL     1      -5.344   4.388   4.122  1.00  0.00     0.031 C 
ATOM     61  C   UNL     1      -5.672   1.851   4.672  1.00  0.00     0.037 A 
BRANCH  48  62
ATOM     62  C   UNL     1      -5.698  -4.423   3.496  1.00  0.00     0.064 A 
ATOM     63  C   UNL     1      -4.680  -4.748   4.416  1.00  0.00     0.173 A 
ATOM     64  C   UNL     1      -6.349  -5.549   2.951  1.00  0.00     0.173 A 
ATOM     65  F   UNL     1      -4.156  -3.839   5.244  1.00  0.00    -0.203 F 
ATOM     66  C   UNL     1      -4.192  -6.053   4.572  1.00  0.00     0.198 A 
ATOM     67  C   UNL     1      -5.839  -6.849   3.067  1.00  0.00     0.198 A 
ATOM     68  F   UNL     1      -7.523  -5.418   2.314  1.00  0.00    -0.203 F 
ATOM     69  F   UNL     1      -3.190  -6.290   5.432  1.00  0.00    -0.200 F 
ATOM     70  C   UNL     1      -4.733  -7.095   3.852  1.00  0.00     0.200 A 
ATOM     71  F   UNL     1      -6.427  -7.858   2.408  1.00  0.00    -0.200 F 
ATOM     72  F   UNL     1      -4.234  -8.334   3.961  1.00  0.00    -0.200 F 
ENDBRANCH  48  62
BRANCH  49  73
ATOM     73  C   UNL     1      -4.761   4.965  -0.463  1.00  0.00     0.064 A 
ATOM     74  C   UNL     1      -4.012   5.363  -1.590  1.00  0.00     0.173 A 
ATOM     75  C   UNL     1      -6.157   5.036  -0.583  1.00  0.00     0.173 A 
ATOM     76  F   UNL     1      -2.671   5.391  -1.528  1.00  0.00    -0.203 F 
ATOM     77  C   UNL     1      -4.619   5.638  -2.816  1.00  0.00     0.198 A 
ATOM     78  C   UNL     1      -6.764   5.282  -1.822  1.00  0.00     0.198 A 
ATOM     79  F   UNL     1      -6.940   4.683   0.447  1.00  0.00    -0.203 F 
ATOM     80  F   UNL     1      -3.864   5.906  -3.892  1.00  0.00    -0.200 F 
ATOM     81  C   UNL     1      -5.993   5.548  -2.943  1.00  0.00     0.200 A 
ATOM     82  F   UNL     1      -8.094   5.165  -1.946  1.00  0.00    -0.200 F 
ATOM     83  F   UNL     1      -6.567   5.683  -4.147  1.00  0.00    -0.200 F 
ENDBRANCH  49  73
BRANCH  61  84
ATOM     84  C   UNL     1      -6.316   1.948   6.041  1.00  0.00     0.064 A 
ATOM     85  C   UNL     1      -7.249   2.937   6.382  1.00  0.00     0.173 A 
ATOM     86  C   UNL     1      -6.107   0.944   7.023  1.00  0.00     0.173 A 
ATOM     87  F   UNL     1      -7.606   3.883   5.504  1.00  0.00    -0.203 F 
ATOM     88  C   UNL     1      -7.883   2.951   7.627  1.00  0.00     0.198 A 
ATOM     89  C   UNL     1      -6.789   0.926   8.236  1.00  0.00     0.198 A 
ATOM     90  F   UNL     1      -5.240  -0.061   6.839  1.00  0.00    -0.203 F 
ATOM     91  F   UNL     1      -8.730   3.946   7.924  1.00  0.00    -0.200 F 
ATOM     92  C   UNL     1      -7.667   1.940   8.545  1.00  0.00     0.200 A 
ATOM     93  F   UNL     1      -6.596  -0.086   9.095  1.00  0.00    -0.200 F 
ATOM     94  F   UNL     1      -8.316   1.934   9.717  1.00  0.00    -0.200 F 
ENDBRANCH  61  84
ENDBRANCH  35  36
ENDBRANCH  28  30
ENDBRANCH  27  28
ENDBRANCH  26  27
ENDBRANCH  25  26
ENDBRANCH  24  25
ENDBRANCH  23  24
ENDBRANCH   1  23
TORSDOF 21
