REMARK SMILES O=C(OCCOCCOCCOCCOC(=O)C1CN(S(=O)(=O)c2ccc(F)cc2)C1)c1ccc(-c2c3nc(c(-c4c(F)c(F)c(F)c(F)c4F)c4ccc([nH]4)c(-c4c(F)c(F)c(F)c(F)c4F)c4nc(c(-c5c(F)c(F)c(F)c(F)c5F)c5ccc2[nH]5)C=C4)C=C3)cc1
REMARK SMILES IDX 9 1 8 2 7 3 6 4 5 5 4 6 3 7 2 8 1 9 32 10 33 11 94 12 34 13
REMARK SMILES IDX 93 14 35 15 36 16 37 17 87 18 38 19 92 20 86 21 88 22 39 23
REMARK SMILES IDX 91 24 85 25 84 26 40 28 72 29 52 30 71 31 53 32 56 33 70 34
REMARK SMILES IDX 89 35 54 36 55 37 69 39 90 40 57 41 41 42 42 43 50 44 43 45
REMARK SMILES IDX 44 46 48 47 51 48 45 49 46 50 49 51 47 52 73 53 74 54 82 55
REMARK SMILES IDX 75 56 76 57 80 58 83 59 77 60 78 61 81 62 79 63 58 64 59 65
REMARK SMILES IDX 67 66 60 67 61 68 65 69 68 70 62 71 63 72 66 73 64 74 10 75
REMARK SMILES IDX 11 76 12 77 13 78 14 79 15 80 16 81 17 82 18 83 19 84 31 85
REMARK SMILES IDX 20 86 21 87 22 88 23 89 24 90 25 91 30 92 26 93 29 94 27 95
REMARK SMILES IDX 28 96
REMARK H PARENT 88 27 56 38
REMARK Flexibility Score: inf
ROOT
ATOM      1  O   UNL     1       3.010   4.106   0.622  1.00  0.00    -0.377 OA
ENDROOT
BRANCH   1   2
ATOM      2  C   UNL     1       2.155   2.973   0.728  1.00  0.00     0.188 C 
BRANCH   2   3
ATOM      3  C   UNL     1       2.567   1.729  -0.055  1.00  0.00     0.188 C 
BRANCH   3   4
ATOM      4  O   UNL     1       3.875   1.311   0.305  1.00  0.00    -0.376 OA
BRANCH   4   5
ATOM      5  C   UNL     1       4.723   0.709  -0.663  1.00  0.00     0.202 C 
BRANCH   5   6
ATOM      6  C   UNL     1       4.113  -0.314  -1.621  1.00  0.00     0.261 C 
BRANCH   6   7
ATOM      7  O   UNL     1       2.721  -0.656  -1.420  1.00  0.00    -0.460 OA
BRANCH   7   8
ATOM      8  C   UNL     1       2.117  -1.495  -0.544  1.00  0.00     0.338 C 
ATOM      9  O   UNL     1       0.921  -1.746  -0.658  1.00  0.00    -0.246 OA
BRANCH   8  10
ATOM     10  C   UNL     1       2.870  -2.138   0.553  1.00  0.00     0.060 A 
ATOM     11  C   UNL     1       3.833  -1.460   1.271  1.00  0.00     0.016 A 
ATOM     12  C   UNL     1       2.542  -3.428   0.973  1.00  0.00     0.016 A 
ATOM     13  C   UNL     1       4.693  -2.095   2.125  1.00  0.00     0.010 A 
ATOM     14  C   UNL     1       3.271  -4.030   2.007  1.00  0.00     0.010 A 
ATOM     15  C   UNL     1       4.398  -3.381   2.534  1.00  0.00    -0.014 A 
BRANCH  15  16
ATOM     16  C   UNL     1       5.379  -4.014   3.428  1.00  0.00     0.031 A 
ATOM     17  C   UNL     1       6.164  -5.165   2.886  1.00  0.00     0.074 A 
ATOM     18  C   UNL     1       5.701  -3.413   4.592  1.00  0.00     0.049 A 
ATOM     19  N   UNL     1       7.057  -5.905   3.481  1.00  0.00    -0.248 NA
ATOM     20  C   UNL     1       5.930  -5.526   1.474  1.00  0.00     0.031 C 
ATOM     21  C   UNL     1       5.105  -2.168   5.099  1.00  0.00     0.029 A 
ATOM     22  N   UNL     1       6.655  -3.716   5.526  1.00  0.00    -0.354 N 
ATOM     23  C   UNL     1       7.450  -6.841   2.537  1.00  0.00     0.074 A 
ATOM     24  C   UNL     1       6.706  -6.588   1.327  1.00  0.00     0.031 C 
ATOM     25  C   UNL     1       5.751  -1.784   6.209  1.00  0.00     0.029 A 
ATOM     26  C   UNL     1       6.715  -2.814   6.562  1.00  0.00     0.049 A 
ATOM     27  H   UNL     1       7.241  -4.504   5.461  1.00  0.00     0.167 HD
ATOM     28  C   UNL     1       8.358  -7.827   2.688  1.00  0.00     0.037 A 
ATOM     29  C   UNL     1       7.438  -2.855   7.696  1.00  0.00     0.037 A 
ATOM     30  C   UNL     1       9.101  -8.021   3.901  1.00  0.00     0.049 A 
ATOM     31  C   UNL     1       8.341  -4.042   7.887  1.00  0.00     0.074 A 
ATOM     32  C   UNL     1       9.990  -9.027   4.216  1.00  0.00     0.029 A 
ATOM     33  N   UNL     1       9.042  -7.167   4.996  1.00  0.00    -0.354 N 
ATOM     34  N   UNL     1       8.626  -5.005   7.042  1.00  0.00    -0.248 NA
ATOM     35  C   UNL     1       9.001  -4.169   9.190  1.00  0.00     0.031 C 
ATOM     36  C   UNL     1      10.430  -8.813   5.524  1.00  0.00     0.029 A 
ATOM     37  C   UNL     1       9.866  -7.637   6.001  1.00  0.00     0.049 A 
ATOM     38  H   UNL     1       8.496  -6.350   5.048  1.00  0.00     0.167 HD
ATOM     39  C   UNL     1       9.507  -5.846   7.702  1.00  0.00     0.074 A 
ATOM     40  C   UNL     1       9.733  -5.258   9.009  1.00  0.00     0.031 C 
ATOM     41  C   UNL     1      10.069  -7.005   7.280  1.00  0.00     0.037 A 
BRANCH  28  42
ATOM     42  C   UNL     1       8.538  -8.791   1.558  1.00  0.00     0.064 A 
ATOM     43  C   UNL     1       8.049 -10.101   1.675  1.00  0.00     0.173 A 
ATOM     44  C   UNL     1       9.210  -8.442   0.379  1.00  0.00     0.173 A 
ATOM     45  F   UNL     1       7.379 -10.476   2.775  1.00  0.00    -0.203 F 
ATOM     46  C   UNL     1       8.253 -11.035   0.664  1.00  0.00     0.198 A 
ATOM     47  C   UNL     1       9.390  -9.373  -0.642  1.00  0.00     0.198 A 
ATOM     48  F   UNL     1       9.660  -7.191   0.202  1.00  0.00    -0.203 F 
ATOM     49  F   UNL     1       7.801 -12.288   0.812  1.00  0.00    -0.200 F 
ATOM     50  C   UNL     1       8.924 -10.671  -0.493  1.00  0.00     0.200 A 
ATOM     51  F   UNL     1      10.007  -9.011  -1.776  1.00  0.00    -0.200 F 
ATOM     52  F   UNL     1       9.114 -11.570  -1.468  1.00  0.00    -0.200 F 
ENDBRANCH  28  42
BRANCH  29  53
ATOM     53  C   UNL     1       7.278  -1.809   8.745  1.00  0.00     0.064 A 
ATOM     54  C   UNL     1       6.045  -1.598   9.386  1.00  0.00     0.173 A 
ATOM     55  C   UNL     1       8.358  -1.015   9.154  1.00  0.00     0.173 A 
ATOM     56  F   UNL     1       4.974  -2.329   9.044  1.00  0.00    -0.203 F 
ATOM     57  C   UNL     1       5.896  -0.629  10.376  1.00  0.00     0.198 A 
ATOM     58  C   UNL     1       8.217  -0.071  10.172  1.00  0.00     0.198 A 
ATOM     59  F   UNL     1       9.564  -1.184   8.593  1.00  0.00    -0.203 F 
ATOM     60  F   UNL     1       4.698  -0.432  10.943  1.00  0.00    -0.200 F 
ATOM     61  C   UNL     1       6.985   0.126  10.778  1.00  0.00     0.200 A 
ATOM     62  F   UNL     1       9.281   0.634  10.580  1.00  0.00    -0.200 F 
ATOM     63  F   UNL     1       6.851   1.033  11.755  1.00  0.00    -0.200 F 
ENDBRANCH  29  53
BRANCH  41  64
ATOM     64  C   UNL     1      11.003  -7.691   8.229  1.00  0.00     0.064 A 
ATOM     65  C   UNL     1      12.373  -7.765   7.938  1.00  0.00     0.173 A 
ATOM     66  C   UNL     1      10.531  -8.340   9.377  1.00  0.00     0.173 A 
ATOM     67  F   UNL     1      12.867  -7.168   6.842  1.00  0.00    -0.203 F 
ATOM     68  C   UNL     1      13.236  -8.484   8.756  1.00  0.00     0.198 A 
ATOM     69  C   UNL     1      11.405  -9.024  10.215  1.00  0.00     0.198 A 
ATOM     70  F   UNL     1       9.230  -8.283   9.700  1.00  0.00    -0.203 F 
ATOM     71  F   UNL     1      14.533  -8.582   8.434  1.00  0.00    -0.200 F 
ATOM     72  C   UNL     1      12.753  -9.107   9.897  1.00  0.00     0.200 A 
ATOM     73  F   UNL     1      10.942  -9.601  11.332  1.00  0.00    -0.200 F 
ATOM     74  F   UNL     1      13.588  -9.787  10.693  1.00  0.00    -0.200 F 
ENDBRANCH  41  64
ENDBRANCH  15  16
ENDBRANCH   8  10
ENDBRANCH   7   8
ENDBRANCH   6   7
ENDBRANCH   5   6
ENDBRANCH   4   5
ENDBRANCH   3   4
ENDBRANCH   2   3
ENDBRANCH   1   2
BRANCH   1  75
ATOM     75  C   UNL     1       4.409   3.862   0.626  1.00  0.00     0.188 C 
BRANCH  75  76
ATOM     76  C   UNL     1       5.120   3.435   1.938  1.00  0.00     0.188 C 
BRANCH  76  77
ATOM     77  O   UNL     1       4.511   2.477   2.780  1.00  0.00    -0.376 OA
BRANCH  77  78
ATOM     78  C   UNL     1       3.583   2.832   3.797  1.00  0.00     0.202 C 
BRANCH  78  79
ATOM     79  C   UNL     1       3.121   4.267   4.140  1.00  0.00     0.261 C 
BRANCH  79  80
ATOM     80  O   UNL     1       3.251   5.226   3.090  1.00  0.00    -0.463 OA
BRANCH  80  81
ATOM     81  C   UNL     1       4.149   6.245   3.256  1.00  0.00     0.311 C 
ATOM     82  O   UNL     1       4.676   6.511   4.333  1.00  0.00    -0.252 OA
BRANCH  81  83
ATOM     83  C   UNL     1       4.550   6.848   1.903  1.00  0.00     0.129 C 
ATOM     84  C   UNL     1       4.673   8.350   1.657  1.00  0.00     0.119 C 
ATOM     85  C   UNL     1       6.075   6.832   1.603  1.00  0.00     0.119 C 
ATOM     86  N   UNL     1       5.911   8.096   0.812  1.00  0.00    -0.196 NA
BRANCH  86  87
ATOM     87  S   UNL     1       5.872   8.052  -0.906  1.00  0.00     0.243 S 
ATOM     88  O   UNL     1       5.632   6.692  -1.331  1.00  0.00    -0.207 OA
ATOM     89  O   UNL     1       5.034   9.146  -1.358  1.00  0.00    -0.207 OA
BRANCH  87  90
ATOM     90  C   UNL     1       7.561   8.437  -1.308  1.00  0.00     0.082 A 
ATOM     91  C   UNL     1       8.561   7.478  -1.092  1.00  0.00     0.025 A 
ATOM     92  C   UNL     1       7.870   9.675  -1.883  1.00  0.00     0.025 A 
ATOM     93  C   UNL     1       9.883   7.779  -1.427  1.00  0.00     0.040 A 
ATOM     94  C   UNL     1       9.192   9.964  -2.220  1.00  0.00     0.040 A 
ATOM     95  C   UNL     1      10.185   9.018  -1.985  1.00  0.00     0.123 A 
ATOM     96  F   UNL     1      11.454   9.302  -2.307  1.00  0.00    -0.207 F 
ENDBRANCH  87  90
ENDBRANCH  86  87
ENDBRANCH  81  83
ENDBRANCH  80  81
ENDBRANCH  79  80
ENDBRANCH  78  79
ENDBRANCH  77  78
ENDBRANCH  76  77
ENDBRANCH  75  76
ENDBRANCH   1  75
TORSDOF 22
