REMARK SMILES O=C(OCCOCCOCCOCCOC(=O)c1cc(-n2cccc2)ccc1O)c1ccc(-c2c3nc(c(-c4c(F)c(F)c(F)c(F)c4F)c4ccc([nH]4)c(-c4c(F)c(F)c(F)c(F)c4F)c4nc(c(-c5c(F)c(F)c(F)c(F)c5F)c5ccc2[nH]5)C=C4)C=C3)cc1
REMARK SMILES IDX 8 1 7 2 6 3 5 4 4 5 3 6 2 7 1 8 30 9 31 10 92 11 32 12 91 13
REMARK SMILES IDX 33 14 34 15 35 16 85 17 36 18 90 19 84 20 86 21 37 22 89 23
REMARK SMILES IDX 83 24 82 25 38 27 70 28 50 29 69 30 51 31 54 32 68 33 87 34
REMARK SMILES IDX 52 35 53 36 67 38 88 39 55 40 39 41 40 42 48 43 41 44 42 45
REMARK SMILES IDX 46 46 49 47 43 48 44 49 47 50 45 51 71 52 72 53 80 54 73 55
REMARK SMILES IDX 74 56 78 57 81 58 75 59 76 60 79 61 77 62 56 63 57 64 65 65
REMARK SMILES IDX 58 66 59 67 63 68 66 69 60 70 61 71 64 72 62 73 9 74 10 75
REMARK SMILES IDX 11 76 12 77 13 78 14 79 15 80 16 81 17 82 18 83 19 84 28 85
REMARK SMILES IDX 20 86 27 87 26 88 29 89 21 91 22 92 25 93 23 94 24 95
REMARK H PARENT 86 26 54 37 29 90
REMARK Flexibility Score: inf
ROOT
ATOM      1  C   UNL     1       2.232   1.440   1.383  1.00  0.00     0.188 C 
ENDROOT
BRANCH   1   2
ATOM      2  C   UNL     1       3.036   0.150   1.577  1.00  0.00     0.188 C 
BRANCH   2   3
ATOM      3  O   UNL     1       4.256  -0.137   0.892  1.00  0.00    -0.376 OA
BRANCH   3   4
ATOM      4  C   UNL     1       4.861   0.656  -0.113  1.00  0.00     0.202 C 
BRANCH   4   5
ATOM      5  C   UNL     1       4.217   0.773  -1.506  1.00  0.00     0.261 C 
BRANCH   5   6
ATOM      6  O   UNL     1       2.792   0.922  -1.503  1.00  0.00    -0.460 OA
BRANCH   6   7
ATOM      7  C   UNL     1       1.834  -0.022  -1.361  1.00  0.00     0.338 C 
ATOM      8  O   UNL     1       0.671   0.331  -1.177  1.00  0.00    -0.246 OA
BRANCH   7   9
ATOM      9  C   UNL     1       2.117  -1.475  -1.461  1.00  0.00     0.060 A 
ATOM     10  C   UNL     1       3.372  -2.052  -1.275  1.00  0.00     0.016 A 
ATOM     11  C   UNL     1       1.027  -2.310  -1.760  1.00  0.00     0.016 A 
ATOM     12  C   UNL     1       3.594  -3.375  -1.559  1.00  0.00     0.010 A 
ATOM     13  C   UNL     1       1.225  -3.663  -1.999  1.00  0.00     0.010 A 
ATOM     14  C   UNL     1       2.526  -4.163  -1.960  1.00  0.00    -0.014 A 
BRANCH  14  15
ATOM     15  C   UNL     1       2.890  -5.526  -2.348  1.00  0.00     0.031 A 
ATOM     16  C   UNL     1       3.233  -6.395  -1.152  1.00  0.00     0.074 A 
ATOM     17  C   UNL     1       3.018  -5.714  -3.690  1.00  0.00     0.049 A 
ATOM     18  N   UNL     1       4.056  -7.394  -1.066  1.00  0.00    -0.248 NA
ATOM     19  C   UNL     1       2.653  -6.038   0.170  1.00  0.00     0.031 C 
ATOM     20  C   UNL     1       2.711  -4.676  -4.692  1.00  0.00     0.029 A 
ATOM     21  N   UNL     1       3.447  -6.753  -4.484  1.00  0.00    -0.354 N 
ATOM     22  C   UNL     1       3.905  -7.924   0.227  1.00  0.00     0.074 A 
ATOM     23  C   UNL     1       3.175  -6.954   0.986  1.00  0.00     0.031 C 
ATOM     24  C   UNL     1       3.002  -5.106  -5.930  1.00  0.00     0.029 A 
ATOM     25  C   UNL     1       3.509  -6.460  -5.870  1.00  0.00     0.049 A 
ATOM     26  H   UNL     1       3.693  -7.633  -4.118  1.00  0.00     0.167 HD
ATOM     27  C   UNL     1       4.219  -9.213   0.539  1.00  0.00     0.037 A 
ATOM     28  C   UNL     1       3.957  -7.239  -6.901  1.00  0.00     0.037 A 
ATOM     29  C   UNL     1       4.806  -9.878  -0.579  1.00  0.00     0.049 A 
ATOM     30  C   UNL     1       4.226  -8.563  -6.304  1.00  0.00     0.074 A 
ATOM     31  C   UNL     1       6.040  -9.817  -1.170  1.00  0.00     0.029 A 
ATOM     32  N   UNL     1       3.955 -10.559  -1.416  1.00  0.00    -0.354 N 
ATOM     33  N   UNL     1       3.305  -9.369  -5.863  1.00  0.00    -0.248 NA
ATOM     34  C   UNL     1       5.612  -8.992  -6.088  1.00  0.00     0.031 C 
ATOM     35  C   UNL     1       5.807 -10.154  -2.523  1.00  0.00     0.029 A 
ATOM     36  C   UNL     1       4.454 -10.467  -2.694  1.00  0.00     0.049 A 
ATOM     37  H   UNL     1       3.133 -11.030  -1.148  1.00  0.00     0.167 HD
ATOM     38  C   UNL     1       4.007 -10.214  -5.033  1.00  0.00     0.074 A 
ATOM     39  C   UNL     1       5.390 -10.132  -5.439  1.00  0.00     0.031 C 
ATOM     40  C   UNL     1       3.514 -10.498  -3.798  1.00  0.00     0.037 A 
BRANCH  27  41
ATOM     41  C   UNL     1       3.798 -10.053   1.713  1.00  0.00     0.064 A 
ATOM     42  C   UNL     1       4.522 -11.239   1.981  1.00  0.00     0.173 A 
ATOM     43  C   UNL     1       2.558  -9.929   2.358  1.00  0.00     0.173 A 
ATOM     44  F   UNL     1       5.733 -11.441   1.438  1.00  0.00    -0.203 F 
ATOM     45  C   UNL     1       3.987 -12.276   2.743  1.00  0.00     0.198 A 
ATOM     46  C   UNL     1       2.049 -10.949   3.166  1.00  0.00     0.198 A 
ATOM     47  F   UNL     1       1.761  -8.874   2.147  1.00  0.00    -0.203 F 
ATOM     48  F   UNL     1       4.654 -13.434   2.855  1.00  0.00    -0.200 F 
ATOM     49  C   UNL     1       2.743 -12.136   3.324  1.00  0.00     0.200 A 
ATOM     50  F   UNL     1       0.842 -10.805   3.729  1.00  0.00    -0.200 F 
ATOM     51  F   UNL     1       2.196 -13.152   4.003  1.00  0.00    -0.200 F 
ENDBRANCH  27  41
BRANCH  28  52
ATOM     52  C   UNL     1       4.256  -7.055  -8.374  1.00  0.00     0.064 A 
ATOM     53  C   UNL     1       4.050  -5.889  -9.127  1.00  0.00     0.173 A 
ATOM     54  C   UNL     1       4.877  -8.104  -9.108  1.00  0.00     0.173 A 
ATOM     55  F   UNL     1       3.391  -4.838  -8.638  1.00  0.00    -0.203 F 
ATOM     56  C   UNL     1       4.508  -5.748 -10.448  1.00  0.00     0.198 A 
ATOM     57  C   UNL     1       5.365  -7.955 -10.408  1.00  0.00     0.198 A 
ATOM     58  F   UNL     1       5.043  -9.325  -8.582  1.00  0.00    -0.203 F 
ATOM     59  F   UNL     1       4.291  -4.598 -11.103  1.00  0.00    -0.200 F 
ATOM     60  C   UNL     1       5.194  -6.767 -11.076  1.00  0.00     0.200 A 
ATOM     61  F   UNL     1       6.018  -8.969 -10.993  1.00  0.00    -0.200 F 
ATOM     62  F   UNL     1       5.676  -6.608 -12.316  1.00  0.00    -0.200 F 
ENDBRANCH  28  52
BRANCH  40  63
ATOM     63  C   UNL     1       2.005 -10.320  -3.705  1.00  0.00     0.064 A 
ATOM     64  C   UNL     1       1.145 -11.067  -4.526  1.00  0.00     0.173 A 
ATOM     65  C   UNL     1       1.391  -9.322  -2.933  1.00  0.00     0.173 A 
ATOM     66  F   UNL     1       1.635 -12.068  -5.272  1.00  0.00    -0.203 F 
ATOM     67  C   UNL     1      -0.225 -10.791  -4.599  1.00  0.00     0.198 A 
ATOM     68  C   UNL     1       0.027  -9.040  -3.001  1.00  0.00     0.198 A 
ATOM     69  F   UNL     1       2.101  -8.605  -2.071  1.00  0.00    -0.203 F 
ATOM     70  F   UNL     1      -1.011 -11.518  -5.405  1.00  0.00    -0.200 F 
ATOM     71  C   UNL     1      -0.781  -9.769  -3.846  1.00  0.00     0.200 A 
ATOM     72  F   UNL     1      -0.493  -8.065  -2.240  1.00  0.00    -0.200 F 
ATOM     73  F   UNL     1      -2.093  -9.502  -3.918  1.00  0.00    -0.200 F 
ENDBRANCH  40  63
ENDBRANCH  14  15
ENDBRANCH   7   9
ENDBRANCH   6   7
ENDBRANCH   5   6
ENDBRANCH   4   5
ENDBRANCH   3   4
ENDBRANCH   2   3
ENDBRANCH   1   2
BRANCH   1  74
ATOM     74  O   UNL     1       2.583   2.498   2.251  1.00  0.00    -0.377 OA
BRANCH  74  75
ATOM     75  C   UNL     1       3.854   3.060   2.019  1.00  0.00     0.188 C 
BRANCH  75  76
ATOM     76  C   UNL     1       4.961   2.494   2.930  1.00  0.00     0.188 C 
BRANCH  76  77
ATOM     77  O   UNL     1       4.667   2.026   4.241  1.00  0.00    -0.376 OA
BRANCH  77  78
ATOM     78  C   UNL     1       3.490   2.454   4.907  1.00  0.00     0.202 C 
BRANCH  78  79
ATOM     79  C   UNL     1       3.411   3.925   5.330  1.00  0.00     0.261 C 
BRANCH  79  80
ATOM     80  O   UNL     1       3.630   4.883   4.282  1.00  0.00    -0.460 OA
BRANCH  80  81
ATOM     81  C   UNL     1       4.850   5.478   4.248  1.00  0.00     0.342 C 
ATOM     82  O   UNL     1       5.794   5.263   4.986  1.00  0.00    -0.246 OA
BRANCH  81  83
ATOM     83  C   UNL     1       4.965   6.313   3.029  1.00  0.00     0.103 A 
ATOM     84  C   UNL     1       5.910   5.947   2.055  1.00  0.00     0.046 A 
ATOM     85  C   UNL     1       4.175   7.448   2.837  1.00  0.00     0.130 A 
ATOM     86  C   UNL     1       6.071   6.739   0.915  1.00  0.00     0.046 A 
ATOM     87  C   UNL     1       4.367   8.254   1.710  1.00  0.00     0.049 A 
ATOM     88  C   UNL     1       5.333   7.915   0.758  1.00  0.00     0.030 A 
BRANCH  85  89
ATOM     89  O   UNL     1       3.225   7.785   3.757  1.00  0.00    -0.507 OA
ATOM     90  H   UNL     1       3.093   7.247   4.513  1.00  0.00     0.293 HD
ENDBRANCH  85  89
BRANCH  86  91
ATOM     91  N   UNL     1       6.947   6.328  -0.112  1.00  0.00    -0.324 N 
ATOM     92  C   UNL     1       7.921   7.098  -0.704  1.00  0.00     0.091 A 
ATOM     93  C   UNL     1       6.910   5.107  -0.753  1.00  0.00     0.091 A 
ATOM     94  C   UNL     1       8.510   6.365  -1.712  1.00  0.00     0.020 A 
ATOM     95  C   UNL     1       7.841   5.120  -1.771  1.00  0.00     0.020 A 
ENDBRANCH  86  91
ENDBRANCH  81  83
ENDBRANCH  80  81
ENDBRANCH  79  80
ENDBRANCH  78  79
ENDBRANCH  77  78
ENDBRANCH  76  77
ENDBRANCH  75  76
ENDBRANCH  74  75
ENDBRANCH   1  74
TORSDOF 22
