REMARK SMILES C[C@H](CN(Cc1ccccc1)C(=O)c1cc2ccccc2oc1=O)C(=O)OCCOCCOCCOCCOC(=O)c1ccc(-c2c3nc(c(-c4c(F)c(F)c(F)c(F)c4F)c4ccc([nH]4)c(-c4c(F)c(F)c(F)c(F)c4F)c4nc(c(-c5c(F)c(F)c(F)c(F)c5F)c5ccc2[nH]5)C=C4)C=C3)cc1
REMARK SMILES IDX 32 1 31 2 30 3 29 4 28 5 27 6 25 7 26 8 2 9 1 10 3 11 4 12
REMARK SMILES IDX 5 13 6 14 7 15 11 16 8 17 10 18 9 19 12 20 13 21 14 22 15 23
REMARK SMILES IDX 23 24 16 25 22 26 24 27 17 28 21 29 18 30 20 31 19 32 33 33
REMARK SMILES IDX 34 34 35 35 36 36 37 37 38 38 39 39 40 40 41 41 42 42 43 43
REMARK SMILES IDX 104 44 44 45 103 46 45 47 46 48 47 49 97 50 48 51 102 52
REMARK SMILES IDX 96 53 98 54 49 55 101 56 95 57 94 58 50 60 82 61 62 62 81 63
REMARK SMILES IDX 63 64 66 65 80 66 99 67 64 68 65 69 79 71 100 72 67 73 51 74
REMARK SMILES IDX 52 75 60 76 53 77 54 78 58 79 61 80 55 81 56 82 59 83 57 84
REMARK SMILES IDX 83 85 84 86 92 87 85 88 86 89 90 90 93 91 87 92 88 93 91 94
REMARK SMILES IDX 89 95 68 96 69 97 77 98 70 99 71 100 75 101 78 102 72 103
REMARK SMILES IDX 73 104 76 105 74 106
REMARK H PARENT 98 59 66 70
REMARK Flexibility Score: inf
ROOT
ATOM      1  C   UNL     1      -1.242  -2.107  -1.052  1.00  0.00     0.188 C 
ENDROOT
BRANCH   1   2
ATOM      2  C   UNL     1      -1.649  -2.260   0.421  1.00  0.00     0.188 C 
BRANCH   2   3
ATOM      3  O   UNL     1      -2.999  -2.118   0.814  1.00  0.00    -0.376 OA
BRANCH   3   4
ATOM      4  C   UNL     1      -3.335  -0.954   1.583  1.00  0.00     0.202 C 
BRANCH   4   5
ATOM      5  C   UNL     1      -2.484  -0.565   2.813  1.00  0.00     0.261 C 
BRANCH   5   6
ATOM      6  O   UNL     1      -1.299   0.207   2.471  1.00  0.00    -0.463 OA
BRANCH   6   7
ATOM      7  C   UNL     1      -0.091  -0.364   2.697  1.00  0.00     0.310 C 
ATOM      8  O   UNL     1       0.059  -1.414   3.316  1.00  0.00    -0.252 OA
BRANCH   7   9
ATOM      9  C   UNL     1       1.103   0.402   2.125  1.00  0.00     0.115 C 
ATOM     10  C   UNL     1       1.429   1.607   2.989  1.00  0.00     0.022 C 
BRANCH   9  11
ATOM     11  C   UNL     1       1.192   0.646   0.594  1.00  0.00     0.135 C 
BRANCH  11  12
ATOM     12  N   UNL     1       0.534   1.840   0.040  1.00  0.00    -0.333 N 
BRANCH  12  13
ATOM     13  C   UNL     1       1.345   2.903  -0.568  1.00  0.00     0.155 C 
BRANCH  13  14
ATOM     14  C   UNL     1       1.099   3.100  -2.059  1.00  0.00    -0.029 A 
ATOM     15  C   UNL     1       1.350   2.084  -2.995  1.00  0.00     0.005 A 
ATOM     16  C   UNL     1       0.645   4.343  -2.537  1.00  0.00     0.005 A 
ATOM     17  C   UNL     1       1.170   2.314  -4.367  1.00  0.00     0.000 A 
ATOM     18  C   UNL     1       0.455   4.566  -3.905  1.00  0.00     0.000 A 
ATOM     19  C   UNL     1       0.727   3.554  -4.821  1.00  0.00     0.000 A 
ENDBRANCH  13  14
ENDBRANCH  12  13
BRANCH  12  20
ATOM     20  C   UNL     1      -0.840   1.824  -0.067  1.00  0.00     0.261 C 
ATOM     21  O   UNL     1      -1.469   0.778   0.011  1.00  0.00    -0.269 OA
BRANCH  20  22
ATOM     22  C   UNL     1      -1.554   3.128  -0.180  1.00  0.00     0.126 A 
ATOM     23  C   UNL     1      -2.590   3.112  -1.044  1.00  0.00     0.033 A 
ATOM     24  C   UNL     1      -1.911   3.664   1.158  1.00  0.00     0.349 A 
ATOM     25  C   UNL     1      -3.880   2.634  -0.515  1.00  0.00     0.018 A 
ATOM     26  O   UNL     1      -3.111   3.215   1.708  1.00  0.00    -0.422 OA
ATOM     27  O   UNL     1      -1.163   4.434   1.750  1.00  0.00    -0.246 OA
ATOM     28  C   UNL     1      -4.880   2.115  -1.337  1.00  0.00     0.012 A 
ATOM     29  C   UNL     1      -4.075   2.634   0.864  1.00  0.00     0.138 A 
ATOM     30  C   UNL     1      -6.035   1.560  -0.779  1.00  0.00     0.001 A 
ATOM     31  C   UNL     1      -5.215   2.075   1.437  1.00  0.00     0.048 A 
ATOM     32  C   UNL     1      -6.192   1.521   0.608  1.00  0.00     0.004 A 
ENDBRANCH  20  22
ENDBRANCH  12  20
ENDBRANCH  11  12
ENDBRANCH   9  11
ENDBRANCH   7   9
ENDBRANCH   6   7
ENDBRANCH   5   6
ENDBRANCH   4   5
ENDBRANCH   3   4
ENDBRANCH   2   3
ENDBRANCH   1   2
BRANCH   1  33
ATOM     33  O   UNL     1      -1.787  -1.180  -1.968  1.00  0.00    -0.377 OA
BRANCH  33  34
ATOM     34  C   UNL     1      -3.147  -0.791  -1.920  1.00  0.00     0.188 C 
BRANCH  34  35
ATOM     35  C   UNL     1      -4.225  -1.856  -2.112  1.00  0.00     0.188 C 
BRANCH  35  36
ATOM     36  O   UNL     1      -4.258  -2.471  -3.400  1.00  0.00    -0.376 OA
BRANCH  36  37
ATOM     37  C   UNL     1      -3.091  -3.214  -3.725  1.00  0.00     0.202 C 
BRANCH  37  38
ATOM     38  C   UNL     1      -2.143  -2.489  -4.700  1.00  0.00     0.261 C 
BRANCH  38  39
ATOM     39  O   UNL     1      -2.419  -1.087  -4.869  1.00  0.00    -0.460 OA
BRANCH  39  40
ATOM     40  C   UNL     1      -3.527  -0.810  -5.591  1.00  0.00     0.338 C 
ATOM     41  O   UNL     1      -4.206  -1.598  -6.236  1.00  0.00    -0.246 OA
BRANCH  40  42
ATOM     42  C   UNL     1      -3.887   0.616  -5.436  1.00  0.00     0.060 A 
ATOM     43  C   UNL     1      -5.198   0.935  -5.063  1.00  0.00     0.016 A 
ATOM     44  C   UNL     1      -2.977   1.635  -5.731  1.00  0.00     0.016 A 
ATOM     45  C   UNL     1      -5.615   2.271  -5.029  1.00  0.00     0.010 A 
ATOM     46  C   UNL     1      -3.400   2.973  -5.712  1.00  0.00     0.010 A 
ATOM     47  C   UNL     1      -4.729   3.299  -5.386  1.00  0.00    -0.014 A 
BRANCH  47  48
ATOM     48  C   UNL     1      -5.235   4.690  -5.559  1.00  0.00     0.031 A 
ATOM     49  C   UNL     1      -5.829   5.085  -6.878  1.00  0.00     0.074 A 
ATOM     50  C   UNL     1      -5.196   5.595  -4.563  1.00  0.00     0.049 A 
ATOM     51  N   UNL     1      -6.327   6.237  -7.248  1.00  0.00    -0.248 NA
ATOM     52  C   UNL     1      -5.884   4.039  -7.910  1.00  0.00     0.031 C 
ATOM     53  C   UNL     1      -4.713   5.318  -3.222  1.00  0.00     0.029 A 
ATOM     54  N   UNL     1      -5.562   6.918  -4.512  1.00  0.00    -0.354 N 
ATOM     55  C   UNL     1      -6.772   6.051  -8.547  1.00  0.00     0.074 A 
ATOM     56  C   UNL     1      -6.462   4.685  -8.913  1.00  0.00     0.031 C 
ATOM     57  C   UNL     1      -4.778   6.433  -2.477  1.00  0.00     0.029 A 
ATOM     58  C   UNL     1      -5.293   7.520  -3.303  1.00  0.00     0.049 A 
ATOM     59  H   UNL     1      -5.976   7.392  -5.269  1.00  0.00     0.167 HD
ATOM     60  C   UNL     1      -7.388   6.941  -9.359  1.00  0.00     0.037 A 
ATOM     61  C   UNL     1      -5.429   8.804  -2.915  1.00  0.00     0.037 A 
ATOM     62  C   UNL     1      -7.664   8.310  -9.011  1.00  0.00     0.049 A 
ATOM     63  C   UNL     1      -6.004   9.803  -3.887  1.00  0.00     0.074 A 
ATOM     64  C   UNL     1      -8.280   9.284  -9.776  1.00  0.00     0.029 A 
ATOM     65  N   UNL     1      -7.322   8.905  -7.805  1.00  0.00    -0.354 N 
ATOM     66  N   UNL     1      -6.459   9.608  -5.100  1.00  0.00    -0.248 NA
ATOM     67  C   UNL     1      -6.091  11.200  -3.436  1.00  0.00     0.031 C 
ATOM     68  C   UNL     1      -8.253  10.485  -9.059  1.00  0.00     0.029 A 
ATOM     69  C   UNL     1      -7.679  10.245  -7.822  1.00  0.00     0.049 A 
ATOM     70  H   UNL     1      -6.890   8.444  -7.050  1.00  0.00     0.167 HD
ATOM     71  C   UNL     1      -6.915  10.842  -5.542  1.00  0.00     0.074 A 
ATOM     72  C   UNL     1      -6.698  11.780  -4.461  1.00  0.00     0.031 C 
ATOM     73  C   UNL     1      -7.466  11.169  -6.737  1.00  0.00     0.037 A 
BRANCH  60  74
ATOM     74  C   UNL     1      -7.769   6.468 -10.729  1.00  0.00     0.064 A 
ATOM     75  C   UNL     1      -8.836   5.582 -10.931  1.00  0.00     0.173 A 
ATOM     76  C   UNL     1      -7.077   6.936 -11.855  1.00  0.00     0.173 A 
ATOM     77  F   UNL     1      -9.517   5.093  -9.883  1.00  0.00    -0.203 F 
ATOM     78  C   UNL     1      -9.186   5.166 -12.213  1.00  0.00     0.198 A 
ATOM     79  C   UNL     1      -7.447   6.540 -13.137  1.00  0.00     0.198 A 
ATOM     80  F   UNL     1      -6.047   7.784 -11.713  1.00  0.00    -0.203 F 
ATOM     81  F   UNL     1     -10.184   4.288 -12.382  1.00  0.00    -0.200 F 
ATOM     82  C   UNL     1      -8.497   5.652 -13.314  1.00  0.00     0.200 A 
ATOM     83  F   UNL     1      -6.786   7.018 -14.200  1.00  0.00    -0.200 F 
ATOM     84  F   UNL     1      -8.841   5.259 -14.548  1.00  0.00    -0.200 F 
ENDBRANCH  60  74
BRANCH  61  85
ATOM     85  C   UNL     1      -4.984   9.244  -1.562  1.00  0.00     0.064 A 
ATOM     86  C   UNL     1      -5.894   9.748  -0.621  1.00  0.00     0.173 A 
ATOM     87  C   UNL     1      -3.625   9.242  -1.210  1.00  0.00     0.173 A 
ATOM     88  F   UNL     1      -7.201   9.799  -0.915  1.00  0.00    -0.203 F 
ATOM     89  C   UNL     1      -5.459  10.267   0.599  1.00  0.00     0.198 A 
ATOM     90  C   UNL     1      -3.195   9.732   0.022  1.00  0.00     0.198 A 
ATOM     91  F   UNL     1      -2.708   8.775  -2.071  1.00  0.00    -0.203 F 
ATOM     92  F   UNL     1      -6.345  10.809   1.447  1.00  0.00    -0.200 F 
ATOM     93  C   UNL     1      -4.111  10.257   0.920  1.00  0.00     0.200 A 
ATOM     94  F   UNL     1      -1.891   9.714   0.328  1.00  0.00    -0.200 F 
ATOM     95  F   UNL     1      -3.692  10.771   2.085  1.00  0.00    -0.200 F 
ENDBRANCH  61  85
BRANCH  73  96
ATOM     96  C   UNL     1      -7.907  12.592  -6.931  1.00  0.00     0.064 A 
ATOM     97  C   UNL     1      -6.984  13.641  -7.058  1.00  0.00     0.173 A 
ATOM     98  C   UNL     1      -9.272  12.903  -7.032  1.00  0.00     0.173 A 
ATOM     99  F   UNL     1      -5.669  13.400  -6.953  1.00  0.00    -0.203 F 
ATOM    100  C   UNL     1      -7.413  14.951  -7.255  1.00  0.00     0.198 A 
ATOM    101  C   UNL     1      -9.695  14.209  -7.263  1.00  0.00     0.198 A 
ATOM    102  F   UNL     1     -10.196  11.938  -6.923  1.00  0.00    -0.203 F 
ATOM    103  F   UNL     1      -6.515  15.944  -7.323  1.00  0.00    -0.200 F 
ATOM    104  C   UNL     1      -8.766  15.233  -7.367  1.00  0.00     0.200 A 
ATOM    105  F   UNL     1     -11.002  14.476  -7.387  1.00  0.00    -0.200 F 
ATOM    106  F   UNL     1      -9.175  16.493  -7.567  1.00  0.00    -0.200 F 
ENDBRANCH  73  96
ENDBRANCH  47  48
ENDBRANCH  40  42
ENDBRANCH  39  40
ENDBRANCH  38  39
ENDBRANCH  37  38
ENDBRANCH  36  37
ENDBRANCH  35  36
ENDBRANCH  34  35
ENDBRANCH  33  34
ENDBRANCH   1  33
TORSDOF 26
