REMARK SMILES O=C(OCCOCCOCCOCCOC(=O)c1nnn(-c2cccc(Br)c2)c1[C@@H]1COc2ccccc2O1)c1ccc(-c2c3nc(c(-c4c(F)c(F)c(F)c(F)c4F)c4ccc([nH]4)c(-c4c(F)c(F)c(F)c(F)c4F)c4nc(c(-c5c(F)c(F)c(F)c(F)c5F)c5ccc2[nH]5)C=C4)C=C3)cc1
REMARK SMILES IDX 8 1 7 2 6 3 5 4 4 5 3 6 2 7 1 8 40 9 41 10 102 11 42 12
REMARK SMILES IDX 101 13 43 14 44 15 45 16 95 17 46 18 100 19 94 20 96 21
REMARK SMILES IDX 47 22 99 23 93 24 92 25 48 27 80 28 60 29 79 30 61 31 64 32
REMARK SMILES IDX 78 33 97 34 62 35 63 36 77 38 98 39 65 40 49 41 50 42 58 43
REMARK SMILES IDX 51 44 52 45 56 46 59 47 53 48 54 49 57 50 55 51 81 52 82 53
REMARK SMILES IDX 90 54 83 55 84 56 88 57 91 58 85 59 86 60 89 61 87 62 66 63
REMARK SMILES IDX 67 64 75 65 68 66 69 67 73 68 76 69 70 70 71 71 74 72 72 73
REMARK SMILES IDX 9 74 10 75 11 76 12 77 13 78 14 79 15 80 16 81 17 82 18 83
REMARK SMILES IDX 19 84 29 85 20 86 21 87 30 88 31 89 39 90 32 91 38 92 33 93
REMARK SMILES IDX 37 94 34 95 36 96 35 97 22 98 23 99 28 100 24 101 26 102
REMARK SMILES IDX 25 103 27 104
REMARK H PARENT 96 26 64 37
REMARK Flexibility Score: inf
ROOT
ATOM      1  C   UNL     1       2.309  -0.214   2.044  1.00  0.00     0.188 C 
ENDROOT
BRANCH   1   2
ATOM      2  C   UNL     1       2.803  -0.960   0.791  1.00  0.00     0.188 C 
BRANCH   2   3
ATOM      3  O   UNL     1       4.137  -0.979   0.325  1.00  0.00    -0.376 OA
BRANCH   3   4
ATOM      4  C   UNL     1       4.921   0.093  -0.155  1.00  0.00     0.202 C 
BRANCH   4   5
ATOM      5  C   UNL     1       4.382   1.367  -0.803  1.00  0.00     0.261 C 
BRANCH   5   6
ATOM      6  O   UNL     1       3.007   1.647  -0.588  1.00  0.00    -0.460 OA
BRANCH   6   7
ATOM      7  C   UNL     1       1.989   1.322  -1.410  1.00  0.00     0.338 C 
ATOM      8  O   UNL     1       0.920   1.920  -1.304  1.00  0.00    -0.246 OA
BRANCH   7   9
ATOM      9  C   UNL     1       2.026   0.125  -2.298  1.00  0.00     0.060 A 
ATOM     10  C   UNL     1       3.130  -0.338  -3.014  1.00  0.00     0.016 A 
ATOM     11  C   UNL     1       0.791  -0.546  -2.434  1.00  0.00     0.016 A 
ATOM     12  C   UNL     1       2.965  -1.327  -3.965  1.00  0.00     0.010 A 
ATOM     13  C   UNL     1       0.624  -1.546  -3.374  1.00  0.00     0.010 A 
ATOM     14  C   UNL     1       1.694  -1.850  -4.202  1.00  0.00    -0.014 A 
BRANCH  14  15
ATOM     15  C   UNL     1       1.537  -2.606  -5.430  1.00  0.00     0.031 A 
ATOM     16  C   UNL     1       2.340  -3.849  -5.531  1.00  0.00     0.074 A 
ATOM     17  C   UNL     1       0.786  -2.127  -6.440  1.00  0.00     0.049 A 
ATOM     18  N   UNL     1       3.319  -4.099  -6.338  1.00  0.00    -0.248 NA
ATOM     19  C   UNL     1       2.092  -4.898  -4.534  1.00  0.00     0.031 C 
ATOM     20  C   UNL     1      -0.201  -1.043  -6.420  1.00  0.00     0.029 A 
ATOM     21  N   UNL     1       0.721  -2.574  -7.721  1.00  0.00    -0.354 N 
ATOM     22  C   UNL     1       3.718  -5.403  -6.059  1.00  0.00     0.074 A 
ATOM     23  C   UNL     1       3.007  -5.806  -4.872  1.00  0.00     0.031 C 
ATOM     24  C   UNL     1      -0.920  -1.073  -7.564  1.00  0.00     0.029 A 
ATOM     25  C   UNL     1      -0.345  -2.071  -8.447  1.00  0.00     0.049 A 
ATOM     26  H   UNL     1       1.377  -3.203  -8.101  1.00  0.00     0.167 HD
ATOM     27  C   UNL     1       4.463  -6.125  -6.939  1.00  0.00     0.037 A 
ATOM     28  C   UNL     1      -0.759  -2.508  -9.660  1.00  0.00     0.037 A 
ATOM     29  C   UNL     1       5.187  -5.278  -7.847  1.00  0.00     0.049 A 
ATOM     30  C   UNL     1       0.382  -3.217 -10.293  1.00  0.00     0.074 A 
ATOM     31  C   UNL     1       6.174  -4.323  -7.691  1.00  0.00     0.029 A 
ATOM     32  N   UNL     1       4.694  -5.090  -9.114  1.00  0.00    -0.354 N 
ATOM     33  N   UNL     1       1.465  -2.620 -10.708  1.00  0.00    -0.248 NA
ATOM     34  C   UNL     1       0.510  -4.646 -10.046  1.00  0.00     0.031 C 
ATOM     35  C   UNL     1       5.869  -3.316  -8.652  1.00  0.00     0.029 A 
ATOM     36  C   UNL     1       4.751  -3.743  -9.368  1.00  0.00     0.049 A 
ATOM     37  H   UNL     1       4.362  -5.788  -9.724  1.00  0.00     0.167 HD
ATOM     38  C   UNL     1       2.496  -3.488 -10.378  1.00  0.00     0.074 A 
ATOM     39  C   UNL     1       1.842  -4.751 -10.046  1.00  0.00     0.031 C 
ATOM     40  C   UNL     1       3.758  -3.029 -10.134  1.00  0.00     0.037 A 
BRANCH  27  41
ATOM     41  C   UNL     1       4.272  -7.600  -7.171  1.00  0.00     0.064 A 
ATOM     42  C   UNL     1       5.192  -8.309  -7.967  1.00  0.00     0.173 A 
ATOM     43  C   UNL     1       3.064  -8.273  -6.885  1.00  0.00     0.173 A 
ATOM     44  F   UNL     1       6.359  -7.753  -8.324  1.00  0.00    -0.203 F 
ATOM     45  C   UNL     1       4.893  -9.572  -8.489  1.00  0.00     0.198 A 
ATOM     46  C   UNL     1       2.791  -9.552  -7.364  1.00  0.00     0.198 A 
ATOM     47  F   UNL     1       2.059  -7.680  -6.230  1.00  0.00    -0.203 F 
ATOM     48  F   UNL     1       5.747 -10.160  -9.338  1.00  0.00    -0.200 F 
ATOM     49  C   UNL     1       3.691 -10.189  -8.191  1.00  0.00     0.200 A 
ATOM     50  F   UNL     1       1.612 -10.123  -7.082  1.00  0.00    -0.200 F 
ATOM     51  F   UNL     1       3.378 -11.370  -8.738  1.00  0.00    -0.200 F 
ENDBRANCH  27  41
BRANCH  28  52
ATOM     52  C   UNL     1      -2.160  -2.674 -10.111  1.00  0.00     0.064 A 
ATOM     53  C   UNL     1      -2.469  -2.841 -11.469  1.00  0.00     0.173 A 
ATOM     54  C   UNL     1      -3.194  -2.948  -9.193  1.00  0.00     0.173 A 
ATOM     55  F   UNL     1      -1.526  -2.647 -12.403  1.00  0.00    -0.203 F 
ATOM     56  C   UNL     1      -3.732  -3.277 -11.883  1.00  0.00     0.198 A 
ATOM     57  C   UNL     1      -4.454  -3.376  -9.607  1.00  0.00     0.198 A 
ATOM     58  F   UNL     1      -2.973  -2.901  -7.871  1.00  0.00    -0.203 F 
ATOM     59  F   UNL     1      -3.974  -3.484 -13.185  1.00  0.00    -0.200 F 
ATOM     60  C   UNL     1      -4.720  -3.553 -10.951  1.00  0.00     0.200 A 
ATOM     61  F   UNL     1      -5.387  -3.676  -8.692  1.00  0.00    -0.200 F 
ATOM     62  F   UNL     1      -5.910  -4.029 -11.344  1.00  0.00    -0.200 F 
ENDBRANCH  28  52
BRANCH  40  63
ATOM     63  C   UNL     1       4.056  -1.593 -10.459  1.00  0.00     0.064 A 
ATOM     64  C   UNL     1       3.441  -0.504  -9.816  1.00  0.00     0.173 A 
ATOM     65  C   UNL     1       5.112  -1.311 -11.336  1.00  0.00     0.173 A 
ATOM     66  F   UNL     1       2.497  -0.698  -8.886  1.00  0.00    -0.203 F 
ATOM     67  C   UNL     1       3.840   0.807 -10.074  1.00  0.00     0.198 A 
ATOM     68  C   UNL     1       5.532  -0.003 -11.565  1.00  0.00     0.198 A 
ATOM     69  F   UNL     1       5.776  -2.314 -11.932  1.00  0.00    -0.203 F 
ATOM     70  F   UNL     1       3.234   1.829  -9.451  1.00  0.00    -0.200 F 
ATOM     71  C   UNL     1       4.890   1.055 -10.942  1.00  0.00     0.200 A 
ATOM     72  F   UNL     1       6.582   0.229 -12.364  1.00  0.00    -0.200 F 
ATOM     73  F   UNL     1       5.305   2.312 -11.155  1.00  0.00    -0.200 F 
ENDBRANCH  40  63
ENDBRANCH  14  15
ENDBRANCH   7   9
ENDBRANCH   6   7
ENDBRANCH   5   6
ENDBRANCH   4   5
ENDBRANCH   3   4
ENDBRANCH   2   3
ENDBRANCH   1   2
BRANCH   1  74
ATOM     74  O   UNL     1       3.150  -0.155   3.176  1.00  0.00    -0.377 OA
BRANCH  74  75
ATOM     75  C   UNL     1       4.356   0.557   2.987  1.00  0.00     0.188 C 
BRANCH  75  76
ATOM     76  C   UNL     1       5.620  -0.317   3.167  1.00  0.00     0.188 C 
BRANCH  76  77
ATOM     77  O   UNL     1       5.559  -1.728   2.981  1.00  0.00    -0.376 OA
BRANCH  77  78
ATOM     78  C   UNL     1       4.519  -2.472   3.605  1.00  0.00     0.202 C 
BRANCH  78  79
ATOM     79  C   UNL     1       4.232  -2.286   5.103  1.00  0.00     0.261 C 
BRANCH  79  80
ATOM     80  O   UNL     1       4.169  -0.921   5.532  1.00  0.00    -0.458 OA
BRANCH  80  81
ATOM     81  C   UNL     1       5.155  -0.475   6.350  1.00  0.00     0.361 C 
ATOM     82  O   UNL     1       6.040  -1.170   6.839  1.00  0.00    -0.244 OA
BRANCH  81  83
ATOM     83  C   UNL     1       5.127   0.970   6.496  1.00  0.00     0.198 A 
ATOM     84  N   UNL     1       5.963   1.789   5.769  1.00  0.00    -0.122 NA
ATOM     85  C   UNL     1       4.306   1.758   7.282  1.00  0.00     0.123 A 
ATOM     86  N   UNL     1       5.676   3.049   6.063  1.00  0.00    -0.061 NA
ATOM     87  N   UNL     1       4.827   3.029   7.111  1.00  0.00    -0.213 N 
BRANCH  85  88
ATOM     88  C   UNL     1       3.096   1.484   8.112  1.00  0.00     0.262 C 
ATOM     89  C   UNL     1       3.218   0.324   9.097  1.00  0.00     0.281 C 
ATOM     90  O   UNL     1       1.981   1.414   7.222  1.00  0.00    -0.477 OA
ATOM     91  O   UNL     1       3.024  -0.965   8.524  1.00  0.00    -0.485 OA
ATOM     92  C   UNL     1       1.508   0.156   6.993  1.00  0.00     0.162 A 
ATOM     93  C   UNL     1       1.984  -0.984   7.637  1.00  0.00     0.161 A 
ATOM     94  C   UNL     1       0.518   0.040   6.016  1.00  0.00     0.050 A 
ATOM     95  C   UNL     1       1.468  -2.238   7.311  1.00  0.00     0.050 A 
ATOM     96  C   UNL     1       0.013  -1.216   5.676  1.00  0.00     0.004 A 
ATOM     97  C   UNL     1       0.485  -2.355   6.327  1.00  0.00     0.004 A 
ENDBRANCH  85  88
BRANCH  87  98
ATOM     98  C   UNL     1       4.731   4.139   7.975  1.00  0.00     0.068 A 
ATOM     99  C   UNL     1       4.849   3.930   9.357  1.00  0.00     0.028 A 
ATOM    100  C   UNL     1       4.547   5.424   7.458  1.00  0.00     0.044 A 
ATOM    101  C   UNL     1       4.728   5.002  10.234  1.00  0.00     0.003 A 
ATOM    102  C   UNL     1       4.392   6.484   8.353  1.00  0.00     0.020 A 
ATOM    103  C   UNL     1       4.478   6.279   9.733  1.00  0.00     0.016 A 
ATOM    104  Br  UNL     1       4.028   8.221   7.700  1.00  0.00    -0.051 Br
ENDBRANCH  87  98
ENDBRANCH  81  83
ENDBRANCH  80  81
ENDBRANCH  79  80
ENDBRANCH  78  79
ENDBRANCH  77  78
ENDBRANCH  76  77
ENDBRANCH  75  76
ENDBRANCH  74  75
ENDBRANCH   1  74
TORSDOF 22
