REMARK SMILES CSCC[C@H](C(=O)OCCOCCOCCOCCOC(=O)c1ccc(-c2c3nc(c(-c4c(F)c(F)c(F)c(F)c4F)c4ccc([nH]4)c(-c4c(F)c(F)c(F)c(F)c4F)c4nc(c(-c5c(F)c(F)c(F)c(F)c5F)c5ccc2[nH]5)C=C4)C=C3)cc1)N1C(=O)/C(=C/c2ccc3c(c2)OCO3)SC1=S
REMARK SMILES IDX 13 1 12 2 11 3 10 4 9 5 8 6 6 7 7 8 5 9 4 10 3 11 2 12 1 13
REMARK SMILES IDX 86 14 87 15 101 16 88 17 89 18 100 19 102 20 90 21 91 22
REMARK SMILES IDX 92 23 96 24 93 25 95 26 94 27 97 28 99 29 98 30 14 31 15 32
REMARK SMILES IDX 16 33 17 34 18 35 19 36 20 37 21 38 22 39 23 40 24 41 85 42
REMARK SMILES IDX 25 43 84 44 26 45 27 46 28 47 78 48 29 49 83 50 77 51 79 52
REMARK SMILES IDX 30 53 82 54 76 55 75 56 31 58 63 59 43 60 62 61 44 62 47 63
REMARK SMILES IDX 61 64 80 65 45 66 46 67 60 69 81 70 48 71 32 72 33 73 41 74
REMARK SMILES IDX 34 75 35 76 39 77 42 78 36 79 37 80 40 81 38 82 64 83 65 84
REMARK SMILES IDX 73 85 66 86 67 87 71 88 74 89 68 90 69 91 72 92 70 93 49 94
REMARK SMILES IDX 50 95 58 96 51 97 52 98 56 99 59 100 53 101 54 102 57 103
REMARK SMILES IDX 55 104
REMARK H PARENT 79 57 47 68
REMARK Flexibility Score: inf
ROOT
ATOM      1  C   UNL     1      -0.284  -1.922   0.845  1.00  0.00     0.188 C 
ENDROOT
BRANCH   1   2
ATOM      2  C   UNL     1      -1.437  -2.905   0.621  1.00  0.00     0.188 C 
BRANCH   2   3
ATOM      3  O   UNL     1      -1.439  -4.218   1.165  1.00  0.00    -0.376 OA
BRANCH   3   4
ATOM      4  C   UNL     1      -0.340  -5.105   1.282  1.00  0.00     0.202 C 
BRANCH   4   5
ATOM      5  C   UNL     1       0.441  -5.585   0.064  1.00  0.00     0.261 C 
BRANCH   5   6
ATOM      6  O   UNL     1       1.229  -4.533  -0.508  1.00  0.00    -0.462 OA
BRANCH   6   7
ATOM      7  C   UNL     1       0.625  -3.923  -1.545  1.00  0.00     0.329 C 
ATOM      8  O   UNL     1      -0.496  -4.234  -1.950  1.00  0.00    -0.250 OA
BRANCH   7   9
ATOM      9  C   UNL     1       1.409  -2.731  -2.137  1.00  0.00     0.202 C 
BRANCH   9  10
ATOM     10  C   UNL     1       2.941  -2.710  -2.072  1.00  0.00     0.048 C 
BRANCH  10  11
ATOM     11  C   UNL     1       3.515  -1.834  -0.944  1.00  0.00     0.072 C 
BRANCH  11  12
ATOM     12  S   UNL     1       4.495  -2.790   0.264  1.00  0.00    -0.165 SA
ATOM     13  C   UNL     1       3.244  -3.096   1.522  1.00  0.00     0.085 C 
ENDBRANCH  11  12
ENDBRANCH  10  11
ENDBRANCH   9  10
BRANCH   9  14
ATOM     14  N   UNL     1       0.922  -2.773  -3.521  1.00  0.00    -0.278 N 
ATOM     15  C   UNL     1       1.061  -3.986  -4.173  1.00  0.00     0.266 C 
ATOM     16  C   UNL     1       0.155  -1.819  -4.147  1.00  0.00     0.149 C 
ATOM     17  O   UNL     1       1.823  -4.890  -3.856  1.00  0.00    -0.268 OA
ATOM     18  C   UNL     1       0.114  -4.051  -5.288  1.00  0.00     0.081 C 
ATOM     19  S   UNL     1      -0.453  -2.473  -5.665  1.00  0.00    -0.054 SA
ATOM     20  S   UNL     1      -0.182  -0.275  -3.617  1.00  0.00    -0.052 S 
ATOM     21  C   UNL     1      -0.077  -5.225  -5.903  1.00  0.00     0.029 C 
BRANCH  21  22
ATOM     22  C   UNL     1      -0.347  -5.207  -7.328  1.00  0.00    -0.020 A 
ATOM     23  C   UNL     1      -1.615  -5.379  -7.903  1.00  0.00     0.012 A 
ATOM     24  C   UNL     1       0.761  -4.816  -8.093  1.00  0.00     0.058 A 
ATOM     25  C   UNL     1      -1.795  -5.080  -9.258  1.00  0.00     0.051 A 
ATOM     26  C   UNL     1       0.532  -4.460  -9.387  1.00  0.00     0.166 A 
ATOM     27  C   UNL     1      -0.713  -4.575  -9.955  1.00  0.00     0.165 A 
ATOM     28  O   UNL     1       1.444  -3.871 -10.201  1.00  0.00    -0.454 OA
ATOM     29  O   UNL     1      -0.725  -4.066 -11.218  1.00  0.00    -0.454 OA
ATOM     30  C   UNL     1       0.562  -3.406 -11.236  1.00  0.00     0.468 C 
ENDBRANCH  21  22
ENDBRANCH   9  14
ENDBRANCH   7   9
ENDBRANCH   6   7
ENDBRANCH   5   6
ENDBRANCH   4   5
ENDBRANCH   3   4
ENDBRANCH   2   3
ENDBRANCH   1   2
BRANCH   1  31
ATOM     31  O   UNL     1      -0.071  -1.387   2.133  1.00  0.00    -0.377 OA
BRANCH  31  32
ATOM     32  C   UNL     1       0.151  -2.298   3.188  1.00  0.00     0.188 C 
BRANCH  32  33
ATOM     33  C   UNL     1      -1.111  -2.743   3.943  1.00  0.00     0.188 C 
BRANCH  33  34
ATOM     34  O   UNL     1      -2.123  -1.811   4.317  1.00  0.00    -0.376 OA
BRANCH  34  35
ATOM     35  C   UNL     1      -2.207  -0.558   3.661  1.00  0.00     0.202 C 
BRANCH  35  36
ATOM     36  C   UNL     1      -1.362   0.545   4.321  1.00  0.00     0.261 C 
BRANCH  36  37
ATOM     37  O   UNL     1      -0.056   0.141   4.773  1.00  0.00    -0.460 OA
BRANCH  37  38
ATOM     38  C   UNL     1      -0.008  -0.413   6.008  1.00  0.00     0.338 C 
ATOM     39  O   UNL     1      -0.932  -0.548   6.800  1.00  0.00    -0.246 OA
BRANCH  38  40
ATOM     40  C   UNL     1       1.339  -0.971   6.265  1.00  0.00     0.060 A 
ATOM     41  C   UNL     1       1.440  -2.306   6.681  1.00  0.00     0.016 A 
ATOM     42  C   UNL     1       2.488  -0.183   6.158  1.00  0.00     0.016 A 
ATOM     43  C   UNL     1       2.676  -2.839   7.048  1.00  0.00     0.010 A 
ATOM     44  C   UNL     1       3.726  -0.711   6.551  1.00  0.00     0.010 A 
ATOM     45  C   UNL     1       3.816  -2.026   7.043  1.00  0.00    -0.014 A 
BRANCH  45  46
ATOM     46  C   UNL     1       5.025  -2.478   7.782  1.00  0.00     0.031 A 
ATOM     47  C   UNL     1       5.216  -1.990   9.195  1.00  0.00     0.074 A 
ATOM     48  C   UNL     1       5.900  -3.348   7.249  1.00  0.00     0.049 A 
ATOM     49  N   UNL     1       6.186  -2.232  10.041  1.00  0.00    -0.248 NA
ATOM     50  C   UNL     1       4.164  -1.108   9.727  1.00  0.00     0.031 C 
ATOM     51  C   UNL     1       5.800  -3.939   5.918  1.00  0.00     0.029 A 
ATOM     52  N   UNL     1       7.051  -3.886   7.772  1.00  0.00    -0.354 N 
ATOM     53  C   UNL     1       5.864  -1.529  11.195  1.00  0.00     0.074 A 
ATOM     54  C   UNL     1       4.630  -0.824  10.933  1.00  0.00     0.031 C 
ATOM     55  C   UNL     1       6.852  -4.754   5.723  1.00  0.00     0.029 A 
ATOM     56  C   UNL     1       7.716  -4.716   6.903  1.00  0.00     0.049 A 
ATOM     57  H   UNL     1       7.369  -3.695   8.684  1.00  0.00     0.167 HD
ATOM     58  C   UNL     1       6.531  -1.483  12.373  1.00  0.00     0.037 A 
ATOM     59  C   UNL     1       8.897  -5.351   7.040  1.00  0.00     0.037 A 
ATOM     60  C   UNL     1       7.761  -2.183  12.634  1.00  0.00     0.049 A 
ATOM     61  C   UNL     1       9.667  -5.214   8.332  1.00  0.00     0.074 A 
ATOM     62  C   UNL     1       8.511  -2.207  13.796  1.00  0.00     0.029 A 
ATOM     63  N   UNL     1       8.428  -2.976  11.711  1.00  0.00    -0.354 N 
ATOM     64  N   UNL     1       9.348  -4.563   9.425  1.00  0.00    -0.248 NA
ATOM     65  C   UNL     1      10.962  -5.906   8.408  1.00  0.00     0.031 C 
ATOM     66  C   UNL     1       9.664  -2.962  13.556  1.00  0.00     0.029 A 
ATOM     67  C   UNL     1       9.597  -3.469  12.269  1.00  0.00     0.049 A 
ATOM     68  H   UNL     1       8.117  -3.161  10.796  1.00  0.00     0.167 HD
ATOM     69  C   UNL     1      10.380  -4.797  10.327  1.00  0.00     0.074 A 
ATOM     70  C   UNL     1      11.329  -5.661   9.658  1.00  0.00     0.031 C 
ATOM     71  C   UNL     1      10.528  -4.339  11.595  1.00  0.00     0.037 A 
BRANCH  58  72
ATOM     72  C   UNL     1       5.961  -0.614  13.459  1.00  0.00     0.064 A 
ATOM     73  C   UNL     1       4.764  -0.936  14.118  1.00  0.00     0.173 A 
ATOM     74  C   UNL     1       6.636   0.550  13.861  1.00  0.00     0.173 A 
ATOM     75  F   UNL     1       4.071  -2.028  13.763  1.00  0.00    -0.203 F 
ATOM     76  C   UNL     1       4.249  -0.110  15.114  1.00  0.00     0.198 A 
ATOM     77  C   UNL     1       6.136   1.354  14.881  1.00  0.00     0.198 A 
ATOM     78  F   UNL     1       7.786   0.904  13.268  1.00  0.00    -0.203 F 
ATOM     79  F   UNL     1       3.076  -0.408  15.690  1.00  0.00    -0.200 F 
ATOM     80  C   UNL     1       4.939   1.030  15.500  1.00  0.00     0.200 A 
ATOM     81  F   UNL     1       6.813   2.446  15.263  1.00  0.00    -0.200 F 
ATOM     82  F   UNL     1       4.446   1.820  16.464  1.00  0.00    -0.200 F 
ENDBRANCH  58  72
BRANCH  59  83
ATOM     83  C   UNL     1       9.443  -6.167   5.920  1.00  0.00     0.064 A 
ATOM     84  C   UNL     1       9.594  -7.556   6.038  1.00  0.00     0.173 A 
ATOM     85  C   UNL     1       9.860  -5.569   4.721  1.00  0.00     0.173 A 
ATOM     86  F   UNL     1       9.239  -8.174   7.175  1.00  0.00    -0.203 F 
ATOM     87  C   UNL     1      10.161  -8.311   5.012  1.00  0.00     0.198 A 
ATOM     88  C   UNL     1      10.395  -6.329   3.683  1.00  0.00     0.198 A 
ATOM     89  F   UNL     1       9.745  -4.243   4.557  1.00  0.00    -0.203 F 
ATOM     90  F   UNL     1      10.346  -9.628   5.176  1.00  0.00    -0.200 F 
ATOM     91  C   UNL     1      10.554  -7.697   3.833  1.00  0.00     0.200 A 
ATOM     92  F   UNL     1      10.764  -5.733   2.541  1.00  0.00    -0.200 F 
ATOM     93  F   UNL     1      11.098  -8.423   2.846  1.00  0.00    -0.200 F 
ENDBRANCH  59  83
BRANCH  71  94
ATOM     94  C   UNL     1      11.734  -4.803  12.366  1.00  0.00     0.064 A 
ATOM     95  C   UNL     1      13.032  -4.382  12.041  1.00  0.00     0.173 A 
ATOM     96  C   UNL     1      11.580  -5.653  13.473  1.00  0.00     0.173 A 
ATOM     97  F   UNL     1      13.237  -3.578  10.986  1.00  0.00    -0.203 F 
ATOM     98  C   UNL     1      14.133  -4.823  12.772  1.00  0.00     0.198 A 
ATOM     99  C   UNL     1      12.679  -6.061  14.225  1.00  0.00     0.198 A 
ATOM    100  F   UNL     1      10.361  -6.078  13.837  1.00  0.00    -0.203 F 
ATOM    101  F   UNL     1      15.368  -4.454  12.406  1.00  0.00    -0.200 F 
ATOM    102  C   UNL     1      13.955  -5.654  13.868  1.00  0.00     0.200 A 
ATOM    103  F   UNL     1      12.502  -6.848  15.295  1.00  0.00    -0.200 F 
ATOM    104  F   UNL     1      15.015  -6.071  14.574  1.00  0.00    -0.200 F 
ENDBRANCH  71  94
ENDBRANCH  45  46
ENDBRANCH  38  40
ENDBRANCH  37  38
ENDBRANCH  36  37
ENDBRANCH  35  36
ENDBRANCH  34  35
ENDBRANCH  33  34
ENDBRANCH  32  33
ENDBRANCH  31  32
ENDBRANCH   1  31
TORSDOF 25
