REMARK SMILES N#CC1=C(N)N2C(=O)[C@@H](CC(=O)NCCCCCCNC(=O)c3ccc(-c4c5nc(c(-c6c(F)cccc6F)c6ccc([nH]6)c(-c6c(F)cccc6F)c6nc(c(-c7c(F)cccc7F)c7ccc4[nH]7)C=C6)C=C5)cc3)SC2=C(C#N)[C@H]1c1ccc(Cl)cc1
REMARK SMILES IDX 16 1 15 2 14 3 13 4 11 5 12 6 10 8 9 9 3 10 4 11 82 12 6 13
REMARK SMILES IDX 79 14 7 15 78 16 8 17 77 18 2 19 1 20 5 21 83 24 84 25 89 26
REMARK SMILES IDX 85 27 88 28 86 29 87 30 80 31 81 32 17 33 18 34 19 35 20 36
REMARK SMILES IDX 21 37 22 39 23 40 24 41 76 42 25 43 75 44 26 45 27 46 28 47
REMARK SMILES IDX 69 48 29 49 74 50 68 51 70 52 30 53 73 54 67 55 66 56 31 58
REMARK SMILES IDX 57 59 40 60 56 61 41 62 44 63 55 64 71 65 42 66 43 67 54 69
REMARK SMILES IDX 72 70 45 71 32 72 33 73 38 74 34 75 35 76 37 77 39 78 36 79
REMARK SMILES IDX 58 80 59 81 64 82 60 83 61 84 63 85 65 86 62 87 46 88 47 89
REMARK SMILES IDX 52 90 48 91 49 92 51 93 53 94 50 95
REMARK H PARENT 13 7 5 22 5 23 20 38 70 57 44 68
REMARK Flexibility Score: inf
ROOT
ATOM      1  C   UNL     1       7.296  -6.504  -0.380  1.00  0.00     0.002 C 
ENDROOT
BRANCH   1   2
ATOM      2  C   UNL     1       8.281  -5.562   0.326  1.00  0.00     0.021 C 
BRANCH   2   3
ATOM      3  C   UNL     1       9.291  -4.913  -0.623  1.00  0.00     0.116 C 
BRANCH   3   4
ATOM      4  N   UNL     1       8.664  -4.262  -1.758  1.00  0.00    -0.356 N 
ATOM      5  C   UNL     1       8.430  -2.946  -1.988  1.00  0.00     0.221 C 
ATOM      6  O   UNL     1       7.824  -2.600  -3.001  1.00  0.00    -0.275 OA
ATOM      7  H   UNL     1       8.361  -4.870  -2.471  1.00  0.00     0.163 HD
BRANCH   5   8
ATOM      8  C   UNL     1       8.925  -1.921  -1.005  1.00  0.00     0.125 C 
BRANCH   8   9
ATOM      9  C   UNL     1       8.183  -1.944   0.324  1.00  0.00     0.152 C 
ATOM     10  C   UNL     1       3.868  -0.049   0.010  1.00  0.00     0.083 C 
ATOM     11  C   UNL     1       4.526  -1.205   0.223  1.00  0.00     0.126 C 
ATOM     12  C   UNL     1       4.599   1.261  -0.313  1.00  0.00     0.107 C 
ATOM     13  N   UNL     1       5.915  -1.172   0.271  1.00  0.00    -0.258 N 
ATOM     14  C   UNL     1       6.002   1.210   0.260  1.00  0.00     0.073 C 
ATOM     15  C   UNL     1       6.706  -2.305   0.210  1.00  0.00     0.247 C 
ATOM     16  C   UNL     1       6.568   0.019   0.483  1.00  0.00     0.099 C 
ATOM     17  O   UNL     1       6.274  -3.438   0.030  1.00  0.00    -0.273 OA
ATOM     18  S   UNL     1       8.192  -0.245   1.011  1.00  0.00    -0.093 SA
BRANCH  10  19
ATOM     19  C   UNL     1       2.348  -0.049   0.010  1.00  0.00     0.100 C 
ATOM     20  N   UNL     1       1.087  -0.049   0.010  1.00  0.00    -0.193 NA
ENDBRANCH  10  19
BRANCH  11  21
ATOM     21  N   UNL     1       3.865  -2.394   0.392  1.00  0.00    -0.384 N 
ATOM     22  H   UNL     1       2.881  -2.420   0.359  1.00  0.00     0.158 HD
ATOM     23  H   UNL     1       4.374  -3.223   0.547  1.00  0.00     0.158 HD
ENDBRANCH  11  21
BRANCH  12  24
ATOM     24  C   UNL     1       4.596   1.561  -1.831  1.00  0.00    -0.034 A 
ATOM     25  C   UNL     1       5.777   1.585  -2.607  1.00  0.00     0.006 A 
ATOM     26  C   UNL     1       3.384   1.815  -2.501  1.00  0.00     0.006 A 
ATOM     27  C   UNL     1       5.745   1.849  -3.981  1.00  0.00     0.021 A 
ATOM     28  C   UNL     1       3.351   2.052  -3.881  1.00  0.00     0.021 A 
ATOM     29  C   UNL     1       4.532   2.072  -4.615  1.00  0.00     0.041 A 
ATOM     30  Cl  UNL     1       4.492   2.379  -6.306  1.00  0.00    -0.084 Cl
ENDBRANCH  12  24
BRANCH  14  31
ATOM     31  C   UNL     1       6.753   2.496   0.564  1.00  0.00     0.098 C 
ATOM     32  N   UNL     1       7.376   3.562   0.817  1.00  0.00    -0.193 NA
ENDBRANCH  14  31
ENDBRANCH   8   9
ENDBRANCH   5   8
ENDBRANCH   3   4
ENDBRANCH   2   3
ENDBRANCH   1   2
BRANCH   1  33
ATOM     33  C   UNL     1       7.974  -7.757  -0.937  1.00  0.00     0.002 C 
BRANCH  33  34
ATOM     34  C   UNL     1       8.769  -8.540   0.111  1.00  0.00     0.021 C 
BRANCH  34  35
ATOM     35  C   UNL     1       7.942  -8.948   1.324  1.00  0.00     0.116 C 
BRANCH  35  36
ATOM     36  N   UNL     1       6.953  -9.950   0.967  1.00  0.00    -0.352 N 
ATOM     37  C   UNL     1       6.798 -11.208   1.492  1.00  0.00     0.251 C 
ATOM     38  H   UNL     1       6.316  -9.694   0.262  1.00  0.00     0.163 HD
ATOM     39  O   UNL     1       6.120 -12.048   0.918  1.00  0.00    -0.269 OA
BRANCH  37  40
ATOM     40  C   UNL     1       7.479 -11.536   2.761  1.00  0.00     0.039 A 
ATOM     41  C   UNL     1       8.199 -12.726   2.856  1.00  0.00     0.014 A 
ATOM     42  C   UNL     1       7.415 -10.654   3.845  1.00  0.00     0.014 A 
ATOM     43  C   UNL     1       8.892 -13.015   4.031  1.00  0.00     0.010 A 
ATOM     44  C   UNL     1       8.166 -10.909   4.988  1.00  0.00     0.010 A 
ATOM     45  C   UNL     1       8.905 -12.097   5.095  1.00  0.00    -0.014 A 
BRANCH  45  46
ATOM     46  C   UNL     1       9.688 -12.370   6.325  1.00  0.00     0.031 A 
ATOM     47  C   UNL     1       8.989 -12.548   7.645  1.00  0.00     0.074 A 
ATOM     48  C   UNL     1      11.033 -12.417   6.259  1.00  0.00     0.049 A 
ATOM     49  N   UNL     1       9.503 -12.765   8.829  1.00  0.00    -0.248 NA
ATOM     50  C   UNL     1       7.520 -12.448   7.638  1.00  0.00     0.031 C 
ATOM     51  C   UNL     1      11.829 -12.213   5.047  1.00  0.00     0.029 A 
ATOM     52  N   UNL     1      11.970 -12.649   7.235  1.00  0.00    -0.354 N 
ATOM     53  C   UNL     1       8.426 -12.823   9.704  1.00  0.00     0.074 A 
ATOM     54  C   UNL     1       7.234 -12.560   8.927  1.00  0.00     0.031 C 
ATOM     55  C   UNL     1      13.130 -12.357   5.345  1.00  0.00     0.029 A 
ATOM     56  C   UNL     1      13.264 -12.623   6.773  1.00  0.00     0.049 A 
ATOM     57  H   UNL     1      11.736 -12.817   8.176  1.00  0.00     0.167 HD
ATOM     58  C   UNL     1       8.427 -13.099  11.030  1.00  0.00     0.037 A 
ATOM     59  C   UNL     1      14.427 -12.790   7.430  1.00  0.00     0.037 A 
ATOM     60  C   UNL     1       9.613 -13.377  11.797  1.00  0.00     0.049 A 
ATOM     61  C   UNL     1      14.399 -13.073   8.908  1.00  0.00     0.074 A 
ATOM     62  C   UNL     1       9.714 -13.714  13.135  1.00  0.00     0.029 A 
ATOM     63  N   UNL     1      10.905 -13.345  11.293  1.00  0.00    -0.354 N 
ATOM     64  N   UNL     1      13.368 -13.195   9.708  1.00  0.00    -0.248 NA
ATOM     65  C   UNL     1      15.698 -13.248   9.572  1.00  0.00     0.031 C 
ATOM     66  C   UNL     1      11.070 -13.838  13.454  1.00  0.00     0.029 A 
ATOM     67  C   UNL     1      11.811 -13.634  12.301  1.00  0.00     0.049 A 
ATOM     68  H   UNL     1      11.143 -13.148  10.359  1.00  0.00     0.167 HD
ATOM     69  C   UNL     1      13.891 -13.492  10.960  1.00  0.00     0.074 A 
ATOM     70  C   UNL     1      15.330 -13.550  10.808  1.00  0.00     0.031 C 
ATOM     71  C   UNL     1      13.240 -13.696  12.132  1.00  0.00     0.037 A 
BRANCH  58  72
ATOM     72  C   UNL     1       7.103 -13.122  11.737  1.00  0.00     0.057 A 
ATOM     73  C   UNL     1       6.162 -14.136  11.510  1.00  0.00     0.134 A 
ATOM     74  C   UNL     1       6.784 -12.150  12.694  1.00  0.00     0.134 A 
ATOM     75  F   UNL     1       6.399 -15.091  10.598  1.00  0.00    -0.206 F 
ATOM     76  C   UNL     1       4.946 -14.171  12.194  1.00  0.00     0.040 A 
ATOM     77  C   UNL     1       5.583 -12.191  13.405  1.00  0.00     0.040 A 
ATOM     78  F   UNL     1       7.641 -11.154  12.966  1.00  0.00    -0.206 F 
ATOM     79  C   UNL     1       4.658 -13.201  13.151  1.00  0.00     0.006 A 
ENDBRANCH  58  72
BRANCH  59  80
ATOM     80  C   UNL     1      15.719 -12.707   6.701  1.00  0.00     0.057 A 
ATOM     81  C   UNL     1      16.534 -13.834   6.541  1.00  0.00     0.134 A 
ATOM     82  C   UNL     1      16.185 -11.496   6.175  1.00  0.00     0.134 A 
ATOM     83  F   UNL     1      16.151 -15.020   7.037  1.00  0.00    -0.206 F 
ATOM     84  C   UNL     1      17.778 -13.755   5.913  1.00  0.00     0.040 A 
ATOM     85  C   UNL     1      17.413 -11.408   5.519  1.00  0.00     0.040 A 
ATOM     86  F   UNL     1      15.449 -10.380   6.286  1.00  0.00    -0.206 F 
ATOM     87  C   UNL     1      18.219 -12.538   5.396  1.00  0.00     0.006 A 
ENDBRANCH  59  80
BRANCH  71  88
ATOM     88  C   UNL     1      14.077 -14.038  13.331  1.00  0.00     0.057 A 
ATOM     89  C   UNL     1      14.909 -13.096  13.948  1.00  0.00     0.134 A 
ATOM     90  C   UNL     1      14.027 -15.321  13.891  1.00  0.00     0.134 A 
ATOM     91  F   UNL     1      15.013 -11.852  13.454  1.00  0.00    -0.206 F 
ATOM     92  C   UNL     1      15.684 -13.426  15.061  1.00  0.00     0.040 A 
ATOM     93  C   UNL     1      14.773 -15.654  15.022  1.00  0.00     0.040 A 
ATOM     94  F   UNL     1      13.242 -16.269  13.355  1.00  0.00    -0.206 F 
ATOM     95  C   UNL     1      15.611 -14.707  15.605  1.00  0.00     0.006 A 
ENDBRANCH  71  88
ENDBRANCH  45  46
ENDBRANCH  37  40
ENDBRANCH  35  36
ENDBRANCH  34  35
ENDBRANCH  33  34
ENDBRANCH   1  33
TORSDOF 18
