REMARK SMILES CCc1nc(C)c(C(=O)NCCCCCCNC(=O)c2ccc(-c3c4nc(c(-c5c(F)cccc5F)c5ccc([nH]5)c(-c5c(F)cccc5F)c5nc(c(-c6c(F)cccc6F)c6ccc3[nH]6)C=C5)C=C4)cc2)c(SCc2cnc(Cl)s2)n1
REMARK SMILES IDX 13 1 12 2 11 3 10 4 8 5 9 6 7 8 3 9 4 10 83 11 5 12 74 13
REMARK SMILES IDX 6 14 2 15 1 16 75 17 76 18 77 19 78 20 82 21 79 22 80 23
REMARK SMILES IDX 81 24 14 25 15 26 16 27 17 28 18 29 19 31 20 32 21 33 73 34
REMARK SMILES IDX 22 35 72 36 23 37 24 38 25 39 66 40 26 41 71 42 65 43 67 44
REMARK SMILES IDX 27 45 70 46 64 47 63 48 28 50 54 51 37 52 53 53 38 54 41 55
REMARK SMILES IDX 52 56 68 57 39 58 40 59 51 61 69 62 42 63 29 64 30 65 35 66
REMARK SMILES IDX 31 67 32 68 34 69 36 70 33 71 55 72 56 73 61 74 57 75 58 76
REMARK SMILES IDX 60 77 62 78 59 79 43 80 44 81 49 82 45 83 46 84 48 85 50 86
REMARK SMILES IDX 47 87
REMARK H PARENT 10 7 17 30 67 49 41 60
REMARK Flexibility Score: inf
ROOT
ATOM      1  C   UNL     1       5.543   4.961   6.805  1.00  0.00     0.002 C 
ENDROOT
BRANCH   1   2
ATOM      2  C   UNL     1       4.854   3.859   5.995  1.00  0.00     0.021 C 
BRANCH   2   3
ATOM      3  C   UNL     1       3.328   4.023   5.913  1.00  0.00     0.116 C 
BRANCH   3   4
ATOM      4  N   UNL     1       3.030   4.771   4.706  1.00  0.00    -0.352 N 
ATOM      5  C   UNL     1       2.846   4.304   3.428  1.00  0.00     0.255 C 
ATOM      6  O   UNL     1       3.290   4.966   2.493  1.00  0.00    -0.269 OA
ATOM      7  H   UNL     1       2.949   5.746   4.819  1.00  0.00     0.163 HD
BRANCH   5   8
ATOM      8  C   UNL     1       2.012   3.135   3.119  1.00  0.00     0.093 A 
ATOM      9  C   UNL     1       0.682   1.005   2.047  1.00  0.00     0.129 A 
ATOM     10  N   UNL     1       1.763   0.758   2.792  1.00  0.00    -0.237 NA
ATOM     11  N   UNL     1       0.186   2.228   1.847  1.00  0.00    -0.226 NA
ATOM     12  C   UNL     1       2.438   1.819   3.297  1.00  0.00     0.055 A 
ATOM     13  C   UNL     1       0.848   3.296   2.365  1.00  0.00     0.113 A 
ATOM     14  C   UNL     1       3.682   1.395   4.012  1.00  0.00     0.068 C 
BRANCH   9  15
ATOM     15  C   UNL     1       0.116  -0.128   1.239  1.00  0.00     0.074 C 
ATOM     16  C   UNL     1       0.806  -0.200  -0.118  1.00  0.00     0.012 C 
ENDBRANCH   9  15
BRANCH  13  17
ATOM     17  S   UNL     1      -0.003   4.770   1.815  1.00  0.00    -0.100 SA
BRANCH  17  18
ATOM     18  C   UNL     1       0.382   6.129   2.946  1.00  0.00     0.125 C 
BRANCH  18  19
ATOM     19  C   UNL     1      -0.009   5.966   4.378  1.00  0.00     0.036 A 
ATOM     20  C   UNL     1      -0.543   4.911   5.098  1.00  0.00     0.129 A 
ATOM     21  S   UNL     1       0.219   7.306   5.450  1.00  0.00    -0.107 S 
ATOM     22  N   UNL     1      -0.722   5.130   6.453  1.00  0.00    -0.233 NA
ATOM     23  C   UNL     1      -0.369   6.360   6.727  1.00  0.00     0.183 A 
ATOM     24  Cl  UNL     1      -0.458   7.017   8.308  1.00  0.00    -0.051 Cl
ENDBRANCH  18  19
ENDBRANCH  17  18
ENDBRANCH  13  17
ENDBRANCH   5   8
ENDBRANCH   3   4
ENDBRANCH   2   3
ENDBRANCH   1   2
BRANCH   1  25
ATOM     25  C   UNL     1       5.413   4.792   8.320  1.00  0.00     0.002 C 
BRANCH  25  26
ATOM     26  C   UNL     1       5.933   3.459   8.870  1.00  0.00     0.021 C 
BRANCH  26  27
ATOM     27  C   UNL     1       7.377   3.130   8.499  1.00  0.00     0.116 C 
BRANCH  27  28
ATOM     28  N   UNL     1       8.308   4.096   9.060  1.00  0.00    -0.352 N 
ATOM     29  C   UNL     1       9.326   3.897   9.955  1.00  0.00     0.251 C 
ATOM     30  H   UNL     1       8.190   5.024   8.754  1.00  0.00     0.163 HD
ATOM     31  O   UNL     1       9.849   4.857  10.521  1.00  0.00    -0.269 OA
BRANCH  29  32
ATOM     32  C   UNL     1       9.795   2.528  10.248  1.00  0.00     0.039 A 
ATOM     33  C   UNL     1      10.033   2.160  11.574  1.00  0.00     0.014 A 
ATOM     34  C   UNL     1      10.027   1.617   9.212  1.00  0.00     0.014 A 
ATOM     35  C   UNL     1      10.456   0.863  11.867  1.00  0.00     0.010 A 
ATOM     36  C   UNL     1      10.386   0.305   9.510  1.00  0.00     0.010 A 
ATOM     37  C   UNL     1      10.609  -0.083  10.839  1.00  0.00    -0.014 A 
BRANCH  37  38
ATOM     38  C   UNL     1      10.997  -1.483  11.142  1.00  0.00     0.031 A 
ATOM     39  C   UNL     1      12.313  -2.029  10.662  1.00  0.00     0.074 A 
ATOM     40  C   UNL     1      10.136  -2.280  11.803  1.00  0.00     0.049 A 
ATOM     41  N   UNL     1      12.805  -3.235  10.793  1.00  0.00    -0.248 NA
ATOM     42  C   UNL     1      13.180  -1.105   9.913  1.00  0.00     0.031 C 
ATOM     43  C   UNL     1       8.808  -1.882  12.275  1.00  0.00     0.029 A 
ATOM     44  N   UNL     1      10.245  -3.592  12.187  1.00  0.00    -0.354 N 
ATOM     45  C   UNL     1      14.030  -3.217  10.137  1.00  0.00     0.074 A 
ATOM     46  C   UNL     1      14.183  -1.898   9.564  1.00  0.00     0.031 C 
ATOM     47  C   UNL     1       8.236  -2.921  12.905  1.00  0.00     0.029 A 
ATOM     48  C   UNL     1       9.141  -4.065  12.854  1.00  0.00     0.049 A 
ATOM     49  H   UNL     1      11.040  -4.143  12.003  1.00  0.00     0.167 HD
ATOM     50  C   UNL     1      14.952  -4.204  10.041  1.00  0.00     0.037 A 
ATOM     51  C   UNL     1       8.886  -5.284  13.364  1.00  0.00     0.037 A 
ATOM     52  C   UNL     1      14.806  -5.509  10.631  1.00  0.00     0.049 A 
ATOM     53  C   UNL     1       9.928  -6.361  13.246  1.00  0.00     0.074 A 
ATOM     54  C   UNL     1      15.710  -6.557  10.643  1.00  0.00     0.029 A 
ATOM     55  N   UNL     1      13.680  -5.945  11.314  1.00  0.00    -0.354 N 
ATOM     56  N   UNL     1      11.111  -6.308  12.685  1.00  0.00    -0.248 NA
ATOM     57  C   UNL     1       9.601  -7.664  13.841  1.00  0.00     0.031 C 
ATOM     58  C   UNL     1      15.114  -7.642  11.296  1.00  0.00     0.029 A 
ATOM     59  C   UNL     1      13.857  -7.254  11.732  1.00  0.00     0.049 A 
ATOM     60  H   UNL     1      12.873  -5.404  11.477  1.00  0.00     0.167 HD
ATOM     61  C   UNL     1      11.680  -7.560  12.879  1.00  0.00     0.074 A 
ATOM     62  C   UNL     1      10.718  -8.344  13.626  1.00  0.00     0.031 C 
ATOM     63  C   UNL     1      12.889  -8.020  12.475  1.00  0.00     0.037 A 
BRANCH  50  64
ATOM     64  C   UNL     1      16.206  -3.907   9.271  1.00  0.00     0.057 A 
ATOM     65  C   UNL     1      17.182  -3.028   9.759  1.00  0.00     0.134 A 
ATOM     66  C   UNL     1      16.460  -4.533   8.044  1.00  0.00     0.134 A 
ATOM     67  F   UNL     1      16.996  -2.386  10.923  1.00  0.00    -0.206 F 
ATOM     68  C   UNL     1      18.351  -2.762   9.044  1.00  0.00     0.040 A 
ATOM     69  C   UNL     1      17.637  -4.296   7.332  1.00  0.00     0.040 A 
ATOM     70  F   UNL     1      15.571  -5.392   7.520  1.00  0.00    -0.206 F 
ATOM     71  C   UNL     1      18.584  -3.403   7.830  1.00  0.00     0.006 A 
ENDBRANCH  50  64
BRANCH  51  72
ATOM     72  C   UNL     1       7.599  -5.544  14.056  1.00  0.00     0.057 A 
ATOM     73  C   UNL     1       7.551  -5.735  15.442  1.00  0.00     0.134 A 
ATOM     74  C   UNL     1       6.391  -5.614  13.353  1.00  0.00     0.134 A 
ATOM     75  F   UNL     1       8.679  -5.697  16.167  1.00  0.00    -0.206 F 
ATOM     76  C   UNL     1       6.352  -6.004  16.102  1.00  0.00     0.040 A 
ATOM     77  C   UNL     1       5.180  -5.858  14.003  1.00  0.00     0.040 A 
ATOM     78  F   UNL     1       6.368  -5.432  12.024  1.00  0.00    -0.206 F 
ATOM     79  C   UNL     1       5.160  -6.061  15.382  1.00  0.00     0.006 A 
ENDBRANCH  51  72
BRANCH  63  80
ATOM     80  C   UNL     1      13.246  -9.426  12.856  1.00  0.00     0.057 A 
ATOM     81  C   UNL     1      12.639 -10.533  12.249  1.00  0.00     0.134 A 
ATOM     82  C   UNL     1      14.228  -9.676  13.823  1.00  0.00     0.134 A 
ATOM     83  F   UNL     1      11.681 -10.361  11.325  1.00  0.00    -0.206 F 
ATOM     84  C   UNL     1      12.976 -11.838  12.610  1.00  0.00     0.040 A 
ATOM     85  C   UNL     1      14.592 -10.976  14.174  1.00  0.00     0.040 A 
ATOM     86  F   UNL     1      14.854  -8.660  14.437  1.00  0.00    -0.206 F 
ATOM     87  C   UNL     1      13.960 -12.062  13.572  1.00  0.00     0.006 A 
ENDBRANCH  63  80
ENDBRANCH  37  38
ENDBRANCH  29  32
ENDBRANCH  27  28
ENDBRANCH  26  27
ENDBRANCH  25  26
ENDBRANCH   1  25
TORSDOF 17
