REMARK SMILES CCOc1ccc(-c2ccc(C(=O)NCCCCCCNC(=O)c3ccc(-c4c5nc(c(-c6c(F)cccc6F)c6ccc([nH]6)c(-c6c(F)cccc6F)c6nc(c(-c7c(F)cccc7F)c7ccc4[nH]7)C=C6)C=C5)cc3)cn2)c(C)c1
REMARK SMILES IDX 17 1 16 2 15 3 14 4 12 5 13 6 11 8 8 9 9 10 79 11 10 12
REMARK SMILES IDX 78 13 7 14 4 15 5 16 82 17 6 18 80 19 81 20 3 21 2 22 1 23
REMARK SMILES IDX 18 24 19 25 20 26 21 27 22 28 23 30 24 31 25 32 77 33 26 34
REMARK SMILES IDX 76 35 27 36 28 37 29 38 70 39 30 40 75 41 69 42 71 43 31 44
REMARK SMILES IDX 74 45 68 46 67 47 32 49 58 50 41 51 57 52 42 53 45 54 56 55
REMARK SMILES IDX 72 56 43 57 44 58 55 60 73 61 46 62 33 63 34 64 39 65 35 66
REMARK SMILES IDX 36 67 38 68 40 69 37 70 59 71 60 72 65 73 61 74 62 75 64 76
REMARK SMILES IDX 66 77 63 78 47 79 48 80 53 81 49 82 50 83 52 84 54 85 51 86
REMARK H PARENT 14 7 21 29 71 48 45 59
REMARK Flexibility Score: inf
ROOT
ATOM      1  C   UNL     1      13.420   1.627  -4.742  1.00  0.00     0.002 C 
ENDROOT
BRANCH   1   2
ATOM      2  C   UNL     1      11.900   1.486  -4.558  1.00  0.00     0.021 C 
BRANCH   2   3
ATOM      3  C   UNL     1      11.299   0.215  -5.164  1.00  0.00     0.116 C 
BRANCH   3   4
ATOM      4  N   UNL     1      11.543  -0.933  -4.314  1.00  0.00    -0.352 N 
ATOM      5  C   UNL     1      10.700  -1.702  -3.555  1.00  0.00     0.252 C 
ATOM      6  O   UNL     1      11.164  -2.699  -3.002  1.00  0.00    -0.269 OA
ATOM      7  H   UNL     1      12.487  -1.210  -4.275  1.00  0.00     0.163 HD
BRANCH   5   8
ATOM      8  C   UNL     1       9.257  -1.413  -3.412  1.00  0.00     0.058 A 
ATOM      9  C   UNL     1       6.521  -1.151  -3.128  1.00  0.00     0.070 A 
ATOM     10  C   UNL     1       7.306  -0.006  -3.248  1.00  0.00     0.030 A 
ATOM     11  N   UNL     1       7.054  -2.394  -3.111  1.00  0.00    -0.255 NA
ATOM     12  C   UNL     1       8.691  -0.140  -3.368  1.00  0.00     0.018 A 
ATOM     13  C   UNL     1       8.400  -2.496  -3.249  1.00  0.00     0.125 A 
BRANCH   9  14
ATOM     14  C   UNL     1       5.071  -1.073  -2.927  1.00  0.00     0.003 A 
ATOM     15  C   UNL     1       2.329  -0.831  -2.361  1.00  0.00     0.119 A 
ATOM     16  C   UNL     1       3.212  -1.176  -1.348  1.00  0.00     0.047 A 
ATOM     17  C   UNL     1       2.786  -0.671  -3.667  1.00  0.00     0.050 A 
ATOM     18  C   UNL     1       4.573  -1.280  -1.627  1.00  0.00     0.014 A 
ATOM     19  C   UNL     1       4.156  -0.803  -3.969  1.00  0.00    -0.038 A 
ATOM     20  C   UNL     1       4.579  -0.652  -5.406  1.00  0.00     0.045 C 
BRANCH  15  21
ATOM     21  O   UNL     1       0.987  -0.751  -2.116  1.00  0.00    -0.494 OA
BRANCH  21  22
ATOM     22  C   UNL     1       0.624   0.469  -1.455  1.00  0.00     0.226 C 
ATOM     23  C   UNL     1       0.594   0.298   0.056  1.00  0.00     0.049 C 
ENDBRANCH  21  22
ENDBRANCH  15  21
ENDBRANCH   9  14
ENDBRANCH   5   8
ENDBRANCH   3   4
ENDBRANCH   2   3
ENDBRANCH   1   2
BRANCH   1  24
ATOM     24  C   UNL     1      13.947   1.522  -6.184  1.00  0.00     0.002 C 
BRANCH  24  25
ATOM     25  C   UNL     1      13.197   2.352  -7.228  1.00  0.00     0.021 C 
BRANCH  25  26
ATOM     26  C   UNL     1      13.491   3.846  -7.156  1.00  0.00     0.116 C 
BRANCH  26  27
ATOM     27  N   UNL     1      14.466   4.291  -8.148  1.00  0.00    -0.352 N 
ATOM     28  C   UNL     1      15.016   5.548  -8.334  1.00  0.00     0.251 C 
ATOM     29  H   UNL     1      14.776   3.598  -8.774  1.00  0.00     0.163 HD
ATOM     30  O   UNL     1      15.841   5.744  -9.210  1.00  0.00    -0.269 OA
BRANCH  28  31
ATOM     31  C   UNL     1      14.695   6.613  -7.357  1.00  0.00     0.039 A 
ATOM     32  C   UNL     1      15.770   7.245  -6.723  1.00  0.00     0.014 A 
ATOM     33  C   UNL     1      13.393   6.791  -6.897  1.00  0.00     0.014 A 
ATOM     34  C   UNL     1      15.571   7.821  -5.474  1.00  0.00     0.010 A 
ATOM     35  C   UNL     1      13.207   7.286  -5.622  1.00  0.00     0.010 A 
ATOM     36  C   UNL     1      14.314   7.715  -4.881  1.00  0.00    -0.014 A 
BRANCH  36  37
ATOM     37  C   UNL     1      14.110   7.893  -3.449  1.00  0.00     0.031 A 
ATOM     38  C   UNL     1      13.490   9.125  -2.929  1.00  0.00     0.074 A 
ATOM     39  C   UNL     1      14.476   6.901  -2.606  1.00  0.00     0.049 A 
ATOM     40  N   UNL     1      13.597   9.539  -1.712  1.00  0.00    -0.248 NA
ATOM     41  C   UNL     1      12.764  10.050  -3.788  1.00  0.00     0.031 C 
ATOM     42  C   UNL     1      14.154   6.772  -1.189  1.00  0.00     0.029 A 
ATOM     43  N   UNL     1      15.441   5.909  -2.838  1.00  0.00    -0.354 N 
ATOM     44  C   UNL     1      12.761  10.621  -1.555  1.00  0.00     0.074 A 
ATOM     45  C   UNL     1      12.358  10.958  -2.897  1.00  0.00     0.031 C 
ATOM     46  C   UNL     1      15.076   5.989  -0.607  1.00  0.00     0.029 A 
ATOM     47  C   UNL     1      16.095   5.710  -1.604  1.00  0.00     0.049 A 
ATOM     48  H   UNL     1      15.625   5.447  -3.688  1.00  0.00     0.167 HD
ATOM     49  C   UNL     1      12.422  11.007  -0.289  1.00  0.00     0.037 A 
ATOM     50  C   UNL     1      17.425   5.973  -1.452  1.00  0.00     0.037 A 
ATOM     51  C   UNL     1      13.287  10.345   0.696  1.00  0.00     0.049 A 
ATOM     52  C   UNL     1      17.730   7.013  -0.400  1.00  0.00     0.074 A 
ATOM     53  C   UNL     1      13.112   9.259   1.538  1.00  0.00     0.029 A 
ATOM     54  N   UNL     1      14.652  10.625   0.698  1.00  0.00    -0.354 N 
ATOM     55  N   UNL     1      16.852   7.856   0.069  1.00  0.00    -0.248 NA
ATOM     56  C   UNL     1      19.056   7.204   0.182  1.00  0.00     0.031 C 
ATOM     57  C   UNL     1      14.392   8.837   1.982  1.00  0.00     0.029 A 
ATOM     58  C   UNL     1      15.342   9.683   1.436  1.00  0.00     0.049 A 
ATOM     59  H   UNL     1      15.068  11.389   0.237  1.00  0.00     0.167 HD
ATOM     60  C   UNL     1      17.464   8.706   0.954  1.00  0.00     0.074 A 
ATOM     61  C   UNL     1      18.837   8.238   1.013  1.00  0.00     0.031 C 
ATOM     62  C   UNL     1      16.794   9.738   1.547  1.00  0.00     0.037 A 
BRANCH  49  63
ATOM     63  C   UNL     1      11.151  11.760   0.087  1.00  0.00     0.057 A 
ATOM     64  C   UNL     1      10.671  11.728   1.416  1.00  0.00     0.134 A 
ATOM     65  C   UNL     1      10.290  12.439  -0.797  1.00  0.00     0.134 A 
ATOM     66  F   UNL     1      11.388  11.192   2.412  1.00  0.00    -0.206 F 
ATOM     67  C   UNL     1       9.419  12.236   1.800  1.00  0.00     0.040 A 
ATOM     68  C   UNL     1       9.030  12.937  -0.432  1.00  0.00     0.040 A 
ATOM     69  F   UNL     1      10.615  12.697  -2.063  1.00  0.00    -0.206 F 
ATOM     70  C   UNL     1       8.579  12.823   0.869  1.00  0.00     0.006 A 
ENDBRANCH  49  63
BRANCH  50  71
ATOM     71  C   UNL     1      18.225   5.747  -2.682  1.00  0.00     0.057 A 
ATOM     72  C   UNL     1      18.335   4.438  -3.185  1.00  0.00     0.134 A 
ATOM     73  C   UNL     1      18.572   6.790  -3.544  1.00  0.00     0.134 A 
ATOM     74  F   UNL     1      18.017   3.390  -2.408  1.00  0.00    -0.206 F 
ATOM     75  C   UNL     1      18.671   4.183  -4.516  1.00  0.00     0.040 A 
ATOM     76  C   UNL     1      18.920   6.546  -4.879  1.00  0.00     0.040 A 
ATOM     77  F   UNL     1      18.472   8.066  -3.147  1.00  0.00    -0.206 F 
ATOM     78  C   UNL     1      18.934   5.243  -5.377  1.00  0.00     0.006 A 
ENDBRANCH  50  71
BRANCH  62  79
ATOM     79  C   UNL     1      17.429  10.850   2.347  1.00  0.00     0.057 A 
ATOM     80  C   UNL     1      18.726  11.341   2.127  1.00  0.00     0.134 A 
ATOM     81  C   UNL     1      16.670  11.573   3.294  1.00  0.00     0.134 A 
ATOM     82  F   UNL     1      19.518  10.829   1.176  1.00  0.00    -0.206 F 
ATOM     83  C   UNL     1      19.251  12.428   2.841  1.00  0.00     0.040 A 
ATOM     84  C   UNL     1      17.165  12.691   3.973  1.00  0.00     0.040 A 
ATOM     85  F   UNL     1      15.404  11.236   3.584  1.00  0.00    -0.206 F 
ATOM     86  C   UNL     1      18.467  13.114   3.759  1.00  0.00     0.006 A 
ENDBRANCH  62  79
ENDBRANCH  36  37
ENDBRANCH  28  31
ENDBRANCH  26  27
ENDBRANCH  25  26
ENDBRANCH  24  25
ENDBRANCH   1  24
TORSDOF 16
