REMARK SMILES CC1(C)[C@@]2(C(=O)NCCCCCCNC(=O)c3ccc(-c4c5nc(c(-c6c(F)cccc6F)c6ccc([nH]6)c(-c6c(F)cccc6F)c6nc(c(-c7c(F)cccc7F)c7ccc4[nH]7)C=C6)C=C5)cc3)CC[C@]1(C)/C(=N/NC(=O)c1ccc(Cl)cc1)C2
REMARK SMILES IDX 10 1 9 2 8 3 7 4 5 5 6 6 4 8 1 9 2 10 3 11 73 12 71 13 87 14
REMARK SMILES IDX 72 15 74 16 75 17 76 18 77 19 78 20 79 22 80 23 81 24 86 25
REMARK SMILES IDX 82 26 85 27 83 28 84 29 11 30 12 31 13 32 14 33 15 34 16 36
REMARK SMILES IDX 17 37 18 38 70 39 19 40 69 41 20 42 21 43 22 44 63 45 23 46
REMARK SMILES IDX 68 47 62 48 64 49 24 50 67 51 61 52 60 53 25 55 51 56 34 57
REMARK SMILES IDX 50 58 35 59 38 60 49 61 65 62 36 63 37 64 48 66 66 67 39 68
REMARK SMILES IDX 26 69 27 70 32 71 28 72 29 73 31 74 33 75 30 76 52 77 53 78
REMARK SMILES IDX 58 79 54 80 55 81 57 82 59 83 56 84 40 85 41 86 46 87 42 88
REMARK SMILES IDX 43 89 45 90 47 91 44 92
REMARK H PARENT 7 7 77 21 14 35 64 54 38 65
REMARK Flexibility Score: inf
ROOT
ATOM      1  C   UNL     1       4.261   5.365  -3.622  1.00  0.00     0.002 C 
ENDROOT
BRANCH   1   2
ATOM      2  C   UNL     1       4.407   3.847  -3.779  1.00  0.00     0.021 C 
BRANCH   2   3
ATOM      3  C   UNL     1       3.976   2.906  -2.615  1.00  0.00     0.116 C 
BRANCH   3   4
ATOM      4  N   UNL     1       2.719   3.150  -1.887  1.00  0.00    -0.356 N 
ATOM      5  C   UNL     1       1.792   2.342  -1.257  1.00  0.00     0.227 C 
ATOM      6  O   UNL     1       1.234   2.845  -0.275  1.00  0.00    -0.274 OA
ATOM      7  H   UNL     1       2.487   4.106  -1.837  1.00  0.00     0.163 HD
BRANCH   5   8
ATOM      8  C   UNL     1       1.308   0.964  -1.771  1.00  0.00     0.060 C 
ATOM      9  C   UNL     1       1.291  -0.394   0.452  1.00  0.00     0.013 C 
ATOM     10  C   UNL     1       0.510  -0.011  -0.820  1.00  0.00    -0.010 C 
ATOM     11  C   UNL     1      -0.900   0.424  -0.348  1.00  0.00     0.013 C 
ATOM     12  C   UNL     1       0.418  -1.126  -1.931  1.00  0.00     0.014 C 
ATOM     13  C   UNL     1       2.464   0.049  -2.288  1.00  0.00     0.019 C 
ATOM     14  C   UNL     1       0.240   1.124  -2.882  1.00  0.00     0.071 C 
ATOM     15  C   UNL     1       1.892  -1.380  -2.271  1.00  0.00     0.014 C 
ATOM     16  C   UNL     1      -0.389  -2.370  -1.632  1.00  0.00     0.018 C 
ATOM     17  C   UNL     1      -0.074  -0.306  -3.164  1.00  0.00     0.046 C 
ATOM     18  N   UNL     1      -0.508  -0.926  -4.213  1.00  0.00    -0.181 NA
BRANCH  18  19
ATOM     19  N   UNL     1      -0.898  -0.567  -5.469  1.00  0.00    -0.243 N 
ATOM     20  C   UNL     1      -0.950   0.508  -6.335  1.00  0.00     0.271 C 
ATOM     21  H   UNL     1      -1.279  -1.355  -5.920  1.00  0.00     0.194 HD
ATOM     22  O   UNL     1      -1.486   0.369  -7.438  1.00  0.00    -0.267 OA
BRANCH  20  23
ATOM     23  C   UNL     1      -0.416   1.831  -6.051  1.00  0.00     0.041 A 
ATOM     24  C   UNL     1      -1.296   2.921  -5.980  1.00  0.00     0.015 A 
ATOM     25  C   UNL     1       0.933   1.996  -5.804  1.00  0.00     0.015 A 
ATOM     26  C   UNL     1      -0.883   4.113  -5.386  1.00  0.00     0.021 A 
ATOM     27  C   UNL     1       1.300   3.162  -5.131  1.00  0.00     0.021 A 
ATOM     28  C   UNL     1       0.395   4.187  -4.866  1.00  0.00     0.041 A 
ATOM     29  Cl  UNL     1       0.774   5.421  -3.732  1.00  0.00    -0.084 Cl
ENDBRANCH  20  23
ENDBRANCH  18  19
ENDBRANCH   5   8
ENDBRANCH   3   4
ENDBRANCH   2   3
ENDBRANCH   1   2
BRANCH   1  30
ATOM     30  C   UNL     1       5.556   6.139  -3.920  1.00  0.00     0.002 C 
BRANCH  30  31
ATOM     31  C   UNL     1       6.218   5.859  -5.278  1.00  0.00     0.021 C 
BRANCH  31  32
ATOM     32  C   UNL     1       5.370   6.212  -6.498  1.00  0.00     0.116 C 
BRANCH  32  33
ATOM     33  N   UNL     1       5.305   7.652  -6.694  1.00  0.00    -0.352 N 
ATOM     34  C   UNL     1       6.039   8.427  -7.568  1.00  0.00     0.251 C 
ATOM     35  H   UNL     1       4.657   8.135  -6.133  1.00  0.00     0.163 HD
ATOM     36  O   UNL     1       6.134   9.632  -7.420  1.00  0.00    -0.269 OA
BRANCH  34  37
ATOM     37  C   UNL     1       6.720   7.759  -8.699  1.00  0.00     0.039 A 
ATOM     38  C   UNL     1       8.089   7.949  -8.894  1.00  0.00     0.014 A 
ATOM     39  C   UNL     1       5.990   6.919  -9.545  1.00  0.00     0.014 A 
ATOM     40  C   UNL     1       8.745   7.229  -9.896  1.00  0.00     0.010 A 
ATOM     41  C   UNL     1       6.656   6.159 -10.502  1.00  0.00     0.010 A 
ATOM     42  C   UNL     1       8.041   6.297 -10.679  1.00  0.00    -0.014 A 
BRANCH  42  43
ATOM     43  C   UNL     1       8.734   5.431 -11.667  1.00  0.00     0.031 A 
ATOM     44  C   UNL     1       8.412   5.548 -13.131  1.00  0.00     0.074 A 
ATOM     45  C   UNL     1       9.593   4.486 -11.235  1.00  0.00     0.049 A 
ATOM     46  N   UNL     1       8.829   4.812 -14.130  1.00  0.00    -0.248 NA
ATOM     47  C   UNL     1       7.481   6.620 -13.521  1.00  0.00     0.031 C 
ATOM     48  C   UNL     1       9.961   4.250  -9.837  1.00  0.00     0.029 A 
ATOM     49  N   UNL     1      10.302   3.534 -11.927  1.00  0.00    -0.354 N 
ATOM     50  C   UNL     1       8.213   5.330 -15.262  1.00  0.00     0.074 A 
ATOM     51  C   UNL     1       7.350   6.405 -14.822  1.00  0.00     0.031 C 
ATOM     52  C   UNL     1      10.837   3.234  -9.777  1.00  0.00     0.029 A 
ATOM     53  C   UNL     1      11.057   2.714 -11.122  1.00  0.00     0.049 A 
ATOM     54  H   UNL     1      10.271   3.447 -12.907  1.00  0.00     0.167 HD
ATOM     55  C   UNL     1       8.373   4.960 -16.555  1.00  0.00     0.037 A 
ATOM     56  C   UNL     1      11.823   1.650 -11.432  1.00  0.00     0.037 A 
ATOM     57  C   UNL     1       9.240   3.897 -16.990  1.00  0.00     0.049 A 
ATOM     58  C   UNL     1      11.932   1.223 -12.872  1.00  0.00     0.074 A 
ATOM     59  C   UNL     1       9.502   3.474 -18.281  1.00  0.00     0.029 A 
ATOM     60  N   UNL     1       9.981   3.087 -16.144  1.00  0.00    -0.354 N 
ATOM     61  N   UNL     1      11.398   1.766 -13.939  1.00  0.00    -0.248 NA
ATOM     62  C   UNL     1      12.745   0.030 -13.151  1.00  0.00     0.031 C 
ATOM     63  C   UNL     1      10.364   2.375 -18.214  1.00  0.00     0.029 A 
ATOM     64  C   UNL     1      10.677   2.145 -16.884  1.00  0.00     0.049 A 
ATOM     65  H   UNL     1      10.009   3.168 -15.163  1.00  0.00     0.167 HD
ATOM     66  C   UNL     1      11.830   1.000 -15.013  1.00  0.00     0.074 A 
ATOM     67  C   UNL     1      12.689  -0.033 -14.473  1.00  0.00     0.031 C 
ATOM     68  C   UNL     1      11.537   1.132 -16.329  1.00  0.00     0.037 A 
BRANCH  55  69
ATOM     69  C   UNL     1       7.607   5.719 -17.599  1.00  0.00     0.057 A 
ATOM     70  C   UNL     1       7.934   7.040 -17.934  1.00  0.00     0.134 A 
ATOM     71  C   UNL     1       6.579   5.105 -18.326  1.00  0.00     0.134 A 
ATOM     72  F   UNL     1       8.903   7.689 -17.270  1.00  0.00    -0.206 F 
ATOM     73  C   UNL     1       7.256   7.728 -18.941  1.00  0.00     0.040 A 
ATOM     74  C   UNL     1       5.911   5.774 -19.353  1.00  0.00     0.040 A 
ATOM     75  F   UNL     1       6.220   3.839 -18.062  1.00  0.00    -0.206 F 
ATOM     76  C   UNL     1       6.248   7.090 -19.661  1.00  0.00     0.006 A 
ENDBRANCH  55  69
BRANCH  56  77
ATOM     77  C   UNL     1      12.542   0.898 -10.370  1.00  0.00     0.057 A 
ATOM     78  C   UNL     1      13.941   0.882 -10.318  1.00  0.00     0.134 A 
ATOM     79  C   UNL     1      11.855   0.141  -9.412  1.00  0.00     0.134 A 
ATOM     80  F   UNL     1      14.658   1.570 -11.219  1.00  0.00    -0.206 F 
ATOM     81  C   UNL     1      14.631   0.115  -9.377  1.00  0.00     0.040 A 
ATOM     82  C   UNL     1      12.532  -0.606  -8.446  1.00  0.00     0.040 A 
ATOM     83  F   UNL     1      10.514   0.118  -9.400  1.00  0.00    -0.206 F 
ATOM     84  C   UNL     1      13.925  -0.630  -8.435  1.00  0.00     0.006 A 
ENDBRANCH  56  77
BRANCH  68  85
ATOM     85  C   UNL     1      12.165   0.155 -17.279  1.00  0.00     0.057 A 
ATOM     86  C   UNL     1      11.748  -1.181 -17.342  1.00  0.00     0.134 A 
ATOM     87  C   UNL     1      13.157   0.567 -18.177  1.00  0.00     0.134 A 
ATOM     88  F   UNL     1      10.813  -1.642 -16.498  1.00  0.00    -0.206 F 
ATOM     89  C   UNL     1      12.307  -2.075 -18.256  1.00  0.00     0.040 A 
ATOM     90  C   UNL     1      13.702  -0.310 -19.115  1.00  0.00     0.040 A 
ATOM     91  F   UNL     1      13.595   1.835 -18.174  1.00  0.00    -0.206 F 
ATOM     92  C   UNL     1      13.280  -1.637 -19.153  1.00  0.00     0.006 A 
ENDBRANCH  68  85
ENDBRANCH  42  43
ENDBRANCH  34  37
ENDBRANCH  32  33
ENDBRANCH  31  32
ENDBRANCH  30  31
ENDBRANCH   1  30
TORSDOF 15
