REMARK SMILES C[C@@H](Oc1cncc(C(=O)NCCCCCCNC(=O)c2ccc(-c3c4nc(c(-c5c(F)cccc5F)c5ccc([nH]5)c(-c5c(F)cccc5F)c5nc(c(-c6c(F)cccc6F)c6ccc3[nH]6)C=C5)C=C4)cc2)n1)C(F)(F)F
REMARK SMILES IDX 14 1 13 2 12 3 11 4 9 5 10 6 8 8 4 9 5 10 75 11 6 12 7 13
REMARK SMILES IDX 3 14 2 15 1 16 76 17 77 18 78 19 79 20 15 21 16 22 17 23
REMARK SMILES IDX 18 24 19 25 20 27 21 28 22 29 74 30 23 31 73 32 24 33 25 34
REMARK SMILES IDX 26 35 67 36 27 37 72 38 66 39 68 40 28 41 71 42 65 43 64 44
REMARK SMILES IDX 29 46 55 47 38 48 54 49 39 50 42 51 53 52 69 53 40 54 41 55
REMARK SMILES IDX 52 57 70 58 43 59 30 60 31 61 36 62 32 63 33 64 35 65 37 66
REMARK SMILES IDX 34 67 56 68 57 69 62 70 58 71 59 72 61 73 63 74 60 75 44 76
REMARK SMILES IDX 45 77 50 78 46 79 47 80 49 81 51 82 48 83
REMARK H PARENT 11 7 18 26 68 45 42 56
REMARK Flexibility Score: inf
ROOT
ATOM      1  C   UNL     1       2.640  -8.176   2.117  1.00  0.00     0.002 C 
ENDROOT
BRANCH   1   2
ATOM      2  C   UNL     1       2.252  -6.787   1.594  1.00  0.00     0.021 C 
BRANCH   2   3
ATOM      3  C   UNL     1       2.496  -5.658   2.594  1.00  0.00     0.116 C 
BRANCH   3   4
ATOM      4  N   UNL     1       3.920  -5.448   2.779  1.00  0.00    -0.351 N 
ATOM      5  C   UNL     1       4.742  -4.398   2.455  1.00  0.00     0.271 C 
ATOM      6  O   UNL     1       5.952  -4.556   2.640  1.00  0.00    -0.267 OA
ATOM      7  H   UNL     1       4.381  -6.198   3.218  1.00  0.00     0.163 HD
BRANCH   5   8
ATOM      8  C   UNL     1       4.253  -3.083   1.948  1.00  0.00     0.150 A 
ATOM      9  C   UNL     1       2.584  -1.605   1.416  1.00  0.00     0.233 A 
ATOM     10  C   UNL     1       3.515  -0.576   1.357  1.00  0.00     0.179 A 
ATOM     11  N   UNL     1       2.930  -2.873   1.714  1.00  0.00    -0.205 NA
ATOM     12  N   UNL     1       4.841  -0.780   1.520  1.00  0.00    -0.257 NA
ATOM     13  C   UNL     1       5.186  -2.056   1.831  1.00  0.00     0.145 A 
BRANCH   9  14
ATOM     14  O   UNL     1       1.242  -1.336   1.397  1.00  0.00    -0.464 OA
BRANCH  14  15
ATOM     15  C   UNL     1       0.703  -1.195   0.066  1.00  0.00     0.277 C 
ATOM     16  C   UNL     1       0.864   0.254  -0.398  1.00  0.00     0.063 C 
BRANCH  15  17
ATOM     17  C   UNL     1      -0.788  -1.552   0.097  1.00  0.00     0.425 C 
ATOM     18  F   UNL     1      -1.358  -1.352  -1.116  1.00  0.00    -0.167 F 
ATOM     19  F   UNL     1      -0.984  -2.850   0.418  1.00  0.00    -0.167 F 
ATOM     20  F   UNL     1      -1.467  -0.796   0.989  1.00  0.00    -0.167 F 
ENDBRANCH  15  17
ENDBRANCH  14  15
ENDBRANCH   9  14
ENDBRANCH   5   8
ENDBRANCH   3   4
ENDBRANCH   2   3
ENDBRANCH   1   2
BRANCH   1  21
ATOM     21  C   UNL     1       1.940  -8.600   3.413  1.00  0.00     0.002 C 
BRANCH  21  22
ATOM     22  C   UNL     1       0.413  -8.504   3.384  1.00  0.00     0.021 C 
BRANCH  22  23
ATOM     23  C   UNL     1      -0.248  -9.327   2.285  1.00  0.00     0.116 C 
BRANCH  23  24
ATOM     24  N   UNL     1      -0.019 -10.753   2.460  1.00  0.00    -0.352 N 
ATOM     25  C   UNL     1      -0.929 -11.775   2.529  1.00  0.00     0.251 C 
ATOM     26  H   UNL     1       0.925 -11.022   2.541  1.00  0.00     0.163 HD
ATOM     27  O   UNL     1      -0.576 -12.898   2.885  1.00  0.00    -0.269 OA
BRANCH  25  28
ATOM     28  C   UNL     1      -2.345 -11.522   2.191  1.00  0.00     0.039 A 
ATOM     29  C   UNL     1      -3.341 -12.044   3.019  1.00  0.00     0.014 A 
ATOM     30  C   UNL     1      -2.689 -10.775   1.061  1.00  0.00     0.014 A 
ATOM     31  C   UNL     1      -4.682 -11.768   2.746  1.00  0.00     0.010 A 
ATOM     32  C   UNL     1      -4.020 -10.436   0.834  1.00  0.00     0.010 A 
ATOM     33  C   UNL     1      -5.030 -10.933   1.671  1.00  0.00    -0.014 A 
BRANCH  33  34
ATOM     34  C   UNL     1      -6.445 -10.567   1.411  1.00  0.00     0.031 A 
ATOM     35  C   UNL     1      -7.113 -10.986   0.130  1.00  0.00     0.074 A 
ATOM     36  C   UNL     1      -7.112  -9.809   2.303  1.00  0.00     0.049 A 
ATOM     37  N   UNL     1      -8.316 -10.708  -0.305  1.00  0.00    -0.248 NA
ATOM     38  C   UNL     1      -6.314 -11.804  -0.797  1.00  0.00     0.031 C 
ATOM     39  C   UNL     1      -6.560  -9.300   3.560  1.00  0.00     0.029 A 
ATOM     40  N   UNL     1      -8.395  -9.323   2.284  1.00  0.00    -0.354 N 
ATOM     41  C   UNL     1      -8.416 -11.311  -1.552  1.00  0.00     0.074 A 
ATOM     42  C   UNL     1      -7.132 -11.916  -1.833  1.00  0.00     0.031 C 
ATOM     43  C   UNL     1      -7.503  -8.590   4.199  1.00  0.00     0.029 A 
ATOM     44  C   UNL     1      -8.711  -8.558   3.380  1.00  0.00     0.049 A 
ATOM     45  H   UNL     1      -9.030  -9.506   1.553  1.00  0.00     0.167 HD
ATOM     46  C   UNL     1      -9.488 -11.377  -2.377  1.00  0.00     0.037 A 
ATOM     47  C   UNL     1      -9.842  -7.894   3.685  1.00  0.00     0.037 A 
ATOM     48  C   UNL     1     -10.767 -10.782  -2.090  1.00  0.00     0.049 A 
ATOM     49  C   UNL     1     -11.010  -7.963   2.741  1.00  0.00     0.074 A 
ATOM     50  C   UNL     1     -11.928 -10.828  -2.843  1.00  0.00     0.029 A 
ATOM     51  N   UNL     1     -11.052 -10.027  -0.962  1.00  0.00    -0.354 N 
ATOM     52  N   UNL     1     -11.112  -8.591   1.595  1.00  0.00    -0.248 NA
ATOM     53  C   UNL     1     -12.226  -7.237   3.137  1.00  0.00     0.031 C 
ATOM     54  C   UNL     1     -12.900 -10.060  -2.195  1.00  0.00     0.029 A 
ATOM     55  C   UNL     1     -12.364  -9.584  -1.009  1.00  0.00     0.049 A 
ATOM     56  H   UNL     1     -10.416  -9.835  -0.235  1.00  0.00     0.167 HD
ATOM     57  C   UNL     1     -12.406  -8.361   1.147  1.00  0.00     0.074 A 
ATOM     58  C   UNL     1     -13.058  -7.551   2.155  1.00  0.00     0.031 C 
ATOM     59  C   UNL     1     -13.002  -8.783   0.005  1.00  0.00     0.037 A 
BRANCH  46  60
ATOM     60  C   UNL     1      -9.323 -12.126  -3.669  1.00  0.00     0.057 A 
ATOM     61  C   UNL     1      -9.170 -13.519  -3.700  1.00  0.00     0.134 A 
ATOM     62  C   UNL     1      -9.355 -11.455  -4.898  1.00  0.00     0.134 A 
ATOM     63  F   UNL     1      -9.120 -14.223  -2.559  1.00  0.00    -0.206 F 
ATOM     64  C   UNL     1      -9.028 -14.213  -4.903  1.00  0.00     0.040 A 
ATOM     65  C   UNL     1      -9.245 -12.141  -6.108  1.00  0.00     0.040 A 
ATOM     66  F   UNL     1      -9.506 -10.122  -4.943  1.00  0.00    -0.206 F 
ATOM     67  C   UNL     1      -9.074 -13.524  -6.112  1.00  0.00     0.006 A 
ENDBRANCH  46  60
BRANCH  47  68
ATOM     68  C   UNL     1      -9.928  -7.110   4.944  1.00  0.00     0.057 A 
ATOM     69  C   UNL     1     -10.771  -7.505   5.990  1.00  0.00     0.134 A 
ATOM     70  C   UNL     1      -9.184  -5.938   5.127  1.00  0.00     0.134 A 
ATOM     71  F   UNL     1     -11.524  -8.609   5.869  1.00  0.00    -0.206 F 
ATOM     72  C   UNL     1     -10.890  -6.753   7.159  1.00  0.00     0.040 A 
ATOM     73  C   UNL     1      -9.270  -5.191   6.303  1.00  0.00     0.040 A 
ATOM     74  F   UNL     1      -8.351  -5.508   4.167  1.00  0.00    -0.206 F 
ATOM     75  C   UNL     1     -10.133  -5.593   7.319  1.00  0.00     0.006 A 
ENDBRANCH  47  68
BRANCH  59  76
ATOM     76  C   UNL     1     -14.442  -8.409  -0.199  1.00  0.00     0.057 A 
ATOM     77  C   UNL     1     -14.835  -7.095  -0.482  1.00  0.00     0.134 A 
ATOM     78  C   UNL     1     -15.444  -9.386  -0.149  1.00  0.00     0.134 A 
ATOM     79  F   UNL     1     -13.926  -6.109  -0.532  1.00  0.00    -0.206 F 
ATOM     80  C   UNL     1     -16.175  -6.761  -0.683  1.00  0.00     0.040 A 
ATOM     81  C   UNL     1     -16.784  -9.071  -0.378  1.00  0.00     0.040 A 
ATOM     82  F   UNL     1     -15.136 -10.667   0.107  1.00  0.00    -0.206 F 
ATOM     83  C   UNL     1     -17.154  -7.753  -0.639  1.00  0.00     0.006 A 
ENDBRANCH  59  76
ENDBRANCH  33  34
ENDBRANCH  25  28
ENDBRANCH  23  24
ENDBRANCH  22  23
ENDBRANCH  21  22
ENDBRANCH   1  21
TORSDOF 16
