REMARK SMILES Cc1cc(C(=O)N[C@H]2C=C[C@H](C(=O)NCCCCCCNC(=O)c3ccc(-c4c5nc(c(-c6c(F)cccc6F)c6ccc([nH]6)c(-c6c(F)cccc6F)c6nc(c(-c7c(F)cccc7F)c7ccc4[nH]7)C=C6)C=C5)cc3)C2)ccc1F
REMARK SMILES IDX 17 1 16 2 15 3 14 4 12 5 13 6 11 8 8 9 9 10 78 11 10 12 7 13
REMARK SMILES IDX 5 14 6 15 4 17 1 18 2 19 3 20 81 21 80 22 82 23 79 24 18 25
REMARK SMILES IDX 19 26 20 27 21 28 22 29 23 31 24 32 25 33 77 34 26 35 76 36
REMARK SMILES IDX 27 37 28 38 29 39 70 40 30 41 75 42 69 43 71 44 31 45 74 46
REMARK SMILES IDX 68 47 67 48 32 50 58 51 41 52 57 53 42 54 45 55 56 56 72 57
REMARK SMILES IDX 43 58 44 59 55 61 73 62 46 63 33 64 34 65 39 66 35 67 36 68
REMARK SMILES IDX 38 69 40 70 37 71 59 72 60 73 65 74 61 75 62 76 64 77 66 78
REMARK SMILES IDX 63 79 47 80 48 81 53 82 49 83 50 84 52 85 54 86 51 87
REMARK H PARENT 14 7 7 16 21 30 71 49 45 60
REMARK Flexibility Score: inf
ROOT
ATOM      1  C   UNL     1       2.459   8.120   1.161  1.00  0.00     0.002 C 
ENDROOT
BRANCH   1   2
ATOM      2  C   UNL     1       1.007   8.153   1.656  1.00  0.00     0.021 C 
BRANCH   2   3
ATOM      3  C   UNL     1       0.055   7.073   1.155  1.00  0.00     0.116 C 
BRANCH   3   4
ATOM      4  N   UNL     1       0.554   5.742   1.381  1.00  0.00    -0.356 N 
ATOM      5  C   UNL     1      -0.089   4.592   1.692  1.00  0.00     0.227 C 
ATOM      6  O   UNL     1       0.620   3.579   1.706  1.00  0.00    -0.274 OA
ATOM      7  H   UNL     1       1.531   5.653   1.295  1.00  0.00     0.163 HD
BRANCH   5   8
ATOM      8  C   UNL     1      -1.585   4.525   2.089  1.00  0.00     0.103 C 
ATOM      9  C   UNL     1      -2.551   3.302   0.265  1.00  0.00     0.106 C 
ATOM     10  C   UNL     1      -3.170   4.657   0.339  1.00  0.00    -0.006 C 
ATOM     11  C   UNL     1      -2.107   3.121   1.718  1.00  0.00     0.047 C 
ATOM     12  C   UNL     1      -2.596   5.353   1.331  1.00  0.00    -0.016 C 
BRANCH   9  13
ATOM     13  N   UNL     1      -3.459   2.302  -0.215  1.00  0.00    -0.346 N 
ATOM     14  C   UNL     1      -3.216   0.984  -0.532  1.00  0.00     0.251 C 
ATOM     15  O   UNL     1      -4.166   0.285  -0.883  1.00  0.00    -0.269 OA
ATOM     16  H   UNL     1      -4.390   2.600  -0.335  1.00  0.00     0.164 HD
BRANCH  14  17
ATOM     17  C   UNL     1      -1.867   0.354  -0.394  1.00  0.00     0.040 A 
ATOM     18  C   UNL     1       1.853   1.190  -0.445  1.00  0.00     0.047 C 
ATOM     19  C   UNL     1       0.576   0.411  -0.349  1.00  0.00    -0.015 A 
ATOM     20  C   UNL     1      -0.657   1.015  -0.639  1.00  0.00     0.020 A 
ATOM     21  C   UNL     1       0.587  -0.922   0.054  1.00  0.00     0.126 A 
ATOM     22  C   UNL     1      -0.598  -1.634   0.205  1.00  0.00     0.040 A 
ATOM     23  F   UNL     1       1.753  -1.536   0.298  1.00  0.00    -0.207 F 
ATOM     24  C   UNL     1      -1.823  -0.993  -0.001  1.00  0.00     0.017 A 
ENDBRANCH  14  17
ENDBRANCH   9  13
ENDBRANCH   5   8
ENDBRANCH   3   4
ENDBRANCH   2   3
ENDBRANCH   1   2
BRANCH   1  25
ATOM     25  C   UNL     1       2.741   7.990  -0.344  1.00  0.00     0.002 C 
BRANCH  25  26
ATOM     26  C   UNL     1       1.900   8.815  -1.314  1.00  0.00     0.021 C 
BRANCH  26  27
ATOM     27  C   UNL     1       1.835  10.294  -1.010  1.00  0.00     0.116 C 
BRANCH  27  28
ATOM     28  N   UNL     1       2.820  11.129  -1.649  1.00  0.00    -0.352 N 
ATOM     29  C   UNL     1       2.892  12.513  -1.698  1.00  0.00     0.251 C 
ATOM     30  H   UNL     1       3.542  10.650  -2.117  1.00  0.00     0.163 HD
ATOM     31  O   UNL     1       3.749  13.019  -2.399  1.00  0.00    -0.269 OA
BRANCH  29  32
ATOM     32  C   UNL     1       2.041  13.388  -0.822  1.00  0.00     0.039 A 
ATOM     33  C   UNL     1       2.400  14.744  -0.718  1.00  0.00     0.014 A 
ATOM     34  C   UNL     1       1.042  12.905   0.020  1.00  0.00     0.014 A 
ATOM     35  C   UNL     1       1.933  15.515   0.348  1.00  0.00     0.010 A 
ATOM     36  C   UNL     1       0.622  13.630   1.104  1.00  0.00     0.010 A 
ATOM     37  C   UNL     1       1.117  14.907   1.297  1.00  0.00    -0.014 A 
BRANCH  37  38
ATOM     38  C   UNL     1       0.731  15.489   2.560  1.00  0.00     0.031 A 
ATOM     39  C   UNL     1      -0.466  16.321   2.622  1.00  0.00     0.074 A 
ATOM     40  C   UNL     1       1.415  15.144   3.669  1.00  0.00     0.049 A 
ATOM     41  N   UNL     1      -0.552  17.397   3.316  1.00  0.00    -0.248 NA
ATOM     42  C   UNL     1      -1.676  15.988   1.879  1.00  0.00     0.031 C 
ATOM     43  C   UNL     1       1.121  15.476   5.054  1.00  0.00     0.029 A 
ATOM     44  N   UNL     1       2.669  14.542   3.712  1.00  0.00    -0.354 N 
ATOM     45  C   UNL     1      -1.886  17.719   3.368  1.00  0.00     0.074 A 
ATOM     46  C   UNL     1      -2.528  16.892   2.369  1.00  0.00     0.031 C 
ATOM     47  C   UNL     1       2.255  15.357   5.769  1.00  0.00     0.029 A 
ATOM     48  C   UNL     1       3.334  15.042   4.844  1.00  0.00     0.049 A 
ATOM     49  H   UNL     1       3.024  13.888   3.069  1.00  0.00     0.167 HD
ATOM     50  C   UNL     1      -2.349  18.495   4.388  1.00  0.00     0.037 A 
ATOM     51  C   UNL     1       4.467  15.783   4.659  1.00  0.00     0.037 A 
ATOM     52  C   UNL     1      -1.279  18.784   5.343  1.00  0.00     0.049 A 
ATOM     53  C   UNL     1       4.266  17.247   4.978  1.00  0.00     0.074 A 
ATOM     54  C   UNL     1      -0.926  18.167   6.534  1.00  0.00     0.029 A 
ATOM     55  N   UNL     1      -0.167  19.526   4.949  1.00  0.00    -0.354 N 
ATOM     56  N   UNL     1       3.097  17.802   5.148  1.00  0.00    -0.248 NA
ATOM     57  C   UNL     1       5.361  18.198   5.143  1.00  0.00     0.031 C 
ATOM     58  C   UNL     1       0.427  18.480   6.814  1.00  0.00     0.029 A 
ATOM     59  C   UNL     1       0.896  19.308   5.810  1.00  0.00     0.049 A 
ATOM     60  H   UNL     1      -0.141  20.123   4.166  1.00  0.00     0.167 HD
ATOM     61  C   UNL     1       3.251  19.137   5.417  1.00  0.00     0.074 A 
ATOM     62  C   UNL     1       4.690  19.328   5.431  1.00  0.00     0.031 C 
ATOM     63  C   UNL     1       2.180  19.968   5.603  1.00  0.00     0.037 A 
BRANCH  50  64
ATOM     64  C   UNL     1      -3.825  18.624   4.664  1.00  0.00     0.057 A 
ATOM     65  C   UNL     1      -4.335  18.628   5.974  1.00  0.00     0.134 A 
ATOM     66  C   UNL     1      -4.800  18.702   3.652  1.00  0.00     0.134 A 
ATOM     67  F   UNL     1      -3.532  18.656   7.044  1.00  0.00    -0.206 F 
ATOM     68  C   UNL     1      -5.707  18.591   6.253  1.00  0.00     0.040 A 
ATOM     69  C   UNL     1      -6.175  18.619   3.914  1.00  0.00     0.040 A 
ATOM     70  F   UNL     1      -4.452  18.872   2.367  1.00  0.00    -0.206 F 
ATOM     71  C   UNL     1      -6.633  18.549   5.222  1.00  0.00     0.006 A 
ENDBRANCH  50  64
BRANCH  51  72
ATOM     72  C   UNL     1       5.315  15.208   3.569  1.00  0.00     0.057 A 
ATOM     73  C   UNL     1       5.859  13.929   3.805  1.00  0.00     0.134 A 
ATOM     74  C   UNL     1       5.149  15.588   2.232  1.00  0.00     0.134 A 
ATOM     75  F   UNL     1       6.071  13.513   5.064  1.00  0.00    -0.206 F 
ATOM     76  C   UNL     1       6.037  12.999   2.777  1.00  0.00     0.040 A 
ATOM     77  C   UNL     1       5.350  14.668   1.193  1.00  0.00     0.040 A 
ATOM     78  F   UNL     1       4.652  16.793   1.922  1.00  0.00    -0.206 F 
ATOM     79  C   UNL     1       5.732  13.355   1.468  1.00  0.00     0.006 A 
ENDBRANCH  51  72
BRANCH  63  80
ATOM     80  C   UNL     1       2.232  21.474   5.711  1.00  0.00     0.057 A 
ATOM     81  C   UNL     1       3.216  22.279   5.121  1.00  0.00     0.134 A 
ATOM     82  C   UNL     1       1.171  22.182   6.324  1.00  0.00     0.134 A 
ATOM     83  F   UNL     1       4.219  21.755   4.405  1.00  0.00    -0.206 F 
ATOM     84  C   UNL     1       3.181  23.679   5.189  1.00  0.00     0.040 A 
ATOM     85  C   UNL     1       1.091  23.576   6.339  1.00  0.00     0.040 A 
ATOM     86  F   UNL     1       0.147  21.550   6.917  1.00  0.00    -0.206 F 
ATOM     87  C   UNL     1       2.110  24.332   5.786  1.00  0.00     0.006 A 
ENDBRANCH  63  80
ENDBRANCH  37  38
ENDBRANCH  29  32
ENDBRANCH  27  28
ENDBRANCH  26  27
ENDBRANCH  25  26
ENDBRANCH   1  25
TORSDOF 15
