REMARK SMILES O=C(NCCCCCCNC(=O)c1c(F)cccc1NS(=O)(=O)C(F)(F)F)c1ccc(-c2c3nc(c(-c4c(F)cccc4F)c4ccc([nH]4)c(-c4c(F)cccc4F)c4nc(c(-c5c(F)cccc5F)c5ccc2[nH]5)C=C4)C=C3)cc1
REMARK SMILES IDX 7 1 6 2 5 3 4 4 3 5 1 6 2 7 28 9 29 10 81 11 30 12 80 13
REMARK SMILES IDX 31 14 32 15 33 16 74 17 34 18 79 19 73 20 75 21 35 22 78 23
REMARK SMILES IDX 72 24 71 25 36 27 62 28 45 29 61 30 46 31 49 32 60 33 76 34
REMARK SMILES IDX 47 35 48 36 59 38 77 39 50 40 37 41 38 42 43 43 39 44 40 45
REMARK SMILES IDX 42 46 44 47 41 48 63 49 64 50 69 51 65 52 66 53 68 54 70 55
REMARK SMILES IDX 67 56 51 57 52 58 57 59 53 60 54 61 56 62 58 63 55 64 8 65
REMARK SMILES IDX 9 66 10 67 11 68 12 70 13 71 14 72 19 73 15 74 16 75 18 76
REMARK SMILES IDX 17 77 20 78 21 80 22 81 23 82 24 83 25 84 26 85 27 86
REMARK H PARENT 3 8 75 26 49 37 10 69 20 79
REMARK Flexibility Score: inf
ROOT
ATOM      1  C   UNL     1       4.877  -2.857   3.145  1.00  0.00     0.002 C 
ENDROOT
BRANCH   1   2
ATOM      2  C   UNL     1       4.343  -1.450   3.430  1.00  0.00     0.002 C 
BRANCH   2   3
ATOM      3  C   UNL     1       4.820  -0.365   2.463  1.00  0.00     0.021 C 
BRANCH   3   4
ATOM      4  C   UNL     1       4.546  -0.657   0.992  1.00  0.00     0.116 C 
BRANCH   4   5
ATOM      5  N   UNL     1       3.124  -0.758   0.708  1.00  0.00    -0.352 N 
ATOM      6  O   UNL     1       1.127  -0.110  -0.114  1.00  0.00    -0.269 OA
ATOM      7  C   UNL     1       2.353  -0.013  -0.143  1.00  0.00     0.251 C 
ATOM      8  H   UNL     1       2.646  -1.465   1.200  1.00  0.00     0.163 HD
BRANCH   7   9
ATOM      9  C   UNL     1       2.991   0.923  -1.089  1.00  0.00     0.039 A 
ATOM     10  C   UNL     1       4.095   0.530  -1.854  1.00  0.00     0.014 A 
ATOM     11  C   UNL     1       2.457   2.206  -1.231  1.00  0.00     0.014 A 
ATOM     12  C   UNL     1       4.732   1.453  -2.678  1.00  0.00     0.010 A 
ATOM     13  C   UNL     1       3.053   3.108  -2.112  1.00  0.00     0.010 A 
ATOM     14  C   UNL     1       4.207   2.745  -2.826  1.00  0.00    -0.014 A 
BRANCH  14  15
ATOM     15  C   UNL     1       4.821   3.702  -3.778  1.00  0.00     0.031 A 
ATOM     16  C   UNL     1       5.444   4.976  -3.290  1.00  0.00     0.074 A 
ATOM     17  C   UNL     1       4.767   3.436  -5.096  1.00  0.00     0.049 A 
ATOM     18  N   UNL     1       5.927   5.975  -3.983  1.00  0.00    -0.248 NA
ATOM     19  C   UNL     1       5.529   5.156  -1.833  1.00  0.00     0.031 C 
ATOM     20  C   UNL     1       4.191   2.226  -5.686  1.00  0.00     0.029 A 
ATOM     21  N   UNL     1       5.186   4.168  -6.178  1.00  0.00    -0.354 N 
ATOM     22  C   UNL     1       6.348   6.914  -3.050  1.00  0.00     0.074 A 
ATOM     23  C   UNL     1       6.046   6.374  -1.742  1.00  0.00     0.031 C 
ATOM     24  C   UNL     1       4.302   2.293  -7.019  1.00  0.00     0.029 A 
ATOM     25  C   UNL     1       4.892   3.578  -7.382  1.00  0.00     0.049 A 
ATOM     26  H   UNL     1       5.652   5.031  -6.098  1.00  0.00     0.167 HD
ATOM     27  C   UNL     1       6.933   8.115  -3.273  1.00  0.00     0.037 A 
ATOM     28  C   UNL     1       5.043   4.031  -8.641  1.00  0.00     0.037 A 
ATOM     29  C   UNL     1       7.234   8.634  -4.583  1.00  0.00     0.049 A 
ATOM     30  C   UNL     1       5.641   5.387  -8.867  1.00  0.00     0.074 A 
ATOM     31  C   UNL     1       7.876   9.815  -4.910  1.00  0.00     0.029 A 
ATOM     32  N   UNL     1       6.900   8.014  -5.779  1.00  0.00    -0.354 N 
ATOM     33  N   UNL     1       6.070   6.252  -7.979  1.00  0.00    -0.248 NA
ATOM     34  C   UNL     1       5.772   5.838 -10.258  1.00  0.00     0.031 C 
ATOM     35  C   UNL     1       7.868   9.943  -6.301  1.00  0.00     0.029 A 
ATOM     36  C   UNL     1       7.287   8.808  -6.845  1.00  0.00     0.049 A 
ATOM     37  H   UNL     1       6.455   7.139  -5.857  1.00  0.00     0.167 HD
ATOM     38  C   UNL     1       6.542   7.338  -8.702  1.00  0.00     0.074 A 
ATOM     39  C   UNL     1       6.347   7.025 -10.103  1.00  0.00     0.031 C 
ATOM     40  C   UNL     1       7.094   8.485  -8.238  1.00  0.00     0.037 A 
BRANCH  27  41
ATOM     41  C   UNL     1       7.258   8.969  -2.081  1.00  0.00     0.057 A 
ATOM     42  C   UNL     1       6.579  10.176  -1.867  1.00  0.00     0.134 A 
ATOM     43  C   UNL     1       8.274   8.633  -1.177  1.00  0.00     0.134 A 
ATOM     44  F   UNL     1       5.602  10.566  -2.700  1.00  0.00    -0.206 F 
ATOM     45  C   UNL     1       6.900  11.018  -0.800  1.00  0.00     0.040 A 
ATOM     46  C   UNL     1       8.584   9.452  -0.089  1.00  0.00     0.040 A 
ATOM     47  F   UNL     1       8.960   7.489  -1.318  1.00  0.00    -0.206 F 
ATOM     48  C   UNL     1       7.901  10.653   0.096  1.00  0.00     0.006 A 
ENDBRANCH  27  41
BRANCH  28  49
ATOM     49  C   UNL     1       4.611   3.165  -9.764  1.00  0.00     0.057 A 
ATOM     50  C   UNL     1       3.255   2.896  -9.997  1.00  0.00     0.134 A 
ATOM     51  C   UNL     1       5.548   2.501 -10.561  1.00  0.00     0.134 A 
ATOM     52  F   UNL     1       2.310   3.491  -9.255  1.00  0.00    -0.206 F 
ATOM     53  C   UNL     1       2.849   1.968 -10.957  1.00  0.00     0.040 A 
ATOM     54  C   UNL     1       5.155   1.588 -11.541  1.00  0.00     0.040 A 
ATOM     55  F   UNL     1       6.859   2.727 -10.391  1.00  0.00    -0.206 F 
ATOM     56  C   UNL     1       3.802   1.309 -11.730  1.00  0.00     0.006 A 
ENDBRANCH  28  49
BRANCH  40  57
ATOM     57  C   UNL     1       7.564   9.499  -9.239  1.00  0.00     0.057 A 
ATOM     58  C   UNL     1       8.935   9.741  -9.409  1.00  0.00     0.134 A 
ATOM     59  C   UNL     1       6.670  10.329  -9.924  1.00  0.00     0.134 A 
ATOM     60  F   UNL     1       9.843   8.986  -8.772  1.00  0.00    -0.206 F 
ATOM     61  C   UNL     1       9.397  10.798 -10.193  1.00  0.00     0.040 A 
ATOM     62  C   UNL     1       7.121  11.374 -10.732  1.00  0.00     0.040 A 
ATOM     63  F   UNL     1       5.346  10.141  -9.812  1.00  0.00    -0.206 F 
ATOM     64  C   UNL     1       8.488  11.621 -10.854  1.00  0.00     0.006 A 
ENDBRANCH  40  57
ENDBRANCH  14  15
ENDBRANCH   7   9
ENDBRANCH   4   5
ENDBRANCH   3   4
ENDBRANCH   2   3
ENDBRANCH   1   2
BRANCH   1  65
ATOM     65  C   UNL     1       6.402  -2.971   3.059  1.00  0.00     0.021 C 
BRANCH  65  66
ATOM     66  C   UNL     1       7.146  -2.521   4.314  1.00  0.00     0.116 C 
BRANCH  66  67
ATOM     67  N   UNL     1       6.872  -3.402   5.436  1.00  0.00    -0.352 N 
ATOM     68  C   UNL     1       7.763  -4.079   6.228  1.00  0.00     0.256 C 
ATOM     69  H   UNL     1       5.922  -3.530   5.657  1.00  0.00     0.163 HD
ATOM     70  O   UNL     1       7.378  -4.984   6.961  1.00  0.00    -0.269 OA
BRANCH  68  71
ATOM     71  C   UNL     1       9.203  -3.797   6.134  1.00  0.00     0.099 A 
ATOM     72  C   UNL     1       9.642  -2.482   6.324  1.00  0.00     0.138 A 
ATOM     73  C   UNL     1      10.118  -4.825   5.832  1.00  0.00     0.065 A 
ATOM     74  F   UNL     1       8.778  -1.504   6.633  1.00  0.00    -0.206 F 
ATOM     75  C   UNL     1      10.974  -2.142   6.135  1.00  0.00     0.040 A 
ATOM     76  C   UNL     1      11.448  -4.454   5.607  1.00  0.00     0.028 A 
ATOM     77  C   UNL     1      11.877  -3.129   5.764  1.00  0.00     0.005 A 
BRANCH  73  78
ATOM     78  N   UNL     1       9.655  -6.154   5.487  1.00  0.00    -0.275 N 
ATOM     79  H   UNL     1       8.942  -6.251   4.815  1.00  0.00     0.180 HD
BRANCH  78  80
ATOM     80  S   UNL     1      10.308  -7.555   6.209  1.00  0.00     0.333 S 
ATOM     81  O   UNL     1      10.175  -7.379   7.643  1.00  0.00    -0.197 OA
ATOM     82  O   UNL     1       9.575  -8.633   5.562  1.00  0.00    -0.197 OA
BRANCH  80  83
ATOM     83  C   UNL     1      12.106  -7.684   5.737  1.00  0.00     0.516 C 
ATOM     84  F   UNL     1      12.337  -7.293   4.450  1.00  0.00    -0.155 F 
ATOM     85  F   UNL     1      12.899  -6.903   6.528  1.00  0.00    -0.155 F 
ATOM     86  F   UNL     1      12.585  -8.955   5.851  1.00  0.00    -0.155 F 
ENDBRANCH  80  83
ENDBRANCH  78  80
ENDBRANCH  73  78
ENDBRANCH  68  71
ENDBRANCH  66  67
ENDBRANCH  65  66
ENDBRANCH   1  65
TORSDOF 16
