REMARK SMILES C[C@@H]1CCC[C@](CCSc2ccccc2)(C(=O)NCCCCCCNC(=O)c2ccc(-c3c4nc(c(-c5c(F)cccc5F)c5ccc([nH]5)c(-c5c(F)cccc5F)c5nc(c(-c6c(F)cccc6F)c6ccc3[nH]6)C=C5)C=C4)cc2)C1
REMARK SMILES IDX 20 1 19 2 18 3 16 4 17 5 6 7 1 8 2 9 3 10 82 11 4 12 5 13
REMARK SMILES IDX 7 14 8 15 9 16 10 17 11 18 15 19 12 20 14 21 13 22 21 23
REMARK SMILES IDX 22 24 23 25 24 26 25 27 26 28 27 30 28 31 29 32 81 33 30 34
REMARK SMILES IDX 80 35 31 36 32 37 33 38 74 39 34 40 79 41 73 42 75 43 35 44
REMARK SMILES IDX 78 45 72 46 71 47 36 49 62 50 45 51 61 52 46 53 49 54 60 55
REMARK SMILES IDX 76 56 47 57 48 58 59 60 77 61 50 62 37 63 38 64 43 65 39 66
REMARK SMILES IDX 40 67 42 68 44 69 41 70 63 71 64 72 69 73 65 74 66 75 68 76
REMARK SMILES IDX 70 77 67 78 51 79 52 80 57 81 53 82 54 83 56 84 58 85 55 86
REMARK H PARENT 18 6 25 29 75 48 49 59
REMARK Flexibility Score: inf
ROOT
ATOM      1  C   UNL     1      -1.274   2.526   2.820  1.00  0.00     0.021 C 
ENDROOT
BRANCH   1   2
ATOM      2  C   UNL     1      -0.720   1.201   2.303  1.00  0.00     0.116 C 
BRANCH   2   3
ATOM      3  N   UNL     1      -1.741   0.192   2.331  1.00  0.00    -0.356 N 
ATOM      4  C   UNL     1      -2.176  -0.716   1.435  1.00  0.00     0.226 C 
ATOM      5  O   UNL     1      -3.265  -1.219   1.745  1.00  0.00    -0.274 OA
ATOM      6  H   UNL     1      -2.226   0.155   3.187  1.00  0.00     0.163 HD
BRANCH   4   7
ATOM      7  C   UNL     1      -1.490  -1.073   0.081  1.00  0.00     0.050 C 
ATOM      8  C   UNL     1       2.049   0.411   0.324  1.00  0.00     0.007 C 
ATOM      9  C   UNL     1       0.883   0.005  -0.597  1.00  0.00    -0.013 C 
ATOM     10  C   UNL     1       0.146   1.207  -1.197  1.00  0.00     0.003 C 
ATOM     11  C   UNL     1       0.050  -1.119   0.044  1.00  0.00     0.020 C 
ATOM     12  C   UNL     1      -1.376   1.234  -1.084  1.00  0.00     0.001 C 
ATOM     13  C   UNL     1      -2.036  -0.134  -1.019  1.00  0.00     0.017 C 
BRANCH   7  14
ATOM     14  C   UNL     1      -2.018  -2.538  -0.250  1.00  0.00     0.028 C 
BRANCH  14  15
ATOM     15  C   UNL     1      -1.369  -3.758   0.450  1.00  0.00     0.076 C 
BRANCH  15  16
ATOM     16  S   UNL     1      -1.635  -4.008   2.245  1.00  0.00    -0.126 SA
BRANCH  16  17
ATOM     17  C   UNL     1      -0.239  -3.186   2.993  1.00  0.00     0.007 A 
ATOM     18  C   UNL     1      -0.481  -2.303   4.052  1.00  0.00     0.015 A 
ATOM     19  C   UNL     1       1.082  -3.403   2.587  1.00  0.00     0.015 A 
ATOM     20  C   UNL     1       0.565  -1.586   4.640  1.00  0.00     0.001 A 
ATOM     21  C   UNL     1       2.130  -2.681   3.171  1.00  0.00     0.001 A 
ATOM     22  C   UNL     1       1.869  -1.763   4.186  1.00  0.00     0.000 A 
ENDBRANCH  16  17
ENDBRANCH  15  16
ENDBRANCH  14  15
ENDBRANCH   7  14
ENDBRANCH   4   7
ENDBRANCH   2   3
ENDBRANCH   1   2
BRANCH   1  23
ATOM     23  C   UNL     1      -1.051   2.730   4.320  1.00  0.00     0.002 C 
BRANCH  23  24
ATOM     24  C   UNL     1       0.420   2.833   4.739  1.00  0.00     0.002 C 
BRANCH  24  25
ATOM     25  C   UNL     1       1.256   3.856   3.963  1.00  0.00     0.021 C 
BRANCH  25  26
ATOM     26  C   UNL     1       0.680   5.270   3.921  1.00  0.00     0.116 C 
BRANCH  26  27
ATOM     27  N   UNL     1       0.417   5.798   5.248  1.00  0.00    -0.352 N 
ATOM     28  C   UNL     1       0.701   7.028   5.771  1.00  0.00     0.251 C 
ATOM     29  H   UNL     1      -0.034   5.177   5.864  1.00  0.00     0.163 HD
ATOM     30  O   UNL     1       0.535   7.231   6.977  1.00  0.00    -0.269 OA
BRANCH  28  31
ATOM     31  C   UNL     1       1.225   8.111   4.915  1.00  0.00     0.039 A 
ATOM     32  C   UNL     1       2.257   8.908   5.416  1.00  0.00     0.014 A 
ATOM     33  C   UNL     1       0.685   8.373   3.651  1.00  0.00     0.014 A 
ATOM     34  C   UNL     1       2.773   9.942   4.636  1.00  0.00     0.010 A 
ATOM     35  C   UNL     1       1.244   9.366   2.848  1.00  0.00     0.010 A 
ATOM     36  C   UNL     1       2.287  10.165   3.337  1.00  0.00    -0.014 A 
BRANCH  36  37
ATOM     37  C   UNL     1       2.875  11.237   2.498  1.00  0.00     0.031 A 
ATOM     38  C   UNL     1       2.067  12.450   2.130  1.00  0.00     0.074 A 
ATOM     39  C   UNL     1       4.144  11.109   2.066  1.00  0.00     0.049 A 
ATOM     40  N   UNL     1       2.427  13.503   1.441  1.00  0.00    -0.248 NA
ATOM     41  C   UNL     1       0.665  12.479   2.579  1.00  0.00     0.031 C 
ATOM     42  C   UNL     1       5.009   9.953   2.314  1.00  0.00     0.029 A 
ATOM     43  N   UNL     1       4.931  11.962   1.335  1.00  0.00    -0.354 N 
ATOM     44  C   UNL     1       1.305  14.319   1.379  1.00  0.00     0.074 A 
ATOM     45  C   UNL     1       0.233  13.615   2.049  1.00  0.00     0.031 C 
ATOM     46  C   UNL     1       6.217  10.185   1.776  1.00  0.00     0.029 A 
ATOM     47  C   UNL     1       6.205  11.491   1.126  1.00  0.00     0.049 A 
ATOM     48  H   UNL     1       4.614  12.829   0.993  1.00  0.00     0.167 HD
ATOM     49  C   UNL     1       1.186  15.555   0.839  1.00  0.00     0.037 A 
ATOM     50  C   UNL     1       7.248  12.056   0.490  1.00  0.00     0.037 A 
ATOM     51  C   UNL     1       2.258  16.259   0.185  1.00  0.00     0.049 A 
ATOM     52  C   UNL     1       7.088  13.432  -0.094  1.00  0.00     0.074 A 
ATOM     53  C   UNL     1       2.247  17.527  -0.370  1.00  0.00     0.029 A 
ATOM     54  N   UNL     1       3.537  15.754   0.002  1.00  0.00    -0.354 N 
ATOM     55  N   UNL     1       6.037  14.216  -0.089  1.00  0.00    -0.248 NA
ATOM     56  C   UNL     1       8.264  14.007  -0.760  1.00  0.00     0.031 C 
ATOM     57  C   UNL     1       3.511  17.778  -0.915  1.00  0.00     0.029 A 
ATOM     58  C   UNL     1       4.320  16.682  -0.665  1.00  0.00     0.049 A 
ATOM     59  H   UNL     1       3.842  14.868   0.303  1.00  0.00     0.167 HD
ATOM     60  C   UNL     1       6.432  15.383  -0.729  1.00  0.00     0.074 A 
ATOM     61  C   UNL     1       7.826  15.214  -1.084  1.00  0.00     0.031 C 
ATOM     62  C   UNL     1       5.706  16.494  -1.005  1.00  0.00     0.037 A 
BRANCH  49  63
ATOM     63  C   UNL     1      -0.146  16.237   0.950  1.00  0.00     0.057 A 
ATOM     64  C   UNL     1      -0.610  16.740   2.173  1.00  0.00     0.134 A 
ATOM     65  C   UNL     1      -0.949  16.442  -0.179  1.00  0.00     0.134 A 
ATOM     66  F   UNL     1       0.106  16.566   3.295  1.00  0.00    -0.206 F 
ATOM     67  C   UNL     1      -1.830  17.410   2.272  1.00  0.00     0.040 A 
ATOM     68  C   UNL     1      -2.160  17.131  -0.097  1.00  0.00     0.040 A 
ATOM     69  F   UNL     1      -0.562  15.989  -1.381  1.00  0.00    -0.206 F 
ATOM     70  C   UNL     1      -2.605  17.614   1.132  1.00  0.00     0.006 A 
ENDBRANCH  49  63
BRANCH  50  71
ATOM     71  C   UNL     1       8.545  11.341   0.393  1.00  0.00     0.057 A 
ATOM     72  C   UNL     1       9.675  11.795   1.084  1.00  0.00     0.134 A 
ATOM     73  C   UNL     1       8.696  10.209  -0.416  1.00  0.00     0.134 A 
ATOM     74  F   UNL     1       9.597  12.885   1.862  1.00  0.00    -0.206 F 
ATOM     75  C   UNL     1      10.915  11.170   0.949  1.00  0.00     0.040 A 
ATOM     76  C   UNL     1       9.924   9.558  -0.539  1.00  0.00     0.040 A 
ATOM     77  F   UNL     1       7.650   9.718  -1.096  1.00  0.00    -0.206 F 
ATOM     78  C   UNL     1      11.041  10.046   0.136  1.00  0.00     0.006 A 
ENDBRANCH  50  71
BRANCH  62  79
ATOM     79  C   UNL     1       6.422  17.613  -1.702  1.00  0.00     0.057 A 
ATOM     80  C   UNL     1       6.796  17.522  -3.049  1.00  0.00     0.134 A 
ATOM     81  C   UNL     1       6.738  18.794  -1.020  1.00  0.00     0.134 A 
ATOM     82  F   UNL     1       6.535  16.410  -3.754  1.00  0.00    -0.206 F 
ATOM     83  C   UNL     1       7.490  18.553  -3.683  1.00  0.00     0.040 A 
ATOM     84  C   UNL     1       7.407  19.842  -1.651  1.00  0.00     0.040 A 
ATOM     85  F   UNL     1       6.400  18.948   0.269  1.00  0.00    -0.206 F 
ATOM     86  C   UNL     1       7.794  19.719  -2.984  1.00  0.00     0.006 A 
ENDBRANCH  62  79
ENDBRANCH  36  37
ENDBRANCH  28  31
ENDBRANCH  26  27
ENDBRANCH  25  26
ENDBRANCH  24  25
ENDBRANCH  23  24
ENDBRANCH   1  23
TORSDOF 17
