REMARK SMILES Cc1ccc(N)cc1S(=O)(=O)Nc1cccc(C(=O)NCCCCCCNC(=O)c2ccc(-c3c4nc(c(-c5c(F)cccc5F)c5ccc([nH]5)c(-c5c(F)cccc5F)c5nc(c(-c6c(F)cccc6F)c6ccc3[nH]6)C=C5)C=C4)cc2)c1
REMARK SMILES IDX 22 1 21 2 20 3 18 4 19 5 17 7 13 8 14 9 84 10 15 11 16 12
REMARK SMILES IDX 12 13 9 15 10 16 11 17 8 18 1 19 2 20 3 21 4 22 7 23 5 24
REMARK SMILES IDX 6 25 23 28 24 29 25 30 26 31 27 32 28 33 29 35 30 36 31 37
REMARK SMILES IDX 83 38 32 39 82 40 33 41 34 42 35 43 76 44 36 45 81 46 75 47
REMARK SMILES IDX 77 48 37 49 80 50 74 51 73 52 38 54 64 55 47 56 63 57 48 58
REMARK SMILES IDX 51 59 62 60 78 61 49 62 50 63 61 65 79 66 52 67 39 68 40 69
REMARK SMILES IDX 45 70 41 71 42 72 44 73 46 74 43 75 65 76 66 77 71 78 67 79
REMARK SMILES IDX 68 80 70 81 72 82 69 83 53 84 54 85 59 86 55 87 56 88 58 89
REMARK SMILES IDX 60 90 57 91
REMARK H PARENT 20 6 12 14 6 26 6 27 27 34 77 53 51 64
REMARK Flexibility Score: inf
ROOT
ATOM      1  C   UNL     1      -1.565  -0.003   4.063  1.00  0.00     0.021 C 
ENDROOT
BRANCH   1   2
ATOM      2  C   UNL     1      -1.663  -0.891   2.822  1.00  0.00     0.116 C 
BRANCH   2   3
ATOM      3  N   UNL     1      -2.819  -1.762   2.933  1.00  0.00    -0.352 N 
ATOM      4  C   UNL     1      -4.107  -1.675   2.473  1.00  0.00     0.251 C 
ATOM      5  O   UNL     1      -4.889  -2.562   2.817  1.00  0.00    -0.269 OA
ATOM      6  H   UNL     1      -2.641  -2.584   3.444  1.00  0.00     0.163 HD
BRANCH   4   7
ATOM      7  C   UNL     1      -4.574  -0.642   1.504  1.00  0.00     0.041 A 
ATOM      8  C   UNL     1      -4.241   1.328   0.148  1.00  0.00     0.050 A 
ATOM      9  C   UNL     1      -5.348   0.987  -0.636  1.00  0.00     0.027 A 
ATOM     10  C   UNL     1      -3.954   0.592   1.296  1.00  0.00     0.040 A 
ATOM     11  C   UNL     1      -6.070  -0.169  -0.359  1.00  0.00     0.003 A 
ATOM     12  C   UNL     1      -5.656  -1.001   0.680  1.00  0.00     0.014 A 
BRANCH   8  13
ATOM     13  N   UNL     1      -3.377   2.325  -0.376  1.00  0.00    -0.280 N 
ATOM     14  H   UNL     1      -3.769   2.941  -1.037  1.00  0.00     0.180 HD
BRANCH  13  15
ATOM     15  S   UNL     1      -1.773   2.570   0.005  1.00  0.00     0.262 S 
ATOM     16  O   UNL     1      -1.688   2.780   1.440  1.00  0.00    -0.201 OA
ATOM     17  O   UNL     1      -1.325   3.593  -0.913  1.00  0.00    -0.201 OA
BRANCH  15  18
ATOM     18  C   UNL     1      -0.756   1.133  -0.342  1.00  0.00     0.092 A 
ATOM     19  C   UNL     1      -2.394  -0.349  -1.705  1.00  0.00     0.046 C 
ATOM     20  C   UNL     1      -1.127  -0.069  -0.963  1.00  0.00    -0.030 A 
ATOM     21  C   UNL     1      -0.223  -1.151  -0.891  1.00  0.00     0.007 A 
ATOM     22  C   UNL     1       1.059  -1.005  -0.360  1.00  0.00     0.026 A 
ATOM     23  C   UNL     1       0.564   1.271   0.150  1.00  0.00     0.048 A 
ATOM     24  C   UNL     1       1.495   0.235   0.082  1.00  0.00     0.033 A 
BRANCH  24  25
ATOM     25  N   UNL     1       2.774   0.393   0.593  1.00  0.00    -0.399 N 
ATOM     26  H   UNL     1       3.421  -0.347   0.538  1.00  0.00     0.156 HD
ATOM     27  H   UNL     1       3.035   1.245   1.011  1.00  0.00     0.156 HD
ENDBRANCH  24  25
ENDBRANCH  15  18
ENDBRANCH  13  15
ENDBRANCH   8  13
ENDBRANCH   4   7
ENDBRANCH   2   3
ENDBRANCH   1   2
BRANCH   1  28
ATOM     28  C   UNL     1      -0.829  -0.699   5.213  1.00  0.00     0.002 C 
BRANCH  28  29
ATOM     29  C   UNL     1       0.665  -0.932   4.954  1.00  0.00     0.002 C 
BRANCH  29  30
ATOM     30  C   UNL     1       1.468   0.330   4.628  1.00  0.00     0.021 C 
BRANCH  30  31
ATOM     31  C   UNL     1       1.401   1.410   5.701  1.00  0.00     0.116 C 
BRANCH  31  32
ATOM     32  N   UNL     1       1.968   0.955   6.962  1.00  0.00    -0.352 N 
ATOM     33  C   UNL     1       2.911   1.559   7.753  1.00  0.00     0.251 C 
ATOM     34  H   UNL     1       1.626   0.093   7.294  1.00  0.00     0.163 HD
ATOM     35  O   UNL     1       3.430   0.950   8.682  1.00  0.00    -0.269 OA
BRANCH  33  36
ATOM     36  C   UNL     1       3.310   2.952   7.469  1.00  0.00     0.039 A 
ATOM     37  C   UNL     1       4.668   3.280   7.454  1.00  0.00     0.014 A 
ATOM     38  C   UNL     1       2.341   3.930   7.229  1.00  0.00     0.014 A 
ATOM     39  C   UNL     1       5.058   4.585   7.151  1.00  0.00     0.010 A 
ATOM     40  C   UNL     1       2.732   5.212   6.864  1.00  0.00     0.010 A 
ATOM     41  C   UNL     1       4.093   5.554   6.832  1.00  0.00    -0.014 A 
BRANCH  41  42
ATOM     42  C   UNL     1       4.474   6.946   6.491  1.00  0.00     0.031 A 
ATOM     43  C   UNL     1       4.067   8.070   7.400  1.00  0.00     0.074 A 
ATOM     44  C   UNL     1       5.108   7.204   5.333  1.00  0.00     0.049 A 
ATOM     45  N   UNL     1       4.188   9.361   7.226  1.00  0.00    -0.248 NA
ATOM     46  C   UNL     1       3.410   7.691   8.661  1.00  0.00     0.031 C 
ATOM     47  C   UNL     1       5.528   6.200   4.354  1.00  0.00     0.029 A 
ATOM     48  N   UNL     1       5.494   8.396   4.775  1.00  0.00    -0.354 N 
ATOM     49  C   UNL     1       3.599   9.947   8.340  1.00  0.00     0.074 A 
ATOM     50  C   UNL     1       3.083   8.873   9.161  1.00  0.00     0.031 C 
ATOM     51  C   UNL     1       6.125   6.817   3.322  1.00  0.00     0.029 A 
ATOM     52  C   UNL     1       6.095   8.259   3.548  1.00  0.00     0.049 A 
ATOM     53  H   UNL     1       5.353   9.267   5.213  1.00  0.00     0.167 HD
ATOM     54  C   UNL     1       3.512  11.260   8.658  1.00  0.00     0.037 A 
ATOM     55  C   UNL     1       6.558   9.194   2.697  1.00  0.00     0.037 A 
ATOM     56  C   UNL     1       4.051  12.323   7.852  1.00  0.00     0.049 A 
ATOM     57  C   UNL     1       6.446  10.647   3.069  1.00  0.00     0.074 A 
ATOM     58  C   UNL     1       4.063  13.682   8.110  1.00  0.00     0.029 A 
ATOM     59  N   UNL     1       4.675  12.142   6.627  1.00  0.00    -0.354 N 
ATOM     60  N   UNL     1       5.930  11.187   4.146  1.00  0.00    -0.248 NA
ATOM     61  C   UNL     1       6.982  11.619   2.107  1.00  0.00     0.031 C 
ATOM     62  C   UNL     1       4.664  14.327   7.024  1.00  0.00     0.029 A 
ATOM     63  C   UNL     1       5.065  13.366   6.109  1.00  0.00     0.049 A 
ATOM     64  H   UNL     1       4.821  11.272   6.189  1.00  0.00     0.167 HD
ATOM     65  C   UNL     1       6.109  12.557   4.009  1.00  0.00     0.074 A 
ATOM     66  C   UNL     1       6.784  12.765   2.744  1.00  0.00     0.031 C 
ATOM     67  C   UNL     1       5.750  13.552   4.856  1.00  0.00     0.037 A 
BRANCH  54  68
ATOM     68  C   UNL     1       2.803  11.611   9.933  1.00  0.00     0.057 A 
ATOM     69  C   UNL     1       3.353  11.321  11.189  1.00  0.00     0.134 A 
ATOM     70  C   UNL     1       1.558  12.251   9.906  1.00  0.00     0.134 A 
ATOM     71  F   UNL     1       4.537  10.696  11.285  1.00  0.00    -0.206 F 
ATOM     72  C   UNL     1       2.675  11.623  12.371  1.00  0.00     0.040 A 
ATOM     73  C   UNL     1       0.883  12.584  11.082  1.00  0.00     0.040 A 
ATOM     74  F   UNL     1       0.977  12.564   8.738  1.00  0.00    -0.206 F 
ATOM     75  C   UNL     1       1.437  12.261  12.319  1.00  0.00     0.006 A 
ENDBRANCH  54  68
BRANCH  55  76
ATOM     76  C   UNL     1       7.197   8.782   1.424  1.00  0.00     0.057 A 
ATOM     77  C   UNL     1       8.581   8.900   1.247  1.00  0.00     0.134 A 
ATOM     78  C   UNL     1       6.452   8.254   0.364  1.00  0.00     0.134 A 
ATOM     79  F   UNL     1       9.344   9.415   2.222  1.00  0.00    -0.206 F 
ATOM     80  C   UNL     1       9.200   8.520   0.056  1.00  0.00     0.040 A 
ATOM     81  C   UNL     1       7.061   7.850  -0.825  1.00  0.00     0.040 A 
ATOM     82  F   UNL     1       5.124   8.108   0.476  1.00  0.00    -0.206 F 
ATOM     83  C   UNL     1       8.439   7.987  -0.983  1.00  0.00     0.006 A 
ENDBRANCH  55  76
BRANCH  67  84
ATOM     84  C   UNL     1       6.122  14.952   4.468  1.00  0.00     0.057 A 
ATOM     85  C   UNL     1       5.443  15.647   3.460  1.00  0.00     0.134 A 
ATOM     86  C   UNL     1       7.143  15.628   5.149  1.00  0.00     0.134 A 
ATOM     87  F   UNL     1       4.466  15.049   2.762  1.00  0.00    -0.206 F 
ATOM     88  C   UNL     1       5.777  16.962   3.132  1.00  0.00     0.040 A 
ATOM     89  C   UNL     1       7.469  16.950   4.846  1.00  0.00     0.040 A 
ATOM     90  F   UNL     1       7.826  15.020   6.130  1.00  0.00    -0.206 F 
ATOM     91  C   UNL     1       6.788  17.619   3.832  1.00  0.00     0.006 A 
ENDBRANCH  67  84
ENDBRANCH  41  42
ENDBRANCH  33  36
ENDBRANCH  31  32
ENDBRANCH  30  31
ENDBRANCH  29  30
ENDBRANCH  28  29
ENDBRANCH   1  28
TORSDOF 17
