REMARK SMILES C[C@H](NC(=O)CCn1ccccc1=O)C(=O)NCCCCCCNC(=O)c1ccc(-c2c3nc(c(-c4c(F)cccc4F)c4ccc([nH]4)c(-c4c(F)cccc4F)c4nc(c(-c5c(F)cccc5F)c5ccc2[nH]5)C=C4)C=C3)cc1
REMARK SMILES IDX 19 1 18 2 17 3 15 4 16 5 2 7 1 8 3 9 4 10 5 12 6 13 7 14
REMARK SMILES IDX 8 15 9 16 13 17 10 18 12 19 14 20 11 21 20 22 21 23 22 24
REMARK SMILES IDX 23 25 24 26 25 27 26 29 27 30 28 31 80 32 29 33 79 34 30 35
REMARK SMILES IDX 31 36 32 37 73 38 33 39 78 40 72 41 74 42 34 43 77 44 71 45
REMARK SMILES IDX 70 46 35 48 61 49 44 50 60 51 45 52 48 53 59 54 75 55 46 56
REMARK SMILES IDX 47 57 58 59 76 60 49 61 36 62 37 63 42 64 38 65 39 66 41 67
REMARK SMILES IDX 43 68 40 69 62 70 63 71 68 72 64 73 65 74 67 75 69 76 66 77
REMARK SMILES IDX 50 78 51 79 56 80 52 81 53 82 55 83 57 84 54 85
REMARK H PARENT 17 6 3 11 24 28 74 47 48 58
REMARK Flexibility Score: inf
ROOT
ATOM      1  C   UNL     1      -2.431  -1.149   2.470  1.00  0.00     0.021 C 
ENDROOT
BRANCH   1   2
ATOM      2  C   UNL     1      -1.829  -0.809   1.112  1.00  0.00     0.116 C 
BRANCH   2   3
ATOM      3  N   UNL     1      -1.260   0.520   1.004  1.00  0.00    -0.354 N 
ATOM      4  C   UNL     1      -0.615   0.887  -0.161  1.00  0.00     0.242 C 
ATOM      5  O   UNL     1      -1.117   1.785  -0.842  1.00  0.00    -0.273 OA
ATOM      6  H   UNL     1      -1.332   1.155   1.754  1.00  0.00     0.163 HD
BRANCH   4   7
ATOM      7  C   UNL     1       0.833   0.376  -0.416  1.00  0.00     0.168 C 
ATOM      8  C   UNL     1       1.185   0.339  -1.897  1.00  0.00     0.041 C 
BRANCH   7   9
ATOM      9  N   UNL     1       1.273  -0.742   0.426  1.00  0.00    -0.345 N 
ATOM     10  C   UNL     1       1.450  -2.075   0.284  1.00  0.00     0.222 C 
ATOM     11  H   UNL     1       1.498  -0.442   1.336  1.00  0.00     0.164 HD
ATOM     12  O   UNL     1       1.510  -2.739   1.325  1.00  0.00    -0.275 OA
BRANCH  10  13
ATOM     13  C   UNL     1       1.628  -2.767  -1.044  1.00  0.00     0.122 C 
BRANCH  13  14
ATOM     14  C   UNL     1       0.374  -3.527  -1.480  1.00  0.00     0.135 C 
BRANCH  14  15
ATOM     15  N   UNL     1      -0.247  -2.973  -2.689  1.00  0.00    -0.315 N 
ATOM     16  C   UNL     1       0.259  -3.303  -3.936  1.00  0.00     0.089 A 
ATOM     17  C   UNL     1      -1.343  -2.126  -2.553  1.00  0.00     0.250 A 
ATOM     18  C   UNL     1      -0.259  -2.776  -5.054  1.00  0.00     0.018 A 
ATOM     19  C   UNL     1      -1.855  -1.486  -3.790  1.00  0.00     0.072 A 
ATOM     20  O   UNL     1      -1.879  -1.861  -1.489  1.00  0.00    -0.269 OA
ATOM     21  C   UNL     1      -1.327  -1.812  -4.974  1.00  0.00     0.007 A 
ENDBRANCH  14  15
ENDBRANCH  13  14
ENDBRANCH  10  13
ENDBRANCH   7   9
ENDBRANCH   4   7
ENDBRANCH   2   3
ENDBRANCH   1   2
BRANCH   1  22
ATOM     22  C   UNL     1      -3.765  -1.901   2.325  1.00  0.00     0.002 C 
BRANCH  22  23
ATOM     23  C   UNL     1      -3.763  -3.144   1.424  1.00  0.00     0.002 C 
BRANCH  23  24
ATOM     24  C   UNL     1      -2.853  -4.292   1.852  1.00  0.00     0.021 C 
BRANCH  24  25
ATOM     25  C   UNL     1      -3.000  -4.743   3.299  1.00  0.00     0.116 C 
BRANCH  25  26
ATOM     26  N   UNL     1      -4.369  -5.050   3.689  1.00  0.00    -0.352 N 
ATOM     27  C   UNL     1      -4.843  -6.010   4.551  1.00  0.00     0.251 C 
ATOM     28  H   UNL     1      -5.059  -4.485   3.273  1.00  0.00     0.163 HD
ATOM     29  O   UNL     1      -6.051  -6.137   4.725  1.00  0.00    -0.269 OA
BRANCH  27  30
ATOM     30  C   UNL     1      -3.902  -6.931   5.230  1.00  0.00     0.039 A 
ATOM     31  C   UNL     1      -2.700  -6.475   5.770  1.00  0.00     0.014 A 
ATOM     32  C   UNL     1      -4.228  -8.290   5.302  1.00  0.00     0.014 A 
ATOM     33  C   UNL     1      -1.751  -7.390   6.213  1.00  0.00     0.010 A 
ATOM     34  C   UNL     1      -3.310  -9.200   5.833  1.00  0.00     0.010 A 
ATOM     35  C   UNL     1      -2.041  -8.763   6.244  1.00  0.00    -0.014 A 
BRANCH  35  36
ATOM     36  C   UNL     1      -0.999  -9.718   6.702  1.00  0.00     0.031 A 
ATOM     37  C   UNL     1      -0.417 -10.735   5.756  1.00  0.00     0.074 A 
ATOM     38  C   UNL     1      -0.533  -9.627   7.962  1.00  0.00     0.049 A 
ATOM     39  N   UNL     1       0.516 -11.629   5.976  1.00  0.00    -0.248 NA
ATOM     40  C   UNL     1      -0.954 -10.757   4.387  1.00  0.00     0.031 C 
ATOM     41  C   UNL     1      -1.012  -8.679   8.971  1.00  0.00     0.029 A 
ATOM     42  N   UNL     1       0.461 -10.320   8.602  1.00  0.00    -0.354 N 
ATOM     43  C   UNL     1       0.667 -12.324   4.783  1.00  0.00     0.074 A 
ATOM     44  C   UNL     1      -0.294 -11.775   3.851  1.00  0.00     0.031 C 
ATOM     45  C   UNL     1      -0.277  -8.816  10.085  1.00  0.00     0.029 A 
ATOM     46  C   UNL     1       0.680  -9.899   9.891  1.00  0.00     0.049 A 
ATOM     47  H   UNL     1       0.968 -11.050   8.179  1.00  0.00     0.167 HD
ATOM     48  C   UNL     1       1.537 -13.320   4.485  1.00  0.00     0.037 A 
ATOM     49  C   UNL     1       1.546 -10.344  10.819  1.00  0.00     0.037 A 
ATOM     50  C   UNL     1       2.503 -13.859   5.409  1.00  0.00     0.049 A 
ATOM     51  C   UNL     1       2.464 -11.481  10.477  1.00  0.00     0.074 A 
ATOM     52  C   UNL     1       3.439 -14.857   5.198  1.00  0.00     0.029 A 
ATOM     53  N   UNL     1       2.655 -13.443   6.724  1.00  0.00    -0.354 N 
ATOM     54  N   UNL     1       2.603 -12.120   9.341  1.00  0.00    -0.248 NA
ATOM     55  C   UNL     1       3.339 -11.965  11.553  1.00  0.00     0.031 C 
ATOM     56  C   UNL     1       4.131 -15.071   6.396  1.00  0.00     0.029 A 
ATOM     57  C   UNL     1       3.655 -14.178   7.341  1.00  0.00     0.049 A 
ATOM     58  H   UNL     1       2.131 -12.730   7.154  1.00  0.00     0.167 HD
ATOM     59  C   UNL     1       3.587 -13.074   9.561  1.00  0.00     0.074 A 
ATOM     60  C   UNL     1       4.030 -12.909  10.931  1.00  0.00     0.031 C 
ATOM     61  C   UNL     1       4.076 -14.008   8.709  1.00  0.00     0.037 A 
BRANCH  48  62
ATOM     62  C   UNL     1       1.472 -13.904   3.103  1.00  0.00     0.057 A 
ATOM     63  C   UNL     1       0.978 -15.198   2.895  1.00  0.00     0.134 A 
ATOM     64  C   UNL     1       1.919 -13.197   1.979  1.00  0.00     0.134 A 
ATOM     65  F   UNL     1       0.540 -15.934   3.928  1.00  0.00    -0.206 F 
ATOM     66  C   UNL     1       0.930 -15.767   1.621  1.00  0.00     0.040 A 
ATOM     67  C   UNL     1       1.853 -13.745   0.696  1.00  0.00     0.040 A 
ATOM     68  F   UNL     1       2.391 -11.947   2.105  1.00  0.00    -0.206 F 
ATOM     69  C   UNL     1       1.362 -15.037   0.515  1.00  0.00     0.006 A 
ENDBRANCH  48  62
BRANCH  49  70
ATOM     70  C   UNL     1       1.576  -9.722  12.165  1.00  0.00     0.057 A 
ATOM     71  C   UNL     1       0.514  -9.880  13.064  1.00  0.00     0.134 A 
ATOM     72  C   UNL     1       2.674  -8.966  12.590  1.00  0.00     0.134 A 
ATOM     73  F   UNL     1      -0.568 -10.591  12.715  1.00  0.00    -0.206 F 
ATOM     74  C   UNL     1       0.537  -9.300  14.332  1.00  0.00     0.040 A 
ATOM     75  C   UNL     1       2.723  -8.402  13.866  1.00  0.00     0.040 A 
ATOM     76  F   UNL     1       3.731  -8.797  11.781  1.00  0.00    -0.206 F 
ATOM     77  C   UNL     1       1.649  -8.565  14.739  1.00  0.00     0.006 A 
ENDBRANCH  49  70
BRANCH  61  78
ATOM     78  C   UNL     1       5.154 -14.905   9.240  1.00  0.00     0.057 A 
ATOM     79  C   UNL     1       6.481 -14.757   8.819  1.00  0.00     0.134 A 
ATOM     80  C   UNL     1       4.878 -15.912  10.174  1.00  0.00     0.134 A 
ATOM     81  F   UNL     1       6.811 -13.815   7.923  1.00  0.00    -0.206 F 
ATOM     82  C   UNL     1       7.497 -15.575   9.313  1.00  0.00     0.040 A 
ATOM     83  C   UNL     1       5.891 -16.720  10.695  1.00  0.00     0.040 A 
ATOM     84  F   UNL     1       3.630 -16.093  10.631  1.00  0.00    -0.206 F 
ATOM     85  C   UNL     1       7.204 -16.554  10.261  1.00  0.00     0.006 A 
ENDBRANCH  61  78
ENDBRANCH  35  36
ENDBRANCH  27  30
ENDBRANCH  25  26
ENDBRANCH  24  25
ENDBRANCH  23  24
ENDBRANCH  22  23
ENDBRANCH   1  22
TORSDOF 17
