REMARK SMILES COCc1cccc(O[C@@H](F)C(=O)NCCCCCCNC(=O)c2ccc(-c3c4nc(c(-c5c(F)cccc5F)c5ccc([nH]5)c(-c5c(F)cccc5F)c5nc(c(-c6c(F)cccc6F)c6ccc3[nH]6)C=C5)C=C4)cc2)c1
REMARK SMILES IDX 16 1 15 2 14 3 12 4 13 5 10 7 11 8 9 9 8 10 4 11 5 12 78 13
REMARK SMILES IDX 6 14 7 15 3 16 2 17 1 18 17 19 18 20 19 21 20 22 21 23 22 24
REMARK SMILES IDX 23 26 24 27 25 28 77 29 26 30 76 31 27 32 28 33 29 34 70 35
REMARK SMILES IDX 30 36 75 37 69 38 71 39 31 40 74 41 68 42 67 43 32 45 58 46
REMARK SMILES IDX 41 47 57 48 42 49 45 50 56 51 72 52 43 53 44 54 55 56 73 57
REMARK SMILES IDX 46 58 33 59 34 60 39 61 35 62 36 63 38 64 40 65 37 66 59 67
REMARK SMILES IDX 60 68 65 69 61 70 62 71 64 72 66 73 63 74 47 75 48 76 53 77
REMARK SMILES IDX 49 78 50 79 52 80 54 81 51 82
REMARK H PARENT 14 6 21 25 71 44 45 55
REMARK Flexibility Score: inf
ROOT
ATOM      1  C   UNL     1       2.799  -0.013   2.691  1.00  0.00     0.021 C 
ENDROOT
BRANCH   1   2
ATOM      2  C   UNL     1       2.863  -0.844   1.405  1.00  0.00     0.116 C 
BRANCH   2   3
ATOM      3  N   UNL     1       3.611  -2.070   1.613  1.00  0.00    -0.350 N 
ATOM      4  C   UNL     1       3.183  -3.370   1.642  1.00  0.00     0.294 C 
ATOM      5  O   UNL     1       4.024  -4.223   1.954  1.00  0.00    -0.267 OA
ATOM      6  H   UNL     1       4.577  -1.947   1.756  1.00  0.00     0.163 HD
BRANCH   4   7
ATOM      7  C   UNL     1       1.726  -3.783   1.291  1.00  0.00     0.440 C 
ATOM      8  F   UNL     1       1.209  -3.074   0.243  1.00  0.00    -0.191 F 
BRANCH   7   9
ATOM      9  O   UNL     1       0.782  -3.889   2.360  1.00  0.00    -0.452 OA
BRANCH   9  10
ATOM     10  C   UNL     1       0.196  -2.738   2.794  1.00  0.00     0.124 A 
ATOM     11  C   UNL     1      -0.930  -0.615   2.420  1.00  0.00    -0.019 A 
ATOM     12  C   UNL     1      -0.893  -0.378   3.804  1.00  0.00     0.006 A 
ATOM     13  C   UNL     1      -0.452  -1.842   1.946  1.00  0.00     0.052 A 
ATOM     14  C   UNL     1      -0.361  -1.331   4.675  1.00  0.00     0.004 A 
ATOM     15  C   UNL     1       0.197  -2.505   4.167  1.00  0.00     0.046 A 
BRANCH  11  16
ATOM     16  C   UNL     1      -1.411   0.480   1.492  1.00  0.00     0.195 C 
BRANCH  16  17
ATOM     17  O   UNL     1      -1.552   0.104   0.122  1.00  0.00    -0.380 OA
ATOM     18  C   UNL     1      -0.374   0.267  -0.659  1.00  0.00     0.195 C 
ENDBRANCH  16  17
ENDBRANCH  11  16
ENDBRANCH   9  10
ENDBRANCH   7   9
ENDBRANCH   4   7
ENDBRANCH   2   3
ENDBRANCH   1   2
BRANCH   1  19
ATOM     19  C   UNL     1       3.795   1.152   2.730  1.00  0.00     0.002 C 
BRANCH  19  20
ATOM     20  C   UNL     1       3.425   2.357   1.853  1.00  0.00     0.002 C 
BRANCH  20  21
ATOM     21  C   UNL     1       2.066   3.013   2.130  1.00  0.00     0.021 C 
BRANCH  21  22
ATOM     22  C   UNL     1       1.798   3.433   3.576  1.00  0.00     0.116 C 
BRANCH  22  23
ATOM     23  N   UNL     1       2.668   4.513   4.005  1.00  0.00    -0.352 N 
ATOM     24  C   UNL     1       2.365   5.778   4.443  1.00  0.00     0.251 C 
ATOM     25  H   UNL     1       3.630   4.304   3.977  1.00  0.00     0.163 HD
ATOM     26  O   UNL     1       3.266   6.603   4.573  1.00  0.00    -0.269 OA
BRANCH  24  27
ATOM     27  C   UNL     1       0.972   6.176   4.759  1.00  0.00     0.039 A 
ATOM     28  C   UNL     1       0.538   7.450   4.372  1.00  0.00     0.014 A 
ATOM     29  C   UNL     1       0.121   5.355   5.505  1.00  0.00     0.014 A 
ATOM     30  C   UNL     1      -0.751   7.885   4.699  1.00  0.00     0.010 A 
ATOM     31  C   UNL     1      -1.182   5.772   5.791  1.00  0.00     0.010 A 
ATOM     32  C   UNL     1      -1.628   7.045   5.401  1.00  0.00    -0.014 A 
BRANCH  32  33
ATOM     33  C   UNL     1      -3.000   7.497   5.756  1.00  0.00     0.031 A 
ATOM     34  C   UNL     1      -3.373   7.742   7.193  1.00  0.00     0.074 A 
ATOM     35  C   UNL     1      -3.929   7.649   4.793  1.00  0.00     0.049 A 
ATOM     36  N   UNL     1      -4.533   8.079   7.702  1.00  0.00    -0.248 NA
ATOM     37  C   UNL     1      -2.308   7.567   8.191  1.00  0.00     0.031 C 
ATOM     38  C   UNL     1      -3.713   7.417   3.364  1.00  0.00     0.029 A 
ATOM     39  N   UNL     1      -5.248   8.025   4.874  1.00  0.00    -0.354 N 
ATOM     40  C   UNL     1      -4.341   8.137   9.077  1.00  0.00     0.074 A 
ATOM     41  C   UNL     1      -2.964   7.767   9.325  1.00  0.00     0.031 C 
ATOM     42  C   UNL     1      -4.855   7.668   2.702  1.00  0.00     0.029 A 
ATOM     43  C   UNL     1      -5.889   8.051   3.659  1.00  0.00     0.049 A 
ATOM     44  H   UNL     1      -5.691   8.255   5.722  1.00  0.00     0.167 HD
ATOM     45  C   UNL     1      -5.225   8.483  10.044  1.00  0.00     0.037 A 
ATOM     46  C   UNL     1      -7.166   8.345   3.351  1.00  0.00     0.037 A 
ATOM     47  C   UNL     1      -6.586   8.887   9.802  1.00  0.00     0.049 A 
ATOM     48  C   UNL     1      -8.126   8.734   4.440  1.00  0.00     0.074 A 
ATOM     49  C   UNL     1      -7.535   9.312  10.716  1.00  0.00     0.029 A 
ATOM     50  N   UNL     1      -7.190   8.918   8.555  1.00  0.00    -0.354 N 
ATOM     51  N   UNL     1      -7.915   8.832   5.730  1.00  0.00    -0.248 NA
ATOM     52  C   UNL     1      -9.500   9.059   4.029  1.00  0.00     0.031 C 
ATOM     53  C   UNL     1      -8.724   9.573  10.025  1.00  0.00     0.029 A 
ATOM     54  C   UNL     1      -8.504   9.341   8.677  1.00  0.00     0.049 A 
ATOM     55  H   UNL     1      -6.751   8.675   7.708  1.00  0.00     0.167 HD
ATOM     56  C   UNL     1      -9.120   9.251   6.280  1.00  0.00     0.074 A 
ATOM     57  C   UNL     1     -10.055   9.398   5.185  1.00  0.00     0.031 C 
ATOM     58  C   UNL     1      -9.422   9.490   7.579  1.00  0.00     0.037 A 
BRANCH  45  59
ATOM     59  C   UNL     1      -4.744   8.444  11.464  1.00  0.00     0.057 A 
ATOM     60  C   UNL     1      -3.867   9.411  11.971  1.00  0.00     0.134 A 
ATOM     61  C   UNL     1      -5.190   7.449  12.342  1.00  0.00     0.134 A 
ATOM     62  F   UNL     1      -3.395  10.383  11.177  1.00  0.00    -0.206 F 
ATOM     63  C   UNL     1      -3.433   9.377  13.297  1.00  0.00     0.040 A 
ATOM     64  C   UNL     1      -4.780   7.417  13.676  1.00  0.00     0.040 A 
ATOM     65  F   UNL     1      -6.036   6.497  11.921  1.00  0.00    -0.206 F 
ATOM     66  C   UNL     1      -3.894   8.380  14.155  1.00  0.00     0.006 A 
ENDBRANCH  45  59
BRANCH  46  67
ATOM     67  C   UNL     1      -7.612   8.304   1.937  1.00  0.00     0.057 A 
ATOM     68  C   UNL     1      -7.867   9.483   1.229  1.00  0.00     0.134 A 
ATOM     69  C   UNL     1      -7.800   7.091   1.265  1.00  0.00     0.134 A 
ATOM     70  F   UNL     1      -7.726  10.674   1.829  1.00  0.00    -0.206 F 
ATOM     71  C   UNL     1      -8.306   9.459  -0.096  1.00  0.00     0.040 A 
ATOM     72  C   UNL     1      -8.219   7.052  -0.065  1.00  0.00     0.040 A 
ATOM     73  F   UNL     1      -7.568   5.928   1.891  1.00  0.00    -0.206 F 
ATOM     74  C   UNL     1      -8.478   8.239  -0.748  1.00  0.00     0.006 A 
ENDBRANCH  46  67
BRANCH  58  75
ATOM     75  C   UNL     1     -10.812   9.963   7.883  1.00  0.00     0.057 A 
ATOM     76  C   UNL     1     -11.907   9.091   7.863  1.00  0.00     0.134 A 
ATOM     77  C   UNL     1     -11.051  11.298   8.233  1.00  0.00     0.134 A 
ATOM     78  F   UNL     1     -11.745   7.804   7.522  1.00  0.00    -0.206 F 
ATOM     79  C   UNL     1     -13.196   9.535   8.164  1.00  0.00     0.040 A 
ATOM     80  C   UNL     1     -12.332  11.749   8.555  1.00  0.00     0.040 A 
ATOM     81  F   UNL     1     -10.043  12.182   8.276  1.00  0.00    -0.206 F 
ATOM     82  C   UNL     1     -13.410  10.866   8.516  1.00  0.00     0.006 A 
ENDBRANCH  58  75
ENDBRANCH  32  33
ENDBRANCH  24  27
ENDBRANCH  22  23
ENDBRANCH  21  22
ENDBRANCH  20  21
ENDBRANCH  19  20
ENDBRANCH   1  19
TORSDOF 17
