REMARK SMILES CN(C(=O)N(CC(=O)NCCCCCCNC(=O)c1ccc(-c2c3nc(c(-c4c(F)cccc4F)c4ccc([nH]4)c(-c4c(F)cccc4F)c4nc(c(-c5c(F)cccc5F)c5ccc2[nH]5)C=C4)C=C3)cc1)C(C)(C)C)C1CCCCCC1
REMARK SMILES IDX 10 1 9 2 7 3 8 4 6 6 5 7 3 8 4 9 2 10 1 11 77 12 78 13 79 14
REMARK SMILES IDX 80 15 83 17 82 18 81 19 73 21 74 22 75 23 76 24 11 25 12 26
REMARK SMILES IDX 13 27 14 28 15 29 16 30 17 31 18 33 19 34 20 35 72 36 21 37
REMARK SMILES IDX 71 38 22 39 23 40 24 41 65 42 25 43 70 44 64 45 66 46 26 47
REMARK SMILES IDX 69 48 63 49 62 50 27 52 53 53 36 54 52 55 37 56 40 57 51 58
REMARK SMILES IDX 67 59 38 60 39 61 50 63 68 64 41 65 28 66 29 67 34 68 30 69
REMARK SMILES IDX 31 70 33 71 35 72 32 73 54 74 55 75 60 76 56 77 57 78 59 79
REMARK SMILES IDX 61 80 58 81 42 82 43 83 48 84 44 85 45 86 47 87 49 88 46 89
REMARK H PARENT 9 5 16 32 66 51 40 62
REMARK Flexibility Score: 90.00
ROOT
ATOM      1  C   UNL     1      -2.331   0.431  -0.287  1.00  0.00     0.116 C 
ENDROOT
BRANCH   1   2
ATOM      2  N   UNL     1      -2.248   1.760   0.282  1.00  0.00    -0.355 N 
ATOM      3  C   UNL     1      -1.340   2.325   1.124  1.00  0.00     0.239 C 
ATOM      4  O   UNL     1      -1.360   3.561   1.195  1.00  0.00    -0.273 OA
ATOM      5  H   UNL     1      -2.978   2.362   0.011  1.00  0.00     0.163 HD
BRANCH   3   6
ATOM      6  C   UNL     1      -0.226   1.547   1.857  1.00  0.00     0.221 C 
BRANCH   6   7
ATOM      7  N   UNL     1      -0.550   0.228   2.407  1.00  0.00    -0.311 N 
BRANCH   7   8
ATOM      8  C   UNL     1      -0.178  -1.020   1.891  1.00  0.00     0.320 C 
ATOM      9  O   UNL     1      -0.602  -2.015   2.482  1.00  0.00    -0.248 OA
BRANCH   8  10
ATOM     10  N   UNL     1       0.599  -1.198   0.743  1.00  0.00    -0.325 N 
ATOM     11  C   UNL     1       1.075  -0.170  -0.189  1.00  0.00     0.149 C 
BRANCH  10  12
ATOM     12  C   UNL     1       1.065  -2.579   0.320  1.00  0.00     0.086 C 
BRANCH  12  13
ATOM     13  C   UNL     1       2.609  -2.671   0.311  1.00  0.00     0.025 C 
BRANCH  13  14
ATOM     14  C   UNL     1       3.216  -3.220   1.596  1.00  0.00     0.002 C 
BRANCH  14  15
ATOM     15  C   UNL     1       3.407  -4.734   1.540  1.00  0.00     0.000 CG0
ATOM     16  G   UNL     1       2.130  -5.572   1.550  1.00  0.00     0.000 G0
ENDBRANCH  14  15
ENDBRANCH  13  14
ENDBRANCH  12  13
BRANCH  12  17
ATOM     17  C   UNL     1       0.390  -3.834   0.922  1.00  0.00     0.025 C 
BRANCH  17  18
ATOM     18  C   UNL     1       1.048  -5.165   0.544  1.00  0.00     0.002 C 
BRANCH  18  19
ATOM     19  C   UNL     1       2.130  -5.572   1.550  1.00  0.00     0.000 CG0
ATOM     20  G   UNL     1       3.407  -4.734   1.540  1.00  0.00     0.000 G0
ENDBRANCH  18  19
ENDBRANCH  17  18
ENDBRANCH  12  17
ENDBRANCH  10  12
ENDBRANCH   8  10
ENDBRANCH   7   8
BRANCH   7  21
ATOM     21  C   UNL     1      -1.366   0.238   3.718  1.00  0.00     0.037 C 
ATOM     22  C   UNL     1      -2.758  -0.412   3.546  1.00  0.00     0.034 C 
ATOM     23  C   UNL     1      -0.590  -0.476   4.854  1.00  0.00     0.034 C 
ATOM     24  C   UNL     1      -1.675   1.658   4.284  1.00  0.00     0.034 C 
ENDBRANCH   7  21
ENDBRANCH   6   7
ENDBRANCH   3   6
ENDBRANCH   1   2
BRANCH   1  25
ATOM     25  C   UNL     1      -3.646  -0.282  -0.020  1.00  0.00     0.021 C 
BRANCH  25  26
ATOM     26  C   UNL     1      -4.854   0.340  -0.712  1.00  0.00     0.002 C 
BRANCH  26  27
ATOM     27  C   UNL     1      -4.774   0.342  -2.239  1.00  0.00     0.002 C 
BRANCH  27  28
ATOM     28  C   UNL     1      -4.516  -1.028  -2.875  1.00  0.00     0.021 C 
BRANCH  28  29
ATOM     29  C   UNL     1      -5.498  -2.119  -2.459  1.00  0.00     0.116 C 
BRANCH  29  30
ATOM     30  N   UNL     1      -6.866  -1.781  -2.815  1.00  0.00    -0.352 N 
ATOM     31  C   UNL     1      -7.754  -2.462  -3.608  1.00  0.00     0.251 C 
ATOM     32  H   UNL     1      -7.205  -0.940  -2.431  1.00  0.00     0.163 HD
ATOM     33  O   UNL     1      -8.788  -1.924  -3.985  1.00  0.00    -0.269 OA
BRANCH  31  34
ATOM     34  C   UNL     1      -7.446  -3.845  -4.026  1.00  0.00     0.039 A 
ATOM     35  C   UNL     1      -7.629  -4.202  -5.363  1.00  0.00     0.014 A 
ATOM     36  C   UNL     1      -6.976  -4.783  -3.102  1.00  0.00     0.014 A 
ATOM     37  C   UNL     1      -7.272  -5.481  -5.790  1.00  0.00     0.010 A 
ATOM     38  C   UNL     1      -6.554  -6.035  -3.542  1.00  0.00     0.010 A 
ATOM     39  C   UNL     1      -6.691  -6.392  -4.892  1.00  0.00    -0.014 A 
BRANCH  39  40
ATOM     40  C   UNL     1      -6.178  -7.704  -5.360  1.00  0.00     0.031 A 
ATOM     41  C   UNL     1      -6.782  -8.985  -4.861  1.00  0.00     0.074 A 
ATOM     42  C   UNL     1      -5.112  -7.735  -6.182  1.00  0.00     0.049 A 
ATOM     43  N   UNL     1      -6.426 -10.219  -5.114  1.00  0.00    -0.248 NA
ATOM     44  C   UNL     1      -7.920  -8.865  -3.938  1.00  0.00     0.031 C 
ATOM     45  C   UNL     1      -4.405  -6.559  -6.693  1.00  0.00     0.029 A 
ATOM     46  N   UNL     1      -4.427  -8.795  -6.722  1.00  0.00    -0.354 N 
ATOM     47  C   UNL     1      -7.286 -11.020  -4.375  1.00  0.00     0.074 A 
ATOM     48  C   UNL     1      -8.149 -10.132  -3.626  1.00  0.00     0.031 C 
ATOM     49  C   UNL     1      -3.399  -6.961  -7.485  1.00  0.00     0.029 A 
ATOM     50  C   UNL     1      -3.361  -8.419  -7.503  1.00  0.00     0.049 A 
ATOM     51  H   UNL     1      -4.676  -9.734  -6.565  1.00  0.00     0.167 HD
ATOM     52  C   UNL     1      -7.359 -12.373  -4.338  1.00  0.00     0.037 A 
ATOM     53  C   UNL     1      -2.444  -9.164  -8.148  1.00  0.00     0.037 A 
ATOM     54  C   UNL     1      -6.501 -13.250  -5.093  1.00  0.00     0.049 A 
ATOM     55  C   UNL     1      -2.533 -10.662  -8.076  1.00  0.00     0.074 A 
ATOM     56  C   UNL     1      -6.544 -14.630  -5.182  1.00  0.00     0.029 A 
ATOM     57  N   UNL     1      -5.434 -12.833  -5.875  1.00  0.00    -0.354 N 
ATOM     58  N   UNL     1      -3.406 -11.408  -7.443  1.00  0.00    -0.248 NA
ATOM     59  C   UNL     1      -1.512 -11.422  -8.809  1.00  0.00     0.031 C 
ATOM     60  C   UNL     1      -5.466 -15.052  -5.966  1.00  0.00     0.029 A 
ATOM     61  C   UNL     1      -4.785 -13.932  -6.417  1.00  0.00     0.049 A 
ATOM     62  H   UNL     1      -5.175 -11.895  -6.024  1.00  0.00     0.167 HD
ATOM     63  C   UNL     1      -3.051 -12.723  -7.712  1.00  0.00     0.074 A 
ATOM     64  C   UNL     1      -1.897 -12.671  -8.586  1.00  0.00     0.031 C 
ATOM     65  C   UNL     1      -3.627 -13.869  -7.274  1.00  0.00     0.037 A 
BRANCH  52  66
ATOM     66  C   UNL     1      -8.394 -12.987  -3.439  1.00  0.00     0.057 A 
ATOM     67  C   UNL     1      -9.766 -12.886  -3.707  1.00  0.00     0.134 A 
ATOM     68  C   UNL     1      -8.013 -13.717  -2.306  1.00  0.00     0.134 A 
ATOM     69  F   UNL     1     -10.202 -12.193  -4.770  1.00  0.00    -0.206 F 
ATOM     70  C   UNL     1     -10.721 -13.460  -2.865  1.00  0.00     0.040 A 
ATOM     71  C   UNL     1      -8.956 -14.322  -1.474  1.00  0.00     0.040 A 
ATOM     72  F   UNL     1      -6.716 -13.863  -1.993  1.00  0.00    -0.206 F 
ATOM     73  C   UNL     1     -10.315 -14.187  -1.747  1.00  0.00     0.006 A 
ENDBRANCH  52  66
BRANCH  53  74
ATOM     74  C   UNL     1      -1.365  -8.498  -8.920  1.00  0.00     0.057 A 
ATOM     75  C   UNL     1      -1.335  -8.552 -10.318  1.00  0.00     0.134 A 
ATOM     76  C   UNL     1      -0.346  -7.780  -8.280  1.00  0.00     0.134 A 
ATOM     77  F   UNL     1      -2.272  -9.240 -10.986  1.00  0.00    -0.206 F 
ATOM     78  C   UNL     1      -0.325  -7.928 -11.052  1.00  0.00     0.040 A 
ATOM     79  C   UNL     1       0.654  -7.128  -9.003  1.00  0.00     0.040 A 
ATOM     80  F   UNL     1      -0.323  -7.682  -6.943  1.00  0.00    -0.206 F 
ATOM     81  C   UNL     1       0.670  -7.207 -10.394  1.00  0.00     0.006 A 
ENDBRANCH  53  74
BRANCH  65  82
ATOM     82  C   UNL     1      -3.023 -15.162  -7.739  1.00  0.00     0.057 A 
ATOM     83  C   UNL     1      -1.776 -15.604  -7.277  1.00  0.00     0.134 A 
ATOM     84  C   UNL     1      -3.709 -15.992  -8.635  1.00  0.00     0.134 A 
ATOM     85  F   UNL     1      -1.059 -14.850  -6.429  1.00  0.00    -0.206 F 
ATOM     86  C   UNL     1      -1.224 -16.812  -7.706  1.00  0.00     0.040 A 
ATOM     87  C   UNL     1      -3.181 -17.216  -9.048  1.00  0.00     0.040 A 
ATOM     88  F   UNL     1      -4.912 -15.635  -9.111  1.00  0.00    -0.206 F 
ATOM     89  C   UNL     1      -1.931 -17.626  -8.589  1.00  0.00     0.006 A 
ENDBRANCH  65  82
ENDBRANCH  39  40
ENDBRANCH  31  34
ENDBRANCH  29  30
ENDBRANCH  28  29
ENDBRANCH  27  28
ENDBRANCH  26  27
ENDBRANCH  25  26
ENDBRANCH   1  25
TORSDOF 18
