REMARK SMILES O=C(NCCCCCCNC(=O)[C@@H]1CCCN1S(=O)(=O)c1ccc2c3c(cccc13)C(=O)N2)c1ccc(-c2c3nc(c(-c4c(F)cccc4F)c4ccc([nH]4)c(-c4c(F)cccc4F)c4nc(c(-c5c(F)cccc5F)c5ccc2[nH]5)C=C4)C=C3)cc1
REMARK SMILES IDX 6 1 5 2 4 3 3 4 1 5 2 6 34 8 35 9 87 10 36 11 86 12 37 13
REMARK SMILES IDX 38 14 39 15 80 16 40 17 85 18 79 19 81 20 41 21 84 22 78 23
REMARK SMILES IDX 77 24 42 26 68 27 51 28 67 29 52 30 55 31 66 32 82 33 53 34
REMARK SMILES IDX 54 35 65 37 83 38 56 39 43 40 44 41 49 42 45 43 46 44 48 45
REMARK SMILES IDX 50 46 47 47 69 48 70 49 75 50 71 51 72 52 74 53 76 54 73 55
REMARK SMILES IDX 57 56 58 57 63 58 59 59 60 60 62 61 64 62 61 63 7 64 8 65
REMARK SMILES IDX 9 66 10 67 11 68 12 70 13 71 14 72 17 73 15 74 16 75 18 76
REMARK SMILES IDX 19 77 20 78 21 79 22 80 30 81 23 82 25 83 29 84 24 85 26 86
REMARK SMILES IDX 28 87 33 88 27 89 31 90 32 92
REMARK H PARENT 3 7 81 25 55 36 10 69 33 91
REMARK Flexibility Score: inf
ROOT
ATOM      1  C   UNL     1       4.058  -1.335  -3.381  1.00  0.00     0.002 C 
ENDROOT
BRANCH   1   2
ATOM      2  C   UNL     1       4.564  -1.431  -1.940  1.00  0.00     0.021 C 
BRANCH   2   3
ATOM      3  C   UNL     1       4.379  -0.158  -1.119  1.00  0.00     0.116 C 
BRANCH   3   4
ATOM      4  N   UNL     1       2.974   0.161  -0.950  1.00  0.00    -0.352 N 
ATOM      5  O   UNL     1       0.999   0.116   0.148  1.00  0.00    -0.269 OA
ATOM      6  C   UNL     1       2.223   0.088   0.193  1.00  0.00     0.251 C 
ATOM      7  H   UNL     1       2.501   0.467  -1.757  1.00  0.00     0.163 HD
BRANCH   6   8
ATOM      8  C   UNL     1       2.917  -0.031   1.489  1.00  0.00     0.039 A 
ATOM      9  C   UNL     1       3.932   0.872   1.823  1.00  0.00     0.014 A 
ATOM     10  C   UNL     1       2.548  -1.048   2.370  1.00  0.00     0.014 A 
ATOM     11  C   UNL     1       4.641   0.704   3.007  1.00  0.00     0.010 A 
ATOM     12  C   UNL     1       3.224  -1.182   3.583  1.00  0.00     0.010 A 
ATOM     13  C   UNL     1       4.286  -0.319   3.900  1.00  0.00    -0.014 A 
BRANCH  13  14
ATOM     14  C   UNL     1       5.016  -0.452   5.183  1.00  0.00     0.031 A 
ATOM     15  C   UNL     1       5.939  -1.610   5.422  1.00  0.00     0.074 A 
ATOM     16  C   UNL     1       4.857   0.498   6.122  1.00  0.00     0.049 A 
ATOM     17  N   UNL     1       6.676  -1.875   6.471  1.00  0.00    -0.248 NA
ATOM     18  C   UNL     1       6.051  -2.601   4.341  1.00  0.00     0.031 C 
ATOM     19  C   UNL     1       3.993   1.674   5.995  1.00  0.00     0.029 A 
ATOM     20  N   UNL     1       5.421   0.631   7.364  1.00  0.00    -0.354 N 
ATOM     21  C   UNL     1       7.351  -3.051   6.173  1.00  0.00     0.074 A 
ATOM     22  C   UNL     1       6.894  -3.479   4.867  1.00  0.00     0.031 C 
ATOM     23  C   UNL     1       4.103   2.420   7.105  1.00  0.00     0.029 A 
ATOM     24  C   UNL     1       5.006   1.754   8.037  1.00  0.00     0.049 A 
ATOM     25  H   UNL     1       6.062  -0.016   7.737  1.00  0.00     0.167 HD
ATOM     26  C   UNL     1       8.282  -3.704   6.912  1.00  0.00     0.037 A 
ATOM     27  C   UNL     1       5.309   2.185   9.274  1.00  0.00     0.037 A 
ATOM     28  C   UNL     1       8.707  -3.291   8.226  1.00  0.00     0.049 A 
ATOM     29  C   UNL     1       6.260   1.377  10.114  1.00  0.00     0.074 A 
ATOM     30  C   UNL     1       9.636  -3.888   9.062  1.00  0.00     0.029 A 
ATOM     31  N   UNL     1       8.219  -2.183   8.903  1.00  0.00    -0.354 N 
ATOM     32  N   UNL     1       6.924   0.289   9.806  1.00  0.00    -0.248 NA
ATOM     33  C   UNL     1       6.503   1.862  11.479  1.00  0.00     0.031 C 
ATOM     34  C   UNL     1       9.668  -3.173  10.264  1.00  0.00     0.029 A 
ATOM     35  C   UNL     1       8.806  -2.094  10.155  1.00  0.00     0.049 A 
ATOM     36  H   UNL     1       7.552  -1.552   8.546  1.00  0.00     0.167 HD
ATOM     37  C   UNL     1       7.689  -0.019  10.924  1.00  0.00     0.074 A 
ATOM     38  C   UNL     1       7.422   1.011  11.907  1.00  0.00     0.031 C 
ATOM     39  C   UNL     1       8.534  -1.060  11.122  1.00  0.00     0.037 A 
BRANCH  26  40
ATOM     40  C   UNL     1       8.889  -4.941   6.314  1.00  0.00     0.057 A 
ATOM     41  C   UNL     1       8.630  -6.206   6.857  1.00  0.00     0.134 A 
ATOM     42  C   UNL     1       9.750  -4.880   5.209  1.00  0.00     0.134 A 
ATOM     43  F   UNL     1       7.823  -6.339   7.920  1.00  0.00    -0.206 F 
ATOM     44  C   UNL     1       9.200  -7.362   6.321  1.00  0.00     0.040 A 
ATOM     45  C   UNL     1      10.303  -6.032   4.646  1.00  0.00     0.040 A 
ATOM     46  F   UNL     1      10.033  -3.701   4.632  1.00  0.00    -0.206 F 
ATOM     47  C   UNL     1      10.032  -7.278   5.207  1.00  0.00     0.006 A 
ENDBRANCH  26  40
BRANCH  27  48
ATOM     48  C   UNL     1       4.708   3.433   9.809  1.00  0.00     0.057 A 
ATOM     49  C   UNL     1       3.340   3.523  10.092  1.00  0.00     0.134 A 
ATOM     50  C   UNL     1       5.503   4.546  10.110  1.00  0.00     0.134 A 
ATOM     51  F   UNL     1       2.522   2.495   9.821  1.00  0.00    -0.206 F 
ATOM     52  C   UNL     1       2.785   4.669  10.662  1.00  0.00     0.040 A 
ATOM     53  C   UNL     1       4.967   5.686  10.711  1.00  0.00     0.040 A 
ATOM     54  F   UNL     1       6.824   4.515   9.879  1.00  0.00    -0.206 F 
ATOM     55  C   UNL     1       3.603   5.749  10.989  1.00  0.00     0.006 A 
ENDBRANCH  27  48
BRANCH  39  56
ATOM     56  C   UNL     1       9.263  -1.104  12.437  1.00  0.00     0.057 A 
ATOM     57  C   UNL     1      10.645  -0.882  12.492  1.00  0.00     0.134 A 
ATOM     58  C   UNL     1       8.603  -1.361  13.646  1.00  0.00     0.134 A 
ATOM     59  F   UNL     1      11.342  -0.638  11.372  1.00  0.00    -0.206 F 
ATOM     60  C   UNL     1      11.342  -0.909  13.700  1.00  0.00     0.040 A 
ATOM     61  C   UNL     1       9.284  -1.357  14.865  1.00  0.00     0.040 A 
ATOM     62  F   UNL     1       7.277  -1.567  13.667  1.00  0.00    -0.206 F 
ATOM     63  C   UNL     1      10.659  -1.135  14.893  1.00  0.00     0.006 A 
ENDBRANCH  39  56
ENDBRANCH  13  14
ENDBRANCH   6   8
ENDBRANCH   3   4
ENDBRANCH   2   3
ENDBRANCH   1   2
BRANCH   1  64
ATOM     64  C   UNL     1       4.584  -0.134  -4.160  1.00  0.00     0.002 C 
BRANCH  64  65
ATOM     65  C   UNL     1       6.091   0.083  -4.065  1.00  0.00     0.021 C 
BRANCH  65  66
ATOM     66  C   UNL     1       6.970  -1.053  -4.568  1.00  0.00     0.116 C 
BRANCH  66  67
ATOM     67  N   UNL     1       6.753  -1.316  -5.968  1.00  0.00    -0.355 N 
ATOM     68  C   UNL     1       7.589  -1.226  -7.026  1.00  0.00     0.238 C 
ATOM     69  H   UNL     1       5.841  -1.612  -6.192  1.00  0.00     0.163 HD
ATOM     70  O   UNL     1       7.125  -1.588  -8.116  1.00  0.00    -0.273 OA
BRANCH  68  71
ATOM     71  C   UNL     1       9.020  -0.751  -6.938  1.00  0.00     0.162 C 
ATOM     72  C   UNL     1       9.889  -1.768  -6.194  1.00  0.00     0.032 C 
ATOM     73  N   UNL     1       9.537   0.595  -6.595  1.00  0.00    -0.185 NA
ATOM     74  C   UNL     1      11.216  -1.070  -6.014  1.00  0.00     0.019 C 
ATOM     75  C   UNL     1      10.867   0.402  -5.913  1.00  0.00     0.103 C 
BRANCH  73  76
ATOM     76  S   UNL     1       8.755   1.958  -5.977  1.00  0.00     0.244 S 
ATOM     77  O   UNL     1       8.518   1.673  -4.575  1.00  0.00    -0.207 OA
ATOM     78  O   UNL     1       9.611   3.075  -6.326  1.00  0.00    -0.207 OA
BRANCH  76  79
ATOM     79  C   UNL     1       7.181   2.331  -6.707  1.00  0.00     0.090 A 
ATOM     80  C   UNL     1       6.643   1.584  -7.774  1.00  0.00     0.024 A 
ATOM     81  C   UNL     1       6.431   3.414  -6.135  1.00  0.00     0.005 A 
ATOM     82  C   UNL     1       5.312   1.756  -8.213  1.00  0.00     0.028 A 
ATOM     83  C   UNL     1       5.175   3.575  -6.646  1.00  0.00     0.019 A 
ATOM     84  C   UNL     1       6.769   4.370  -5.138  1.00  0.00     0.010 A 
ATOM     85  C   UNL     1       4.608   2.780  -7.613  1.00  0.00     0.050 A 
ATOM     86  C   UNL     1       4.263   4.565  -6.306  1.00  0.00     0.050 A 
ATOM     87  C   UNL     1       5.879   5.408  -4.782  1.00  0.00     0.002 A 
ATOM     88  N   UNL     1       3.330   3.258  -7.843  1.00  0.00    -0.321 N 
ATOM     89  C   UNL     1       4.610   5.532  -5.368  1.00  0.00     0.014 A 
ATOM     90  C   UNL     1       3.047   4.394  -7.074  1.00  0.00     0.256 C 
ATOM     91  H   UNL     1       2.695   2.848  -8.473  1.00  0.00     0.170 HD
ATOM     92  O   UNL     1       1.997   5.024  -7.118  1.00  0.00    -0.269 OA
ENDBRANCH  76  79
ENDBRANCH  73  76
ENDBRANCH  68  71
ENDBRANCH  66  67
ENDBRANCH  65  66
ENDBRANCH  64  65
ENDBRANCH   1  64
TORSDOF 15
