REMARK SMILES CS(=O)(=O)c1ccc(C(=O)N2C[C@@H](C(=O)NCCCCCCNC(=O)c3ccc(-c4c5nc(c(-c6c(F)cccc6F)c6ccc([nH]6)c(-c6c(F)cccc6F)c6nc(c(-c7c(F)cccc7F)c7ccc4[nH]7)C=C6)C=C5)cc3)[C@H](c3ccncc3)C2)cc1
REMARK SMILES IDX 19 1 18 2 17 3 16 4 14 5 15 6 13 8 11 9 12 10 87 11 80 12
REMARK SMILES IDX 9 13 10 14 8 15 5 16 6 17 89 18 7 19 88 20 2 21 1 22 3 23
REMARK SMILES IDX 4 24 81 25 82 26 86 27 83 28 85 29 84 30 20 31 21 32 22 33
REMARK SMILES IDX 23 34 24 35 25 37 26 38 27 39 79 40 28 41 78 42 29 43 30 44
REMARK SMILES IDX 31 45 72 46 32 47 77 48 71 49 73 50 33 51 76 52 70 53 69 54
REMARK SMILES IDX 34 56 60 57 43 58 59 59 44 60 47 61 58 62 74 63 45 64 46 65
REMARK SMILES IDX 57 67 75 68 48 69 35 70 36 71 41 72 37 73 38 74 40 75 42 76
REMARK SMILES IDX 39 77 61 78 62 79 67 80 63 81 64 82 66 83 68 84 65 85 49 86
REMARK SMILES IDX 50 87 55 88 51 89 52 90 54 91 56 92 53 93
REMARK H PARENT 16 7 23 36 73 55 47 66
REMARK Flexibility Score: inf
ROOT
ATOM      1  C   UNL     1       2.881   7.287  -4.055  1.00  0.00     0.002 C 
ENDROOT
BRANCH   1   2
ATOM      2  C   UNL     1       1.936   6.091  -4.237  1.00  0.00     0.021 C 
BRANCH   2   3
ATOM      3  C   UNL     1       1.531   5.812  -5.685  1.00  0.00     0.116 C 
BRANCH   3   4
ATOM      4  N   UNL     1       2.688   5.518  -6.514  1.00  0.00    -0.356 N 
ATOM      5  C   UNL     1       3.077   4.375  -7.141  1.00  0.00     0.225 C 
ATOM      6  O   UNL     1       4.137   4.393  -7.767  1.00  0.00    -0.275 OA
ATOM      7  H   UNL     1       3.298   6.280  -6.645  1.00  0.00     0.163 HD
BRANCH   5   8
ATOM      8  C   UNL     1       2.206   3.141  -7.096  1.00  0.00     0.107 C 
ATOM      9  N   UNL     1       2.303   0.833  -7.210  1.00  0.00    -0.337 N 
ATOM     10  C   UNL     1       3.010   1.944  -6.609  1.00  0.00     0.134 C 
ATOM     11  C   UNL     1       1.912   1.192  -8.559  1.00  0.00     0.129 C 
ATOM     12  C   UNL     1       1.721   2.730  -8.524  1.00  0.00     0.053 C 
BRANCH   9  13
ATOM     13  C   UNL     1       2.079  -0.434  -6.714  1.00  0.00     0.253 C 
ATOM     14  O   UNL     1       1.939  -1.407  -7.452  1.00  0.00    -0.269 OA
BRANCH  13  15
ATOM     15  C   UNL     1       1.843  -0.618  -5.253  1.00  0.00     0.040 A 
ATOM     16  C   UNL     1       1.004  -1.152  -2.636  1.00  0.00     0.067 A 
ATOM     17  C   UNL     1       1.655  -2.147  -3.371  1.00  0.00     0.021 A 
ATOM     18  C   UNL     1       0.776   0.109  -3.191  1.00  0.00     0.021 A 
ATOM     19  C   UNL     1       2.071  -1.878  -4.680  1.00  0.00     0.015 A 
ATOM     20  C   UNL     1       1.184   0.367  -4.500  1.00  0.00     0.015 A 
BRANCH  16  21
ATOM     21  S   UNL     1       0.352  -1.519  -1.023  1.00  0.00     0.175 S 
ATOM     22  C   UNL     1       1.026  -0.264   0.031  1.00  0.00     0.163 C 
ATOM     23  O   UNL     1       0.906  -2.786  -0.601  1.00  0.00    -0.224 OA
ATOM     24  O   UNL     1      -1.085  -1.313  -1.105  1.00  0.00    -0.224 OA
ENDBRANCH  16  21
ENDBRANCH  13  15
ENDBRANCH   9  13
BRANCH  12  25
ATOM     25  C   UNL     1       0.333   3.298  -8.804  1.00  0.00    -0.039 A 
ATOM     26  C   UNL     1       0.184   4.691  -8.906  1.00  0.00     0.024 A 
ATOM     27  C   UNL     1      -0.819   2.525  -8.976  1.00  0.00     0.024 A 
ATOM     28  C   UNL     1      -1.072   5.236  -9.132  1.00  0.00     0.111 A 
ATOM     29  C   UNL     1      -2.032   3.161  -9.219  1.00  0.00     0.111 A 
ATOM     30  N   UNL     1      -2.187   4.499  -9.285  1.00  0.00    -0.265 NA
ENDBRANCH  12  25
ENDBRANCH   5   8
ENDBRANCH   3   4
ENDBRANCH   2   3
ENDBRANCH   1   2
BRANCH   1  31
ATOM     31  C   UNL     1       2.366   8.627  -4.589  1.00  0.00     0.002 C 
BRANCH  31  32
ATOM     32  C   UNL     1       1.038   9.104  -3.997  1.00  0.00     0.021 C 
BRANCH  32  33
ATOM     33  C   UNL     1       1.029   9.275  -2.480  1.00  0.00     0.116 C 
BRANCH  33  34
ATOM     34  N   UNL     1       1.950  10.305  -2.023  1.00  0.00    -0.352 N 
ATOM     35  C   UNL     1       1.712  11.408  -1.238  1.00  0.00     0.251 C 
ATOM     36  H   UNL     1       2.882  10.195  -2.319  1.00  0.00     0.163 HD
ATOM     37  O   UNL     1       2.587  12.251  -1.073  1.00  0.00    -0.269 OA
BRANCH  35  38
ATOM     38  C   UNL     1       0.383  11.598  -0.619  1.00  0.00     0.039 A 
ATOM     39  C   UNL     1      -0.249  12.839  -0.741  1.00  0.00     0.014 A 
ATOM     40  C   UNL     1      -0.247  10.552   0.060  1.00  0.00     0.014 A 
ATOM     41  C   UNL     1      -1.553  13.002  -0.267  1.00  0.00     0.010 A 
ATOM     42  C   UNL     1      -1.568  10.695   0.475  1.00  0.00     0.010 A 
ATOM     43  C   UNL     1      -2.240  11.915   0.297  1.00  0.00    -0.014 A 
BRANCH  43  44
ATOM     44  C   UNL     1      -3.676  12.008   0.658  1.00  0.00     0.031 A 
ATOM     45  C   UNL     1      -4.113  11.874   2.088  1.00  0.00     0.074 A 
ATOM     46  C   UNL     1      -4.597  12.118  -0.319  1.00  0.00     0.049 A 
ATOM     47  N   UNL     1      -5.324  11.815   2.580  1.00  0.00    -0.248 NA
ATOM     48  C   UNL     1      -3.046  11.770   3.094  1.00  0.00     0.031 C 
ATOM     49  C   UNL     1      -4.303  12.230  -1.749  1.00  0.00     0.029 A 
ATOM     50  N   UNL     1      -5.968  12.139  -0.259  1.00  0.00    -0.354 N 
ATOM     51  C   UNL     1      -5.167  11.656   3.950  1.00  0.00     0.074 A 
ATOM     52  C   UNL     1      -3.744  11.581   4.204  1.00  0.00     0.031 C 
ATOM     53  C   UNL     1      -5.457  12.329  -2.428  1.00  0.00     0.029 A 
ATOM     54  C   UNL     1      -6.571  12.239  -1.489  1.00  0.00     0.049 A 
ATOM     55  H   UNL     1      -6.471  12.086   0.586  1.00  0.00     0.167 HD
ATOM     56  C   UNL     1      -6.122  11.597   4.910  1.00  0.00     0.037 A 
ATOM     57  C   UNL     1      -7.874  12.241  -1.825  1.00  0.00     0.037 A 
ATOM     58  C   UNL     1      -7.536  11.683   4.654  1.00  0.00     0.049 A 
ATOM     59  C   UNL     1      -8.914  12.105  -0.751  1.00  0.00     0.074 A 
ATOM     60  C   UNL     1      -8.578  11.706   5.565  1.00  0.00     0.029 A 
ATOM     61  N   UNL     1      -8.108  11.745   3.392  1.00  0.00    -0.354 N 
ATOM     62  N   UNL     1      -8.753  12.018   0.547  1.00  0.00    -0.248 NA
ATOM     63  C   UNL     1     -10.316  12.051  -1.189  1.00  0.00     0.031 C 
ATOM     64  C   UNL     1      -9.782  11.730   4.851  1.00  0.00     0.029 A 
ATOM     65  C   UNL     1      -9.489  11.765   3.498  1.00  0.00     0.049 A 
ATOM     66  H   UNL     1      -7.606  11.772   2.545  1.00  0.00     0.167 HD
ATOM     67  C   UNL     1     -10.030  11.918   1.083  1.00  0.00     0.074 A 
ATOM     68  C   UNL     1     -10.956  11.965  -0.031  1.00  0.00     0.031 C 
ATOM     69  C   UNL     1     -10.400  11.799   2.381  1.00  0.00     0.037 A 
BRANCH  56  70
ATOM     70  C   UNL     1      -5.658  11.420   6.326  1.00  0.00     0.057 A 
ATOM     71  C   UNL     1      -4.991  12.440   7.019  1.00  0.00     0.134 A 
ATOM     72  C   UNL     1      -5.884  10.218   7.008  1.00  0.00     0.134 A 
ATOM     73  F   UNL     1      -4.732  13.612   6.419  1.00  0.00    -0.206 F 
ATOM     74  C   UNL     1      -4.534  12.257   8.325  1.00  0.00     0.040 A 
ATOM     75  C   UNL     1      -5.456  10.033   8.323  1.00  0.00     0.040 A 
ATOM     76  F   UNL     1      -6.523   9.203   6.407  1.00  0.00    -0.206 F 
ATOM     77  C   UNL     1      -4.769  11.051   8.982  1.00  0.00     0.006 A 
ENDBRANCH  56  70
BRANCH  57  78
ATOM     78  C   UNL     1      -8.267  12.393  -3.248  1.00  0.00     0.057 A 
ATOM     79  C   UNL     1      -8.840  13.584  -3.706  1.00  0.00     0.134 A 
ATOM     80  C   UNL     1      -8.063  11.370  -4.182  1.00  0.00     0.134 A 
ATOM     81  F   UNL     1      -9.077  14.590  -2.853  1.00  0.00    -0.206 F 
ATOM     82  C   UNL     1      -9.201  13.753  -5.043  1.00  0.00     0.040 A 
ATOM     83  C   UNL     1      -8.400  11.533  -5.527  1.00  0.00     0.040 A 
ATOM     84  F   UNL     1      -7.512  10.207  -3.804  1.00  0.00    -0.206 F 
ATOM     85  C   UNL     1      -8.974  12.727  -5.960  1.00  0.00     0.006 A 
ENDBRANCH  57  78
BRANCH  69  86
ATOM     86  C   UNL     1     -11.869  11.715   2.670  1.00  0.00     0.057 A 
ATOM     87  C   UNL     1     -12.603  10.551   2.410  1.00  0.00     0.134 A 
ATOM     88  C   UNL     1     -12.547  12.791   3.258  1.00  0.00     0.134 A 
ATOM     89  F   UNL     1     -12.016   9.492   1.833  1.00  0.00    -0.206 F 
ATOM     90  C   UNL     1     -13.963  10.464   2.714  1.00  0.00     0.040 A 
ATOM     91  C   UNL     1     -13.900  12.708   3.587  1.00  0.00     0.040 A 
ATOM     92  F   UNL     1     -11.900  13.933   3.536  1.00  0.00    -0.206 F 
ATOM     93  C   UNL     1     -14.613  11.543   3.312  1.00  0.00     0.006 A 
ENDBRANCH  69  86
ENDBRANCH  43  44
ENDBRANCH  35  38
ENDBRANCH  33  34
ENDBRANCH  32  33
ENDBRANCH  31  32
ENDBRANCH   1  31
TORSDOF 17
