REMARK SMILES O=C(NCCCCCCNC(=O)c1cnccc1C(=O)N1CCC(Cc2ccccc2)CC1)c1ccc(-c2c3nc(c(-c4c(F)cccc4F)c4ccc([nH]4)c(-c4c(F)cccc4F)c4nc(c(-c5c(F)cccc5F)c5ccc2[nH]5)C=C4)C=C3)cc1
REMARK SMILES IDX 7 1 6 2 5 3 4 4 3 5 1 6 2 7 34 9 35 10 87 11 36 12 86 13
REMARK SMILES IDX 37 14 38 15 39 16 80 17 40 18 85 19 79 20 81 21 41 22 84 23
REMARK SMILES IDX 78 24 77 25 42 27 68 28 51 29 67 30 52 31 55 32 66 33 82 34
REMARK SMILES IDX 53 35 54 36 65 38 83 39 56 40 43 41 44 42 49 43 45 44 46 45
REMARK SMILES IDX 48 46 50 47 47 48 69 49 70 50 75 51 71 52 72 53 74 54 76 55
REMARK SMILES IDX 73 56 57 57 58 58 63 59 59 60 60 61 62 62 64 63 61 64 8 65
REMARK SMILES IDX 9 66 10 67 11 68 12 70 13 71 14 72 18 73 15 74 17 75 16 76
REMARK SMILES IDX 19 77 20 78 21 79 22 80 33 81 23 82 32 83 24 84 25 85 26 86
REMARK SMILES IDX 27 87 31 88 28 89 30 90 29 91
REMARK H PARENT 3 8 81 26 55 37 10 69
REMARK Flexibility Score: inf
ROOT
ATOM      1  C   UNL     1       4.806   0.019   4.352  1.00  0.00     0.002 C 
ENDROOT
BRANCH   1   2
ATOM      2  C   UNL     1       4.284   1.289   3.677  1.00  0.00     0.002 C 
BRANCH   2   3
ATOM      3  C   UNL     1       4.759   1.542   2.246  1.00  0.00     0.021 C 
BRANCH   3   4
ATOM      4  C   UNL     1       4.468   0.421   1.258  1.00  0.00     0.116 C 
BRANCH   4   5
ATOM      5  N   UNL     1       3.049   0.182   1.069  1.00  0.00    -0.352 N 
ATOM      6  O   UNL     1       1.138  -0.124  -0.086  1.00  0.00    -0.269 OA
ATOM      7  C   UNL     1       2.359  -0.063  -0.096  1.00  0.00     0.251 C 
ATOM      8  H   UNL     1       2.504   0.198   1.888  1.00  0.00     0.163 HD
BRANCH   7   9
ATOM      9  C   UNL     1       3.098  -0.228  -1.369  1.00  0.00     0.039 A 
ATOM     10  C   UNL     1       4.255  -1.007  -1.437  1.00  0.00     0.014 A 
ATOM     11  C   UNL     1       2.600   0.389  -2.522  1.00  0.00     0.014 A 
ATOM     12  C   UNL     1       4.977  -1.076  -2.624  1.00  0.00     0.010 A 
ATOM     13  C   UNL     1       3.285   0.256  -3.733  1.00  0.00     0.010 A 
ATOM     14  C   UNL     1       4.488  -0.462  -3.789  1.00  0.00    -0.014 A 
BRANCH  14  15
ATOM     15  C   UNL     1       5.210  -0.657  -5.070  1.00  0.00     0.031 A 
ATOM     16  C   UNL     1       5.877   0.490  -5.771  1.00  0.00     0.074 A 
ATOM     17  C   UNL     1       5.270  -1.899  -5.589  1.00  0.00     0.049 A 
ATOM     18  N   UNL     1       6.548   0.488  -6.896  1.00  0.00    -0.248 NA
ATOM     19  C   UNL     1       5.775   1.812  -5.135  1.00  0.00     0.031 C 
ATOM     20  C   UNL     1       4.650  -3.087  -4.998  1.00  0.00     0.029 A 
ATOM     21  N   UNL     1       5.892  -2.373  -6.714  1.00  0.00    -0.354 N 
ATOM     22  C   UNL     1       6.936   1.804  -7.110  1.00  0.00     0.074 A 
ATOM     23  C   UNL     1       6.405   2.583  -6.011  1.00  0.00     0.031 C 
ATOM     24  C   UNL     1       4.958  -4.160  -5.741  1.00  0.00     0.029 A 
ATOM     25  C   UNL     1       5.744  -3.728  -6.890  1.00  0.00     0.049 A 
ATOM     26  H   UNL     1       6.395  -1.800  -7.336  1.00  0.00     0.167 HD
ATOM     27  C   UNL     1       7.673   2.311  -8.128  1.00  0.00     0.037 A 
ATOM     28  C   UNL     1       6.179  -4.532  -7.876  1.00  0.00     0.037 A 
ATOM     29  C   UNL     1       8.206   1.526  -9.213  1.00  0.00     0.049 A 
ATOM     30  C   UNL     1       6.969  -3.939  -9.005  1.00  0.00     0.074 A 
ATOM     31  C   UNL     1       8.988   1.943 -10.277  1.00  0.00     0.029 A 
ATOM     32  N   UNL     1       8.008   0.163  -9.374  1.00  0.00    -0.354 N 
ATOM     33  N   UNL     1       7.347  -2.696  -9.181  1.00  0.00    -0.248 NA
ATOM     34  C   UNL     1       7.385  -4.855 -10.073  1.00  0.00     0.031 C 
ATOM     35  C   UNL     1       9.230   0.839 -11.102  1.00  0.00     0.029 A 
ATOM     36  C   UNL     1       8.636  -0.274 -10.530  1.00  0.00     0.049 A 
ATOM     37  H   UNL     1       7.498  -0.411  -8.758  1.00  0.00     0.167 HD
ATOM     38  C   UNL     1       8.055  -2.682 -10.374  1.00  0.00     0.074 A 
ATOM     39  C   UNL     1       8.071  -4.045 -10.867  1.00  0.00     0.031 C 
ATOM     40  C   UNL     1       8.636  -1.634 -11.006  1.00  0.00     0.037 A 
BRANCH  27  41
ATOM     41  C   UNL     1       7.936   3.789  -8.127  1.00  0.00     0.057 A 
ATOM     42  C   UNL     1       8.837   4.379  -7.232  1.00  0.00     0.134 A 
ATOM     43  C   UNL     1       7.316   4.625  -9.065  1.00  0.00     0.134 A 
ATOM     44  F   UNL     1       9.456   3.637  -6.302  1.00  0.00    -0.206 F 
ATOM     45  C   UNL     1       9.098   5.751  -7.257  1.00  0.00     0.040 A 
ATOM     46  C   UNL     1       7.586   5.994  -9.115  1.00  0.00     0.040 A 
ATOM     47  F   UNL     1       6.448   4.123  -9.956  1.00  0.00    -0.206 F 
ATOM     48  C   UNL     1       8.476   6.561  -8.205  1.00  0.00     0.006 A 
ENDBRANCH  27  41
BRANCH  28  49
ATOM     49  C   UNL     1       5.869  -5.981  -7.833  1.00  0.00     0.057 A 
ATOM     50  C   UNL     1       6.868  -6.928  -7.587  1.00  0.00     0.134 A 
ATOM     51  C   UNL     1       4.562  -6.452  -8.013  1.00  0.00     0.134 A 
ATOM     52  F   UNL     1       8.141  -6.539  -7.423  1.00  0.00    -0.206 F 
ATOM     53  C   UNL     1       6.582  -8.293  -7.529  1.00  0.00     0.040 A 
ATOM     54  C   UNL     1       4.257  -7.811  -7.932  1.00  0.00     0.040 A 
ATOM     55  F   UNL     1       3.559  -5.592  -8.244  1.00  0.00    -0.206 F 
ATOM     56  C   UNL     1       5.271  -8.736  -7.694  1.00  0.00     0.006 A 
ENDBRANCH  28  49
BRANCH  40  57
ATOM     57  C   UNL     1       9.352  -1.930 -12.289  1.00  0.00     0.057 A 
ATOM     58  C   UNL     1       8.657  -2.205 -13.473  1.00  0.00     0.134 A 
ATOM     59  C   UNL     1      10.751  -1.918 -12.345  1.00  0.00     0.134 A 
ATOM     60  F   UNL     1       7.316  -2.247 -13.479  1.00  0.00    -0.206 F 
ATOM     61  C   UNL     1       9.329  -2.478 -14.665  1.00  0.00     0.040 A 
ATOM     62  C   UNL     1      11.434  -2.167 -13.536  1.00  0.00     0.040 A 
ATOM     63  F   UNL     1      11.475  -1.657 -11.246  1.00  0.00    -0.206 F 
ATOM     64  C   UNL     1      10.722  -2.454 -14.699  1.00  0.00     0.006 A 
ENDBRANCH  40  57
ENDBRANCH  14  15
ENDBRANCH   7   9
ENDBRANCH   4   5
ENDBRANCH   3   4
ENDBRANCH   2   3
ENDBRANCH   1   2
BRANCH   1  65
ATOM     65  C   UNL     1       6.320  -0.247   4.321  1.00  0.00     0.021 C 
BRANCH  65  66
ATOM     66  C   UNL     1       7.250   0.852   4.838  1.00  0.00     0.116 C 
BRANCH  66  67
ATOM     67  N   UNL     1       6.858   1.374   6.130  1.00  0.00    -0.352 N 
ATOM     68  C   UNL     1       7.593   2.079   7.043  1.00  0.00     0.253 C 
ATOM     69  H   UNL     1       5.926   1.196   6.391  1.00  0.00     0.163 HD
ATOM     70  O   UNL     1       7.090   2.403   8.116  1.00  0.00    -0.269 OA
BRANCH  68  71
ATOM     71  C   UNL     1       8.995   2.425   6.811  1.00  0.00     0.070 A 
ATOM     72  C   UNL     1       9.900   1.816   7.676  1.00  0.00     0.125 A 
ATOM     73  C   UNL     1       9.497   3.307   5.856  1.00  0.00     0.055 A 
ATOM     74  N   UNL     1      11.244   1.971   7.612  1.00  0.00    -0.264 NA
ATOM     75  C   UNL     1      10.891   3.479   5.777  1.00  0.00     0.035 A 
ATOM     76  C   UNL     1      11.711   2.794   6.656  1.00  0.00     0.112 A 
BRANCH  73  77
ATOM     77  C   UNL     1       8.728   3.879   4.729  1.00  0.00     0.254 C 
ATOM     78  O   UNL     1       9.247   3.700   3.622  1.00  0.00    -0.269 OA
ATOM     79  N   UNL     1       7.485   4.500   4.854  1.00  0.00    -0.339 N 
ATOM     80  C   UNL     1       6.635   4.392   3.675  1.00  0.00     0.120 C 
ATOM     81  C   UNL     1       6.847   4.969   6.091  1.00  0.00     0.120 C 
ATOM     82  C   UNL     1       5.652   5.523   3.474  1.00  0.00     0.025 C 
ATOM     83  C   UNL     1       5.864   6.129   5.864  1.00  0.00     0.025 C 
ATOM     84  C   UNL     1       4.854   5.774   4.756  1.00  0.00    -0.003 C 
BRANCH  84  85
ATOM     85  C   UNL     1       3.787   6.865   4.548  1.00  0.00     0.039 C 
BRANCH  85  86
ATOM     86  C   UNL     1       2.739   6.455   3.531  1.00  0.00    -0.048 A 
ATOM     87  C   UNL     1       2.771   6.974   2.228  1.00  0.00     0.004 A 
ATOM     88  C   UNL     1       1.759   5.506   3.855  1.00  0.00     0.004 A 
ATOM     89  C   UNL     1       1.852   6.544   1.268  1.00  0.00     0.000 A 
ATOM     90  C   UNL     1       0.838   5.080   2.894  1.00  0.00     0.000 A 
ATOM     91  C   UNL     1       0.886   5.596   1.601  1.00  0.00     0.000 A 
ENDBRANCH  85  86
ENDBRANCH  84  85
ENDBRANCH  73  77
ENDBRANCH  68  71
ENDBRANCH  66  67
ENDBRANCH  65  66
ENDBRANCH   1  65
TORSDOF 16
