REMARK SMILES O=C(COc1ccccc1/C=C1\C(=O)Nc2ccccc21)NCCCCCCNC(=O)c1ccc(-c2c3nc(c(-c4c(F)cccc4F)c4ccc([nH]4)c(-c4c(F)cccc4F)c4nc(c(-c5c(F)cccc5F)c5ccc2[nH]5)C=C4)C=C3)cc1
REMARK SMILES IDX 25 1 24 2 23 3 22 4 1 5 2 6 3 8 4 9 5 10 6 11 10 12 7 13
REMARK SMILES IDX 9 14 8 15 11 16 12 17 13 18 21 19 14 20 15 21 16 22 20 23
REMARK SMILES IDX 17 25 19 26 18 27 26 28 27 29 28 30 29 31 30 32 31 34 32 35
REMARK SMILES IDX 33 36 85 37 34 38 84 39 35 40 36 41 37 42 78 43 38 44 83 45
REMARK SMILES IDX 77 46 79 47 39 48 82 49 76 50 75 51 40 53 66 54 49 55 65 56
REMARK SMILES IDX 50 57 53 58 64 59 80 60 51 61 52 62 63 64 81 65 54 66 41 67
REMARK SMILES IDX 42 68 47 69 43 70 44 71 46 72 48 73 45 74 67 75 68 76 73 77
REMARK SMILES IDX 69 78 70 79 72 80 74 81 71 82 55 83 56 84 61 85 57 86 58 87
REMARK SMILES IDX 60 88 62 89 59 90
REMARK H PARENT 22 7 15 24 29 33 79 52 53 63
REMARK Flexibility Score: inf
ROOT
ATOM      1  C   UNL     1       4.620   1.066  -3.801  1.00  0.00     0.002 C 
ENDROOT
BRANCH   1   2
ATOM      2  C   UNL     1       3.207   1.612  -3.578  1.00  0.00     0.021 C 
BRANCH   2   3
ATOM      3  C   UNL     1       2.348   0.827  -2.603  1.00  0.00     0.116 C 
BRANCH   3   4
ATOM      4  N   UNL     1       2.893   0.688  -1.278  1.00  0.00    -0.353 N 
ATOM      5  O   UNL     1       1.037   1.414  -0.113  1.00  0.00    -0.271 OA
ATOM      6  C   UNL     1       2.099   0.801  -0.146  1.00  0.00     0.257 C 
ATOM      7  H   UNL     1       3.855   0.506  -1.173  1.00  0.00     0.163 HD
BRANCH   6   8
ATOM      8  C   UNL     1       2.665   0.053   1.058  1.00  0.00     0.329 C 
BRANCH   8   9
ATOM      9  O   UNL     1       3.324  -1.093   0.505  1.00  0.00    -0.483 OA
BRANCH   9  10
ATOM     10  C   UNL     1       2.934  -2.286   1.056  1.00  0.00     0.127 A 
ATOM     11  C   UNL     1       3.612  -2.686   2.214  1.00  0.00     0.047 A 
ATOM     12  C   UNL     1       2.077  -3.164   0.356  1.00  0.00     0.017 A 
ATOM     13  C   UNL     1       3.493  -3.994   2.670  1.00  0.00     0.004 A 
ATOM     14  C   UNL     1       2.083  -4.501   0.770  1.00  0.00     0.012 A 
ATOM     15  C   UNL     1       2.760  -4.910   1.925  1.00  0.00     0.001 A 
BRANCH  12  16
ATOM     16  C   UNL     1       1.248  -2.710  -0.794  1.00  0.00     0.026 C 
ATOM     17  C   UNL     1       0.019  -3.111  -1.187  1.00  0.00     0.050 C 
ATOM     18  C   UNL     1      -0.869  -4.198  -0.609  1.00  0.00     0.256 C 
ATOM     19  C   UNL     1      -0.752  -2.539  -2.318  1.00  0.00     0.011 A 
ATOM     20  O   UNL     1      -0.708  -4.894   0.378  1.00  0.00    -0.269 OA
ATOM     21  N   UNL     1      -1.970  -4.263  -1.442  1.00  0.00    -0.321 N 
ATOM     22  C   UNL     1      -1.925  -3.288  -2.425  1.00  0.00     0.049 A 
ATOM     23  C   UNL     1      -0.570  -1.462  -3.164  1.00  0.00     0.011 A 
ATOM     24  H   UNL     1      -2.697  -4.921  -1.348  1.00  0.00     0.170 HD
ATOM     25  C   UNL     1      -2.911  -3.030  -3.361  1.00  0.00     0.027 A 
ATOM     26  C   UNL     1      -1.557  -1.164  -4.116  1.00  0.00     0.001 A 
ATOM     27  C   UNL     1      -2.717  -1.947  -4.217  1.00  0.00     0.002 A 
ENDBRANCH  12  16
ENDBRANCH   9  10
ENDBRANCH   8   9
ENDBRANCH   6   8
ENDBRANCH   3   4
ENDBRANCH   2   3
ENDBRANCH   1   2
BRANCH   1  28
ATOM     28  C   UNL     1       4.740  -0.406  -4.212  1.00  0.00     0.002 C 
BRANCH  28  29
ATOM     29  C   UNL     1       3.961  -0.845  -5.453  1.00  0.00     0.021 C 
BRANCH  29  30
ATOM     30  C   UNL     1       4.135   0.013  -6.702  1.00  0.00     0.116 C 
BRANCH  30  31
ATOM     31  N   UNL     1       5.515   0.136  -7.137  1.00  0.00    -0.352 N 
ATOM     32  C   UNL     1       6.033   0.125  -8.409  1.00  0.00     0.251 C 
ATOM     33  H   UNL     1       6.176   0.242  -6.415  1.00  0.00     0.163 HD
ATOM     34  O   UNL     1       7.249   0.168  -8.578  1.00  0.00    -0.269 OA
BRANCH  32  35
ATOM     35  C   UNL     1       5.136   0.020  -9.583  1.00  0.00     0.039 A 
ATOM     36  C   UNL     1       5.472  -0.877 -10.602  1.00  0.00     0.014 A 
ATOM     37  C   UNL     1       3.977   0.794  -9.690  1.00  0.00     0.014 A 
ATOM     38  C   UNL     1       4.614  -1.048 -11.691  1.00  0.00     0.010 A 
ATOM     39  C   UNL     1       3.091   0.578 -10.744  1.00  0.00     0.010 A 
ATOM     40  C   UNL     1       3.398  -0.348 -11.753  1.00  0.00    -0.014 A 
BRANCH  40  41
ATOM     41  C   UNL     1       2.431  -0.581 -12.857  1.00  0.00     0.031 A 
ATOM     42  C   UNL     1       2.104   0.522 -13.825  1.00  0.00     0.074 A 
ATOM     43  C   UNL     1       1.791  -1.764 -12.944  1.00  0.00     0.049 A 
ATOM     44  N   UNL     1       1.229   0.535 -14.799  1.00  0.00    -0.248 NA
ATOM     45  C   UNL     1       2.837   1.787 -13.661  1.00  0.00     0.031 C 
ATOM     46  C   UNL     1       1.984  -2.901 -12.041  1.00  0.00     0.029 A 
ATOM     47  N   UNL     1       0.837  -2.203 -13.829  1.00  0.00    -0.354 N 
ATOM     48  C   UNL     1       1.289   1.810 -15.346  1.00  0.00     0.074 A 
ATOM     49  C   UNL     1       2.260   2.556 -14.574  1.00  0.00     0.031 C 
ATOM     50  C   UNL     1       1.186  -3.910 -12.426  1.00  0.00     0.029 A 
ATOM     51  C   UNL     1       0.400  -3.482 -13.579  1.00  0.00     0.049 A 
ATOM     52  H   UNL     1       0.497  -1.653 -14.571  1.00  0.00     0.167 HD
ATOM     53  C   UNL     1       0.610   2.309 -16.406  1.00  0.00     0.037 A 
ATOM     54  C   UNL     1      -0.535  -4.223 -14.204  1.00  0.00     0.037 A 
ATOM     55  C   UNL     1      -0.323   1.555 -17.201  1.00  0.00     0.049 A 
ATOM     56  C   UNL     1      -1.267  -3.646 -15.383  1.00  0.00     0.074 A 
ATOM     57  C   UNL     1      -0.992   1.947 -18.347  1.00  0.00     0.029 A 
ATOM     58  N   UNL     1      -0.719   0.254 -16.932  1.00  0.00    -0.354 N 
ATOM     59  N   UNL     1      -1.140  -2.465 -15.938  1.00  0.00    -0.248 NA
ATOM     60  C   UNL     1      -2.271  -4.506 -16.027  1.00  0.00     0.031 C 
ATOM     61  C   UNL     1      -1.826   0.898 -18.748  1.00  0.00     0.029 A 
ATOM     62  C   UNL     1      -1.643  -0.162 -17.876  1.00  0.00     0.049 A 
ATOM     63  H   UNL     1      -0.392  -0.293 -16.182  1.00  0.00     0.167 HD
ATOM     64  C   UNL     1      -2.021  -2.453 -17.012  1.00  0.00     0.074 A 
ATOM     65  C   UNL     1      -2.670  -3.747 -17.037  1.00  0.00     0.031 C 
ATOM     66  C   UNL     1      -2.270  -1.458 -17.898  1.00  0.00     0.037 A 
BRANCH  53  67
ATOM     67  C   UNL     1       0.849   3.744 -16.775  1.00  0.00     0.057 A 
ATOM     68  C   UNL     1       2.043   4.164 -17.375  1.00  0.00     0.134 A 
ATOM     69  C   UNL     1      -0.150   4.706 -16.580  1.00  0.00     0.134 A 
ATOM     70  F   UNL     1       3.043   3.294 -17.581  1.00  0.00    -0.206 F 
ATOM     71  C   UNL     1       2.242   5.494 -17.750  1.00  0.00     0.040 A 
ATOM     72  C   UNL     1       0.027   6.033 -16.972  1.00  0.00     0.040 A 
ATOM     73  F   UNL     1      -1.321   4.368 -16.017  1.00  0.00    -0.206 F 
ATOM     74  C   UNL     1       1.229   6.431 -17.556  1.00  0.00     0.006 A 
ENDBRANCH  53  67
BRANCH  54  75
ATOM     75  C   UNL     1      -0.829  -5.603 -13.740  1.00  0.00     0.057 A 
ATOM     76  C   UNL     1      -0.472  -6.714 -14.514  1.00  0.00     0.134 A 
ATOM     77  C   UNL     1      -1.496  -5.844 -12.533  1.00  0.00     0.134 A 
ATOM     78  F   UNL     1       0.150  -6.544 -15.690  1.00  0.00    -0.206 F 
ATOM     79  C   UNL     1      -0.789  -8.014 -14.117  1.00  0.00     0.040 A 
ATOM     80  C   UNL     1      -1.797  -7.141 -12.112  1.00  0.00     0.040 A 
ATOM     81  F   UNL     1      -1.860  -4.823 -11.744  1.00  0.00    -0.206 F 
ATOM     82  C   UNL     1      -1.451  -8.230 -12.910  1.00  0.00     0.006 A 
ENDBRANCH  54  75
BRANCH  66  83
ATOM     83  C   UNL     1      -3.255  -1.743 -18.992  1.00  0.00     0.057 A 
ATOM     84  C   UNL     1      -4.631  -1.813 -18.747  1.00  0.00     0.134 A 
ATOM     85  C   UNL     1      -2.821  -1.910 -20.314  1.00  0.00     0.134 A 
ATOM     86  F   UNL     1      -5.108  -1.676 -17.501  1.00  0.00    -0.206 F 
ATOM     87  C   UNL     1      -5.542  -2.060 -19.776  1.00  0.00     0.040 A 
ATOM     88  C   UNL     1      -3.724  -2.132 -21.354  1.00  0.00     0.040 A 
ATOM     89  F   UNL     1      -1.516  -1.846 -20.616  1.00  0.00    -0.206 F 
ATOM     90  C   UNL     1      -5.089  -2.212 -21.085  1.00  0.00     0.006 A 
ENDBRANCH  66  83
ENDBRANCH  40  41
ENDBRANCH  32  35
ENDBRANCH  30  31
ENDBRANCH  29  30
ENDBRANCH  28  29
ENDBRANCH   1  28
TORSDOF 16
