REMARK SMILES CCOc1ccccc1[C@H](C(=O)NCCCCCCNC(=O)c1ccc(-c2c3nc(c(-c4c(F)cccc4F)c4ccc([nH]4)c(-c4c(F)cccc4F)c4nc(c(-c5c(F)cccc5F)c5ccc2[nH]5)C=C4)C=C3)cc1)[NH+]1CCC([NH+]2CCSCC2)CC1
REMARK SMILES IDX 16 1 15 2 14 3 13 4 11 5 12 6 10 8 9 9 4 10 5 11 6 12 8 13
REMARK SMILES IDX 7 14 3 15 2 16 1 17 77 18 78 19 88 20 79 22 87 23 80 24
REMARK SMILES IDX 81 25 82 26 86 27 83 29 85 30 84 31 17 32 18 33 19 34 20 35
REMARK SMILES IDX 21 36 22 38 23 39 24 40 76 41 25 42 75 43 26 44 27 45 28 46
REMARK SMILES IDX 69 47 29 48 74 49 68 50 70 51 30 52 73 53 67 54 66 55 31 57
REMARK SMILES IDX 57 58 40 59 56 60 41 61 44 62 55 63 71 64 42 65 43 66 54 68
REMARK SMILES IDX 72 69 45 70 32 71 33 72 38 73 34 74 35 75 37 76 39 77 36 78
REMARK SMILES IDX 58 79 59 80 64 81 60 82 61 83 63 84 65 85 62 86 46 87 47 88
REMARK SMILES IDX 52 89 48 90 49 91 51 92 53 93 50 94
REMARK H PARENT 13 7 77 21 81 28 20 37 70 56 44 67
REMARK Flexibility Score: inf
ROOT
ATOM      1  C   UNL     1       7.516  -0.809  -2.555  1.00  0.00     0.002 C 
ENDROOT
BRANCH   1   2
ATOM      2  C   UNL     1       6.068  -1.028  -2.978  1.00  0.00     0.021 C 
BRANCH   2   3
ATOM      3  C   UNL     1       5.013  -0.728  -1.931  1.00  0.00     0.116 C 
BRANCH   3   4
ATOM      4  N   UNL     1       5.029   0.632  -1.413  1.00  0.00    -0.351 N 
ATOM      5  C   UNL     1       4.172   1.161  -0.454  1.00  0.00     0.283 C 
ATOM      6  O   UNL     1       4.496   2.212   0.110  1.00  0.00    -0.268 OA
ATOM      7  H   UNL     1       5.714   1.238  -1.778  1.00  0.00     0.163 HD
BRANCH   5   8
ATOM      8  C   UNL     1       2.906   0.332   0.021  1.00  0.00     0.309 C 
BRANCH   8   9
ATOM      9  C   UNL     1       2.104  -0.048  -1.254  1.00  0.00     0.061 A 
ATOM     10  C   UNL     1       2.029   0.887  -2.334  1.00  0.00     0.128 A 
ATOM     11  C   UNL     1       1.657   0.473  -3.618  1.00  0.00     0.047 A 
ATOM     12  C   UNL     1       1.315  -0.858  -3.845  1.00  0.00     0.004 A 
ATOM     13  C   UNL     1       1.648  -1.357  -1.488  1.00  0.00     0.014 A 
ATOM     14  C   UNL     1       1.272  -1.757  -2.779  1.00  0.00     0.001 A 
BRANCH  10  15
ATOM     15  O   UNL     1       2.373   2.195  -2.078  1.00  0.00    -0.493 OA
BRANCH  15  16
ATOM     16  C   UNL     1       3.195   2.838  -3.066  1.00  0.00     0.226 C 
ATOM     17  C   UNL     1       4.029   3.926  -2.398  1.00  0.00     0.049 C 
ENDBRANCH  15  16
ENDBRANCH  10  15
ENDBRANCH   8   9
BRANCH   8  18
ATOM     18  N   UNL     1       3.406  -0.807   0.916  1.00  0.00    -0.320 N 
ATOM     19  C   UNL     1       4.742  -0.491   1.451  1.00  0.00     0.269 C 
ATOM     20  C   UNL     1       2.563  -1.058   2.114  1.00  0.00     0.269 C 
ATOM     21  H   UNL     1       3.393  -1.626   0.308  1.00  0.00     0.349 HD
ATOM     22  C   UNL     1       5.359  -1.732   2.022  1.00  0.00     0.126 C 
ATOM     23  C   UNL     1       3.155  -2.159   3.078  1.00  0.00     0.126 C 
ATOM     24  C   UNL     1       4.693  -2.045   3.349  1.00  0.00     0.195 C 
BRANCH  24  25
ATOM     25  N   UNL     1       5.403  -3.142   4.088  1.00  0.00    -0.331 N 
ATOM     26  C   UNL     1       6.886  -2.990   3.978  1.00  0.00     0.273 C 
ATOM     27  C   UNL     1       4.995  -4.497   3.678  1.00  0.00     0.273 C 
ATOM     28  H   UNL     1       5.124  -3.042   5.064  1.00  0.00     0.348 HD
ATOM     29  C   UNL     1       7.768  -3.950   4.779  1.00  0.00     0.131 C 
ATOM     30  C   UNL     1       5.669  -5.631   4.471  1.00  0.00     0.131 C 
ATOM     31  S   UNL     1       7.474  -5.667   4.277  1.00  0.00    -0.150 SA
ENDBRANCH  24  25
ENDBRANCH   8  18
ENDBRANCH   5   8
ENDBRANCH   3   4
ENDBRANCH   2   3
ENDBRANCH   1   2
BRANCH   1  32
ATOM     32  C   UNL     1       7.929  -1.317  -1.172  1.00  0.00     0.002 C 
BRANCH  32  33
ATOM     33  C   UNL     1       7.623  -2.777  -0.832  1.00  0.00     0.021 C 
BRANCH  33  34
ATOM     34  C   UNL     1       8.013  -3.810  -1.877  1.00  0.00     0.116 C 
BRANCH  34  35
ATOM     35  N   UNL     1       9.417  -3.758  -2.228  1.00  0.00    -0.352 N 
ATOM     36  C   UNL     1      10.296  -4.791  -2.435  1.00  0.00     0.251 C 
ATOM     37  H   UNL     1       9.795  -2.854  -2.331  1.00  0.00     0.163 HD
ATOM     38  O   UNL     1      11.484  -4.557  -2.620  1.00  0.00    -0.269 OA
BRANCH  36  39
ATOM     39  C   UNL     1       9.815  -6.190  -2.409  1.00  0.00     0.039 A 
ATOM     40  C   UNL     1      10.571  -7.136  -1.711  1.00  0.00     0.014 A 
ATOM     41  C   UNL     1       8.653  -6.579  -3.083  1.00  0.00     0.014 A 
ATOM     42  C   UNL     1      10.143  -8.463  -1.658  1.00  0.00     0.010 A 
ATOM     43  C   UNL     1       8.194  -7.891  -2.978  1.00  0.00     0.010 A 
ATOM     44  C   UNL     1       8.943  -8.847  -2.277  1.00  0.00    -0.014 A 
BRANCH  44  45
ATOM     45  C   UNL     1       8.482 -10.255  -2.218  1.00  0.00     0.031 A 
ATOM     46  C   UNL     1       8.454 -11.093  -3.466  1.00  0.00     0.074 A 
ATOM     47  C   UNL     1       8.058 -10.768  -1.048  1.00  0.00     0.049 A 
ATOM     48  N   UNL     1       8.080 -12.338  -3.617  1.00  0.00    -0.248 NA
ATOM     49  C   UNL     1       8.877 -10.438  -4.714  1.00  0.00     0.031 C 
ATOM     50  C   UNL     1       7.984 -10.037   0.219  1.00  0.00     0.029 A 
ATOM     51  N   UNL     1       7.606 -12.024  -0.735  1.00  0.00    -0.354 N 
ATOM     52  C   UNL     1       8.207 -12.609  -4.973  1.00  0.00     0.074 A 
ATOM     53  C   UNL     1       8.649 -11.387  -5.610  1.00  0.00     0.031 C 
ATOM     54  C   UNL     1       7.538 -10.866   1.177  1.00  0.00     0.029 A 
ATOM     55  C   UNL     1       7.276 -12.176   0.589  1.00  0.00     0.049 A 
ATOM     56  H   UNL     1       7.527 -12.749  -1.397  1.00  0.00     0.167 HD
ATOM     57  C   UNL     1       7.997 -13.777  -5.625  1.00  0.00     0.037 A 
ATOM     58  C   UNL     1       6.821 -13.254   1.254  1.00  0.00     0.037 A 
ATOM     59  C   UNL     1       7.597 -15.001  -4.984  1.00  0.00     0.049 A 
ATOM     60  C   UNL     1       6.636 -14.549   0.515  1.00  0.00     0.074 A 
ATOM     61  C   UNL     1       7.434 -16.256  -5.545  1.00  0.00     0.029 A 
ATOM     62  N   UNL     1       7.302 -15.123  -3.635  1.00  0.00    -0.354 N 
ATOM     63  N   UNL     1       6.833 -14.811  -0.754  1.00  0.00    -0.248 NA
ATOM     64  C   UNL     1       6.175 -15.701   1.303  1.00  0.00     0.031 C 
ATOM     65  C   UNL     1       7.009 -17.131  -4.540  1.00  0.00     0.029 A 
ATOM     66  C   UNL     1       6.941 -16.428  -3.348  1.00  0.00     0.049 A 
ATOM     67  H   UNL     1       7.343 -14.390  -2.979  1.00  0.00     0.167 HD
ATOM     68  C   UNL     1       6.539 -16.158  -0.915  1.00  0.00     0.074 A 
ATOM     69  C   UNL     1       6.165 -16.664   0.391  1.00  0.00     0.031 C 
ATOM     70  C   UNL     1       6.572 -16.910  -2.042  1.00  0.00     0.037 A 
BRANCH  57  71
ATOM     71  C   UNL     1       8.206 -13.785  -7.110  1.00  0.00     0.057 A 
ATOM     72  C   UNL     1       9.487 -13.727  -7.675  1.00  0.00     0.134 A 
ATOM     73  C   UNL     1       7.117 -13.883  -7.985  1.00  0.00     0.134 A 
ATOM     74  F   UNL     1      10.570 -13.619  -6.891  1.00  0.00    -0.206 F 
ATOM     75  C   UNL     1       9.677 -13.743  -9.057  1.00  0.00     0.040 A 
ATOM     76  C   UNL     1       7.296 -13.922  -9.369  1.00  0.00     0.040 A 
ATOM     77  F   UNL     1       5.864 -13.946  -7.510  1.00  0.00    -0.206 F 
ATOM     78  C   UNL     1       8.578 -13.847  -9.909  1.00  0.00     0.006 A 
ENDBRANCH  57  71
BRANCH  58  79
ATOM     79  C   UNL     1       6.545 -13.163   2.708  1.00  0.00     0.057 A 
ATOM     80  C   UNL     1       7.393 -13.769   3.642  1.00  0.00     0.134 A 
ATOM     81  C   UNL     1       5.434 -12.467   3.197  1.00  0.00     0.134 A 
ATOM     82  F   UNL     1       8.463 -14.465   3.230  1.00  0.00    -0.206 F 
ATOM     83  C   UNL     1       7.138 -13.698   5.012  1.00  0.00     0.040 A 
ATOM     84  C   UNL     1       5.178 -12.371   4.566  1.00  0.00     0.040 A 
ATOM     85  F   UNL     1       4.588 -11.860   2.352  1.00  0.00    -0.206 F 
ATOM     86  C   UNL     1       6.030 -12.993   5.477  1.00  0.00     0.006 A 
ENDBRANCH  58  79
BRANCH  70  87
ATOM     87  C   UNL     1       6.208 -18.357  -1.906  1.00  0.00     0.057 A 
ATOM     88  C   UNL     1       4.879 -18.767  -1.743  1.00  0.00     0.134 A 
ATOM     89  C   UNL     1       7.192 -19.351  -1.973  1.00  0.00     0.134 A 
ATOM     90  F   UNL     1       3.894 -17.860  -1.659  1.00  0.00    -0.206 F 
ATOM     91  C   UNL     1       4.543 -20.116  -1.632  1.00  0.00     0.040 A 
ATOM     92  C   UNL     1       6.865 -20.704  -1.884  1.00  0.00     0.040 A 
ATOM     93  F   UNL     1       8.482 -19.023  -2.135  1.00  0.00    -0.206 F 
ATOM     94  C   UNL     1       5.538 -21.090  -1.708  1.00  0.00     0.006 A 
ENDBRANCH  70  87
ENDBRANCH  44  45
ENDBRANCH  36  39
ENDBRANCH  34  35
ENDBRANCH  33  34
ENDBRANCH  32  33
ENDBRANCH   1  32
TORSDOF 18
