REMARK SMILES C[C@H](C(=O)NCCCCCCNC(=O)c1ccc(-c2c3nc(c(-c4c(F)cccc4F)c4ccc([nH]4)c(-c4c(F)cccc4F)c4nc(c(-c5c(F)cccc5F)c5ccc2[nH]5)C=C4)C=C3)cc1)S(=O)(=O)NC[C@@H]1C[N@@H+](C)CCO1
REMARK SMILES IDX 7 1 6 2 5 3 3 4 4 5 2 7 1 8 69 9 70 10 71 11 72 12 73 14
REMARK SMILES IDX 74 15 75 16 80 17 76 18 79 19 77 20 78 21 8 23 9 24 10 25
REMARK SMILES IDX 11 26 12 27 13 28 14 30 15 31 16 32 68 33 17 34 67 35 18 36
REMARK SMILES IDX 19 37 20 38 61 39 21 40 66 41 60 42 62 43 22 44 65 45 59 46
REMARK SMILES IDX 58 47 23 49 49 50 32 51 48 52 33 53 36 54 47 55 63 56 34 57
REMARK SMILES IDX 35 58 46 60 64 61 37 62 24 63 25 64 30 65 26 66 27 67 29 68
REMARK SMILES IDX 31 69 28 70 50 71 51 72 56 73 52 74 53 75 55 76 57 77 54 78
REMARK SMILES IDX 38 79 39 80 44 81 40 82 41 83 43 84 45 85 42 86
REMARK H PARENT 5 6 72 13 76 22 12 29 62 48 36 59
REMARK Flexibility Score: inf
ROOT
ATOM      1  C   UNL     1      -1.843  -2.452   0.787  1.00  0.00     0.021 C 
ENDROOT
BRANCH   1   2
ATOM      2  C   UNL     1      -0.621  -1.727   1.384  1.00  0.00     0.116 C 
BRANCH   2   3
ATOM      3  N   UNL     1       0.317  -1.267   0.370  1.00  0.00    -0.355 N 
ATOM      4  C   UNL     1       0.727  -0.036  -0.035  1.00  0.00     0.239 C 
ATOM      5  O   UNL     1       1.485  -0.056  -1.015  1.00  0.00    -0.274 OA
ATOM      6  H   UNL     1       0.744  -2.002  -0.127  1.00  0.00     0.163 HD
BRANCH   4   7
ATOM      7  C   UNL     1       0.388   1.265   0.662  1.00  0.00     0.209 C 
ATOM      8  C   UNL     1       1.345   2.377   0.209  1.00  0.00     0.037 C 
BRANCH   7   9
ATOM      9  S   UNL     1      -1.311   1.810   0.424  1.00  0.00     0.223 S 
ATOM     10  O   UNL     1      -2.229   0.744   0.749  1.00  0.00    -0.212 OA
ATOM     11  O   UNL     1      -1.466   3.067   1.133  1.00  0.00    -0.212 OA
BRANCH   9  12
ATOM     12  N   UNL     1      -1.522   2.210  -1.196  1.00  0.00    -0.212 NA
ATOM     13  H   UNL     1      -0.948   3.038  -1.358  1.00  0.00     0.141 HD
BRANCH  12  14
ATOM     14  C   UNL     1      -1.211   1.269  -2.318  1.00  0.00     0.136 C 
BRANCH  14  15
ATOM     15  C   UNL     1      -1.849  -0.108  -2.133  1.00  0.00     0.188 C 
ATOM     16  C   UNL     1      -1.268  -1.226  -3.038  1.00  0.00     0.295 C 
ATOM     17  O   UNL     1      -3.279  -0.002  -2.077  1.00  0.00    -0.365 OA
ATOM     18  N   UNL     1      -2.105  -1.732  -4.136  1.00  0.00    -0.333 N 
ATOM     19  C   UNL     1      -3.905  -0.275  -3.324  1.00  0.00     0.222 C 
ATOM     20  C   UNL     1      -1.723  -3.108  -4.470  1.00  0.00     0.332 C 
ATOM     21  C   UNL     1      -3.532  -1.681  -3.785  1.00  0.00     0.290 C 
ATOM     22  H   UNL     1      -1.955  -1.134  -4.948  1.00  0.00     0.348 HD
ENDBRANCH  14  15
ENDBRANCH  12  14
ENDBRANCH   9  12
ENDBRANCH   7   9
ENDBRANCH   4   7
ENDBRANCH   2   3
ENDBRANCH   1   2
BRANCH   1  23
ATOM     23  C   UNL     1      -1.508  -3.712  -0.030  1.00  0.00     0.002 C 
BRANCH  23  24
ATOM     24  C   UNL     1      -2.041  -5.015   0.571  1.00  0.00     0.002 C 
BRANCH  24  25
ATOM     25  C   UNL     1      -3.560  -5.087   0.761  1.00  0.00     0.021 C 
BRANCH  25  26
ATOM     26  C   UNL     1      -4.391  -4.759  -0.476  1.00  0.00     0.116 C 
BRANCH  26  27
ATOM     27  N   UNL     1      -4.197  -5.731  -1.542  1.00  0.00    -0.352 N 
ATOM     28  C   UNL     1      -5.114  -6.588  -2.100  1.00  0.00     0.251 C 
ATOM     29  H   UNL     1      -3.287  -5.780  -1.913  1.00  0.00     0.163 HD
ATOM     30  O   UNL     1      -4.757  -7.488  -2.851  1.00  0.00    -0.269 OA
BRANCH  28  31
ATOM     31  C   UNL     1      -6.543  -6.424  -1.769  1.00  0.00     0.039 A 
ATOM     32  C   UNL     1      -7.252  -7.514  -1.264  1.00  0.00     0.014 A 
ATOM     33  C   UNL     1      -7.169  -5.183  -1.935  1.00  0.00     0.014 A 
ATOM     34  C   UNL     1      -8.578  -7.344  -0.866  1.00  0.00     0.010 A 
ATOM     35  C   UNL     1      -8.474  -5.002  -1.483  1.00  0.00     0.010 A 
ATOM     36  C   UNL     1      -9.190  -6.080  -0.941  1.00  0.00    -0.014 A 
BRANCH  36  37
ATOM     37  C   UNL     1     -10.570  -5.886  -0.426  1.00  0.00     0.031 A 
ATOM     38  C   UNL     1     -11.699  -5.560  -1.362  1.00  0.00     0.074 A 
ATOM     39  C   UNL     1     -10.799  -5.997   0.898  1.00  0.00     0.049 A 
ATOM     40  N   UNL     1     -12.971  -5.404  -1.097  1.00  0.00    -0.248 NA
ATOM     41  C   UNL     1     -11.354  -5.367  -2.780  1.00  0.00     0.031 C 
ATOM     42  C   UNL     1      -9.775  -6.249   1.914  1.00  0.00     0.029 A 
ATOM     43  N   UNL     1     -11.966  -5.916   1.616  1.00  0.00    -0.354 N 
ATOM     44  C   UNL     1     -13.579  -5.111  -2.311  1.00  0.00     0.074 A 
ATOM     45  C   UNL     1     -12.528  -5.045  -3.303  1.00  0.00     0.031 C 
ATOM     46  C   UNL     1     -10.362  -6.333   3.119  1.00  0.00     0.029 A 
ATOM     47  C   UNL     1     -11.797  -6.113   2.966  1.00  0.00     0.049 A 
ATOM     48  H   UNL     1     -12.841  -5.734   1.204  1.00  0.00     0.167 HD
ATOM     49  C   UNL     1     -14.896  -4.944  -2.579  1.00  0.00     0.037 A 
ATOM     50  C   UNL     1     -12.698  -6.119   3.966  1.00  0.00     0.037 A 
ATOM     51  C   UNL     1     -15.940  -5.009  -1.589  1.00  0.00     0.049 A 
ATOM     52  C   UNL     1     -14.153  -5.917   3.639  1.00  0.00     0.074 A 
ATOM     53  C   UNL     1     -17.307  -4.881  -1.766  1.00  0.00     0.029 A 
ATOM     54  N   UNL     1     -15.731  -5.215  -0.234  1.00  0.00    -0.354 N 
ATOM     55  N   UNL     1     -14.720  -5.719   2.474  1.00  0.00    -0.248 NA
ATOM     56  C   UNL     1     -15.095  -5.954   4.767  1.00  0.00     0.031 C 
ATOM     57  C   UNL     1     -17.921  -4.968  -0.512  1.00  0.00     0.029 A 
ATOM     58  C   UNL     1     -16.942  -5.201   0.439  1.00  0.00     0.049 A 
ATOM     59  H   UNL     1     -14.852  -5.352   0.188  1.00  0.00     0.167 HD
ATOM     60  C   UNL     1     -16.083  -5.631   2.724  1.00  0.00     0.074 A 
ATOM     61  C   UNL     1     -16.259  -5.829   4.148  1.00  0.00     0.031 C 
ATOM     62  C   UNL     1     -17.099  -5.399   1.857  1.00  0.00     0.037 A 
BRANCH  49  63
ATOM     63  C   UNL     1     -15.287  -4.694  -4.007  1.00  0.00     0.057 A 
ATOM     64  C   UNL     1     -15.204  -5.703  -4.977  1.00  0.00     0.134 A 
ATOM     65  C   UNL     1     -15.806  -3.457  -4.408  1.00  0.00     0.134 A 
ATOM     66  F   UNL     1     -14.705  -6.909  -4.662  1.00  0.00    -0.206 F 
ATOM     67  C   UNL     1     -15.605  -5.486  -6.296  1.00  0.00     0.040 A 
ATOM     68  C   UNL     1     -16.236  -3.235  -5.718  1.00  0.00     0.040 A 
ATOM     69  F   UNL     1     -15.920  -2.449  -3.530  1.00  0.00    -0.206 F 
ATOM     70  C   UNL     1     -16.132  -4.250  -6.667  1.00  0.00     0.006 A 
ENDBRANCH  49  63
BRANCH  50  71
ATOM     71  C   UNL     1     -12.261  -6.333   5.371  1.00  0.00     0.057 A 
ATOM     72  C   UNL     1     -12.626  -7.483   6.081  1.00  0.00     0.134 A 
ATOM     73  C   UNL     1     -11.500  -5.373   6.050  1.00  0.00     0.134 A 
ATOM     74  F   UNL     1     -13.369  -8.432   5.493  1.00  0.00    -0.206 F 
ATOM     75  C   UNL     1     -12.281  -7.656   7.423  1.00  0.00     0.040 A 
ATOM     76  C   UNL     1     -11.122  -5.547   7.382  1.00  0.00     0.040 A 
ATOM     77  F   UNL     1     -11.109  -4.253   5.425  1.00  0.00    -0.206 F 
ATOM     78  C   UNL     1     -11.523  -6.686   8.076  1.00  0.00     0.006 A 
ENDBRANCH  50  71
BRANCH  62  79
ATOM     79  C   UNL     1     -18.488  -5.374   2.427  1.00  0.00     0.057 A 
ATOM     80  C   UNL     1     -18.928  -4.335   3.259  1.00  0.00     0.134 A 
ATOM     81  C   UNL     1     -19.401  -6.395   2.133  1.00  0.00     0.134 A 
ATOM     82  F   UNL     1     -18.100  -3.333   3.591  1.00  0.00    -0.206 F 
ATOM     83  C   UNL     1     -20.211  -4.333   3.808  1.00  0.00     0.040 A 
ATOM     84  C   UNL     1     -20.697  -6.388   2.650  1.00  0.00     0.040 A 
ATOM     85  F   UNL     1     -19.049  -7.414   1.334  1.00  0.00    -0.206 F 
ATOM     86  C   UNL     1     -21.101  -5.360   3.499  1.00  0.00     0.006 A 
ENDBRANCH  62  79
ENDBRANCH  36  37
ENDBRANCH  28  31
ENDBRANCH  26  27
ENDBRANCH  25  26
ENDBRANCH  24  25
ENDBRANCH  23  24
ENDBRANCH   1  23
TORSDOF 17
