REMARK SMILES O=C(NCCCCCCNC(=O)c1cc(S(=O)(=O)ON2C(=O)c3cccc4cccc(c34)C2=O)ccc1Br)c1ccc(-c2c3nc(c(-c4c(F)cccc4F)c4ccc([nH]4)c(-c4c(F)cccc4F)c4nc(c(-c5c(F)cccc5F)c5ccc2[nH]5)C=C4)C=C3)cc1
REMARK SMILES IDX 7 1 6 2 5 3 4 4 3 5 1 6 2 7 39 9 40 10 92 11 41 12 91 13
REMARK SMILES IDX 42 14 43 15 44 16 85 17 45 18 90 19 84 20 86 21 46 22 89 23
REMARK SMILES IDX 83 24 82 25 47 27 73 28 56 29 72 30 57 31 60 32 71 33 87 34
REMARK SMILES IDX 58 35 59 36 70 38 88 39 61 40 48 41 49 42 54 43 50 44 51 45
REMARK SMILES IDX 53 46 55 47 52 48 74 49 75 50 80 51 76 52 77 53 79 54 81 55
REMARK SMILES IDX 78 56 62 57 63 58 68 59 64 60 65 61 67 62 69 63 66 64 8 65
REMARK SMILES IDX 9 66 10 67 11 68 12 70 13 71 14 72 37 73 15 74 36 75 38 76
REMARK SMILES IDX 35 77 16 78 17 79 18 80 19 81 20 82 21 83 33 84 22 85 23 86
REMARK SMILES IDX 31 87 34 88 24 89 32 90 30 91 25 92 27 93 29 94 26 95 28 96
REMARK H PARENT 3 8 86 26 60 37 10 69
REMARK Flexibility Score: inf
ROOT
ATOM      1  C   UNL     1       4.755   3.730   2.203  1.00  0.00     0.002 C 
ENDROOT
BRANCH   1   2
ATOM      2  C   UNL     1       4.234   3.789   0.763  1.00  0.00     0.002 C 
BRANCH   2   3
ATOM      3  C   UNL     1       4.704   2.666  -0.161  1.00  0.00     0.021 C 
BRANCH   3   4
ATOM      4  C   UNL     1       4.425   1.255   0.340  1.00  0.00     0.116 C 
BRANCH   4   5
ATOM      5  N   UNL     1       3.006   0.955   0.414  1.00  0.00    -0.352 N 
ATOM      6  O   UNL     1       1.104  -0.168  -0.052  1.00  0.00    -0.269 OA
ATOM      7  C   UNL     1       2.330  -0.136  -0.075  1.00  0.00     0.251 C 
ATOM      8  H   UNL     1       2.454   1.624   0.879  1.00  0.00     0.163 HD
BRANCH   7   9
ATOM      9  C   UNL     1       3.086  -1.272  -0.649  1.00  0.00     0.039 A 
ATOM     10  C   UNL     1       4.205  -1.790   0.009  1.00  0.00     0.014 A 
ATOM     11  C   UNL     1       2.648  -1.843  -1.847  1.00  0.00     0.014 A 
ATOM     12  C   UNL     1       4.945  -2.809  -0.581  1.00  0.00     0.010 A 
ATOM     13  C   UNL     1       3.349  -2.918  -2.402  1.00  0.00     0.010 A 
ATOM     14  C   UNL     1       4.509  -3.402  -1.777  1.00  0.00    -0.014 A 
BRANCH  14  15
ATOM     15  C   UNL     1       5.210  -4.607  -2.284  1.00  0.00     0.031 A 
ATOM     16  C   UNL     1       5.967  -4.590  -3.581  1.00  0.00     0.074 A 
ATOM     17  C   UNL     1       5.152  -5.731  -1.544  1.00  0.00     0.049 A 
ATOM     18  N   UNL     1       6.629  -5.562  -4.156  1.00  0.00    -0.248 NA
ATOM     19  C   UNL     1       5.980  -3.327  -4.335  1.00  0.00     0.031 C 
ATOM     20  C   UNL     1       4.423  -5.869  -0.279  1.00  0.00     0.029 A 
ATOM     21  N   UNL     1       5.715  -6.966  -1.736  1.00  0.00    -0.354 N 
ATOM     22  C   UNL     1       7.123  -5.038  -5.343  1.00  0.00     0.074 A 
ATOM     23  C   UNL     1       6.673  -3.664  -5.416  1.00  0.00     0.031 C 
ATOM     24  C   UNL     1       4.608  -7.105   0.205  1.00  0.00     0.029 A 
ATOM     25  C   UNL     1       5.416  -7.864  -0.741  1.00  0.00     0.049 A 
ATOM     26  H   UNL     1       6.279  -7.188  -2.512  1.00  0.00     0.167 HD
ATOM     27  C   UNL     1       7.885  -5.653  -6.279  1.00  0.00     0.037 A 
ATOM     28  C   UNL     1       5.734  -9.165  -0.613  1.00  0.00     0.037 A 
ATOM     29  C   UNL     1       8.345  -7.016  -6.188  1.00  0.00     0.049 A 
ATOM     30  C   UNL     1       6.562  -9.818  -1.679  1.00  0.00     0.074 A 
ATOM     31  C   UNL     1       9.178  -7.703  -7.054  1.00  0.00     0.029 A 
ATOM     32  N   UNL     1       8.003  -7.901  -5.177  1.00  0.00    -0.354 N 
ATOM     33  N   UNL     1       7.074  -9.291  -2.764  1.00  0.00    -0.248 NA
ATOM     34  C   UNL     1       6.851 -11.248  -1.509  1.00  0.00     0.031 C 
ATOM     35  C   UNL     1       9.302  -9.018  -6.593  1.00  0.00     0.029 A 
ATOM     36  C   UNL     1       8.581  -9.138  -5.417  1.00  0.00     0.049 A 
ATOM     37  H   UNL     1       7.434  -7.683  -4.403  1.00  0.00     0.167 HD
ATOM     38  C   UNL     1       7.750 -10.320  -3.402  1.00  0.00     0.074 A 
ATOM     39  C   UNL     1       7.609 -11.495  -2.567  1.00  0.00     0.031 C 
ATOM     40  C   UNL     1       8.422 -10.297  -4.579  1.00  0.00     0.037 A 
BRANCH  27  41
ATOM     41  C   UNL     1       8.272  -4.871  -7.500  1.00  0.00     0.057 A 
ATOM     42  C   UNL     1       9.265  -3.886  -7.463  1.00  0.00     0.134 A 
ATOM     43  C   UNL     1       7.711  -5.178  -8.747  1.00  0.00     0.134 A 
ATOM     44  F   UNL     1       9.838  -3.540  -6.300  1.00  0.00    -0.206 F 
ATOM     45  C   UNL     1       9.686  -3.231  -8.623  1.00  0.00     0.040 A 
ATOM     46  C   UNL     1       8.136  -4.544  -9.916  1.00  0.00     0.040 A 
ATOM     47  F   UNL     1       6.760  -6.119  -8.853  1.00  0.00    -0.206 F 
ATOM     48  C   UNL     1       9.127  -3.567  -9.855  1.00  0.00     0.006 A 
ENDBRANCH  27  41
BRANCH  28  49
ATOM     49  C   UNL     1       5.241  -9.939   0.552  1.00  0.00     0.057 A 
ATOM     50  C   UNL     1       6.117 -10.410   1.536  1.00  0.00     0.134 A 
ATOM     51  C   UNL     1       3.880 -10.232   0.705  1.00  0.00     0.134 A 
ATOM     52  F   UNL     1       7.433 -10.175   1.436  1.00  0.00    -0.206 F 
ATOM     53  C   UNL     1       5.660 -11.162   2.619  1.00  0.00     0.040 A 
ATOM     54  C   UNL     1       3.406 -10.958   1.797  1.00  0.00     0.040 A 
ATOM     55  F   UNL     1       2.989  -9.802  -0.201  1.00  0.00    -0.206 F 
ATOM     56  C   UNL     1       4.300 -11.433   2.754  1.00  0.00     0.006 A 
ENDBRANCH  28  49
BRANCH  40  57
ATOM     57  C   UNL     1       9.056 -11.582  -5.019  1.00  0.00     0.057 A 
ATOM     58  C   UNL     1       8.289 -12.649  -5.505  1.00  0.00     0.134 A 
ATOM     59  C   UNL     1      10.445 -11.748  -4.974  1.00  0.00     0.134 A 
ATOM     60  F   UNL     1       6.952 -12.557  -5.556  1.00  0.00    -0.206 F 
ATOM     61  C   UNL     1       8.882 -13.846  -5.908  1.00  0.00     0.040 A 
ATOM     62  C   UNL     1      11.051 -12.931  -5.398  1.00  0.00     0.040 A 
ATOM     63  F   UNL     1      11.236 -10.761  -4.525  1.00  0.00    -0.206 F 
ATOM     64  C   UNL     1      10.267 -13.987  -5.860  1.00  0.00     0.006 A 
ENDBRANCH  40  57
ENDBRANCH  14  15
ENDBRANCH   7   9
ENDBRANCH   4   5
ENDBRANCH   3   4
ENDBRANCH   2   3
ENDBRANCH   1   2
BRANCH   1  65
ATOM     65  C   UNL     1       6.275   3.609   2.365  1.00  0.00     0.021 C 
BRANCH  65  66
ATOM     66  C   UNL     1       7.099   4.661   1.629  1.00  0.00     0.116 C 
BRANCH  66  67
ATOM     67  N   UNL     1       6.808   6.012   2.073  1.00  0.00    -0.352 N 
ATOM     68  C   UNL     1       7.680   7.038   2.325  1.00  0.00     0.252 C 
ATOM     69  H   UNL     1       5.856   6.218   2.211  1.00  0.00     0.163 HD
ATOM     70  O   UNL     1       7.277   8.126   2.723  1.00  0.00    -0.269 OA
BRANCH  68  71
ATOM     71  C   UNL     1       9.129   6.811   2.192  1.00  0.00     0.055 A 
ATOM     72  C   UNL     1       9.873   6.801   3.378  1.00  0.00     0.038 A 
ATOM     73  C   UNL     1       9.768   6.639   0.958  1.00  0.00     0.030 A 
ATOM     74  C   UNL     1      11.249   6.564   3.322  1.00  0.00     0.097 A 
ATOM     75  C   UNL     1      11.144   6.383   0.920  1.00  0.00     0.018 A 
ATOM     76  Br  UNL     1       8.859   6.784  -0.702  1.00  0.00    -0.050 Br
ATOM     77  C   UNL     1      11.889   6.338   2.102  1.00  0.00     0.024 A 
BRANCH  74  78
ATOM     78  S   UNL     1      12.163   6.582   4.844  1.00  0.00     0.318 S 
ATOM     79  O   UNL     1      11.877   7.856   5.481  1.00  0.00    -0.192 OA
ATOM     80  O   UNL     1      11.851   5.341   5.517  1.00  0.00    -0.192 OA
BRANCH  78  81
ATOM     81  O   UNL     1      13.739   6.564   4.394  1.00  0.00    -0.134 OA
BRANCH  81  82
ATOM     82  N   UNL     1      14.596   6.666   5.510  1.00  0.00    -0.127 N 
ATOM     83  C   UNL     1      15.010   7.947   5.816  1.00  0.00     0.286 C 
ATOM     84  C   UNL     1      15.105   5.471   5.978  1.00  0.00     0.286 C 
ATOM     85  O   UNL     1      14.775   8.941   5.137  1.00  0.00    -0.266 OA
ATOM     86  C   UNL     1      15.818   8.051   7.053  1.00  0.00     0.051 A 
ATOM     87  C   UNL     1      15.962   5.595   7.182  1.00  0.00     0.051 A 
ATOM     88  O   UNL     1      14.909   4.376   5.460  1.00  0.00    -0.266 OA
ATOM     89  C   UNL     1      16.115   9.313   7.577  1.00  0.00     0.014 A 
ATOM     90  C   UNL     1      16.257   6.875   7.687  1.00  0.00     0.007 A 
ATOM     91  C   UNL     1      16.438   4.441   7.814  1.00  0.00     0.014 A 
ATOM     92  C   UNL     1      16.853   9.413   8.752  1.00  0.00     0.001 A 
ATOM     93  C   UNL     1      17.024   6.984   8.869  1.00  0.00    -0.017 A 
ATOM     94  C   UNL     1      17.203   4.555   8.971  1.00  0.00     0.001 A 
ATOM     95  C   UNL     1      17.306   8.257   9.392  1.00  0.00     0.009 A 
ATOM     96  C   UNL     1      17.487   5.817   9.498  1.00  0.00     0.009 A 
ENDBRANCH  81  82
ENDBRANCH  78  81
ENDBRANCH  74  78
ENDBRANCH  68  71
ENDBRANCH  66  67
ENDBRANCH  65  66
ENDBRANCH   1  65
TORSDOF 16
