REMARK SMILES CCCCCCNC(=O)Oc1cccc(-c2ccc([C@@H](C)C(=O)NCCCCCCNC(=O)c3ccc(-c4c5nc(c(-c6c(F)cccc6F)c6ccc([nH]6)c(-c6c(F)cccc6F)c6nc(c(-c7c(F)cccc7F)c7ccc4[nH]7)C=C6)C=C5)cc3)cc2Cl)c1
REMARK SMILES IDX 22 1 23 2 24 3 20 5 21 6 19 7 16 8 17 9 89 10 18 11 88 12
REMARK SMILES IDX 90 13 15 14 11 15 12 16 91 17 13 18 14 19 10 20 8 21 7 22
REMARK SMILES IDX 9 24 6 25 5 26 4 27 3 28 2 29 1 30 25 31 26 32 27 33 28 34
REMARK SMILES IDX 29 35 30 36 31 37 32 38 33 40 34 41 35 42 87 43 36 44 86 45
REMARK SMILES IDX 37 46 38 47 39 48 80 49 40 50 85 51 79 52 81 53 41 54 84 55
REMARK SMILES IDX 78 56 77 57 42 59 68 60 51 61 67 62 52 63 55 64 66 65 82 66
REMARK SMILES IDX 53 67 54 68 65 70 83 71 56 72 43 73 44 74 49 75 45 76 46 77
REMARK SMILES IDX 48 78 50 79 47 80 69 81 70 82 75 83 71 84 72 85 74 86 76 87
REMARK SMILES IDX 73 88 57 89 58 90 63 91 59 92 60 93 62 94 64 95 61 96
REMARK H PARENT 24 4 7 23 31 39 81 58 55 69
REMARK Flexibility Score: inf
ROOT
ATOM      1  C   UNL     1      -3.322   3.229 -13.902  1.00  0.00     0.227 C 
ATOM      2  O   UNL     1      -2.426   2.392 -14.065  1.00  0.00    -0.274 OA
ATOM      3  N   UNL     1      -2.999   4.521 -14.180  1.00  0.00    -0.356 N 
ATOM      4  H   UNL     1      -2.097   4.637 -14.558  1.00  0.00     0.163 HD
ENDROOT
BRANCH   1   5
ATOM      5  C   UNL     1      -4.711   2.777 -13.422  1.00  0.00     0.105 C 
ATOM      6  C   UNL     1      -5.847   3.104 -14.390  1.00  0.00     0.023 C 
BRANCH   5   7
ATOM      7  C   UNL     1      -4.978   3.083 -11.956  1.00  0.00    -0.034 A 
ATOM      8  C   UNL     1      -5.257   3.645  -9.158  1.00  0.00     0.000 A 
ATOM      9  C   UNL     1      -5.617   4.578 -10.148  1.00  0.00     0.010 A 
ATOM     10  C   UNL     1      -4.819   2.385  -9.611  1.00  0.00     0.049 A 
ATOM     11  C   UNL     1      -5.518   4.290 -11.514  1.00  0.00     0.005 A 
ATOM     12  C   UNL     1      -4.651   2.127 -10.982  1.00  0.00     0.025 A 
ATOM     13  Cl  UNL     1      -4.514   1.055  -8.541  1.00  0.00    -0.084 Cl
BRANCH   8  14
ATOM     14  C   UNL     1      -5.338   4.052  -7.734  1.00  0.00    -0.013 A 
ATOM     15  C   UNL     1      -4.373   4.216  -5.506  1.00  0.00     0.133 A 
ATOM     16  C   UNL     1      -5.483   4.910  -5.037  1.00  0.00     0.047 A 
ATOM     17  C   UNL     1      -4.288   3.799  -6.835  1.00  0.00     0.056 A 
ATOM     18  C   UNL     1      -6.523   5.196  -5.915  1.00  0.00     0.004 A 
ATOM     19  C   UNL     1      -6.455   4.760  -7.243  1.00  0.00     0.009 A 
BRANCH  15  20
ATOM     20  O   UNL     1      -3.416   3.833  -4.552  1.00  0.00    -0.410 OA
BRANCH  20  21
ATOM     21  C   UNL     1      -2.073   4.054  -4.817  1.00  0.00     0.412 C 
ATOM     22  N   UNL     1      -1.247   3.494  -3.881  1.00  0.00    -0.321 N 
ATOM     23  H   UNL     1      -0.281   3.638  -4.002  1.00  0.00     0.167 HD
ATOM     24  O   UNL     1      -1.620   4.684  -5.764  1.00  0.00    -0.224 OA
BRANCH  22  25
ATOM     25  C   UNL     1      -1.648   2.710  -2.729  1.00  0.00     0.119 C 
BRANCH  25  26
ATOM     26  C   UNL     1      -1.045   1.306  -2.752  1.00  0.00     0.021 C 
BRANCH  26  27
ATOM     27  C   UNL     1       0.485   1.259  -2.651  1.00  0.00     0.002 C 
BRANCH  27  28
ATOM     28  C   UNL     1       1.085   1.923  -1.407  1.00  0.00    -0.000 C 
BRANCH  28  29
ATOM     29  C   UNL     1       0.597   1.370  -0.065  1.00  0.00    -0.003 C 
ATOM     30  C   UNL     1       0.956  -0.092   0.150  1.00  0.00     0.004 C 
ENDBRANCH  28  29
ENDBRANCH  27  28
ENDBRANCH  26  27
ENDBRANCH  25  26
ENDBRANCH  22  25
ENDBRANCH  20  21
ENDBRANCH  15  20
ENDBRANCH   8  14
ENDBRANCH   5   7
ENDBRANCH   1   5
BRANCH   3  31
ATOM     31  C   UNL     1      -3.737   5.756 -14.023  1.00  0.00     0.116 C 
BRANCH  31  32
ATOM     32  C   UNL     1      -3.281   6.535 -12.787  1.00  0.00     0.021 C 
BRANCH  32  33
ATOM     33  C   UNL     1      -2.126   7.505 -13.057  1.00  0.00     0.002 C 
BRANCH  33  34
ATOM     34  C   UNL     1      -2.446   8.645 -14.032  1.00  0.00     0.002 C 
BRANCH  34  35
ATOM     35  C   UNL     1      -3.666   9.500 -13.672  1.00  0.00     0.021 C 
BRANCH  35  36
ATOM     36  C   UNL     1      -3.579  10.204 -12.320  1.00  0.00     0.116 C 
BRANCH  36  37
ATOM     37  N   UNL     1      -2.476  11.151 -12.273  1.00  0.00    -0.352 N 
ATOM     38  C   UNL     1      -2.489  12.507 -12.062  1.00  0.00     0.251 C 
ATOM     39  H   UNL     1      -1.584  10.760 -12.414  1.00  0.00     0.163 HD
ATOM     40  O   UNL     1      -1.481  13.171 -12.286  1.00  0.00    -0.269 OA
BRANCH  38  41
ATOM     41  C   UNL     1      -3.713  13.176 -11.574  1.00  0.00     0.039 A 
ATOM     42  C   UNL     1      -4.084  14.399 -12.140  1.00  0.00     0.014 A 
ATOM     43  C   UNL     1      -4.470  12.627 -10.534  1.00  0.00     0.014 A 
ATOM     44  C   UNL     1      -5.242  15.045 -11.701  1.00  0.00     0.010 A 
ATOM     45  C   UNL     1      -5.658  13.239 -10.142  1.00  0.00     0.010 A 
ATOM     46  C   UNL     1      -6.053  14.456 -10.718  1.00  0.00    -0.014 A 
BRANCH  46  47
ATOM     47  C   UNL     1      -7.319  15.099 -10.285  1.00  0.00     0.031 A 
ATOM     48  C   UNL     1      -7.473  15.606  -8.878  1.00  0.00     0.074 A 
ATOM     49  C   UNL     1      -8.354  15.172 -11.144  1.00  0.00     0.049 A 
ATOM     50  N   UNL     1      -8.517  16.147  -8.303  1.00  0.00    -0.248 NA
ATOM     51  C   UNL     1      -6.307  15.462  -7.992  1.00  0.00     0.031 C 
ATOM     52  C   UNL     1      -8.346  14.672 -12.520  1.00  0.00     0.029 A 
ATOM     53  N   UNL     1      -9.615  15.687 -10.984  1.00  0.00    -0.354 N 
ATOM     54  C   UNL     1      -8.140  16.395  -6.990  1.00  0.00     0.074 A 
ATOM     55  C   UNL     1      -6.788  15.900  -6.838  1.00  0.00     0.031 C 
ATOM     56  C   UNL     1      -9.538  14.923 -13.085  1.00  0.00     0.029 A 
ATOM     57  C   UNL     1     -10.403  15.571 -12.103  1.00  0.00     0.049 A 
ATOM     58  H   UNL     1      -9.927  16.099 -10.146  1.00  0.00     0.167 HD
ATOM     59  C   UNL     1      -8.848  16.999  -6.005  1.00  0.00     0.037 A 
ATOM     60  C   UNL     1     -11.679  15.943 -12.314  1.00  0.00     0.037 A 
ATOM     61  C   UNL     1     -10.183  17.512  -6.165  1.00  0.00     0.049 A 
ATOM     62  C   UNL     1     -12.442  16.615 -11.208  1.00  0.00     0.074 A 
ATOM     63  C   UNL     1     -10.960  18.199  -5.248  1.00  0.00     0.029 A 
ATOM     64  N   UNL     1     -10.942  17.392  -7.320  1.00  0.00    -0.354 N 
ATOM     65  N   UNL     1     -12.049  16.905  -9.991  1.00  0.00    -0.248 NA
ATOM     66  C   UNL     1     -13.824  17.017 -11.506  1.00  0.00     0.031 C 
ATOM     67  C   UNL     1     -12.203  18.458  -5.834  1.00  0.00     0.029 A 
ATOM     68  C   UNL     1     -12.186  17.972  -7.131  1.00  0.00     0.049 A 
ATOM     69  H   UNL     1     -10.641  16.959  -8.151  1.00  0.00     0.167 HD
ATOM     70  C   UNL     1     -13.124  17.544  -9.387  1.00  0.00     0.074 A 
ATOM     71  C   UNL     1     -14.180  17.611 -10.376  1.00  0.00     0.031 C 
ATOM     72  C   UNL     1     -13.227  18.030  -8.126  1.00  0.00     0.037 A 
BRANCH  59  73
ATOM     73  C   UNL     1      -8.185  17.139  -4.665  1.00  0.00     0.057 A 
ATOM     74  C   UNL     1      -7.119  18.024  -4.457  1.00  0.00     0.134 A 
ATOM     75  C   UNL     1      -8.636  16.401  -3.563  1.00  0.00     0.134 A 
ATOM     76  F   UNL     1      -6.633  18.753  -5.473  1.00  0.00    -0.206 F 
ATOM     77  C   UNL     1      -6.506  18.149  -3.209  1.00  0.00     0.040 A 
ATOM     78  C   UNL     1      -8.048  16.537  -2.304  1.00  0.00     0.040 A 
ATOM     79  F   UNL     1      -9.656  15.540  -3.690  1.00  0.00    -0.206 F 
ATOM     80  C   UNL     1      -6.975  17.408  -2.126  1.00  0.00     0.006 A 
ENDBRANCH  59  73
BRANCH  60  81
ATOM     81  C   UNL     1     -12.307  15.711 -13.638  1.00  0.00     0.057 A 
ATOM     82  C   UNL     1     -12.578  16.778 -14.502  1.00  0.00     0.134 A 
ATOM     83  C   UNL     1     -12.646  14.425 -14.073  1.00  0.00     0.134 A 
ATOM     84  F   UNL     1     -12.292  18.035 -14.133  1.00  0.00    -0.206 F 
ATOM     85  C   UNL     1     -13.178  16.577 -15.746  1.00  0.00     0.040 A 
ATOM     86  C   UNL     1     -13.225  14.206 -15.324  1.00  0.00     0.040 A 
ATOM     87  F   UNL     1     -12.403  13.361 -13.294  1.00  0.00    -0.206 F 
ATOM     88  C   UNL     1     -13.498  15.286 -16.162  1.00  0.00     0.006 A 
ENDBRANCH  60  81
BRANCH  72  89
ATOM     89  C   UNL     1     -14.517  18.699  -7.755  1.00  0.00     0.057 A 
ATOM     90  C   UNL     1     -15.691  17.967  -7.537  1.00  0.00     0.134 A 
ATOM     91  C   UNL     1     -14.578  20.087  -7.582  1.00  0.00     0.134 A 
ATOM     92  F   UNL     1     -15.703  16.636  -7.700  1.00  0.00    -0.206 F 
ATOM     93  C   UNL     1     -16.886  18.596  -7.184  1.00  0.00     0.040 A 
ATOM     94  C   UNL     1     -15.760  20.725  -7.204  1.00  0.00     0.040 A 
ATOM     95  F   UNL     1     -13.486  20.845  -7.768  1.00  0.00    -0.206 F 
ATOM     96  C   UNL     1     -16.921  19.979  -7.010  1.00  0.00     0.006 A 
ENDBRANCH  72  89
ENDBRANCH  46  47
ENDBRANCH  38  41
ENDBRANCH  36  37
ENDBRANCH  35  36
ENDBRANCH  34  35
ENDBRANCH  33  34
ENDBRANCH  32  33
ENDBRANCH  31  32
ENDBRANCH   3  31
TORSDOF 22
