REMARK SMILES O=C(NCCCCCCNC(=O)c1ccc(-c2c3nc(c(-c4c(F)cccc4F)c4ccc([nH]4)c(-c4c(F)cccc4F)c4nc(c(-c5c(F)cccc5F)c5ccc2[nH]5)C=C4)C=C3)cc1)c1ccc(N[C@H]2OC[C@@H](O)[C@@H](O)[C@H]2O)cc1
REMARK SMILES IDX 6 1 5 2 4 3 3 4 1 5 2 6 67 8 68 9 82 10 69 11 81 12 70 13
REMARK SMILES IDX 71 14 72 16 73 17 79 18 74 19 77 20 75 21 80 22 78 24 76 26
REMARK SMILES IDX 7 28 8 29 9 30 10 31 11 32 12 34 13 35 14 36 66 37 15 38
REMARK SMILES IDX 65 39 16 40 17 41 18 42 59 43 19 44 64 45 58 46 60 47 20 48
REMARK SMILES IDX 63 49 57 50 56 51 21 53 47 54 30 55 46 56 31 57 34 58 45 59
REMARK SMILES IDX 61 60 32 61 33 62 44 64 62 65 35 66 22 67 23 68 28 69 24 70
REMARK SMILES IDX 25 71 27 72 29 73 26 74 48 75 49 76 54 77 50 78 51 79 53 80
REMARK SMILES IDX 55 81 52 82 36 83 37 84 42 85 38 86 39 87 41 88 43 89 40 90
REMARK H PARENT 3 7 71 15 80 23 78 25 76 27 10 33 60 52 34 63
REMARK Flexibility Score: inf
ROOT
ATOM      1  C   UNL     1      -0.825   9.032  -7.217  1.00  0.00     0.002 C 
ENDROOT
BRANCH   1   2
ATOM      2  C   UNL     1       0.322   8.518  -6.343  1.00  0.00     0.021 C 
BRANCH   2   3
ATOM      3  C   UNL     1       0.948   7.207  -6.812  1.00  0.00     0.116 C 
BRANCH   3   4
ATOM      4  N   UNL     1       1.564   7.339  -8.122  1.00  0.00    -0.352 N 
ATOM      5  O   UNL     1       3.276   7.493  -9.588  1.00  0.00    -0.269 OA
ATOM      6  C   UNL     1       2.871   7.136  -8.483  1.00  0.00     0.251 C 
ATOM      7  H   UNL     1       0.960   7.611  -8.850  1.00  0.00     0.163 HD
BRANCH   6   8
ATOM      8  C   UNL     1       3.796   6.489  -7.534  1.00  0.00     0.039 A 
ATOM      9  C   UNL     1       3.447   5.284  -6.927  1.00  0.00     0.016 A 
ATOM     10  C   UNL     1       5.033   7.071  -7.266  1.00  0.00     0.016 A 
ATOM     11  C   UNL     1       4.302   4.710  -5.987  1.00  0.00     0.026 A 
ATOM     12  C   UNL     1       5.891   6.473  -6.337  1.00  0.00     0.026 A 
ATOM     13  C   UNL     1       5.530   5.298  -5.658  1.00  0.00     0.036 A 
BRANCH  13  14
ATOM     14  N   UNL     1       6.428   4.732  -4.766  1.00  0.00    -0.358 N 
ATOM     15  H   UNL     1       7.315   5.148  -4.670  1.00  0.00     0.163 HD
BRANCH  14  16
ATOM     16  C   UNL     1       6.127   3.555  -3.963  1.00  0.00     0.244 C 
ATOM     17  O   UNL     1       5.844   2.461  -4.839  1.00  0.00    -0.353 OA
ATOM     18  C   UNL     1       7.371   3.183  -3.124  1.00  0.00     0.195 C 
ATOM     19  C   UNL     1       5.454   1.275  -4.141  1.00  0.00     0.197 C 
ATOM     20  C   UNL     1       7.062   1.909  -2.325  1.00  0.00     0.178 C 
ATOM     21  C   UNL     1       6.587   0.773  -3.246  1.00  0.00     0.171 C 
BRANCH  18  22
ATOM     22  O   UNL     1       8.495   2.937  -4.006  1.00  0.00    -0.386 OA
ATOM     23  H   UNL     1       8.277   2.212  -4.612  1.00  0.00     0.211 HD
ENDBRANCH  18  22
BRANCH  20  24
ATOM     24  O   UNL     1       8.218   1.496  -1.593  1.00  0.00    -0.387 OA
ATOM     25  H   UNL     1       8.937   1.294  -2.212  1.00  0.00     0.211 HD
ENDBRANCH  20  24
BRANCH  21  26
ATOM     26  O   UNL     1       7.674   0.311  -4.061  1.00  0.00    -0.388 OA
ATOM     27  H   UNL     1       8.000   1.040  -4.610  1.00  0.00     0.211 HD
ENDBRANCH  21  26
ENDBRANCH  14  16
ENDBRANCH  13  14
ENDBRANCH   6   8
ENDBRANCH   3   4
ENDBRANCH   2   3
ENDBRANCH   1   2
BRANCH   1  28
ATOM     28  C   UNL     1      -1.982   8.052  -7.428  1.00  0.00     0.002 C 
BRANCH  28  29
ATOM     29  C   UNL     1      -2.620   7.505  -6.149  1.00  0.00     0.021 C 
BRANCH  29  30
ATOM     30  C   UNL     1      -3.135   8.564  -5.180  1.00  0.00     0.116 C 
BRANCH  30  31
ATOM     31  N   UNL     1      -4.191   9.380  -5.756  1.00  0.00    -0.352 N 
ATOM     32  C   UNL     1      -5.431   9.682  -5.253  1.00  0.00     0.251 C 
ATOM     33  H   UNL     1      -3.987   9.773  -6.635  1.00  0.00     0.163 HD
ATOM     34  O   UNL     1      -6.258  10.261  -5.955  1.00  0.00    -0.269 OA
BRANCH  32  35
ATOM     35  C   UNL     1      -5.788   9.290  -3.873  1.00  0.00     0.039 A 
ATOM     36  C   UNL     1      -7.040   8.716  -3.638  1.00  0.00     0.014 A 
ATOM     37  C   UNL     1      -4.900   9.492  -2.813  1.00  0.00     0.014 A 
ATOM     38  C   UNL     1      -7.376   8.286  -2.353  1.00  0.00     0.010 A 
ATOM     39  C   UNL     1      -5.206   8.998  -1.548  1.00  0.00     0.010 A 
ATOM     40  C   UNL     1      -6.448   8.392  -1.304  1.00  0.00    -0.014 A 
BRANCH  40  41
ATOM     41  C   UNL     1      -6.758   7.870   0.051  1.00  0.00     0.031 A 
ATOM     42  C   UNL     1      -6.845   8.806   1.224  1.00  0.00     0.074 A 
ATOM     43  C   UNL     1      -6.896   6.543   0.239  1.00  0.00     0.049 A 
ATOM     44  N   UNL     1      -7.035   8.532   2.490  1.00  0.00    -0.248 NA
ATOM     45  C   UNL     1      -6.667  10.239   0.939  1.00  0.00     0.031 C 
ATOM     46  C   UNL     1      -6.786   5.525  -0.807  1.00  0.00     0.029 A 
ATOM     47  N   UNL     1      -7.146   5.822   1.379  1.00  0.00    -0.354 N 
ATOM     48  C   UNL     1      -6.991   9.753   3.151  1.00  0.00     0.074 A 
ATOM     49  C   UNL     1      -6.696  10.761   2.156  1.00  0.00     0.031 C 
ATOM     50  C   UNL     1      -6.984   4.314  -0.264  1.00  0.00     0.029 A 
ATOM     51  C   UNL     1      -7.198   4.465   1.172  1.00  0.00     0.049 A 
ATOM     52  H   UNL     1      -7.277   6.238   2.262  1.00  0.00     0.167 HD
ATOM     53  C   UNL     1      -7.203  10.015   4.463  1.00  0.00     0.037 A 
ATOM     54  C   UNL     1      -7.387   3.455   2.042  1.00  0.00     0.037 A 
ATOM     55  C   UNL     1      -7.509   9.011   5.450  1.00  0.00     0.049 A 
ATOM     56  C   UNL     1      -7.609   3.767   3.496  1.00  0.00     0.074 A 
ATOM     57  C   UNL     1      -7.787   9.180   6.795  1.00  0.00     0.029 A 
ATOM     58  N   UNL     1      -7.572   7.649   5.197  1.00  0.00    -0.354 N 
ATOM     59  N   UNL     1      -7.627   4.931   4.097  1.00  0.00    -0.248 NA
ATOM     60  C   UNL     1      -7.845   2.625   4.390  1.00  0.00     0.031 C 
ATOM     61  C   UNL     1      -7.974   7.917   7.366  1.00  0.00     0.029 A 
ATOM     62  C   UNL     1      -7.864   6.964   6.366  1.00  0.00     0.049 A 
ATOM     63  H   UNL     1      -7.431   7.230   4.317  1.00  0.00     0.167 HD
ATOM     64  C   UNL     1      -7.900   4.666   5.433  1.00  0.00     0.074 A 
ATOM     65  C   UNL     1      -8.054   3.231   5.550  1.00  0.00     0.031 C 
ATOM     66  C   UNL     1      -8.014   5.534   6.468  1.00  0.00     0.037 A 
BRANCH  53  67
ATOM     67  C   UNL     1      -7.109  11.448   4.903  1.00  0.00     0.057 A 
ATOM     68  C   UNL     1      -8.062  12.402   4.518  1.00  0.00     0.134 A 
ATOM     69  C   UNL     1      -6.066  11.878   5.732  1.00  0.00     0.134 A 
ATOM     70  F   UNL     1      -9.081  12.059   3.714  1.00  0.00    -0.206 F 
ATOM     71  C   UNL     1      -7.961  13.737   4.913  1.00  0.00     0.040 A 
ATOM     72  C   UNL     1      -5.972  13.205   6.159  1.00  0.00     0.040 A 
ATOM     73  F   UNL     1      -5.124  11.018   6.145  1.00  0.00    -0.206 F 
ATOM     74  C   UNL     1      -6.916  14.140   5.741  1.00  0.00     0.006 A 
ENDBRANCH  53  67
BRANCH  54  75
ATOM     75  C   UNL     1      -7.393   2.053   1.554  1.00  0.00     0.057 A 
ATOM     76  C   UNL     1      -8.576   1.306   1.513  1.00  0.00     0.134 A 
ATOM     77  C   UNL     1      -6.221   1.430   1.108  1.00  0.00     0.134 A 
ATOM     78  F   UNL     1      -9.727   1.843   1.944  1.00  0.00    -0.206 F 
ATOM     79  C   UNL     1      -8.591  -0.014   1.062  1.00  0.00     0.040 A 
ATOM     80  C   UNL     1      -6.226   0.119   0.631  1.00  0.00     0.040 A 
ATOM     81  F   UNL     1      -5.056   2.095   1.113  1.00  0.00    -0.206 F 
ATOM     82  C   UNL     1      -7.414  -0.610   0.613  1.00  0.00     0.006 A 
ENDBRANCH  54  75
BRANCH  66  83
ATOM     83  C   UNL     1      -8.347   4.958   7.814  1.00  0.00     0.057 A 
ATOM     84  C   UNL     1      -7.414   4.222   8.556  1.00  0.00     0.134 A 
ATOM     85  C   UNL     1      -9.605   5.175   8.390  1.00  0.00     0.134 A 
ATOM     86  F   UNL     1      -6.196   3.966   8.056  1.00  0.00    -0.206 F 
ATOM     87  C   UNL     1      -7.729   3.704   9.814  1.00  0.00     0.040 A 
ATOM     88  C   UNL     1      -9.922   4.686   9.658  1.00  0.00     0.040 A 
ATOM     89  F   UNL     1     -10.542   5.879   7.736  1.00  0.00    -0.206 F 
ATOM     90  C   UNL     1      -8.984   3.942  10.371  1.00  0.00     0.006 A 
ENDBRANCH  66  83
ENDBRANCH  40  41
ENDBRANCH  32  35
ENDBRANCH  30  31
ENDBRANCH  29  30
ENDBRANCH  28  29
ENDBRANCH   1  28
TORSDOF 18
