REMARK SMILES O=C(NCCCCCCNC(=O)[C@H]1CC[C@@H](C(F)F)[NH2+]1)c1ccc(-c2c3nc(c(-c4c(F)cccc4F)c4ccc([nH]4)c(-c4c(F)cccc4F)c4nc(c(-c5c(F)cccc5F)c5ccc2[nH]5)C=C4)C=C3)cc1
REMARK SMILES IDX 6 1 5 2 4 3 3 4 1 5 2 6 21 8 22 9 74 10 23 11 73 12 24 13
REMARK SMILES IDX 25 14 26 15 67 16 27 17 72 18 66 19 68 20 28 21 71 22 65 23
REMARK SMILES IDX 64 24 29 26 55 27 38 28 54 29 39 30 42 31 53 32 69 33 40 34
REMARK SMILES IDX 41 35 52 37 70 38 43 39 30 40 31 41 36 42 32 43 33 44 35 45
REMARK SMILES IDX 37 46 34 47 56 48 57 49 62 50 58 51 59 52 61 53 63 54 60 55
REMARK SMILES IDX 44 56 45 57 50 58 46 59 47 60 49 61 51 62 48 63 7 64 8 65
REMARK SMILES IDX 9 66 10 67 11 68 12 70 13 71 14 72 20 73 15 74 16 75 17 78
REMARK SMILES IDX 18 79 19 80
REMARK H PARENT 3 7 68 25 42 36 10 69 20 76 20 77
REMARK Flexibility Score: inf
ROOT
ATOM      1  C   UNL     1       7.849  -9.791   0.023  1.00  0.00     0.002 C 
ENDROOT
BRANCH   1   2
ATOM      2  C   UNL     1       7.289 -11.061   0.663  1.00  0.00     0.021 C 
BRANCH   2   3
ATOM      3  C   UNL     1       5.839 -11.358   0.303  1.00  0.00     0.116 C 
BRANCH   3   4
ATOM      4  N   UNL     1       5.668 -11.617  -1.117  1.00  0.00    -0.352 N 
ATOM      5  O   UNL     1       5.276 -12.867  -2.955  1.00  0.00    -0.269 OA
ATOM      6  C   UNL     1       5.171 -12.734  -1.739  1.00  0.00     0.251 C 
ATOM      7  H   UNL     1       5.949 -10.889  -1.716  1.00  0.00     0.163 HD
BRANCH   6   8
ATOM      8  C   UNL     1       4.527 -13.790  -0.934  1.00  0.00     0.039 A 
ATOM      9  C   UNL     1       3.597 -13.464   0.058  1.00  0.00     0.014 A 
ATOM     10  C   UNL     1       4.856 -15.125  -1.180  1.00  0.00     0.014 A 
ATOM     11  C   UNL     1       3.096 -14.458   0.891  1.00  0.00     0.010 A 
ATOM     12  C   UNL     1       4.288 -16.130  -0.397  1.00  0.00     0.010 A 
ATOM     13  C   UNL     1       3.425 -15.803   0.662  1.00  0.00    -0.014 A 
BRANCH  13  14
ATOM     14  C   UNL     1       2.825 -16.868   1.502  1.00  0.00     0.031 A 
ATOM     15  C   UNL     1       3.684 -17.738   2.372  1.00  0.00     0.074 A 
ATOM     16  C   UNL     1       1.493 -17.061   1.454  1.00  0.00     0.049 A 
ATOM     17  N   UNL     1       3.341 -18.763   3.111  1.00  0.00    -0.248 NA
ATOM     18  C   UNL     1       5.120 -17.422   2.412  1.00  0.00     0.031 C 
ATOM     19  C   UNL     1       0.556 -16.278   0.646  1.00  0.00     0.029 A 
ATOM     20  N   UNL     1       0.699 -17.980   2.090  1.00  0.00    -0.354 N 
ATOM     21  C   UNL     1       4.517 -19.229   3.684  1.00  0.00     0.074 A 
ATOM     22  C   UNL     1       5.588 -18.392   3.185  1.00  0.00     0.031 C 
ATOM     23  C   UNL     1      -0.686 -16.738   0.846  1.00  0.00     0.029 A 
ATOM     24  C   UNL     1      -0.626 -17.888   1.741  1.00  0.00     0.049 A 
ATOM     25  H   UNL     1       1.044 -18.640   2.733  1.00  0.00     0.167 HD
ATOM     26  C   UNL     1       4.685 -20.259   4.549  1.00  0.00     0.037 A 
ATOM     27  C   UNL     1      -1.673 -18.665   2.074  1.00  0.00     0.037 A 
ATOM     28  C   UNL     1       3.610 -21.088   5.036  1.00  0.00     0.049 A 
ATOM     29  C   UNL     1      -1.455 -19.831   2.992  1.00  0.00     0.074 A 
ATOM     30  C   UNL     1       3.670 -22.136   5.938  1.00  0.00     0.029 A 
ATOM     31  N   UNL     1       2.282 -20.971   4.649  1.00  0.00    -0.354 N 
ATOM     32  N   UNL     1      -0.345 -20.243   3.555  1.00  0.00    -0.248 NA
ATOM     33  C   UNL     1      -2.634 -20.642   3.323  1.00  0.00     0.031 C 
ATOM     34  C   UNL     1       2.391 -22.691   6.051  1.00  0.00     0.029 A 
ATOM     35  C   UNL     1       1.520 -21.946   5.272  1.00  0.00     0.049 A 
ATOM     36  H   UNL     1       1.934 -20.296   4.023  1.00  0.00     0.167 HD
ATOM     37  C   UNL     1      -0.695 -21.339   4.330  1.00  0.00     0.074 A 
ATOM     38  C   UNL     1      -2.123 -21.525   4.169  1.00  0.00     0.031 C 
ATOM     39  C   UNL     1       0.096 -22.116   5.111  1.00  0.00     0.037 A 
BRANCH  26  40
ATOM     40  C   UNL     1       6.087 -20.568   4.995  1.00  0.00     0.057 A 
ATOM     41  C   UNL     1       6.812 -19.707   5.829  1.00  0.00     0.134 A 
ATOM     42  C   UNL     1       6.714 -21.757   4.597  1.00  0.00     0.134 A 
ATOM     43  F   UNL     1       6.277 -18.547   6.240  1.00  0.00    -0.206 F 
ATOM     44  C   UNL     1       8.121 -19.998   6.220  1.00  0.00     0.040 A 
ATOM     45  C   UNL     1       8.011 -22.073   5.007  1.00  0.00     0.040 A 
ATOM     46  F   UNL     1       6.076 -22.634   3.807  1.00  0.00    -0.206 F 
ATOM     47  C   UNL     1       8.722 -21.187   5.812  1.00  0.00     0.006 A 
ENDBRANCH  26  40
BRANCH  27  48
ATOM     48  C   UNL     1      -3.015 -18.356   1.522  1.00  0.00     0.057 A 
ATOM     49  C   UNL     1      -4.036 -17.859   2.338  1.00  0.00     0.134 A 
ATOM     50  C   UNL     1      -3.297 -18.517   0.159  1.00  0.00     0.134 A 
ATOM     51  F   UNL     1      -3.830 -17.695   3.653  1.00  0.00    -0.206 F 
ATOM     52  C   UNL     1      -5.294 -17.542   1.822  1.00  0.00     0.040 A 
ATOM     53  C   UNL     1      -4.540 -18.178  -0.375  1.00  0.00     0.040 A 
ATOM     54  F   UNL     1      -2.355 -18.978  -0.677  1.00  0.00    -0.206 F 
ATOM     55  C   UNL     1      -5.545 -17.694   0.459  1.00  0.00     0.006 A 
ENDBRANCH  27  48
BRANCH  39  56
ATOM     56  C   UNL     1      -0.570 -23.208   5.897  1.00  0.00     0.057 A 
ATOM     57  C   UNL     1      -1.068 -24.367   5.290  1.00  0.00     0.134 A 
ATOM     58  C   UNL     1      -0.666 -23.116   7.292  1.00  0.00     0.134 A 
ATOM     59  F   UNL     1      -1.022 -24.512   3.957  1.00  0.00    -0.206 F 
ATOM     60  C   UNL     1      -1.653 -25.389   6.042  1.00  0.00     0.040 A 
ATOM     61  C   UNL     1      -1.221 -24.142   8.056  1.00  0.00     0.040 A 
ATOM     62  F   UNL     1      -0.202 -22.035   7.937  1.00  0.00    -0.206 F 
ATOM     63  C   UNL     1      -1.722 -25.282   7.430  1.00  0.00     0.006 A 
ENDBRANCH  39  56
ENDBRANCH  13  14
ENDBRANCH   6   8
ENDBRANCH   3   4
ENDBRANCH   2   3
ENDBRANCH   1   2
BRANCH   1  64
ATOM     64  C   UNL     1       7.042  -8.521   0.305  1.00  0.00     0.002 C 
BRANCH  64  65
ATOM     65  C   UNL     1       6.806  -8.216   1.791  1.00  0.00     0.021 C 
BRANCH  65  66
ATOM     66  C   UNL     1       8.083  -8.107   2.620  1.00  0.00     0.116 C 
BRANCH  66  67
ATOM     67  N   UNL     1       8.915  -7.029   2.133  1.00  0.00    -0.351 N 
ATOM     68  C   UNL     1       9.288  -5.876   2.758  1.00  0.00     0.278 C 
ATOM     69  H   UNL     1       9.263  -7.145   1.220  1.00  0.00     0.163 HD
ATOM     70  O   UNL     1       9.774  -4.995   2.049  1.00  0.00    -0.268 OA
BRANCH  68  71
ATOM     71  C   UNL     1       9.079  -5.753   4.285  1.00  0.00     0.273 C 
ATOM     72  C   UNL     1       9.912  -6.759   5.066  1.00  0.00     0.082 C 
ATOM     73  N   UNL     1       9.553  -4.445   4.788  1.00  0.00    -0.329 N 
ATOM     74  C   UNL     1      11.276  -6.099   5.128  1.00  0.00     0.078 C 
ATOM     75  C   UNL     1      10.968  -4.607   5.223  1.00  0.00     0.251 C 
ATOM     76  H   UNL     1       8.979  -4.149   5.578  1.00  0.00     0.347 HD
ATOM     77  H   UNL     1       9.485  -3.737   4.056  1.00  0.00     0.347 HD
BRANCH  75  78
ATOM     78  C   UNL     1      12.026  -3.755   4.491  1.00  0.00     0.399 C 
ATOM     79  F   UNL     1      12.102  -4.058   3.175  1.00  0.00    -0.204 F 
ATOM     80  F   UNL     1      11.728  -2.436   4.591  1.00  0.00    -0.204 F 
ENDBRANCH  75  78
ENDBRANCH  68  71
ENDBRANCH  66  67
ENDBRANCH  65  66
ENDBRANCH  64  65
ENDBRANCH   1  64
TORSDOF 14
