REMARK SMILES CC(C)[C@H](NC(=O)OCc1ccccc1)C(=O)NCC(=O)NCCCCCCNC(=O)c1ccc(-c2c3nc(c(-c4c(F)cccc4F)c4ccc([nH]4)c(-c4c(F)cccc4F)c4nc(c(-c5c(F)cccc5F)c5ccc2[nH]5)C=C4)C=C3)cc1
REMARK SMILES IDX 23 1 22 2 20 3 21 4 19 6 18 7 16 8 17 9 4 11 2 12 1 13 3 14
REMARK SMILES IDX 5 15 6 16 7 18 8 19 9 20 10 21 11 22 15 23 12 24 14 25 13 26
REMARK SMILES IDX 24 27 25 28 26 29 27 30 28 31 29 32 30 33 31 35 32 36 33 37
REMARK SMILES IDX 85 38 34 39 84 40 35 41 36 42 37 43 78 44 38 45 83 46 77 47
REMARK SMILES IDX 79 48 39 49 82 50 76 51 75 52 40 54 66 55 49 56 65 57 50 58
REMARK SMILES IDX 53 59 64 60 80 61 51 62 52 63 63 65 81 66 54 67 41 68 42 69
REMARK SMILES IDX 47 70 43 71 44 72 46 73 48 74 45 75 67 76 68 77 73 78 69 79
REMARK SMILES IDX 70 80 72 81 74 82 71 83 55 84 56 85 61 86 57 87 58 88 60 89
REMARK SMILES IDX 62 90 59 91
REMARK H PARENT 22 5 18 10 5 17 29 34 79 53 53 64
REMARK Flexibility Score: inf
ROOT
ATOM      1  C   UNL     1       1.557   3.446   2.146  1.00  0.00     0.116 C 
ENDROOT
BRANCH   1   2
ATOM      2  N   UNL     1       1.567   3.183   3.569  1.00  0.00    -0.355 N 
ATOM      3  C   UNL     1       0.716   2.472   4.356  1.00  0.00     0.239 C 
ATOM      4  O   UNL     1       1.121   2.184   5.490  1.00  0.00    -0.273 OA
ATOM      5  H   UNL     1       2.323   3.590   4.052  1.00  0.00     0.163 HD
BRANCH   3   6
ATOM      6  C   UNL     1      -0.627   1.893   3.870  1.00  0.00     0.216 C 
BRANCH   6   7
ATOM      7  N   UNL     1      -1.349   2.588   2.827  1.00  0.00    -0.345 N 
ATOM      8  C   UNL     1      -1.661   2.233   1.554  1.00  0.00     0.243 C 
ATOM      9  O   UNL     1      -2.236   3.093   0.876  1.00  0.00    -0.273 OA
ATOM     10  H   UNL     1      -1.673   3.481   3.087  1.00  0.00     0.164 HD
BRANCH   8  11
ATOM     11  C   UNL     1      -1.294   0.867   0.909  1.00  0.00     0.177 C 
BRANCH  11  12
ATOM     12  C   UNL     1      -2.037  -0.367   1.457  1.00  0.00     0.015 C 
ATOM     13  C   UNL     1      -3.532  -0.086   1.647  1.00  0.00     0.010 C 
ATOM     14  C   UNL     1      -1.876  -1.550   0.491  1.00  0.00     0.010 C 
ENDBRANCH  11  12
BRANCH  11  15
ATOM     15  N   UNL     1       0.153   0.747   0.685  1.00  0.00    -0.309 N 
ATOM     16  C   UNL     1       1.140   0.150   1.403  1.00  0.00     0.408 C 
ATOM     17  H   UNL     1       0.467   1.182  -0.141  1.00  0.00     0.167 HD
ATOM     18  O   UNL     1       2.314   0.416   1.164  1.00  0.00    -0.225 OA
BRANCH  16  19
ATOM     19  O   UNL     1       0.705  -0.677   2.373  1.00  0.00    -0.445 OA
BRANCH  19  20
ATOM     20  C   UNL     1       1.695  -1.147   3.301  1.00  0.00     0.270 C 
BRANCH  20  21
ATOM     21  C   UNL     1       2.500  -2.293   2.749  1.00  0.00    -0.011 A 
ATOM     22  C   UNL     1       1.956  -3.580   2.659  1.00  0.00     0.007 A 
ATOM     23  C   UNL     1       3.808  -2.073   2.295  1.00  0.00     0.007 A 
ATOM     24  C   UNL     1       2.713  -4.628   2.130  1.00  0.00     0.000 A 
ATOM     25  C   UNL     1       4.559  -3.118   1.760  1.00  0.00     0.000 A 
ATOM     26  C   UNL     1       4.012  -4.396   1.679  1.00  0.00     0.000 A 
ENDBRANCH  20  21
ENDBRANCH  19  20
ENDBRANCH  16  19
ENDBRANCH  11  15
ENDBRANCH   8  11
ENDBRANCH   6   7
ENDBRANCH   3   6
ENDBRANCH   1   2
BRANCH   1  27
ATOM     27  C   UNL     1       1.706   4.922   1.805  1.00  0.00     0.021 C 
BRANCH  27  28
ATOM     28  C   UNL     1       3.133   5.459   1.940  1.00  0.00     0.002 C 
BRANCH  28  29
ATOM     29  C   UNL     1       4.204   4.718   1.128  1.00  0.00     0.002 C 
BRANCH  29  30
ATOM     30  C   UNL     1       3.913   4.547  -0.366  1.00  0.00     0.021 C 
BRANCH  30  31
ATOM     31  C   UNL     1       3.635   5.838  -1.130  1.00  0.00     0.116 C 
BRANCH  31  32
ATOM     32  N   UNL     1       4.730   6.788  -1.039  1.00  0.00    -0.352 N 
ATOM     33  C   UNL     1       5.364   7.495  -2.029  1.00  0.00     0.251 C 
ATOM     34  H   UNL     1       5.069   6.949  -0.129  1.00  0.00     0.163 HD
ATOM     35  O   UNL     1       6.374   8.143  -1.770  1.00  0.00    -0.269 OA
BRANCH  33  36
ATOM     36  C   UNL     1       4.850   7.462  -3.415  1.00  0.00     0.039 A 
ATOM     37  C   UNL     1       5.761   7.308  -4.463  1.00  0.00     0.014 A 
ATOM     38  C   UNL     1       3.487   7.605  -3.686  1.00  0.00     0.014 A 
ATOM     39  C   UNL     1       5.300   7.240  -5.780  1.00  0.00     0.010 A 
ATOM     40  C   UNL     1       3.022   7.473  -4.992  1.00  0.00     0.010 A 
ATOM     41  C   UNL     1       3.924   7.291  -6.052  1.00  0.00    -0.014 A 
BRANCH  41  42
ATOM     42  C   UNL     1       3.410   7.152  -7.438  1.00  0.00     0.031 A 
ATOM     43  C   UNL     1       2.699   8.299  -8.101  1.00  0.00     0.074 A 
ATOM     44  C   UNL     1       3.526   5.971  -8.074  1.00  0.00     0.049 A 
ATOM     45  N   UNL     1       2.118   8.344  -9.272  1.00  0.00    -0.248 NA
ATOM     46  C   UNL     1       2.608   9.552  -7.335  1.00  0.00     0.031 C 
ATOM     47  C   UNL     1       4.154   4.770  -7.521  1.00  0.00     0.029 A 
ATOM     48  N   UNL     1       3.107   5.582  -9.322  1.00  0.00    -0.354 N 
ATOM     49  C   UNL     1       1.577   9.620  -9.377  1.00  0.00     0.074 A 
ATOM     50  C   UNL     1       1.861  10.302  -8.133  1.00  0.00     0.031 C 
ATOM     51  C   UNL     1       4.093   3.784  -8.430  1.00  0.00     0.029 A 
ATOM     52  C   UNL     1       3.392   4.271  -9.614  1.00  0.00     0.049 A 
ATOM     53  H   UNL     1       2.646   6.186  -9.948  1.00  0.00     0.167 HD
ATOM     54  C   UNL     1       0.922  10.178 -10.422  1.00  0.00     0.037 A 
ATOM     55  C   UNL     1       3.112   3.540 -10.710  1.00  0.00     0.037 A 
ATOM     56  C   UNL     1       0.666   9.506 -11.669  1.00  0.00     0.049 A 
ATOM     57  C   UNL     1       2.387   4.184 -11.858  1.00  0.00     0.074 A 
ATOM     58  C   UNL     1       0.068  10.009 -12.812  1.00  0.00     0.029 A 
ATOM     59  N   UNL     1       0.991   8.185 -11.936  1.00  0.00    -0.354 N 
ATOM     60  N   UNL     1       1.941   5.412 -11.969  1.00  0.00    -0.248 NA
ATOM     61  C   UNL     1       2.131   3.342 -13.035  1.00  0.00     0.031 C 
ATOM     62  C   UNL     1      -0.005   8.979 -13.756  1.00  0.00     0.029 A 
ATOM     63  C   UNL     1       0.588   7.848 -13.218  1.00  0.00     0.049 A 
ATOM     64  H   UNL     1       1.442   7.576 -11.307  1.00  0.00     0.167 HD
ATOM     65  C   UNL     1       1.376   5.498 -13.235  1.00  0.00     0.074 A 
ATOM     66  C   UNL     1       1.547   4.202 -13.859  1.00  0.00     0.031 C 
ATOM     67  C   UNL     1       0.771   6.556 -13.827  1.00  0.00     0.037 A 
BRANCH  54  68
ATOM     68  C   UNL     1       0.438  11.589 -10.263  1.00  0.00     0.057 A 
ATOM     69  C   UNL     1       1.322  12.675 -10.234  1.00  0.00     0.134 A 
ATOM     70  C   UNL     1      -0.932  11.870 -10.174  1.00  0.00     0.134 A 
ATOM     71  F   UNL     1       2.647  12.475 -10.304  1.00  0.00    -0.206 F 
ATOM     72  C   UNL     1       0.865  13.987 -10.098  1.00  0.00     0.040 A 
ATOM     73  C   UNL     1      -1.403  13.179 -10.063  1.00  0.00     0.040 A 
ATOM     74  F   UNL     1      -1.834  10.877 -10.201  1.00  0.00    -0.206 F 
ATOM     75  C   UNL     1      -0.503  14.242 -10.019  1.00  0.00     0.006 A 
ENDBRANCH  54  68
BRANCH  55  76
ATOM     76  C   UNL     1       3.537   2.120 -10.782  1.00  0.00     0.057 A 
ATOM     77  C   UNL     1       4.569   1.719 -11.638  1.00  0.00     0.134 A 
ATOM     78  C   UNL     1       2.924   1.132 -10.002  1.00  0.00     0.134 A 
ATOM     79  F   UNL     1       5.182   2.617 -12.423  1.00  0.00    -0.206 F 
ATOM     80  C   UNL     1       4.965   0.384 -11.730  1.00  0.00     0.040 A 
ATOM     81  C   UNL     1       3.326  -0.203 -10.066  1.00  0.00     0.040 A 
ATOM     82  F   UNL     1       1.934   1.454  -9.156  1.00  0.00    -0.206 F 
ATOM     83  C   UNL     1       4.345  -0.581 -10.938  1.00  0.00     0.006 A 
ENDBRANCH  55  76
BRANCH  67  84
ATOM     84  C   UNL     1       0.277   6.367 -15.231  1.00  0.00     0.057 A 
ATOM     85  C   UNL     1      -0.859   5.601 -15.518  1.00  0.00     0.134 A 
ATOM     86  C   UNL     1       0.925   6.993 -16.303  1.00  0.00     0.134 A 
ATOM     87  F   UNL     1      -1.516   4.964 -14.536  1.00  0.00    -0.206 F 
ATOM     88  C   UNL     1      -1.323   5.447 -16.825  1.00  0.00     0.040 A 
ATOM     89  C   UNL     1       0.456   6.868 -17.612  1.00  0.00     0.040 A 
ATOM     90  F   UNL     1       2.014   7.748 -16.095  1.00  0.00    -0.206 F 
ATOM     91  C   UNL     1      -0.668   6.088 -17.876  1.00  0.00     0.006 A 
ENDBRANCH  67  84
ENDBRANCH  41  42
ENDBRANCH  33  36
ENDBRANCH  31  32
ENDBRANCH  30  31
ENDBRANCH  29  30
ENDBRANCH  28  29
ENDBRANCH  27  28
ENDBRANCH   1  27
TORSDOF 20
