REMARK SMILES C[C@@]([NH3+])(C(=O)Nc1cc(C(=O)NCCCCCCNC(=O)c2ccc(-c3c4nc(c(-c5c(F)cccc5F)c5ccc([nH]5)c(-c5c(F)cccc5F)c5nc(c(-c6c(F)cccc6F)c6ccc3[nH]6)C=C5)C=C4)cc2)ccc1F)C(F)(F)F
REMARK SMILES IDX 15 1 14 2 13 3 12 4 10 5 11 6 9 8 7 9 8 10 78 11 77 12 79 13
REMARK SMILES IDX 76 14 6 15 4 16 5 17 2 19 1 20 3 21 80 25 81 26 82 27 83 28
REMARK SMILES IDX 16 29 17 30 18 31 19 32 20 33 21 35 22 36 23 37 75 38 24 39
REMARK SMILES IDX 74 40 25 41 26 42 27 43 68 44 28 45 73 46 67 47 69 48 29 49
REMARK SMILES IDX 72 50 66 51 65 52 30 54 56 55 39 56 55 57 40 58 43 59 54 60
REMARK SMILES IDX 70 61 41 62 42 63 53 65 71 66 44 67 31 68 32 69 37 70 33 71
REMARK SMILES IDX 34 72 36 73 38 74 35 75 57 76 58 77 63 78 59 79 60 80 62 81
REMARK SMILES IDX 64 82 61 83 45 84 46 85 51 86 47 87 48 88 50 89 52 90 49 91
REMARK H PARENT 12 7 6 18 3 22 3 23 3 24 19 34 69 53 43 64
REMARK Flexibility Score: inf
ROOT
ATOM      1  C   UNL     1       1.051  -8.390   3.720  1.00  0.00     0.002 C 
ENDROOT
BRANCH   1   2
ATOM      2  C   UNL     1       1.158  -6.870   3.528  1.00  0.00     0.021 C 
BRANCH   2   3
ATOM      3  C   UNL     1       1.431  -6.441   2.085  1.00  0.00     0.116 C 
BRANCH   3   4
ATOM      4  N   UNL     1       0.221  -6.517   1.292  1.00  0.00    -0.352 N 
ATOM      5  C   UNL     1      -0.644  -5.566   0.822  1.00  0.00     0.251 C 
ATOM      6  O   UNL     1      -1.573  -5.946   0.108  1.00  0.00    -0.269 OA
ATOM      7  H   UNL     1      -0.029  -7.435   1.040  1.00  0.00     0.163 HD
BRANCH   5   8
ATOM      8  C   UNL     1      -0.502  -4.107   1.087  1.00  0.00     0.042 A 
ATOM      9  C   UNL     1      -0.931  -1.856   0.257  1.00  0.00     0.078 A 
ATOM     10  C   UNL     1      -1.058  -3.240   0.128  1.00  0.00     0.043 A 
ATOM     11  C   UNL     1      -0.341  -1.333   1.407  1.00  0.00     0.146 A 
ATOM     12  C   UNL     1       0.177  -2.171   2.387  1.00  0.00     0.042 A 
ATOM     13  F   UNL     1      -0.338  -0.011   1.628  1.00  0.00    -0.205 F 
ATOM     14  C   UNL     1       0.089  -3.557   2.231  1.00  0.00     0.017 A 
BRANCH   9  15
ATOM     15  N   UNL     1      -1.509  -1.036  -0.717  1.00  0.00    -0.318 N 
ATOM     16  C   UNL     1      -0.943  -0.032  -1.465  1.00  0.00     0.295 C 
ATOM     17  O   UNL     1      -1.730   0.724  -2.043  1.00  0.00    -0.267 OA
ATOM     18  H   UNL     1      -2.464  -1.202  -0.892  1.00  0.00     0.170 HD
BRANCH  16  19
ATOM     19  C   UNL     1       0.593   0.042  -1.701  1.00  0.00     0.267 C 
ATOM     20  C   UNL     1       1.388   0.583  -0.511  1.00  0.00     0.100 C 
BRANCH  19  21
ATOM     21  N   UNL     1       1.113  -1.346  -2.019  1.00  0.00    -0.337 N 
ATOM     22  H   UNL     1       0.958  -1.959  -1.219  1.00  0.00     0.345 HD
ATOM     23  H   UNL     1       2.112  -1.297  -2.221  1.00  0.00     0.345 HD
ATOM     24  H   UNL     1       0.620  -1.716  -2.832  1.00  0.00     0.345 HD
ENDBRANCH  19  21
BRANCH  19  25
ATOM     25  C   UNL     1       0.797   1.036  -2.882  1.00  0.00     0.453 C 
ATOM     26  F   UNL     1       0.439   2.302  -2.588  1.00  0.00    -0.164 F 
ATOM     27  F   UNL     1       2.120   1.072  -3.214  1.00  0.00    -0.164 F 
ATOM     28  F   UNL     1       0.149   0.640  -4.002  1.00  0.00    -0.164 F 
ENDBRANCH  19  25
ENDBRANCH  16  19
ENDBRANCH   9  15
ENDBRANCH   5   8
ENDBRANCH   3   4
ENDBRANCH   2   3
ENDBRANCH   1   2
BRANCH   1  29
ATOM     29  C   UNL     1       2.296  -9.193   3.326  1.00  0.00     0.002 C 
BRANCH  29  30
ATOM     30  C   UNL     1       3.615  -8.694   3.924  1.00  0.00     0.021 C 
BRANCH  30  31
ATOM     31  C   UNL     1       3.666  -8.692   5.448  1.00  0.00     0.116 C 
BRANCH  31  32
ATOM     32  N   UNL     1       3.601 -10.036   5.996  1.00  0.00    -0.352 N 
ATOM     33  C   UNL     1       4.438 -10.654   6.888  1.00  0.00     0.251 C 
ATOM     34  H   UNL     1       2.845 -10.582   5.681  1.00  0.00     0.163 HD
ATOM     35  O   UNL     1       4.339 -11.865   7.084  1.00  0.00    -0.269 OA
BRANCH  33  36
ATOM     36  C   UNL     1       5.468  -9.879   7.613  1.00  0.00     0.039 A 
ATOM     37  C   UNL     1       6.741 -10.435   7.770  1.00  0.00     0.014 A 
ATOM     38  C   UNL     1       5.171  -8.636   8.182  1.00  0.00     0.014 A 
ATOM     39  C   UNL     1       7.726  -9.731   8.467  1.00  0.00     0.010 A 
ATOM     40  C   UNL     1       6.171  -7.908   8.823  1.00  0.00     0.010 A 
ATOM     41  C   UNL     1       7.453  -8.455   8.985  1.00  0.00    -0.014 A 
BRANCH  41  42
ATOM     42  C   UNL     1       8.486  -7.697   9.733  1.00  0.00     0.031 A 
ATOM     43  C   UNL     1       8.304  -7.427  11.201  1.00  0.00     0.074 A 
ATOM     44  C   UNL     1       9.565  -7.217   9.087  1.00  0.00     0.049 A 
ATOM     45  N   UNL     1       9.060  -6.734  12.014  1.00  0.00    -0.248 NA
ATOM     46  C   UNL     1       7.101  -7.990  11.835  1.00  0.00     0.031 C 
ATOM     47  C   UNL     1       9.839  -7.386   7.659  1.00  0.00     0.029 A 
ATOM     48  N   UNL     1      10.631  -6.487   9.547  1.00  0.00    -0.354 N 
ATOM     49  C   UNL     1       8.418  -6.765  13.245  1.00  0.00     0.074 A 
ATOM     50  C   UNL     1       7.189  -7.505  13.064  1.00  0.00     0.031 C 
ATOM     51  C   UNL     1      11.011  -6.800   7.366  1.00  0.00     0.029 A 
ATOM     52  C   UNL     1      11.555  -6.189   8.576  1.00  0.00     0.049 A 
ATOM     53  H   UNL     1      10.726  -6.204  10.486  1.00  0.00     0.167 HD
ATOM     54  C   UNL     1       8.828  -6.243  14.425  1.00  0.00     0.037 A 
ATOM     55  C   UNL     1      12.712  -5.504   8.653  1.00  0.00     0.037 A 
ATOM     56  C   UNL     1      10.068  -5.539  14.612  1.00  0.00     0.049 A 
ATOM     57  C   UNL     1      13.153  -4.948   9.977  1.00  0.00     0.074 A 
ATOM     58  C   UNL     1      10.591  -5.009  15.779  1.00  0.00     0.029 A 
ATOM     59  N   UNL     1      10.986  -5.276  13.607  1.00  0.00    -0.354 N 
ATOM     60  N   UNL     1      12.552  -5.012  11.140  1.00  0.00    -0.248 NA
ATOM     61  C   UNL     1      14.436  -4.231  10.003  1.00  0.00     0.031 C 
ATOM     62  C   UNL     1      11.811  -4.400  15.474  1.00  0.00     0.029 A 
ATOM     63  C   UNL     1      12.068  -4.586  14.125  1.00  0.00     0.049 A 
ATOM     64  H   UNL     1      10.883  -5.541  12.664  1.00  0.00     0.167 HD
ATOM     65  C   UNL     1      13.392  -4.369  12.039  1.00  0.00     0.074 A 
ATOM     66  C   UNL     1      14.549  -3.928  11.289  1.00  0.00     0.031 C 
ATOM     67  C   UNL     1      13.218  -4.166  13.367  1.00  0.00     0.037 A 
BRANCH  54  68
ATOM     68  C   UNL     1       7.932  -6.428  15.614  1.00  0.00     0.057 A 
ATOM     69  C   UNL     1       7.249  -5.340  16.173  1.00  0.00     0.134 A 
ATOM     70  C   UNL     1       7.785  -7.674  16.237  1.00  0.00     0.134 A 
ATOM     71  F   UNL     1       7.352  -4.118  15.629  1.00  0.00    -0.206 F 
ATOM     72  C   UNL     1       6.457  -5.485  17.313  1.00  0.00     0.040 A 
ATOM     73  C   UNL     1       6.975  -7.836  17.362  1.00  0.00     0.040 A 
ATOM     74  F   UNL     1       8.402  -8.758  15.743  1.00  0.00    -0.206 F 
ATOM     75  C   UNL     1       6.315  -6.737  17.908  1.00  0.00     0.006 A 
ENDBRANCH  54  68
BRANCH  55  76
ATOM     76  C   UNL     1      13.554  -5.349   7.442  1.00  0.00     0.057 A 
ATOM     77  C   UNL     1      13.180  -4.504   6.391  1.00  0.00     0.134 A 
ATOM     78  C   UNL     1      14.745  -6.071   7.300  1.00  0.00     0.134 A 
ATOM     79  F   UNL     1      12.045  -3.794   6.464  1.00  0.00    -0.206 F 
ATOM     80  C   UNL     1      13.955  -4.391   5.235  1.00  0.00     0.040 A 
ATOM     81  C   UNL     1      15.539  -5.952   6.159  1.00  0.00     0.040 A 
ATOM     82  F   UNL     1      15.162  -6.883   8.282  1.00  0.00    -0.206 F 
ATOM     83  C   UNL     1      15.140  -5.115   5.119  1.00  0.00     0.006 A 
ENDBRANCH  55  76
BRANCH  67  84
ATOM     84  C   UNL     1      14.315  -3.463  14.110  1.00  0.00     0.057 A 
ATOM     85  C   UNL     1      15.135  -4.168  15.000  1.00  0.00     0.134 A 
ATOM     86  C   UNL     1      14.510  -2.082  14.002  1.00  0.00     0.134 A 
ATOM     87  F   UNL     1      14.991  -5.493  15.156  1.00  0.00    -0.206 F 
ATOM     88  C   UNL     1      16.104  -3.521  15.767  1.00  0.00     0.040 A 
ATOM     89  C   UNL     1      15.490  -1.426  14.748  1.00  0.00     0.040 A 
ATOM     90  F   UNL     1      13.762  -1.353  13.160  1.00  0.00    -0.206 F 
ATOM     91  C   UNL     1      16.285  -2.145  15.640  1.00  0.00     0.006 A 
ENDBRANCH  67  84
ENDBRANCH  41  42
ENDBRANCH  33  36
ENDBRANCH  31  32
ENDBRANCH  30  31
ENDBRANCH  29  30
ENDBRANCH   1  29
TORSDOF 17
