REMARK SMILES O=C(CCCN1C(=O)/C(=C/c2ccccc2Cl)SC1=S)Nc1cccc(C(=O)NCCCCCCNC(=O)c2ccc(-c3c4nc(c(-c5c(F)cccc5F)c5ccc([nH]5)c(-c5c(F)cccc5F)c5nc(c(-c6c(F)cccc6F)c6ccc3[nH]6)C=C5)C=C4)cc2)c1
REMARK SMILES IDX 30 1 29 2 27 3 28 4 26 6 22 7 23 8 93 9 24 10 25 11 21 12
REMARK SMILES IDX 1 13 2 14 3 16 4 17 5 18 6 19 7 20 19 21 8 22 9 23 18 24
REMARK SMILES IDX 20 25 10 26 11 27 12 28 16 29 13 30 15 31 17 32 14 33 31 34
REMARK SMILES IDX 32 35 33 36 34 37 35 38 36 39 37 40 38 42 39 43 40 44 92 45
REMARK SMILES IDX 41 46 91 47 42 48 43 49 44 50 85 51 45 52 90 53 84 54 86 55
REMARK SMILES IDX 46 56 89 57 83 58 82 59 47 61 73 62 56 63 72 64 57 65 60 66
REMARK SMILES IDX 71 67 87 68 58 69 59 70 70 72 88 73 61 74 48 75 49 76 54 77
REMARK SMILES IDX 50 78 51 79 53 80 55 81 52 82 74 83 75 84 80 85 76 86 77 87
REMARK SMILES IDX 79 88 81 89 78 90 62 91 63 92 68 93 64 94 65 95 67 96 69 97
REMARK SMILES IDX 66 98
REMARK H PARENT 29 5 21 15 36 41 86 60 60 71
REMARK Flexibility Score: inf
ROOT
ATOM      1  C   UNL     1      -0.241   0.147   3.397  1.00  0.00     0.116 C 
ENDROOT
BRANCH   1   2
ATOM      2  N   UNL     1      -0.842   1.357   3.943  1.00  0.00    -0.352 N 
ATOM      3  C   UNL     1      -0.545   2.688   3.721  1.00  0.00     0.251 C 
ATOM      4  O   UNL     1      -1.179   3.552   4.323  1.00  0.00    -0.269 OA
ATOM      5  H   UNL     1      -1.580   1.201   4.575  1.00  0.00     0.163 HD
BRANCH   3   6
ATOM      6  C   UNL     1       0.577   3.095   2.833  1.00  0.00     0.041 A 
ATOM      7  C   UNL     1       2.131   2.537   1.067  1.00  0.00     0.041 A 
ATOM      8  C   UNL     1       2.952   3.595   1.466  1.00  0.00     0.026 A 
ATOM      9  C   UNL     1       0.891   2.376   1.681  1.00  0.00     0.040 A 
ATOM     10  C   UNL     1       2.553   4.446   2.501  1.00  0.00     0.003 A 
ATOM     11  C   UNL     1       1.380   4.176   3.208  1.00  0.00     0.014 A 
BRANCH   7  12
ATOM     12  N   UNL     1       2.662   1.586   0.167  1.00  0.00    -0.326 N 
ATOM     13  O   UNL     1       0.802   0.248  -0.248  1.00  0.00    -0.275 OA
ATOM     14  C   UNL     1       2.010   0.467  -0.314  1.00  0.00     0.224 C 
ATOM     15  H   UNL     1       3.583   1.735  -0.147  1.00  0.00     0.169 HD
BRANCH  14  16
ATOM     16  C   UNL     1       2.925  -0.615  -0.845  1.00  0.00     0.102 C 
BRANCH  16  17
ATOM     17  C   UNL     1       3.868  -0.199  -1.968  1.00  0.00     0.032 C 
BRANCH  17  18
ATOM     18  C   UNL     1       5.296   0.199  -1.558  1.00  0.00     0.128 C 
BRANCH  18  19
ATOM     19  N   UNL     1       5.894  -0.531  -0.436  1.00  0.00    -0.293 N 
ATOM     20  C   UNL     1       6.467   0.198   0.600  1.00  0.00     0.266 C 
ATOM     21  C   UNL     1       6.066  -1.901  -0.365  1.00  0.00     0.148 C 
ATOM     22  O   UNL     1       6.424   1.414   0.733  1.00  0.00    -0.268 OA
ATOM     23  C   UNL     1       7.169  -0.715   1.543  1.00  0.00     0.081 C 
ATOM     24  S   UNL     1       6.682  -2.331   1.223  1.00  0.00    -0.054 SA
ATOM     25  S   UNL     1       5.770  -3.056  -1.528  1.00  0.00    -0.052 S 
ATOM     26  C   UNL     1       8.088  -0.295   2.426  1.00  0.00     0.031 C 
BRANCH  26  27
ATOM     27  C   UNL     1       8.842  -1.170   3.344  1.00  0.00    -0.006 A 
ATOM     28  C   UNL     1       8.626  -0.993   4.720  1.00  0.00     0.010 A 
ATOM     29  C   UNL     1       9.744  -2.169   2.930  1.00  0.00     0.048 A 
ATOM     30  C   UNL     1       9.241  -1.831   5.654  1.00  0.00     0.001 A 
ATOM     31  C   UNL     1      10.333  -3.026   3.867  1.00  0.00     0.021 A 
ATOM     32  Cl  UNL     1      10.210  -2.369   1.274  1.00  0.00    -0.084 Cl
ATOM     33  C   UNL     1      10.075  -2.861   5.226  1.00  0.00     0.002 A 
ENDBRANCH  26  27
ENDBRANCH  18  19
ENDBRANCH  17  18
ENDBRANCH  16  17
ENDBRANCH  14  16
ENDBRANCH   7  12
ENDBRANCH   3   6
ENDBRANCH   1   2
BRANCH   1  34
ATOM     34  C   UNL     1      -0.051  -0.975   4.412  1.00  0.00     0.021 C 
BRANCH  34  35
ATOM     35  C   UNL     1      -1.324  -1.575   5.006  1.00  0.00     0.002 C 
BRANCH  35  36
ATOM     36  C   UNL     1      -2.346  -2.119   4.005  1.00  0.00     0.002 C 
BRANCH  36  37
ATOM     37  C   UNL     1      -1.822  -3.132   2.984  1.00  0.00     0.021 C 
BRANCH  37  38
ATOM     38  C   UNL     1      -1.101  -4.346   3.564  1.00  0.00     0.116 C 
BRANCH  38  39
ATOM     39  N   UNL     1      -1.948  -5.143   4.437  1.00  0.00    -0.352 N 
ATOM     40  C   UNL     1      -2.280  -6.476   4.367  1.00  0.00     0.251 C 
ATOM     41  H   UNL     1      -2.343  -4.654   5.195  1.00  0.00     0.163 HD
ATOM     42  O   UNL     1      -3.131  -6.941   5.114  1.00  0.00    -0.269 OA
BRANCH  40  43
ATOM     43  C   UNL     1      -1.629  -7.346   3.364  1.00  0.00     0.039 A 
ATOM     44  C   UNL     1      -2.426  -8.186   2.581  1.00  0.00     0.014 A 
ATOM     45  C   UNL     1      -0.243  -7.328   3.187  1.00  0.00     0.014 A 
ATOM     46  C   UNL     1      -1.844  -8.938   1.558  1.00  0.00     0.010 A 
ATOM     47  C   UNL     1       0.327  -8.026   2.125  1.00  0.00     0.010 A 
ATOM     48  C   UNL     1      -0.471  -8.824   1.290  1.00  0.00    -0.014 A 
BRANCH  48  49
ATOM     49  C   UNL     1       0.144  -9.482   0.110  1.00  0.00     0.031 A 
ATOM     50  C   UNL     1       1.187 -10.547   0.286  1.00  0.00     0.074 A 
ATOM     51  C   UNL     1      -0.180  -9.055  -1.126  1.00  0.00     0.049 A 
ATOM     52  N   UNL     1       1.900 -11.165  -0.621  1.00  0.00    -0.248 NA
ATOM     53  C   UNL     1       1.483 -10.955   1.667  1.00  0.00     0.031 C 
ATOM     54  C   UNL     1      -1.157  -8.008  -1.429  1.00  0.00     0.029 A 
ATOM     55  N   UNL     1       0.288  -9.439  -2.358  1.00  0.00    -0.354 N 
ATOM     56  C   UNL     1       2.732 -12.030   0.077  1.00  0.00     0.074 A 
ATOM     57  C   UNL     1       2.474 -11.816   1.485  1.00  0.00     0.031 C 
ATOM     58  C   UNL     1      -1.234  -7.850  -2.760  1.00  0.00     0.029 A 
ATOM     59  C   UNL     1      -0.277  -8.746  -3.401  1.00  0.00     0.049 A 
ATOM     60  H   UNL     1       0.964 -10.143  -2.482  1.00  0.00     0.167 HD
ATOM     61  C   UNL     1       3.617 -12.933  -0.412  1.00  0.00     0.037 A 
ATOM     62  C   UNL     1      -0.041  -8.813  -4.725  1.00  0.00     0.037 A 
ATOM     63  C   UNL     1       3.873 -13.138  -1.814  1.00  0.00     0.049 A 
ATOM     64  C   UNL     1       0.995  -9.773  -5.239  1.00  0.00     0.074 A 
ATOM     65  C   UNL     1       4.714 -14.060  -2.412  1.00  0.00     0.029 A 
ATOM     66  N   UNL     1       3.301 -12.397  -2.839  1.00  0.00    -0.354 N 
ATOM     67  N   UNL     1       1.729 -10.631  -4.574  1.00  0.00    -0.248 NA
ATOM     68  C   UNL     1       1.239  -9.768  -6.688  1.00  0.00     0.031 C 
ATOM     69  C   UNL     1       4.695 -13.839  -3.794  1.00  0.00     0.029 A 
ATOM     70  C   UNL     1       3.800 -12.816  -4.063  1.00  0.00     0.049 A 
ATOM     71  H   UNL     1       2.639 -11.679  -2.715  1.00  0.00     0.167 HD
ATOM     72  C   UNL     1       2.505 -11.284  -5.522  1.00  0.00     0.074 A 
ATOM     73  C   UNL     1       2.141 -10.732  -6.811  1.00  0.00     0.031 C 
ATOM     74  C   UNL     1       3.433 -12.255  -5.340  1.00  0.00     0.037 A 
BRANCH  61  75
ATOM     75  C   UNL     1       4.379 -13.756   0.588  1.00  0.00     0.057 A 
ATOM     76  C   UNL     1       3.749 -14.724   1.383  1.00  0.00     0.134 A 
ATOM     77  C   UNL     1       5.760 -13.587   0.753  1.00  0.00     0.134 A 
ATOM     78  F   UNL     1       2.428 -14.932   1.282  1.00  0.00    -0.206 F 
ATOM     79  C   UNL     1       4.456 -15.463   2.334  1.00  0.00     0.040 A 
ATOM     80  C   UNL     1       6.483 -14.342   1.679  1.00  0.00     0.040 A 
ATOM     81  F   UNL     1       6.430 -12.687   0.018  1.00  0.00    -0.206 F 
ATOM     82  C   UNL     1       5.829 -15.275   2.481  1.00  0.00     0.006 A 
ENDBRANCH  61  75
BRANCH  62  83
ATOM     83  C   UNL     1      -0.817  -7.959  -5.658  1.00  0.00     0.057 A 
ATOM     84  C   UNL     1      -1.769  -8.519  -6.518  1.00  0.00     0.134 A 
ATOM     85  C   UNL     1      -0.642  -6.571  -5.707  1.00  0.00     0.134 A 
ATOM     86  F   UNL     1      -1.968  -9.845  -6.531  1.00  0.00    -0.206 F 
ATOM     87  C   UNL     1      -2.512  -7.732  -7.398  1.00  0.00     0.040 A 
ATOM     88  C   UNL     1      -1.396  -5.769  -6.565  1.00  0.00     0.040 A 
ATOM     89  F   UNL     1       0.251  -5.972  -4.905  1.00  0.00    -0.206 F 
ATOM     90  C   UNL     1      -2.332  -6.351  -7.418  1.00  0.00     0.006 A 
ENDBRANCH  62  83
BRANCH  74  91
ATOM     91  C   UNL     1       4.108 -12.800  -6.565  1.00  0.00     0.057 A 
ATOM     92  C   UNL     1       5.058 -12.057  -7.278  1.00  0.00     0.134 A 
ATOM     93  C   UNL     1       3.840 -14.102  -7.009  1.00  0.00     0.134 A 
ATOM     94  F   UNL     1       5.349 -10.799  -6.916  1.00  0.00    -0.206 F 
ATOM     95  C   UNL     1       5.705 -12.584  -8.398  1.00  0.00     0.040 A 
ATOM     96  C   UNL     1       4.500 -14.649  -8.110  1.00  0.00     0.040 A 
ATOM     97  F   UNL     1       2.946 -14.870  -6.368  1.00  0.00    -0.206 F 
ATOM     98  C   UNL     1       5.433 -13.887  -8.810  1.00  0.00     0.006 A 
ENDBRANCH  74  91
ENDBRANCH  48  49
ENDBRANCH  40  43
ENDBRANCH  38  39
ENDBRANCH  37  38
ENDBRANCH  36  37
ENDBRANCH  35  36
ENDBRANCH  34  35
ENDBRANCH   1  34
TORSDOF 19
