REMARK SMILES COc1cc2c(cc1OC)[C@H](C(=O)NCCCCCCNC(=O)c1ccc(-c3c4nc(c(-c5c(F)cccc5F)c5ccc([nH]5)c(-c5c(F)cccc5F)c5nc(c(-c6c(F)cccc6F)c6ccc3[nH]6)C=C5)C=C4)cc1)[C@H](c1cccc(Cl)c1)N(C)C2=O
REMARK SMILES IDX 18 1 17 2 16 3 15 4 14 5 12 6 13 7 11 9 3 10 4 11 8 12 5 13
REMARK SMILES IDX 7 14 6 15 88 16 86 17 89 18 78 19 87 20 2 21 1 22 9 23 10 24
REMARK SMILES IDX 79 25 80 26 85 27 81 28 83 29 82 30 84 31 19 32 20 33 21 34
REMARK SMILES IDX 22 35 23 37 24 38 25 39 77 40 26 41 76 42 27 43 28 44 29 45
REMARK SMILES IDX 70 46 30 47 75 48 69 49 71 50 31 51 74 52 68 53 67 54 32 56
REMARK SMILES IDX 58 57 41 58 57 59 42 60 45 61 56 62 72 63 43 64 44 65 55 67
REMARK SMILES IDX 73 68 46 69 33 70 34 71 39 72 35 73 36 74 38 75 40 76 37 77
REMARK SMILES IDX 59 78 60 79 65 80 61 81 62 82 64 83 66 84 63 85 47 86 48 87
REMARK SMILES IDX 53 88 49 89 50 90 52 91 54 92 51 93
REMARK H PARENT 14 8 21 36 71 55 45 66
REMARK Flexibility Score: inf
ROOT
ATOM      1  C   UNL     1      -3.881   4.996   3.139  1.00  0.00     0.002 C 
ENDROOT
BRANCH   1   2
ATOM      2  C   UNL     1      -3.521   4.225   4.412  1.00  0.00     0.002 C 
BRANCH   2   3
ATOM      3  C   UNL     1      -2.197   3.462   4.345  1.00  0.00     0.021 C 
BRANCH   3   4
ATOM      4  C   UNL     1      -0.944   4.350   4.341  1.00  0.00     0.116 C 
BRANCH   4   5
ATOM      5  N   UNL     1      -0.341   4.324   5.661  1.00  0.00    -0.355 N 
ATOM      6  C   UNL     1       0.679   3.636   6.223  1.00  0.00     0.230 C 
ATOM      7  O   UNL     1       0.765   3.786   7.454  1.00  0.00    -0.274 OA
ATOM      8  H   UNL     1      -0.772   4.948   6.289  1.00  0.00     0.163 HD
BRANCH   6   9
ATOM      9  C   UNL     1       1.783   2.844   5.530  1.00  0.00     0.136 C 
ATOM     10  C   UNL     1       1.426   1.140   1.577  1.00  0.00     0.161 A 
ATOM     11  C   UNL     1       2.678   1.425   2.116  1.00  0.00     0.064 A 
ATOM     12  C   UNL     1       0.292   1.190   2.392  1.00  0.00     0.161 A 
ATOM     13  C   UNL     1       2.776   1.873   3.437  1.00  0.00     0.048 A 
ATOM     14  C   UNL     1       0.425   1.597   3.729  1.00  0.00     0.056 A 
ATOM     15  C   UNL     1       1.624   2.125   4.205  1.00  0.00    -0.016 A 
ATOM     16  C   UNL     1       4.126   2.008   4.059  1.00  0.00     0.254 C 
ATOM     17  N   UNL     1       4.212   2.824   5.179  1.00  0.00    -0.333 N 
ATOM     18  O   UNL     1       5.087   1.408   3.579  1.00  0.00    -0.269 OA
ATOM     19  C   UNL     1       3.090   3.713   5.527  1.00  0.00     0.132 C 
ATOM     20  C   UNL     1       5.477   2.954   5.877  1.00  0.00     0.147 C 
BRANCH  10  21
ATOM     21  O   UNL     1       1.352   0.879   0.237  1.00  0.00    -0.493 OA
ATOM     22  C   UNL     1       1.546  -0.508  -0.030  1.00  0.00     0.278 C 
ENDBRANCH  10  21
BRANCH  12  23
ATOM     23  O   UNL     1      -0.989   0.867   2.029  1.00  0.00    -0.493 OA
ATOM     24  C   UNL     1      -1.361   1.209   0.697  1.00  0.00     0.278 C 
ENDBRANCH  12  23
BRANCH  19  25
ATOM     25  C   UNL     1       3.080   4.987   4.655  1.00  0.00    -0.023 A 
ATOM     26  C   UNL     1       2.321   6.105   5.045  1.00  0.00     0.006 A 
ATOM     27  C   UNL     1       3.847   5.117   3.478  1.00  0.00     0.026 A 
ATOM     28  C   UNL     1       2.269   7.263   4.258  1.00  0.00     0.002 A 
ATOM     29  C   UNL     1       3.802   6.276   2.701  1.00  0.00     0.041 A 
ATOM     30  C   UNL     1       3.003   7.346   3.079  1.00  0.00     0.020 A 
ATOM     31  Cl  UNL     1       4.750   6.379   1.268  1.00  0.00    -0.084 Cl
ENDBRANCH  19  25
ENDBRANCH   6   9
ENDBRANCH   4   5
ENDBRANCH   3   4
ENDBRANCH   2   3
ENDBRANCH   1   2
BRANCH   1  32
ATOM     32  C   UNL     1      -3.826   4.191   1.837  1.00  0.00     0.021 C 
BRANCH  32  33
ATOM     33  C   UNL     1      -4.675   2.920   1.819  1.00  0.00     0.116 C 
BRANCH  33  34
ATOM     34  N   UNL     1      -6.094   3.210   1.893  1.00  0.00    -0.352 N 
ATOM     35  C   UNL     1      -7.086   2.944   0.982  1.00  0.00     0.251 C 
ATOM     36  H   UNL     1      -6.389   3.663   2.716  1.00  0.00     0.163 HD
ATOM     37  O   UNL     1      -8.190   3.463   1.110  1.00  0.00    -0.269 OA
BRANCH  35  38
ATOM     38  C   UNL     1      -6.832   2.039  -0.163  1.00  0.00     0.039 A 
ATOM     39  C   UNL     1      -7.302   2.408  -1.427  1.00  0.00     0.014 A 
ATOM     40  C   UNL     1      -6.189   0.809   0.011  1.00  0.00     0.014 A 
ATOM     41  C   UNL     1      -7.094   1.565  -2.522  1.00  0.00     0.010 A 
ATOM     42  C   UNL     1      -5.933  -0.006  -1.092  1.00  0.00     0.010 A 
ATOM     43  C   UNL     1      -6.392   0.358  -2.367  1.00  0.00    -0.014 A 
BRANCH  43  44
ATOM     44  C   UNL     1      -6.144  -0.536  -3.528  1.00  0.00     0.031 A 
ATOM     45  C   UNL     1      -6.789  -1.893  -3.593  1.00  0.00     0.074 A 
ATOM     46  C   UNL     1      -5.301  -0.148  -4.504  1.00  0.00     0.049 A 
ATOM     47  N   UNL     1      -6.650  -2.833  -4.494  1.00  0.00    -0.248 NA
ATOM     48  C   UNL     1      -7.694  -2.249  -2.489  1.00  0.00     0.031 C 
ATOM     49  C   UNL     1      -4.586   1.129  -4.546  1.00  0.00     0.029 A 
ATOM     50  N   UNL     1      -4.895  -0.794  -5.645  1.00  0.00    -0.354 N 
ATOM     51  C   UNL     1      -7.437  -3.893  -4.060  1.00  0.00     0.074 A 
ATOM     52  C   UNL     1      -8.014  -3.498  -2.793  1.00  0.00     0.031 C 
ATOM     53  C   UNL     1      -3.842   1.178  -5.662  1.00  0.00     0.029 A 
ATOM     54  C   UNL     1      -3.999  -0.074  -6.397  1.00  0.00     0.049 A 
ATOM     55  H   UNL     1      -5.216  -1.689  -5.901  1.00  0.00     0.167 HD
ATOM     56  C   UNL     1      -7.672  -5.080  -4.670  1.00  0.00     0.037 A 
ATOM     57  C   UNL     1      -3.367  -0.389  -7.544  1.00  0.00     0.037 A 
ATOM     58  C   UNL     1      -7.117  -5.465  -5.942  1.00  0.00     0.049 A 
ATOM     59  C   UNL     1      -3.635  -1.717  -8.195  1.00  0.00     0.074 A 
ATOM     60  C   UNL     1      -7.345  -6.622  -6.667  1.00  0.00     0.029 A 
ATOM     61  N   UNL     1      -6.220  -4.704  -6.675  1.00  0.00    -0.354 N 
ATOM     62  N   UNL     1      -4.429  -2.684  -7.804  1.00  0.00    -0.248 NA
ATOM     63  C   UNL     1      -2.923  -1.996  -9.450  1.00  0.00     0.031 C 
ATOM     64  C   UNL     1      -6.552  -6.580  -7.819  1.00  0.00     0.029 A 
ATOM     65  C   UNL     1      -5.867  -5.376  -7.834  1.00  0.00     0.049 A 
ATOM     66  H   UNL     1      -5.884  -3.816  -6.412  1.00  0.00     0.167 HD
ATOM     67  C   UNL     1      -4.333  -3.672  -8.776  1.00  0.00     0.074 A 
ATOM     68  C   UNL     1      -3.412  -3.183  -9.781  1.00  0.00     0.031 C 
ATOM     69  C   UNL     1      -4.953  -4.876  -8.830  1.00  0.00     0.037 A 
BRANCH  56  70
ATOM     70  C   UNL     1      -8.572  -6.054  -3.966  1.00  0.00     0.057 A 
ATOM     71  C   UNL     1      -9.952  -5.837  -3.853  1.00  0.00     0.134 A 
ATOM     72  C   UNL     1      -8.059  -7.241  -3.427  1.00  0.00     0.134 A 
ATOM     73  F   UNL     1     -10.505  -4.716  -4.339  1.00  0.00    -0.206 F 
ATOM     74  C   UNL     1     -10.784  -6.752  -3.206  1.00  0.00     0.040 A 
ATOM     75  C   UNL     1      -8.886  -8.176  -2.801  1.00  0.00     0.040 A 
ATOM     76  F   UNL     1      -6.748  -7.515  -3.507  1.00  0.00    -0.206 F 
ATOM     77  C   UNL     1     -10.252  -7.929  -2.683  1.00  0.00     0.006 A 
ENDBRANCH  56  70
BRANCH  57  78
ATOM     78  C   UNL     1      -2.429   0.581  -8.161  1.00  0.00     0.057 A 
ATOM     79  C   UNL     1      -2.756   1.245  -9.349  1.00  0.00     0.134 A 
ATOM     80  C   UNL     1      -1.186   0.864  -7.584  1.00  0.00     0.134 A 
ATOM     81  F   UNL     1      -3.925   1.000  -9.959  1.00  0.00    -0.206 F 
ATOM     82  C   UNL     1      -1.875   2.146  -9.949  1.00  0.00     0.040 A 
ATOM     83  C   UNL     1      -0.304   1.780  -8.160  1.00  0.00     0.040 A 
ATOM     84  F   UNL     1      -0.817   0.264  -6.442  1.00  0.00    -0.206 F 
ATOM     85  C   UNL     1      -0.646   2.419  -9.350  1.00  0.00     0.006 A 
ENDBRANCH  57  78
BRANCH  69  86
ATOM     86  C   UNL     1      -4.683  -5.737 -10.029  1.00  0.00     0.057 A 
ATOM     87  C   UNL     1      -3.461  -6.399 -10.204  1.00  0.00     0.134 A 
ATOM     88  C   UNL     1      -5.673  -5.938 -10.999  1.00  0.00     0.134 A 
ATOM     89  F   UNL     1      -2.467  -6.237  -9.317  1.00  0.00    -0.206 F 
ATOM     90  C   UNL     1      -3.227  -7.216 -11.311  1.00  0.00     0.040 A 
ATOM     91  C   UNL     1      -5.459  -6.772 -12.098  1.00  0.00     0.040 A 
ATOM     92  F   UNL     1      -6.868  -5.339 -10.888  1.00  0.00    -0.206 F 
ATOM     93  C   UNL     1      -4.231  -7.409 -12.258  1.00  0.00     0.006 A 
ENDBRANCH  69  86
ENDBRANCH  43  44
ENDBRANCH  35  38
ENDBRANCH  33  34
ENDBRANCH  32  33
ENDBRANCH   1  32
TORSDOF 16
