REMARK SMILES CN(Cc1ncc(C(=O)NCCCCCCNC(=O)c2ccc(-c3c4nc(c(-c5c(F)cccc5F)c5ccc([nH]5)c(-c5c(F)cccc5F)c5nc(c(-c6c(F)cccc6F)c6ccc3[nH]6)C=C5)C=C4)cc2)cn1)S(=O)(=O)c1ccc(Cl)cc1
REMARK SMILES IDX 12 1 11 2 10 3 8 4 9 5 7 7 4 8 5 9 75 10 6 11 74 12 3 13
REMARK SMILES IDX 2 14 1 15 76 16 77 17 78 18 79 19 80 20 85 21 81 22 84 23
REMARK SMILES IDX 82 24 83 25 13 26 14 27 15 28 16 29 17 30 18 31 19 33 20 34
REMARK SMILES IDX 21 35 73 36 22 37 72 38 23 39 24 40 25 41 66 42 26 43 71 44
REMARK SMILES IDX 65 45 67 46 27 47 70 48 64 49 63 50 28 52 54 53 37 54 53 55
REMARK SMILES IDX 38 56 41 57 52 58 68 59 39 60 40 61 51 63 69 64 42 65 29 66
REMARK SMILES IDX 30 67 35 68 31 69 32 70 34 71 36 72 33 73 55 74 56 75 61 76
REMARK SMILES IDX 57 77 58 78 60 79 62 80 59 81 43 82 44 83 49 84 45 85 46 86
REMARK SMILES IDX 48 87 50 88 47 89
REMARK H PARENT 10 6 17 32 67 51 41 62
REMARK Flexibility Score: inf
ROOT
ATOM      1  C   UNL     1      -2.215  -6.826  -1.643  1.00  0.00     0.021 C 
ENDROOT
BRANCH   1   2
ATOM      2  C   UNL     1      -1.349  -5.721  -2.249  1.00  0.00     0.116 C 
BRANCH   2   3
ATOM      3  N   UNL     1      -2.134  -4.900  -3.158  1.00  0.00    -0.352 N 
ATOM      4  C   UNL     1      -2.567  -3.604  -3.045  1.00  0.00     0.254 C 
ATOM      5  O   UNL     1      -3.152  -3.076  -3.987  1.00  0.00    -0.269 OA
ATOM      6  H   UNL     1      -2.398  -5.349  -3.993  1.00  0.00     0.163 HD
BRANCH   4   7
ATOM      7  C   UNL     1      -2.286  -2.805  -1.851  1.00  0.00     0.076 A 
ATOM      8  C   UNL     1      -1.540  -1.291   0.265  1.00  0.00     0.143 A 
ATOM      9  N   UNL     1      -2.053  -2.513   0.524  1.00  0.00    -0.239 NA
ATOM     10  N   UNL     1      -1.481  -0.726  -0.961  1.00  0.00    -0.239 NA
ATOM     11  C   UNL     1      -2.422  -3.241  -0.553  1.00  0.00     0.128 A 
ATOM     12  C   UNL     1      -1.863  -1.504  -1.996  1.00  0.00     0.128 A 
BRANCH   8  13
ATOM     13  C   UNL     1      -0.870  -0.552   1.405  1.00  0.00     0.179 C 
BRANCH  13  14
ATOM     14  N   UNL     1       0.634  -0.536   1.417  1.00  0.00    -0.193 NA
ATOM     15  C   UNL     1       1.186   0.305   0.324  1.00  0.00     0.125 C 
BRANCH  14  16
ATOM     16  S   UNL     1       1.425  -2.047   1.523  1.00  0.00     0.243 S 
ATOM     17  O   UNL     1       0.979  -2.881   0.431  1.00  0.00    -0.207 OA
ATOM     18  O   UNL     1       2.841  -1.781   1.711  1.00  0.00    -0.207 OA
BRANCH  16  19
ATOM     19  C   UNL     1       0.860  -2.766   3.045  1.00  0.00     0.082 A 
ATOM     20  C   UNL     1       0.662  -1.962   4.172  1.00  0.00     0.023 A 
ATOM     21  C   UNL     1       0.645  -4.147   3.104  1.00  0.00     0.023 A 
ATOM     22  C   UNL     1       0.229  -2.547   5.364  1.00  0.00     0.022 A 
ATOM     23  C   UNL     1       0.231  -4.728   4.304  1.00  0.00     0.022 A 
ATOM     24  C   UNL     1       0.020  -3.926   5.426  1.00  0.00     0.041 A 
ATOM     25  Cl  UNL     1      -0.493  -4.644   6.903  1.00  0.00    -0.084 Cl
ENDBRANCH  16  19
ENDBRANCH  14  16
ENDBRANCH  13  14
ENDBRANCH   8  13
ENDBRANCH   4   7
ENDBRANCH   2   3
ENDBRANCH   1   2
BRANCH   1  26
ATOM     26  C   UNL     1      -2.589  -7.934  -2.637  1.00  0.00     0.002 C 
BRANCH  26  27
ATOM     27  C   UNL     1      -1.409  -8.753  -3.172  1.00  0.00     0.002 C 
BRANCH  27  28
ATOM     28  C   UNL     1      -0.528  -9.409  -2.104  1.00  0.00     0.021 C 
BRANCH  28  29
ATOM     29  C   UNL     1      -1.262 -10.355  -1.156  1.00  0.00     0.116 C 
BRANCH  29  30
ATOM     30  N   UNL     1      -1.812 -11.509  -1.847  1.00  0.00    -0.352 N 
ATOM     31  C   UNL     1      -1.700 -12.842  -1.546  1.00  0.00     0.251 C 
ATOM     32  H   UNL     1      -2.343 -11.303  -2.650  1.00  0.00     0.163 HD
ATOM     33  O   UNL     1      -2.087 -13.686  -2.349  1.00  0.00    -0.269 OA
BRANCH  31  34
ATOM     34  C   UNL     1      -1.100 -13.274  -0.264  1.00  0.00     0.039 A 
ATOM     35  C   UNL     1      -0.199 -14.342  -0.273  1.00  0.00     0.014 A 
ATOM     36  C   UNL     1      -1.450 -12.663   0.945  1.00  0.00     0.014 A 
ATOM     37  C   UNL     1       0.386 -14.769   0.922  1.00  0.00     0.010 A 
ATOM     38  C   UNL     1      -0.824 -13.052   2.128  1.00  0.00     0.010 A 
ATOM     39  C   UNL     1       0.095 -14.113   2.128  1.00  0.00    -0.014 A 
BRANCH  39  40
ATOM     40  C   UNL     1       0.741 -14.534   3.396  1.00  0.00     0.031 A 
ATOM     41  C   UNL     1      -0.071 -15.162   4.494  1.00  0.00     0.074 A 
ATOM     42  C   UNL     1       2.056 -14.307   3.578  1.00  0.00     0.049 A 
ATOM     43  N   UNL     1       0.313 -15.568   5.678  1.00  0.00    -0.248 NA
ATOM     44  C   UNL     1      -1.509 -15.334   4.237  1.00  0.00     0.031 C 
ATOM     45  C   UNL     1       2.944 -13.658   2.612  1.00  0.00     0.029 A 
ATOM     46  N   UNL     1       2.873 -14.593   4.642  1.00  0.00    -0.354 N 
ATOM     47  C   UNL     1      -0.834 -16.028   6.311  1.00  0.00     0.074 A 
ATOM     48  C   UNL     1      -1.936 -15.812   5.397  1.00  0.00     0.031 C 
ATOM     49  C   UNL     1       4.187 -13.614   3.119  1.00  0.00     0.029 A 
ATOM     50  C   UNL     1       4.178 -14.211   4.452  1.00  0.00     0.049 A 
ATOM     51  H   UNL     1       2.554 -15.031   5.464  1.00  0.00     0.167 HD
ATOM     52  C   UNL     1      -0.957 -16.596   7.534  1.00  0.00     0.037 A 
ATOM     53  C   UNL     1       5.248 -14.332   5.258  1.00  0.00     0.037 A 
ATOM     54  C   UNL     1       0.142 -16.840   8.431  1.00  0.00     0.049 A 
ATOM     55  C   UNL     1       5.093 -14.997   6.596  1.00  0.00     0.074 A 
ATOM     56  C   UNL     1       0.127 -17.468   9.665  1.00  0.00     0.029 A 
ATOM     57  N   UNL     1       1.455 -16.468   8.188  1.00  0.00    -0.354 N 
ATOM     58  N   UNL     1       4.013 -15.487   7.154  1.00  0.00    -0.248 NA
ATOM     59  C   UNL     1       6.308 -15.135   7.411  1.00  0.00     0.031 C 
ATOM     60  C   UNL     1       1.427 -17.451  10.181  1.00  0.00     0.029 A 
ATOM     61  C   UNL     1       2.257 -16.842   9.254  1.00  0.00     0.049 A 
ATOM     62  H   UNL     1       1.771 -16.006   7.378  1.00  0.00     0.167 HD
ATOM     63  C   UNL     1       4.420 -16.011   8.374  1.00  0.00     0.074 A 
ATOM     64  C   UNL     1       5.849 -15.791   8.468  1.00  0.00     0.031 C 
ATOM     65  C   UNL     1       3.678 -16.618   9.331  1.00  0.00     0.037 A 
BRANCH  52  66
ATOM     66  C   UNL     1      -2.334 -17.001   7.969  1.00  0.00     0.057 A 
ATOM     67  C   UNL     1      -2.988 -18.107   7.410  1.00  0.00     0.134 A 
ATOM     68  C   UNL     1      -3.004 -16.294   8.976  1.00  0.00     0.134 A 
ATOM     69  F   UNL     1      -2.405 -18.817   6.432  1.00  0.00    -0.206 F 
ATOM     70  C   UNL     1      -4.269 -18.481   7.819  1.00  0.00     0.040 A 
ATOM     71  C   UNL     1      -4.276 -16.673   9.409  1.00  0.00     0.040 A 
ATOM     72  F   UNL     1      -2.432 -15.228   9.556  1.00  0.00    -0.206 F 
ATOM     73  C   UNL     1      -4.914 -17.765   8.826  1.00  0.00     0.006 A 
ENDBRANCH  52  66
BRANCH  53  74
ATOM     74  C   UNL     1       6.573 -13.845   4.805  1.00  0.00     0.057 A 
ATOM     75  C   UNL     1       7.578 -14.743   4.427  1.00  0.00     0.134 A 
ATOM     76  C   UNL     1       6.866 -12.479   4.737  1.00  0.00     0.134 A 
ATOM     77  F   UNL     1       7.360 -16.065   4.489  1.00  0.00    -0.206 F 
ATOM     78  C   UNL     1       8.834 -14.300   4.011  1.00  0.00     0.040 A 
ATOM     79  C   UNL     1       8.111 -12.021   4.303  1.00  0.00     0.040 A 
ATOM     80  F   UNL     1       5.941 -11.570   5.079  1.00  0.00    -0.206 F 
ATOM     81  C   UNL     1       9.101 -12.934   3.944  1.00  0.00     0.006 A 
ENDBRANCH  53  74
BRANCH  65  82
ATOM     82  C   UNL     1       4.404 -17.107  10.548  1.00  0.00     0.057 A 
ATOM     83  C   UNL     1       4.865 -16.225  11.533  1.00  0.00     0.134 A 
ATOM     84  C   UNL     1       4.626 -18.475  10.745  1.00  0.00     0.134 A 
ATOM     85  F   UNL     1       4.694 -14.901  11.395  1.00  0.00    -0.206 F 
ATOM     86  C   UNL     1       5.543 -16.686  12.662  1.00  0.00     0.040 A 
ATOM     87  C   UNL     1       5.284 -18.950  11.880  1.00  0.00     0.040 A 
ATOM     88  F   UNL     1       4.204 -19.371   9.840  1.00  0.00    -0.206 F 
ATOM     89  C   UNL     1       5.750 -18.053  12.840  1.00  0.00     0.006 A 
ENDBRANCH  65  82
ENDBRANCH  39  40
ENDBRANCH  31  34
ENDBRANCH  29  30
ENDBRANCH  28  29
ENDBRANCH  27  28
ENDBRANCH  26  27
ENDBRANCH   1  26
TORSDOF 17
