REMARK SMILES O=C(C[C@H](C(=O)OC[C@H]1CCCO1)[NH+]1CCOCC1)NCCCCCCNC(=O)c1ccc(-c2c3nc(c(-c4c(F)cccc4F)c4ccc([nH]4)c(-c4c(F)cccc4F)c4nc(c(-c5c(F)cccc5F)c5ccc2[nH]5)C=C4)C=C3)cc1
REMARK SMILES IDX 22 1 21 2 20 3 1 4 2 5 3 7 4 8 14 9 15 10 19 11 16 13 18 14
REMARK SMILES IDX 17 15 5 16 6 17 7 18 8 19 9 20 10 21 13 22 11 23 12 24 23 25
REMARK SMILES IDX 24 26 25 27 26 28 27 29 28 30 29 32 30 33 31 34 83 35 32 36
REMARK SMILES IDX 82 37 33 38 34 39 35 40 76 41 36 42 81 43 75 44 77 45 37 46
REMARK SMILES IDX 80 47 74 48 73 49 38 51 64 52 47 53 63 54 48 55 51 56 62 57
REMARK SMILES IDX 78 58 49 59 50 60 61 62 79 63 52 64 39 65 40 66 45 67 41 68
REMARK SMILES IDX 42 69 44 70 46 71 43 72 65 73 66 74 71 75 67 76 68 77 70 78
REMARK SMILES IDX 72 79 69 80 53 81 54 82 59 83 55 84 56 85 58 86 60 87 57 88
REMARK H PARENT 20 6 14 12 27 31 77 50 51 61
REMARK Flexibility Score: inf
ROOT
ATOM      1  C   UNL     1      -0.752   0.210   4.635  1.00  0.00     0.021 C 
ENDROOT
BRANCH   1   2
ATOM      2  C   UNL     1       0.470   0.648   5.438  1.00  0.00     0.116 C 
BRANCH   2   3
ATOM      3  N   UNL     1       1.593   0.999   4.588  1.00  0.00    -0.356 N 
ATOM      4  O   UNL     1       2.205   2.898   5.708  1.00  0.00    -0.275 OA
ATOM      5  C   UNL     1       2.431   2.055   4.847  1.00  0.00     0.226 C 
ATOM      6  H   UNL     1       1.762   0.453   3.787  1.00  0.00     0.163 HD
BRANCH   5   7
ATOM      7  C   UNL     1       3.659   2.109   3.966  1.00  0.00     0.177 C 
BRANCH   7   8
ATOM      8  C   UNL     1       4.683   0.958   4.078  1.00  0.00     0.304 C 
BRANCH   8   9
ATOM      9  N   UNL     1       5.158   0.520   5.418  1.00  0.00    -0.319 N 
ATOM     10  C   UNL     1       6.383  -0.312   5.392  1.00  0.00     0.291 C 
ATOM     11  C   UNL     1       4.214  -0.065   6.379  1.00  0.00     0.291 C 
ATOM     12  H   UNL     1       5.346   1.452   5.787  1.00  0.00     0.348 HD
ATOM     13  C   UNL     1       6.145  -1.837   5.324  1.00  0.00     0.221 C 
ATOM     14  C   UNL     1       3.978  -1.570   6.212  1.00  0.00     0.221 C 
ATOM     15  O   UNL     1       5.212  -2.287   6.313  1.00  0.00    -0.370 OA
ENDBRANCH   8   9
BRANCH   8  16
ATOM     16  C   UNL     1       4.456  -0.172   3.062  1.00  0.00     0.365 C 
ATOM     17  O   UNL     1       5.374  -0.672   2.418  1.00  0.00    -0.245 OA
BRANCH  16  18
ATOM     18  O   UNL     1       3.161  -0.609   3.017  1.00  0.00    -0.459 OA
BRANCH  18  19
ATOM     19  C   UNL     1       2.944  -1.725   2.126  1.00  0.00     0.265 C 
BRANCH  19  20
ATOM     20  C   UNL     1       2.537  -1.297   0.702  1.00  0.00     0.156 C 
ATOM     21  C   UNL     1       1.045  -1.380   0.402  1.00  0.00     0.038 C 
ATOM     22  O   UNL     1       2.949   0.051   0.435  1.00  0.00    -0.375 OA
ATOM     23  C   UNL     1       0.569   0.049   0.404  1.00  0.00     0.031 C 
ATOM     24  C   UNL     1       1.812   0.853   0.112  1.00  0.00     0.161 C 
ENDBRANCH  19  20
ENDBRANCH  18  19
ENDBRANCH  16  18
ENDBRANCH   8  16
ENDBRANCH   7   8
ENDBRANCH   5   7
ENDBRANCH   2   3
ENDBRANCH   1   2
BRANCH   1  25
ATOM     25  C   UNL     1      -0.492  -0.968   3.696  1.00  0.00     0.002 C 
BRANCH  25  26
ATOM     26  C   UNL     1      -0.363  -2.341   4.349  1.00  0.00     0.002 C 
BRANCH  26  27
ATOM     27  C   UNL     1      -1.663  -2.916   4.899  1.00  0.00     0.021 C 
BRANCH  27  28
ATOM     28  C   UNL     1      -2.858  -2.863   3.953  1.00  0.00     0.116 C 
BRANCH  28  29
ATOM     29  N   UNL     1      -2.630  -3.516   2.669  1.00  0.00    -0.352 N 
ATOM     30  C   UNL     1      -3.456  -4.370   1.975  1.00  0.00     0.251 C 
ATOM     31  H   UNL     1      -1.766  -3.319   2.240  1.00  0.00     0.163 HD
ATOM     32  O   UNL     1      -3.085  -4.884   0.925  1.00  0.00    -0.269 OA
BRANCH  30  33
ATOM     33  C   UNL     1      -4.778  -4.704   2.544  1.00  0.00     0.039 A 
ATOM     34  C   UNL     1      -5.120  -6.047   2.707  1.00  0.00     0.014 A 
ATOM     35  C   UNL     1      -5.622  -3.695   3.011  1.00  0.00     0.014 A 
ATOM     36  C   UNL     1      -6.261  -6.379   3.439  1.00  0.00     0.010 A 
ATOM     37  C   UNL     1      -6.705  -4.027   3.817  1.00  0.00     0.010 A 
ATOM     38  C   UNL     1      -7.027  -5.372   4.053  1.00  0.00    -0.014 A 
BRANCH  38  39
ATOM     39  C   UNL     1      -8.136  -5.713   4.980  1.00  0.00     0.031 A 
ATOM     40  C   UNL     1      -9.544  -5.287   4.677  1.00  0.00     0.074 A 
ATOM     41  C   UNL     1      -7.860  -6.342   6.141  1.00  0.00     0.049 A 
ATOM     42  N   UNL     1     -10.633  -5.473   5.380  1.00  0.00    -0.248 NA
ATOM     43  C   UNL     1      -9.753  -4.519   3.439  1.00  0.00     0.031 C 
ATOM     44  C   UNL     1      -6.524  -6.735   6.597  1.00  0.00     0.029 A 
ATOM     45  N   UNL     1      -8.690  -6.762   7.150  1.00  0.00    -0.354 N 
ATOM     46  C   UNL     1     -11.646  -4.827   4.684  1.00  0.00     0.074 A 
ATOM     47  C   UNL     1     -11.034  -4.197   3.534  1.00  0.00     0.031 C 
ATOM     48  C   UNL     1      -6.631  -7.380   7.770  1.00  0.00     0.029 A 
ATOM     49  C   UNL     1      -8.035  -7.420   8.163  1.00  0.00     0.049 A 
ATOM     50  H   UNL     1      -9.662  -6.606   7.148  1.00  0.00     0.167 HD
ATOM     51  C   UNL     1     -12.971  -4.783   4.962  1.00  0.00     0.037 A 
ATOM     52  C   UNL     1      -8.515  -8.003   9.277  1.00  0.00     0.037 A 
ATOM     53  C   UNL     1     -13.586  -5.447   6.080  1.00  0.00     0.049 A 
ATOM     54  C   UNL     1      -9.994  -7.981   9.540  1.00  0.00     0.074 A 
ATOM     55  C   UNL     1     -14.931  -5.547   6.393  1.00  0.00     0.029 A 
ATOM     56  N   UNL     1     -12.894  -6.126   7.072  1.00  0.00    -0.354 N 
ATOM     57  N   UNL     1     -10.953  -7.447   8.823  1.00  0.00    -0.248 NA
ATOM     58  C   UNL     1     -10.457  -8.648  10.765  1.00  0.00     0.031 C 
ATOM     59  C   UNL     1     -15.050  -6.256   7.593  1.00  0.00     0.029 A 
ATOM     60  C   UNL     1     -13.781  -6.629   8.009  1.00  0.00     0.049 A 
ATOM     61  H   UNL     1     -11.916  -6.234   7.105  1.00  0.00     0.167 HD
ATOM     62  C   UNL     1     -12.133  -7.732   9.497  1.00  0.00     0.074 A 
ATOM     63  C   UNL     1     -11.770  -8.501  10.670  1.00  0.00     0.031 C 
ATOM     64  C   UNL     1     -13.404  -7.388   9.173  1.00  0.00     0.037 A 
BRANCH  51  65
ATOM     65  C   UNL     1     -13.842  -3.996   4.027  1.00  0.00     0.057 A 
ATOM     66  C   UNL     1     -14.110  -4.433   2.723  1.00  0.00     0.134 A 
ATOM     67  C   UNL     1     -14.425  -2.792   4.438  1.00  0.00     0.134 A 
ATOM     68  F   UNL     1     -13.569  -5.572   2.263  1.00  0.00    -0.206 F 
ATOM     69  C   UNL     1     -14.900  -3.684   1.850  1.00  0.00     0.040 A 
ATOM     70  C   UNL     1     -15.239  -2.047   3.582  1.00  0.00     0.040 A 
ATOM     71  F   UNL     1     -14.213  -2.318   5.675  1.00  0.00    -0.206 F 
ATOM     72  C   UNL     1     -15.471  -2.489   2.281  1.00  0.00     0.006 A 
ENDBRANCH  51  65
BRANCH  52  73
ATOM     73  C   UNL     1      -7.595  -8.711  10.201  1.00  0.00     0.057 A 
ATOM     74  C   UNL     1      -7.587 -10.110  10.266  1.00  0.00     0.134 A 
ATOM     75  C   UNL     1      -6.710  -8.019  11.034  1.00  0.00     0.134 A 
ATOM     76  F   UNL     1      -8.426 -10.825   9.503  1.00  0.00    -0.206 F 
ATOM     77  C   UNL     1      -6.742 -10.796  11.140  1.00  0.00     0.040 A 
ATOM     78  C   UNL     1      -5.845  -8.693  11.899  1.00  0.00     0.040 A 
ATOM     79  F   UNL     1      -6.666  -6.679  11.011  1.00  0.00    -0.206 F 
ATOM     80  C   UNL     1      -5.865 -10.086  11.957  1.00  0.00     0.006 A 
ENDBRANCH  52  73
BRANCH  64  81
ATOM     81  C   UNL     1     -14.489  -7.857  10.095  1.00  0.00     0.057 A 
ATOM     82  C   UNL     1     -14.682  -7.283  11.358  1.00  0.00     0.134 A 
ATOM     83  C   UNL     1     -15.360  -8.884   9.709  1.00  0.00     0.134 A 
ATOM     84  F   UNL     1     -13.871  -6.306  11.791  1.00  0.00    -0.206 F 
ATOM     85  C   UNL     1     -15.687  -7.732  12.216  1.00  0.00     0.040 A 
ATOM     86  C   UNL     1     -16.383  -9.325  10.549  1.00  0.00     0.040 A 
ATOM     87  F   UNL     1     -15.232  -9.471   8.509  1.00  0.00    -0.206 F 
ATOM     88  C   UNL     1     -16.544  -8.754  11.809  1.00  0.00     0.006 A 
ENDBRANCH  64  81
ENDBRANCH  38  39
ENDBRANCH  30  33
ENDBRANCH  28  29
ENDBRANCH  27  28
ENDBRANCH  26  27
ENDBRANCH  25  26
ENDBRANCH   1  25
TORSDOF 19
