REMARK SMILES CS(=O)(=O)N1C[C@@H]2CN(C(=O)c3ccco3)C[C@]2(C(=O)NCCCCCCNC(=O)c2ccc(-c3c4nc(c(-c5c(F)cccc5F)c5ccc([nH]5)c(-c5c(F)cccc5F)c5nc(c(-c6c(F)cccc6F)c6ccc3[nH]6)C=C5)C=C4)cc2)C1
REMARK SMILES IDX 24 1 23 2 22 3 21 4 19 5 20 6 18 8 5 9 6 10 85 11 7 12 8 13
REMARK SMILES IDX 17 14 9 15 2 16 1 17 3 18 4 19 10 20 11 21 12 22 13 23 16 24
REMARK SMILES IDX 14 25 15 26 25 27 26 28 27 29 28 30 29 31 30 33 31 34 32 35
REMARK SMILES IDX 84 36 33 37 83 38 34 39 35 40 36 41 77 42 37 43 82 44 76 45
REMARK SMILES IDX 78 46 38 47 81 48 75 49 74 50 39 52 65 53 48 54 64 55 49 56
REMARK SMILES IDX 52 57 63 58 79 59 50 60 51 61 62 63 80 64 53 65 40 66 41 67
REMARK SMILES IDX 46 68 42 69 43 70 45 71 47 72 44 73 66 74 67 75 72 76 68 77
REMARK SMILES IDX 69 78 71 79 73 80 70 81 54 82 55 83 60 84 56 85 57 86 59 87
REMARK SMILES IDX 61 88 58 89
REMARK H PARENT 21 7 28 32 78 51 52 62
REMARK Flexibility Score: inf
ROOT
ATOM      1  C   UNL     1       5.921  -3.836   6.755  1.00  0.00     0.002 C 
ENDROOT
BRANCH   1   2
ATOM      2  C   UNL     1       4.620  -4.038   5.980  1.00  0.00     0.021 C 
BRANCH   2   3
ATOM      3  C   UNL     1       3.904  -2.742   5.602  1.00  0.00     0.116 C 
BRANCH   3   4
ATOM      4  N   UNL     1       4.494  -2.210   4.390  1.00  0.00    -0.356 N 
ATOM      5  C   UNL     1       4.079  -2.470   3.107  1.00  0.00     0.229 C 
ATOM      6  O   UNL     1       4.869  -2.292   2.179  1.00  0.00    -0.274 OA
ATOM      7  H   UNL     1       5.264  -1.605   4.496  1.00  0.00     0.163 HD
BRANCH   5   8
ATOM      8  C   UNL     1       2.607  -2.934   2.942  1.00  0.00     0.086 C 
ATOM      9  N   UNL     1       0.989  -1.151   2.316  1.00  0.00    -0.201 NA
ATOM     10  C   UNL     1       0.229  -2.380   2.332  1.00  0.00     0.108 C 
ATOM     11  C   UNL     1       2.426  -1.499   2.209  1.00  0.00     0.121 C 
ATOM     12  C   UNL     1       1.326  -3.404   2.143  1.00  0.00     0.042 C 
ATOM     13  C   UNL     1       0.916  -4.753   2.685  1.00  0.00     0.126 C 
ATOM     14  C   UNL     1       3.237  -4.393   2.606  1.00  0.00     0.138 C 
ATOM     15  N   UNL     1       2.184  -5.342   2.980  1.00  0.00    -0.334 N 
BRANCH   9  16
ATOM     16  S   UNL     1       0.392   0.221   1.562  1.00  0.00     0.211 S 
ATOM     17  C   UNL     1       0.784  -0.060  -0.154  1.00  0.00     0.176 C 
ATOM     18  O   UNL     1       1.185   1.346   2.012  1.00  0.00    -0.213 OA
ATOM     19  O   UNL     1      -1.046   0.208   1.707  1.00  0.00    -0.213 OA
ENDBRANCH   9  16
BRANCH  15  20
ATOM     20  C   UNL     1       2.225  -6.482   3.777  1.00  0.00     0.289 C 
ATOM     21  O   UNL     1       1.172  -7.012   4.138  1.00  0.00    -0.265 OA
BRANCH  20  22
ATOM     22  C   UNL     1       3.498  -6.963   4.266  1.00  0.00     0.191 A 
ATOM     23  C   UNL     1       3.849  -7.381   5.539  1.00  0.00     0.056 A 
ATOM     24  O   UNL     1       4.563  -7.127   3.424  1.00  0.00    -0.459 OA
ATOM     25  C   UNL     1       5.199  -7.793   5.477  1.00  0.00     0.043 A 
ATOM     26  C   UNL     1       5.577  -7.653   4.162  1.00  0.00     0.196 A 
ENDBRANCH  20  22
ENDBRANCH  15  20
ENDBRANCH   5   8
ENDBRANCH   3   4
ENDBRANCH   2   3
ENDBRANCH   1   2
BRANCH   1  27
ATOM     27  C   UNL     1       5.717  -3.395   8.204  1.00  0.00     0.002 C 
BRANCH  27  28
ATOM     28  C   UNL     1       4.871  -4.347   9.056  1.00  0.00     0.021 C 
BRANCH  28  29
ATOM     29  C   UNL     1       5.391  -5.780   9.130  1.00  0.00     0.116 C 
BRANCH  29  30
ATOM     30  N   UNL     1       6.732  -5.853   9.685  1.00  0.00    -0.352 N 
ATOM     31  C   UNL     1       7.195  -6.611  10.730  1.00  0.00     0.251 C 
ATOM     32  H   UNL     1       7.402  -5.277   9.250  1.00  0.00     0.163 HD
ATOM     33  O   UNL     1       8.318  -6.424  11.185  1.00  0.00    -0.269 OA
BRANCH  31  34
ATOM     34  C   UNL     1       6.325  -7.650  11.313  1.00  0.00     0.039 A 
ATOM     35  C   UNL     1       6.173  -7.704  12.700  1.00  0.00     0.014 A 
ATOM     36  C   UNL     1       5.672  -8.575  10.492  1.00  0.00     0.014 A 
ATOM     37  C   UNL     1       5.333  -8.665  13.264  1.00  0.00     0.010 A 
ATOM     38  C   UNL     1       4.783  -9.489  11.052  1.00  0.00     0.010 A 
ATOM     39  C   UNL     1       4.616  -9.553  12.444  1.00  0.00    -0.014 A 
BRANCH  39  40
ATOM     40  C   UNL     1       3.718 -10.578  13.035  1.00  0.00     0.031 A 
ATOM     41  C   UNL     1       4.042 -12.039  12.883  1.00  0.00     0.074 A 
ATOM     42  C   UNL     1       2.603 -10.198  13.687  1.00  0.00     0.049 A 
ATOM     43  N   UNL     1       3.374 -13.084  13.305  1.00  0.00    -0.248 NA
ATOM     44  C   UNL     1       5.268 -12.372  12.141  1.00  0.00     0.031 C 
ATOM     45  C   UNL     1       2.162  -8.815  13.878  1.00  0.00     0.029 A 
ATOM     46  N   UNL     1       1.634 -10.943  14.312  1.00  0.00    -0.354 N 
ATOM     47  C   UNL     1       4.097 -14.191  12.879  1.00  0.00     0.074 A 
ATOM     48  C   UNL     1       5.216 -13.695  12.108  1.00  0.00     0.031 C 
ATOM     49  C   UNL     1       1.028  -8.810  14.598  1.00  0.00     0.029 A 
ATOM     50  C   UNL     1       0.640 -10.188  14.885  1.00  0.00     0.049 A 
ATOM     51  H   UNL     1       1.650 -11.927  14.346  1.00  0.00     0.167 HD
ATOM     52  C   UNL     1       3.869 -15.502  13.133  1.00  0.00     0.037 A 
ATOM     53  C   UNL     1      -0.460 -10.565  15.564  1.00  0.00     0.037 A 
ATOM     54  C   UNL     1       2.759 -15.994  13.905  1.00  0.00     0.049 A 
ATOM     55  C   UNL     1      -0.713 -12.031  15.794  1.00  0.00     0.074 A 
ATOM     56  C   UNL     1       2.450 -17.302  14.236  1.00  0.00     0.029 A 
ATOM     57  N   UNL     1       1.772 -15.197  14.465  1.00  0.00    -0.354 N 
ATOM     58  N   UNL     1       0.008 -13.065  15.432  1.00  0.00    -0.248 NA
ATOM     59  C   UNL     1      -1.930 -12.382  16.540  1.00  0.00     0.031 C 
ATOM     60  C   UNL     1       1.251 -17.301  14.955  1.00  0.00     0.029 A 
ATOM     61  C   UNL     1       0.846 -15.987  15.128  1.00  0.00     0.049 A 
ATOM     62  H   UNL     1       1.734 -14.215  14.402  1.00  0.00     0.167 HD
ATOM     63  C   UNL     1      -0.641 -14.181  15.947  1.00  0.00     0.074 A 
ATOM     64  C   UNL     1      -1.809 -13.697  16.652  1.00  0.00     0.031 C 
ATOM     65  C   UNL     1      -0.299 -15.489  15.848  1.00  0.00     0.037 A 
BRANCH  52  66
ATOM     66  C   UNL     1       4.846 -16.495  12.570  1.00  0.00     0.057 A 
ATOM     67  C   UNL     1       6.162 -16.586  13.045  1.00  0.00     0.134 A 
ATOM     68  C   UNL     1       4.462 -17.393  11.566  1.00  0.00     0.134 A 
ATOM     69  F   UNL     1       6.601 -15.748  13.997  1.00  0.00    -0.206 F 
ATOM     70  C   UNL     1       7.068 -17.511  12.521  1.00  0.00     0.040 A 
ATOM     71  C   UNL     1       5.348 -18.344  11.057  1.00  0.00     0.040 A 
ATOM     72  F   UNL     1       3.216 -17.369  11.070  1.00  0.00    -0.206 F 
ATOM     73  C   UNL     1       6.658 -18.399  11.530  1.00  0.00     0.006 A 
ENDBRANCH  52  66
BRANCH  53  74
ATOM     74  C   UNL     1      -1.401  -9.547  16.101  1.00  0.00     0.057 A 
ATOM     75  C   UNL     1      -1.559  -9.365  17.481  1.00  0.00     0.134 A 
ATOM     76  C   UNL     1      -2.192  -8.761  15.255  1.00  0.00     0.134 A 
ATOM     77  F   UNL     1      -0.843 -10.100  18.345  1.00  0.00    -0.206 F 
ATOM     78  C   UNL     1      -2.494  -8.467  17.999  1.00  0.00     0.040 A 
ATOM     79  C   UNL     1      -3.108  -7.836  15.759  1.00  0.00     0.040 A 
ATOM     80  F   UNL     1      -2.083  -8.877  13.923  1.00  0.00    -0.206 F 
ATOM     81  C   UNL     1      -3.270  -7.697  17.136  1.00  0.00     0.006 A 
ENDBRANCH  53  74
BRANCH  65  82
ATOM     82  C   UNL     1      -1.155 -16.484  16.579  1.00  0.00     0.057 A 
ATOM     83  C   UNL     1      -2.464 -16.785  16.181  1.00  0.00     0.134 A 
ATOM     84  C   UNL     1      -0.644 -17.174  17.688  1.00  0.00     0.134 A 
ATOM     85  F   UNL     1      -3.018 -16.154  15.135  1.00  0.00    -0.206 F 
ATOM     86  C   UNL     1      -3.244 -17.709  16.878  1.00  0.00     0.040 A 
ATOM     87  C   UNL     1      -1.403 -18.125  18.371  1.00  0.00     0.040 A 
ATOM     88  F   UNL     1       0.606 -16.945  18.117  1.00  0.00    -0.206 F 
ATOM     89  C   UNL     1      -2.711 -18.387  17.973  1.00  0.00     0.006 A 
ENDBRANCH  65  82
ENDBRANCH  39  40
ENDBRANCH  31  34
ENDBRANCH  29  30
ENDBRANCH  28  29
ENDBRANCH  27  28
ENDBRANCH   1  27
TORSDOF 16
