REMARK SMILES C#CCN(CC(=O)NCCCCCCNC(=O)c1ccc(-c2c3nc(c(-c4c(F)cccc4F)c4ccc([nH]4)c(-c4c(F)cccc4F)c4nc(c(-c5c(F)cccc5F)c5ccc2[nH]5)C=C4)C=C3)cc1)C(=O)N[C@@H](C)CCCC
REMARK SMILES IDX 9 1 8 2 6 3 7 4 5 6 4 7 3 8 2 9 1 10 72 11 73 12 74 13 75 15
REMARK SMILES IDX 76 16 77 17 78 18 79 19 80 20 10 21 11 22 12 23 13 24 14 25
REMARK SMILES IDX 15 26 16 27 17 29 18 30 19 31 71 32 20 33 70 34 21 35 22 36
REMARK SMILES IDX 23 37 64 38 24 39 69 40 63 41 65 42 25 43 68 44 62 45 61 46
REMARK SMILES IDX 26 48 52 49 35 50 51 51 36 52 39 53 50 54 66 55 37 56 38 57
REMARK SMILES IDX 49 59 67 60 40 61 27 62 28 63 33 64 29 65 30 66 32 67 34 68
REMARK SMILES IDX 31 69 53 70 54 71 59 72 55 73 56 74 58 75 60 76 57 77 41 78
REMARK SMILES IDX 42 79 47 80 43 81 44 82 46 83 48 84 45 85
REMARK H PARENT 8 5 74 14 15 28 65 47 39 58
REMARK Flexibility Score: inf
ROOT
ATOM      1  C   UNL     1      -5.262  -0.107  -0.468  1.00  0.00     0.116 C 
ENDROOT
BRANCH   1   2
ATOM      2  N   UNL     1      -5.618  -0.220   0.923  1.00  0.00    -0.355 N 
ATOM      3  C   UNL     1      -4.877   0.073   2.022  1.00  0.00     0.239 C 
ATOM      4  O   UNL     1      -5.486   0.198   3.090  1.00  0.00    -0.273 OA
ATOM      5  H   UNL     1      -6.526  -0.556   1.101  1.00  0.00     0.163 HD
BRANCH   3   6
ATOM      6  C   UNL     1      -3.378   0.406   1.924  1.00  0.00     0.222 C 
BRANCH   6   7
ATOM      7  N   UNL     1      -2.526  -0.533   1.187  1.00  0.00    -0.304 N 
BRANCH   7   8
ATOM      8  C   UNL     1      -1.915  -0.020  -0.035  1.00  0.00     0.211 C 
BRANCH   8   9
ATOM      9  C   UNL     1      -0.395  -0.020  -0.035  1.00  0.00    -0.085 C 
ATOM     10  C   UNL     1       0.909  -0.020  -0.035  1.00  0.00     0.006 C 
ENDBRANCH   8   9
ENDBRANCH   7   8
BRANCH   7  11
ATOM     11  C   UNL     1      -2.241  -1.833   1.492  1.00  0.00     0.318 C 
ATOM     12  O   UNL     1      -1.660  -2.570   0.686  1.00  0.00    -0.249 OA
ATOM     13  N   UNL     1      -2.551  -2.428   2.654  1.00  0.00    -0.336 N 
ATOM     14  H   UNL     1      -2.189  -3.343   2.688  1.00  0.00     0.165 HD
BRANCH  13  15
ATOM     15  C   UNL     1      -3.269  -2.106   3.878  1.00  0.00     0.080 C 
ATOM     16  C   UNL     1      -4.529  -2.974   3.946  1.00  0.00     0.031 C 
BRANCH  15  17
ATOM     17  C   UNL     1      -2.408  -2.327   5.133  1.00  0.00     0.024 C 
BRANCH  17  18
ATOM     18  C   UNL     1      -1.065  -1.586   5.190  1.00  0.00     0.002 C 
BRANCH  18  19
ATOM     19  C   UNL     1      -1.059  -0.088   4.885  1.00  0.00    -0.003 C 
ATOM     20  C   UNL     1      -2.090   0.732   5.646  1.00  0.00     0.004 C 
ENDBRANCH  18  19
ENDBRANCH  17  18
ENDBRANCH  15  17
ENDBRANCH  13  15
ENDBRANCH   7  11
ENDBRANCH   6   7
ENDBRANCH   3   6
ENDBRANCH   1   2
BRANCH   1  21
ATOM     21  C   UNL     1      -5.197  -1.464  -1.161  1.00  0.00     0.021 C 
BRANCH  21  22
ATOM     22  C   UNL     1      -6.547  -2.183  -1.259  1.00  0.00     0.002 C 
BRANCH  22  23
ATOM     23  C   UNL     1      -7.704  -1.337  -1.803  1.00  0.00     0.002 C 
BRANCH  23  24
ATOM     24  C   UNL     1      -7.419  -0.613  -3.120  1.00  0.00     0.021 C 
BRANCH  24  25
ATOM     25  C   UNL     1      -7.059  -1.534  -4.275  1.00  0.00     0.116 C 
BRANCH  25  26
ATOM     26  N   UNL     1      -8.185  -2.356  -4.682  1.00  0.00    -0.352 N 
ATOM     27  C   UNL     1      -8.754  -2.473  -5.928  1.00  0.00     0.251 C 
ATOM     28  H   UNL     1      -8.595  -2.901  -3.972  1.00  0.00     0.163 HD
ATOM     29  O   UNL     1      -9.821  -3.043  -6.081  1.00  0.00    -0.269 OA
BRANCH  27  30
ATOM     30  C   UNL     1      -8.055  -1.873  -7.085  1.00  0.00     0.039 A 
ATOM     31  C   UNL     1      -8.769  -1.056  -7.964  1.00  0.00     0.014 A 
ATOM     32  C   UNL     1      -6.689  -2.102  -7.276  1.00  0.00     0.014 A 
ATOM     33  C   UNL     1      -8.097  -0.417  -9.008  1.00  0.00     0.010 A 
ATOM     34  C   UNL     1      -6.010  -1.409  -8.271  1.00  0.00     0.010 A 
ATOM     35  C   UNL     1      -6.708  -0.564  -9.149  1.00  0.00    -0.014 A 
BRANCH  35  36
ATOM     36  C   UNL     1      -5.953   0.125 -10.224  1.00  0.00     0.031 A 
ATOM     37  C   UNL     1      -5.257  -0.692 -11.277  1.00  0.00     0.074 A 
ATOM     38  C   UNL     1      -5.821   1.465 -10.206  1.00  0.00     0.049 A 
ATOM     39  N   UNL     1      -4.415  -0.308 -12.201  1.00  0.00    -0.248 NA
ATOM     40  C   UNL     1      -5.524  -2.140 -11.268  1.00  0.00     0.031 C 
ATOM     41  C   UNL     1      -6.427   2.366  -9.223  1.00  0.00     0.029 A 
ATOM     42  N   UNL     1      -5.111   2.303 -11.029  1.00  0.00    -0.354 N 
ATOM     43  C   UNL     1      -4.042  -1.466 -12.872  1.00  0.00     0.074 A 
ATOM     44  C   UNL     1      -4.705  -2.571 -12.215  1.00  0.00     0.031 C 
ATOM     45  C   UNL     1      -6.066   3.629  -9.504  1.00  0.00     0.029 A 
ATOM     46  C   UNL     1      -5.169   3.624 -10.655  1.00  0.00     0.049 A 
ATOM     47  H   UNL     1      -4.607   1.987 -11.814  1.00  0.00     0.167 HD
ATOM     48  C   UNL     1      -3.238  -1.594 -13.954  1.00  0.00     0.037 A 
ATOM     49  C   UNL     1      -4.550   4.703 -11.170  1.00  0.00     0.037 A 
ATOM     50  C   UNL     1      -2.596  -0.491 -14.617  1.00  0.00     0.049 A 
ATOM     51  C   UNL     1      -3.637   4.530 -12.354  1.00  0.00     0.074 A 
ATOM     52  C   UNL     1      -1.778  -0.513 -15.732  1.00  0.00     0.029 A 
ATOM     53  N   UNL     1      -2.709   0.834 -14.226  1.00  0.00    -0.354 N 
ATOM     54  N   UNL     1      -3.318   3.434 -12.999  1.00  0.00    -0.248 NA
ATOM     55  C   UNL     1      -2.998   5.744 -12.884  1.00  0.00     0.031 C 
ATOM     56  C   UNL     1      -1.371   0.797 -15.999  1.00  0.00     0.029 A 
ATOM     57  C   UNL     1      -1.970   1.639 -15.076  1.00  0.00     0.049 A 
ATOM     58  H   UNL     1      -3.236   1.155 -13.459  1.00  0.00     0.167 HD
ATOM     59  C   UNL     1      -2.476   3.830 -14.030  1.00  0.00     0.074 A 
ATOM     60  C   UNL     1      -2.337   5.267 -13.929  1.00  0.00     0.031 C 
ATOM     61  C   UNL     1      -1.870   3.072 -14.976  1.00  0.00     0.037 A 
BRANCH  48  62
ATOM     62  C   UNL     1      -3.022  -2.977 -14.494  1.00  0.00     0.057 A 
ATOM     63  C   UNL     1      -4.042  -3.673 -15.156  1.00  0.00     0.134 A 
ATOM     64  C   UNL     1      -1.776  -3.605 -14.386  1.00  0.00     0.134 A 
ATOM     65  F   UNL     1      -5.264  -3.131 -15.281  1.00  0.00    -0.206 F 
ATOM     66  C   UNL     1      -3.838  -4.953 -15.671  1.00  0.00     0.040 A 
ATOM     67  C   UNL     1      -1.551  -4.875 -14.920  1.00  0.00     0.040 A 
ATOM     68  F   UNL     1      -0.754  -2.993 -13.769  1.00  0.00    -0.206 F 
ATOM     69  C   UNL     1      -2.586  -5.555 -15.560  1.00  0.00     0.006 A 
ENDBRANCH  48  62
BRANCH  49  70
ATOM     70  C   UNL     1      -4.766   6.048 -10.577  1.00  0.00     0.057 A 
ATOM     71  C   UNL     1      -5.458   7.043 -11.277  1.00  0.00     0.134 A 
ATOM     72  C   UNL     1      -4.258   6.382  -9.316  1.00  0.00     0.134 A 
ATOM     73  F   UNL     1      -5.952   6.789 -12.498  1.00  0.00    -0.206 F 
ATOM     74  C   UNL     1      -5.613   8.330 -10.758  1.00  0.00     0.040 A 
ATOM     75  C   UNL     1      -4.428   7.657  -8.774  1.00  0.00     0.040 A 
ATOM     76  F   UNL     1      -3.592   5.472  -8.590  1.00  0.00    -0.206 F 
ATOM     77  C   UNL     1      -5.098   8.639  -9.501  1.00  0.00     0.006 A 
ENDBRANCH  49  70
BRANCH  61  78
ATOM     78  C   UNL     1      -1.053   3.783 -16.013  1.00  0.00     0.057 A 
ATOM     79  C   UNL     1       0.207   4.319 -15.724  1.00  0.00     0.134 A 
ATOM     80  C   UNL     1      -1.512   3.874 -17.334  1.00  0.00     0.134 A 
ATOM     81  F   UNL     1       0.695   4.274 -14.476  1.00  0.00    -0.206 F 
ATOM     82  C   UNL     1       0.978   4.935 -16.711  1.00  0.00     0.040 A 
ATOM     83  C   UNL     1      -0.740   4.465 -18.334  1.00  0.00     0.040 A 
ATOM     84  F   UNL     1      -2.708   3.372 -17.677  1.00  0.00    -0.206 F 
ATOM     85  C   UNL     1       0.509   5.001 -18.022  1.00  0.00     0.006 A 
ENDBRANCH  61  78
ENDBRANCH  35  36
ENDBRANCH  27  30
ENDBRANCH  25  26
ENDBRANCH  24  25
ENDBRANCH  23  24
ENDBRANCH  22  23
ENDBRANCH  21  22
ENDBRANCH   1  21
TORSDOF 21
