REMARK SMILES O=C(CCC(=O)N1Cc2[nH]cnc2C[C@H]1C(=O)NCc1ccccc1)NCCCCCCNC(=O)c1ccc(-c2c3nc(c(-c4c(F)cccc4F)c4ccc([nH]4)c(-c4c(F)cccc4F)c4nc(c(-c5c(F)cccc5F)c5ccc2[nH]5)C=C4)C=C3)cc1
REMARK SMILES IDX 27 1 26 2 1 3 2 4 3 6 4 7 5 8 6 9 7 10 8 11 15 12 9 13 14 14
REMARK SMILES IDX 10 15 13 16 11 17 12 19 16 20 17 21 18 22 19 24 20 25 21 26
REMARK SMILES IDX 25 27 22 28 24 29 23 30 28 31 29 32 30 33 31 34 32 35 33 36
REMARK SMILES IDX 34 37 35 39 36 40 37 41 89 42 38 43 88 44 39 45 40 46 41 47
REMARK SMILES IDX 82 48 42 49 87 50 81 51 83 52 43 53 86 54 80 55 79 56 44 58
REMARK SMILES IDX 70 59 53 60 69 61 54 62 57 63 68 64 84 65 55 66 56 67 67 69
REMARK SMILES IDX 85 70 58 71 45 72 46 73 51 74 47 75 48 76 50 77 52 78 49 79
REMARK SMILES IDX 71 80 72 81 77 82 73 83 74 84 76 85 78 86 75 87 59 88 60 89
REMARK SMILES IDX 65 90 61 91 62 92 64 93 66 94 63 95
REMARK H PARENT 26 5 10 18 18 23 33 38 83 57 57 68
REMARK Flexibility Score: inf
ROOT
ATOM      1  C   UNL     1       1.299  -0.337   2.433  1.00  0.00     0.116 C 
ENDROOT
BRANCH   1   2
ATOM      2  N   UNL     1       2.191  -0.881   1.405  1.00  0.00    -0.356 N 
ATOM      3  O   UNL     1       0.887  -0.129  -0.332  1.00  0.00    -0.275 OA
ATOM      4  C   UNL     1       1.950  -0.606   0.058  1.00  0.00     0.220 C 
ATOM      5  H   UNL     1       2.959  -1.439   1.665  1.00  0.00     0.163 HD
BRANCH   4   6
ATOM      6  C   UNL     1       3.132  -0.816  -0.907  1.00  0.00     0.110 C 
BRANCH   6   7
ATOM      7  C   UNL     1       3.496   0.465  -1.707  1.00  0.00     0.110 C 
BRANCH   7   8
ATOM      8  C   UNL     1       4.859   1.135  -1.399  1.00  0.00     0.224 C 
ATOM      9  O   UNL     1       5.809   0.960  -2.166  1.00  0.00    -0.275 OA
BRANCH   8  10
ATOM     10  N   UNL     1       4.985   1.942  -0.271  1.00  0.00    -0.324 N 
ATOM     11  C   UNL     1       6.269   2.614   0.051  1.00  0.00     0.176 C 
ATOM     12  C   UNL     1       4.033   1.825   0.841  1.00  0.00     0.180 C 
ATOM     13  C   UNL     1       6.706   2.146   1.406  1.00  0.00     0.058 A 
ATOM     14  C   UNL     1       4.644   0.877   1.868  1.00  0.00     0.093 C 
ATOM     15  N   UNL     1       7.820   2.460   2.138  1.00  0.00    -0.347 N 
ATOM     16  C   UNL     1       5.965   1.360   2.253  1.00  0.00     0.066 A 
ATOM     17  C   UNL     1       7.671   1.873   3.374  1.00  0.00     0.197 A 
ATOM     18  H   UNL     1       8.583   3.004   1.837  1.00  0.00     0.167 HD
ATOM     19  N   UNL     1       6.552   1.189   3.464  1.00  0.00    -0.242 NA
BRANCH  12  20
ATOM     20  C   UNL     1       3.111   3.018   1.176  1.00  0.00     0.243 C 
ATOM     21  O   UNL     1       2.107   3.201   0.468  1.00  0.00    -0.273 OA
ATOM     22  N   UNL     1       3.264   3.943   2.137  1.00  0.00    -0.350 N 
ATOM     23  H   UNL     1       2.449   4.478   2.279  1.00  0.00     0.163 HD
BRANCH  22  24
ATOM     24  C   UNL     1       4.341   4.339   3.011  1.00  0.00     0.151 C 
BRANCH  24  25
ATOM     25  C   UNL     1       4.847   5.704   2.617  1.00  0.00    -0.029 A 
ATOM     26  C   UNL     1       6.142   5.870   2.113  1.00  0.00     0.005 A 
ATOM     27  C   UNL     1       4.017   6.832   2.719  1.00  0.00     0.005 A 
ATOM     28  C   UNL     1       6.590   7.122   1.693  1.00  0.00     0.000 A 
ATOM     29  C   UNL     1       4.467   8.086   2.304  1.00  0.00     0.000 A 
ATOM     30  C   UNL     1       5.752   8.229   1.785  1.00  0.00     0.000 A 
ENDBRANCH  24  25
ENDBRANCH  22  24
ENDBRANCH  12  20
ENDBRANCH   8  10
ENDBRANCH   7   8
ENDBRANCH   6   7
ENDBRANCH   4   6
ENDBRANCH   1   2
BRANCH   1  31
ATOM     31  C   UNL     1       1.559  -0.721   3.909  1.00  0.00     0.021 C 
BRANCH  31  32
ATOM     32  C   UNL     1       2.776  -0.170   4.696  1.00  0.00     0.002 C 
BRANCH  32  33
ATOM     33  C   UNL     1       3.034   1.353   4.674  1.00  0.00     0.002 C 
BRANCH  33  34
ATOM     34  C   UNL     1       2.560   2.232   5.827  1.00  0.00     0.021 C 
BRANCH  34  35
ATOM     35  C   UNL     1       3.343   2.107   7.131  1.00  0.00     0.116 C 
BRANCH  35  36
ATOM     36  N   UNL     1       4.766   2.462   7.062  1.00  0.00    -0.352 N 
ATOM     37  C   UNL     1       5.756   2.078   7.962  1.00  0.00     0.251 C 
ATOM     38  H   UNL     1       5.047   3.026   6.306  1.00  0.00     0.163 HD
ATOM     39  O   UNL     1       6.826   2.649   8.057  1.00  0.00    -0.269 OA
BRANCH  37  40
ATOM     40  C   UNL     1       5.441   0.905   8.796  1.00  0.00     0.039 A 
ATOM     41  C   UNL     1       5.174   1.042  10.160  1.00  0.00     0.014 A 
ATOM     42  C   UNL     1       5.092  -0.241   8.091  1.00  0.00     0.014 A 
ATOM     43  C   UNL     1       4.402   0.065  10.791  1.00  0.00     0.010 A 
ATOM     44  C   UNL     1       4.219  -1.123   8.689  1.00  0.00     0.010 A 
ATOM     45  C   UNL     1       3.860  -0.990  10.038  1.00  0.00    -0.014 A 
BRANCH  45  46
ATOM     46  C   UNL     1       2.799  -1.845  10.599  1.00  0.00     0.031 A 
ATOM     47  C   UNL     1       1.684  -1.183  11.360  1.00  0.00     0.074 A 
ATOM     48  C   UNL     1       2.631  -3.142  10.258  1.00  0.00     0.049 A 
ATOM     49  N   UNL     1       1.310  -1.414  12.579  1.00  0.00    -0.248 NA
ATOM     50  C   UNL     1       0.893  -0.136  10.695  1.00  0.00     0.031 C 
ATOM     51  C   UNL     1       3.409  -3.953   9.314  1.00  0.00     0.029 A 
ATOM     52  N   UNL     1       1.615  -3.983  10.606  1.00  0.00    -0.354 N 
ATOM     53  C   UNL     1       0.152  -0.664  12.800  1.00  0.00     0.074 A 
ATOM     54  C   UNL     1      -0.002   0.175  11.638  1.00  0.00     0.031 C 
ATOM     55  C   UNL     1       2.703  -5.050   8.972  1.00  0.00     0.029 A 
ATOM     56  C   UNL     1       1.532  -5.122   9.823  1.00  0.00     0.049 A 
ATOM     57  H   UNL     1       0.995  -3.796  11.348  1.00  0.00     0.167 HD
ATOM     58  C   UNL     1      -0.682  -0.907  13.854  1.00  0.00     0.037 A 
ATOM     59  C   UNL     1       0.585  -6.084   9.862  1.00  0.00     0.037 A 
ATOM     60  C   UNL     1      -0.055  -1.737  14.848  1.00  0.00     0.049 A 
ATOM     61  C   UNL     1      -0.046  -6.031  11.199  1.00  0.00     0.074 A 
ATOM     62  C   UNL     1       1.083  -1.643  15.627  1.00  0.00     0.029 A 
ATOM     63  N   UNL     1      -0.447  -3.049  14.943  1.00  0.00    -0.354 N 
ATOM     64  N   UNL     1       0.568  -6.353  12.304  1.00  0.00    -0.248 NA
ATOM     65  C   UNL     1      -1.247  -5.228  11.365  1.00  0.00     0.031 C 
ATOM     66  C   UNL     1       1.593  -2.975  15.687  1.00  0.00     0.029 A 
ATOM     67  C   UNL     1       0.705  -3.790  14.983  1.00  0.00     0.049 A 
ATOM     68  H   UNL     1      -1.370  -3.390  14.976  1.00  0.00     0.167 HD
ATOM     69  C   UNL     1       0.099  -5.447  13.243  1.00  0.00     0.074 A 
ATOM     70  C   UNL     1      -1.100  -4.869  12.642  1.00  0.00     0.031 C 
ATOM     71  C   UNL     1       0.877  -5.046  14.292  1.00  0.00     0.037 A 
BRANCH  58  72
ATOM     72  C   UNL     1      -2.173  -0.654  13.882  1.00  0.00     0.057 A 
ATOM     73  C   UNL     1      -2.878  -0.767  15.099  1.00  0.00     0.134 A 
ATOM     74  C   UNL     1      -2.980  -0.602  12.731  1.00  0.00     0.134 A 
ATOM     75  F   UNL     1      -2.227  -0.839  16.270  1.00  0.00    -0.206 F 
ATOM     76  C   UNL     1      -4.273  -0.894  15.157  1.00  0.00     0.040 A 
ATOM     77  C   UNL     1      -4.377  -0.678  12.781  1.00  0.00     0.040 A 
ATOM     78  F   UNL     1      -2.457  -0.575  11.499  1.00  0.00    -0.206 F 
ATOM     79  C   UNL     1      -5.027  -0.858  13.992  1.00  0.00     0.006 A 
ENDBRANCH  58  72
BRANCH  59  80
ATOM     80  C   UNL     1       0.112  -6.944   8.761  1.00  0.00     0.057 A 
ATOM     81  C   UNL     1      -0.551  -8.151   9.006  1.00  0.00     0.134 A 
ATOM     82  C   UNL     1       0.098  -6.485   7.431  1.00  0.00     0.134 A 
ATOM     83  F   UNL     1      -0.625  -8.648  10.249  1.00  0.00    -0.206 F 
ATOM     84  C   UNL     1      -1.204  -8.857   7.988  1.00  0.00     0.040 A 
ATOM     85  C   UNL     1      -0.542  -7.183   6.404  1.00  0.00     0.040 A 
ATOM     86  F   UNL     1       0.638  -5.301   7.101  1.00  0.00    -0.206 F 
ATOM     87  C   UNL     1      -1.208  -8.370   6.684  1.00  0.00     0.006 A 
ENDBRANCH  59  80
BRANCH  71  88
ATOM     88  C   UNL     1       2.154  -5.794  14.560  1.00  0.00     0.057 A 
ATOM     89  C   UNL     1       3.228  -5.854  13.659  1.00  0.00     0.134 A 
ATOM     90  C   UNL     1       2.371  -6.334  15.832  1.00  0.00     0.134 A 
ATOM     91  F   UNL     1       3.161  -5.270  12.459  1.00  0.00    -0.206 F 
ATOM     92  C   UNL     1       4.440  -6.467  13.989  1.00  0.00     0.040 A 
ATOM     93  C   UNL     1       3.590  -6.920  16.187  1.00  0.00     0.040 A 
ATOM     94  F   UNL     1       1.416  -6.257  16.772  1.00  0.00    -0.206 F 
ATOM     95  C   UNL     1       4.626  -6.999  15.260  1.00  0.00     0.006 A 
ENDBRANCH  71  88
ENDBRANCH  45  46
ENDBRANCH  37  40
ENDBRANCH  35  36
ENDBRANCH  34  35
ENDBRANCH  33  34
ENDBRANCH  32  33
ENDBRANCH  31  32
ENDBRANCH   1  31
TORSDOF 19
