REMARK SMILES C[C@@H](Cc1cnn(-c2ccccc2)n1)C(=O)NCCCCCCNC(=O)c1ccc(-c2c3nc(c(-c4c(F)cccc4F)c4ccc([nH]4)c(-c4c(F)cccc4F)c4nc(c(-c5c(F)cccc5F)c5ccc2[nH]5)C=C4)C=C3)cc1
REMARK SMILES IDX 20 1 19 2 18 3 17 4 15 5 16 6 2 8 1 9 3 10 4 11 5 12 14 13
REMARK SMILES IDX 6 14 7 15 8 16 9 17 13 18 10 19 12 20 11 21 21 22 22 23
REMARK SMILES IDX 23 24 24 25 25 26 26 28 27 29 28 30 80 31 29 32 79 33 30 34
REMARK SMILES IDX 31 35 32 36 73 37 33 38 78 39 72 40 74 41 34 42 77 43 71 44
REMARK SMILES IDX 70 45 35 47 61 48 44 49 60 50 45 51 48 52 59 53 75 54 46 55
REMARK SMILES IDX 47 56 58 58 76 59 49 60 36 61 37 62 42 63 38 64 39 65 41 66
REMARK SMILES IDX 43 67 40 68 62 69 63 70 68 71 64 72 65 73 67 74 69 75 66 76
REMARK SMILES IDX 50 77 51 78 56 79 52 80 53 81 55 82 57 83 54 84
REMARK H PARENT 17 7 24 27 74 46 48 57
REMARK Flexibility Score: inf
ROOT
ATOM      1  C   UNL     1      -3.874  -2.336  -0.522  1.00  0.00     0.002 C 
ENDROOT
BRANCH   1   2
ATOM      2  C   UNL     1      -3.179  -1.136   0.178  1.00  0.00     0.021 C 
BRANCH   2   3
ATOM      3  C   UNL     1      -1.808  -0.834  -0.365  1.00  0.00     0.116 C 
BRANCH   3   4
ATOM      4  N   UNL     1      -1.747   0.315  -1.209  1.00  0.00    -0.356 N 
ATOM      5  C   UNL     1      -0.625   0.784  -1.811  1.00  0.00     0.223 C 
ATOM      6  O   UNL     1      -0.758   1.697  -2.630  1.00  0.00    -0.275 OA
ATOM      7  H   UNL     1      -2.585   0.807  -1.367  1.00  0.00     0.163 HD
BRANCH   5   8
ATOM      8  C   UNL     1       0.766   0.214  -1.487  1.00  0.00     0.081 C 
ATOM      9  C   UNL     1       1.269   0.530  -0.084  1.00  0.00     0.018 C 
BRANCH   8  10
ATOM     10  C   UNL     1       1.059  -1.196  -2.025  1.00  0.00     0.073 C 
BRANCH  10  11
ATOM     11  C   UNL     1       0.937  -2.468  -1.204  1.00  0.00     0.084 A 
ATOM     12  C   UNL     1       1.342  -3.743  -1.654  1.00  0.00     0.161 A 
ATOM     13  N   UNL     1       0.388  -2.615   0.022  1.00  0.00    -0.153 NA
ATOM     14  N   UNL     1       1.132  -4.662  -0.709  1.00  0.00    -0.157 NA
ATOM     15  N   UNL     1       0.374  -3.975   0.199  1.00  0.00    -0.151 N 
BRANCH  15  16
ATOM     16  C   UNL     1      -0.706  -4.689   0.881  1.00  0.00     0.086 A 
ATOM     17  C   UNL     1      -0.773  -6.422   0.488  1.00  0.00     0.030 A 
ATOM     18  C   UNL     1      -2.240  -3.808   1.196  1.00  0.00     0.030 A 
ATOM     19  C   UNL     1      -2.320  -7.279   0.277  1.00  0.00     0.002 A 
ATOM     20  C   UNL     1      -3.865  -4.647   0.935  1.00  0.00     0.002 A 
ATOM     21  C   UNL     1      -3.881  -6.419   0.476  1.00  0.00     0.000 A 
ENDBRANCH  15  16
ENDBRANCH  10  11
ENDBRANCH   8  10
ENDBRANCH   5   8
ENDBRANCH   3   4
ENDBRANCH   2   3
ENDBRANCH   1   2
BRANCH   1  22
ATOM     22  C   UNL     1      -3.142  -3.674  -1.111  1.00  0.00     0.002 C 
BRANCH  22  23
ATOM     23  C   UNL     1      -2.404  -5.178  -0.321  1.00  0.00     0.021 C 
BRANCH  23  24
ATOM     24  C   UNL     1      -2.398  -5.783   1.802  1.00  0.00     0.116 C 
BRANCH  24  25
ATOM     25  N   UNL     1      -3.795  -5.838   2.759  1.00  0.00    -0.352 N 
ATOM     26  C   UNL     1      -4.392  -6.782   3.536  1.00  0.00     0.251 C 
ATOM     27  H   UNL     1      -4.291  -4.987   2.750  1.00  0.00     0.163 HD
ATOM     28  O   UNL     1      -5.394  -7.413   3.248  1.00  0.00    -0.269 OA
BRANCH  26  29
ATOM     29  C   UNL     1      -3.888  -6.700   4.898  1.00  0.00     0.039 A 
ATOM     30  C   UNL     1      -3.729  -7.834   5.690  1.00  0.00     0.014 A 
ATOM     31  C   UNL     1      -3.255  -5.498   5.177  1.00  0.00     0.014 A 
ATOM     32  C   UNL     1      -2.893  -7.702   6.782  1.00  0.00     0.010 A 
ATOM     33  C   UNL     1      -2.087  -5.686   5.781  1.00  0.00     0.010 A 
ATOM     34  C   UNL     1      -2.104  -6.552   6.833  1.00  0.00    -0.014 A 
BRANCH  34  35
ATOM     35  C   UNL     1      -1.037  -6.274   7.747  1.00  0.00     0.031 A 
ATOM     36  C   UNL     1      -0.008  -7.314   7.622  1.00  0.00     0.074 A 
ATOM     37  C   UNL     1      -0.957  -5.069   8.360  1.00  0.00     0.049 A 
ATOM     38  N   UNL     1      -0.011  -8.425   8.278  1.00  0.00    -0.248 NA
ATOM     39  C   UNL     1       0.856  -7.349   6.423  1.00  0.00     0.031 C 
ATOM     40  C   UNL     1      -1.820  -3.881   8.225  1.00  0.00     0.029 A 
ATOM     41  N   UNL     1      -0.020  -4.643   9.245  1.00  0.00    -0.354 N 
ATOM     42  C   UNL     1       1.126  -9.077   7.845  1.00  0.00     0.074 A 
ATOM     43  C   UNL     1       1.366  -8.582   6.520  1.00  0.00     0.031 C 
ATOM     44  C   UNL     1      -1.243  -2.815   8.831  1.00  0.00     0.029 A 
ATOM     45  C   UNL     1      -0.067  -3.274   9.540  1.00  0.00     0.049 A 
ATOM     46  H   UNL     1       0.642  -5.249   9.648  1.00  0.00     0.167 HD
ATOM     47  C   UNL     1       1.986  -9.558   8.784  1.00  0.00     0.037 A 
ATOM     48  C   UNL     1       0.829  -2.624  10.330  1.00  0.00     0.037 A 
ATOM     49  C   UNL     1       1.333  -9.568  10.085  1.00  0.00     0.049 A 
ATOM     50  C   UNL     1       1.486  -3.674  11.163  1.00  0.00     0.074 A 
ATOM     51  C   UNL     1       0.168 -10.121  10.585  1.00  0.00     0.029 A 
ATOM     52  N   UNL     1       1.652  -8.529  10.930  1.00  0.00    -0.354 N 
ATOM     53  N   UNL     1       0.844  -4.374  12.061  1.00  0.00    -0.248 NA
ATOM     54  C   UNL     1       2.665  -4.314  10.597  1.00  0.00     0.031 C 
ATOM     55  C   UNL     1      -0.385  -9.124  11.446  1.00  0.00     0.029 A 
ATOM     56  C   UNL     1       0.518  -8.065  11.544  1.00  0.00     0.049 A 
ATOM     57  H   UNL     1       2.559  -8.173  11.072  1.00  0.00     0.167 HD
ATOM     58  C   UNL     1       1.244  -5.687  11.837  1.00  0.00     0.074 A 
ATOM     59  C   UNL     1       2.411  -5.577  10.956  1.00  0.00     0.031 C 
ATOM     60  C   UNL     1       0.395  -6.729  12.095  1.00  0.00     0.037 A 
BRANCH  47  61
ATOM     61  C   UNL     1       3.493  -9.514   8.658  1.00  0.00     0.057 A 
ATOM     62  C   UNL     1       4.248 -10.107   9.684  1.00  0.00     0.134 A 
ATOM     63  C   UNL     1       4.231  -8.697   7.774  1.00  0.00     0.134 A 
ATOM     64  F   UNL     1       3.666 -10.911  10.587  1.00  0.00    -0.206 F 
ATOM     65  C   UNL     1       5.604  -9.826   9.878  1.00  0.00     0.040 A 
ATOM     66  C   UNL     1       5.595  -8.445   7.934  1.00  0.00     0.040 A 
ATOM     67  F   UNL     1       3.683  -8.021   6.761  1.00  0.00    -0.206 F 
ATOM     68  C   UNL     1       6.279  -8.981   9.008  1.00  0.00     0.006 A 
ENDBRANCH  47  61
BRANCH  48  69
ATOM     69  C   UNL     1       1.413  -1.268  10.176  1.00  0.00     0.057 A 
ATOM     70  C   UNL     1       2.206  -0.705  11.191  1.00  0.00     0.134 A 
ATOM     71  C   UNL     1       1.476  -0.631   8.926  1.00  0.00     0.134 A 
ATOM     72  F   UNL     1       2.245  -1.261  12.411  1.00  0.00    -0.206 F 
ATOM     73  C   UNL     1       3.044   0.397  10.964  1.00  0.00     0.040 A 
ATOM     74  C   UNL     1       2.308   0.471   8.687  1.00  0.00     0.040 A 
ATOM     75  F   UNL     1       0.806  -1.113   7.870  1.00  0.00    -0.206 F 
ATOM     76  C   UNL     1       3.110   0.978   9.703  1.00  0.00     0.006 A 
ENDBRANCH  48  69
BRANCH  60  77
ATOM     77  C   UNL     1      -0.860  -6.436  12.883  1.00  0.00     0.057 A 
ATOM     78  C   UNL     1      -1.928  -5.635  12.444  1.00  0.00     0.134 A 
ATOM     79  C   UNL     1      -1.049  -7.119  14.088  1.00  0.00     0.134 A 
ATOM     80  F   UNL     1      -1.887  -5.009  11.262  1.00  0.00    -0.206 F 
ATOM     81  C   UNL     1      -3.107  -5.493  13.188  1.00  0.00     0.040 A 
ATOM     82  C   UNL     1      -2.230  -7.011  14.826  1.00  0.00     0.040 A 
ATOM     83  F   UNL     1      -0.098  -7.946  14.547  1.00  0.00    -0.206 F 
ATOM     84  C   UNL     1      -3.261  -6.188  14.383  1.00  0.00     0.006 A 
ENDBRANCH  60  77
ENDBRANCH  34  35
ENDBRANCH  26  29
ENDBRANCH  24  25
ENDBRANCH  23  24
ENDBRANCH  22  23
ENDBRANCH   1  22
TORSDOF 16
