REMARK SMILES O=C(CNC(=O)c1cccs1)N[C@@H]1C=C[C@H](C(=O)NCCCCCCNC(=O)c2ccc(-c3c4nc(c(-c5c(F)cccc5F)c5ccc([nH]5)c(-c5c(F)cccc5F)c5nc(c(-c6c(F)cccc6F)c6ccc3[nH]6)C=C5)C=C4)cc2)C1
REMARK SMILES IDX 21 1 20 2 19 3 17 4 18 5 16 7 13 8 14 9 83 10 15 11 12 12
REMARK SMILES IDX 1 13 2 14 3 16 4 17 5 18 6 20 7 21 8 22 11 23 9 24 10 25
REMARK SMILES IDX 22 26 23 27 24 28 25 29 26 30 27 31 28 33 29 34 30 35 82 36
REMARK SMILES IDX 31 37 81 38 32 39 33 40 34 41 75 42 35 43 80 44 74 45 76 46
REMARK SMILES IDX 36 47 79 48 73 49 72 50 37 52 63 53 46 54 62 55 47 56 50 57
REMARK SMILES IDX 61 58 77 59 48 60 49 61 60 63 78 64 51 65 38 66 39 67 44 68
REMARK SMILES IDX 40 69 41 70 43 71 45 72 42 73 64 74 65 75 70 76 66 77 67 78
REMARK SMILES IDX 69 79 71 80 68 81 52 82 53 83 58 84 54 85 55 86 57 87 59 88
REMARK SMILES IDX 56 89
REMARK H PARENT 19 6 12 15 4 19 26 32 76 51 50 62
REMARK Flexibility Score: inf
ROOT
ATOM      1  C   UNL     1      -3.156  -1.482  -1.808  1.00  0.00     0.021 C 
ENDROOT
BRANCH   1   2
ATOM      2  C   UNL     1      -2.426  -2.707  -1.258  1.00  0.00     0.116 C 
BRANCH   2   3
ATOM      3  N   UNL     1      -1.713  -3.415  -2.305  1.00  0.00    -0.356 N 
ATOM      4  C   UNL     1      -0.383  -3.706  -2.408  1.00  0.00     0.227 C 
ATOM      5  O   UNL     1       0.012  -4.265  -3.431  1.00  0.00    -0.274 OA
ATOM      6  H   UNL     1      -2.271  -3.734  -3.051  1.00  0.00     0.163 HD
BRANCH   4   7
ATOM      7  C   UNL     1       0.544  -3.312  -1.259  1.00  0.00     0.103 C 
ATOM      8  C   UNL     1       2.481  -1.826  -1.623  1.00  0.00     0.106 C 
ATOM      9  C   UNL     1       2.886  -3.252  -1.480  1.00  0.00    -0.006 C 
ATOM     10  C   UNL     1       0.967  -1.838  -1.360  1.00  0.00     0.047 C 
ATOM     11  C   UNL     1       1.840  -4.061  -1.289  1.00  0.00    -0.016 C 
BRANCH   8  12
ATOM     12  N   UNL     1       2.822  -1.411  -2.963  1.00  0.00    -0.348 N 
ATOM     13  O   UNL     1       4.513  -0.011  -2.302  1.00  0.00    -0.273 OA
ATOM     14  C   UNL     1       3.876  -0.556  -3.201  1.00  0.00     0.239 C 
ATOM     15  H   UNL     1       2.291  -1.745  -3.721  1.00  0.00     0.164 HD
BRANCH  14  16
ATOM     16  C   UNL     1       4.080  -0.156  -4.662  1.00  0.00     0.216 C 
BRANCH  16  17
ATOM     17  N   UNL     1       3.804  -1.225  -5.612  1.00  0.00    -0.342 N 
ATOM     18  C   UNL     1       2.860  -1.300  -6.604  1.00  0.00     0.261 C 
ATOM     19  H   UNL     1       4.385  -2.015  -5.528  1.00  0.00     0.164 HD
ATOM     20  O   UNL     1       2.787  -2.359  -7.231  1.00  0.00    -0.268 OA
BRANCH  18  21
ATOM     21  C   UNL     1       1.999  -0.163  -6.848  1.00  0.00     0.092 A 
ATOM     22  C   UNL     1       2.323   1.158  -7.097  1.00  0.00     0.025 A 
ATOM     23  S   UNL     1       0.305  -0.410  -6.887  1.00  0.00    -0.139 S 
ATOM     24  C   UNL     1       1.168   1.979  -7.249  1.00  0.00     0.012 A 
ATOM     25  C   UNL     1       0.003   1.251  -7.155  1.00  0.00     0.065 A 
ENDBRANCH  18  21
ENDBRANCH  16  17
ENDBRANCH  14  16
ENDBRANCH   8  12
ENDBRANCH   4   7
ENDBRANCH   2   3
ENDBRANCH   1   2
BRANCH   1  26
ATOM     26  C   UNL     1      -4.241  -1.791  -2.847  1.00  0.00     0.002 C 
BRANCH  26  27
ATOM     27  C   UNL     1      -5.348  -2.742  -2.381  1.00  0.00     0.002 C 
BRANCH  27  28
ATOM     28  C   UNL     1      -6.099  -2.305  -1.121  1.00  0.00     0.021 C 
BRANCH  28  29
ATOM     29  C   UNL     1      -6.764  -0.935  -1.208  1.00  0.00     0.116 C 
BRANCH  29  30
ATOM     30  N   UNL     1      -7.804  -0.881  -2.222  1.00  0.00    -0.352 N 
ATOM     31  C   UNL     1      -9.098  -0.431  -2.122  1.00  0.00     0.251 C 
ATOM     32  H   UNL     1      -7.543  -1.215  -3.111  1.00  0.00     0.163 HD
ATOM     33  O   UNL     1      -9.886  -0.606  -3.047  1.00  0.00    -0.269 OA
BRANCH  31  34
ATOM     34  C   UNL     1      -9.555   0.242  -0.886  1.00  0.00     0.039 A 
ATOM     35  C   UNL     1     -10.791  -0.117  -0.341  1.00  0.00     0.014 A 
ATOM     36  C   UNL     1      -8.777   1.225  -0.270  1.00  0.00     0.014 A 
ATOM     37  C   UNL     1     -11.216   0.463   0.856  1.00  0.00     0.010 A 
ATOM     38  C   UNL     1      -9.168   1.751   0.959  1.00  0.00     0.010 A 
ATOM     39  C   UNL     1     -10.392   1.376   1.534  1.00  0.00    -0.014 A 
BRANCH  39  40
ATOM     40  C   UNL     1     -10.791   1.946   2.847  1.00  0.00     0.031 A 
ATOM     41  C   UNL     1     -11.041   3.421   2.988  1.00  0.00     0.074 A 
ATOM     42  C   UNL     1     -10.867   1.144   3.926  1.00  0.00     0.049 A 
ATOM     43  N   UNL     1     -11.329   4.113   4.062  1.00  0.00    -0.248 NA
ATOM     44  C   UNL     1     -10.927   4.231   1.765  1.00  0.00     0.031 C 
ATOM     45  C   UNL     1     -10.608  -0.297   3.931  1.00  0.00     0.029 A 
ATOM     46  N   UNL     1     -11.174   1.429   5.233  1.00  0.00    -0.354 N 
ATOM     47  C   UNL     1     -11.419   5.435   3.647  1.00  0.00     0.074 A 
ATOM     48  C   UNL     1     -11.101   5.457   2.236  1.00  0.00     0.031 C 
ATOM     49  C   UNL     1     -10.793  -0.773   5.173  1.00  0.00     0.029 A 
ATOM     50  C   UNL     1     -11.143   0.332   6.059  1.00  0.00     0.049 A 
ATOM     51  H   UNL     1     -11.397   2.335   5.548  1.00  0.00     0.167 HD
ATOM     52  C   UNL     1     -11.760   6.529   4.370  1.00  0.00     0.037 A 
ATOM     53  C   UNL     1     -11.365   0.230   7.383  1.00  0.00     0.037 A 
ATOM     54  C   UNL     1     -12.095   6.504   5.770  1.00  0.00     0.049 A 
ATOM     55  C   UNL     1     -11.722   1.462   8.168  1.00  0.00     0.074 A 
ATOM     56  C   UNL     1     -12.504   7.550   6.578  1.00  0.00     0.029 A 
ATOM     57  N   UNL     1     -12.058   5.371   6.570  1.00  0.00    -0.354 N 
ATOM     58  N   UNL     1     -11.864   2.696   7.750  1.00  0.00    -0.248 NA
ATOM     59  C   UNL     1     -11.952   1.285   9.608  1.00  0.00     0.031 C 
ATOM     60  C   UNL     1     -12.672   7.059   7.878  1.00  0.00     0.029 A 
ATOM     61  C   UNL     1     -12.415   5.698   7.868  1.00  0.00     0.049 A 
ATOM     62  H   UNL     1     -11.814   4.469   6.261  1.00  0.00     0.167 HD
ATOM     63  C   UNL     1     -12.230   3.436   8.867  1.00  0.00     0.074 A 
ATOM     64  C   UNL     1     -12.299   2.510   9.978  1.00  0.00     0.031 C 
ATOM     65  C   UNL     1     -12.487   4.764   8.963  1.00  0.00     0.037 A 
BRANCH  52  66
ATOM     66  C   UNL     1     -11.787   7.848   3.653  1.00  0.00     0.057 A 
ATOM     67  C   UNL     1     -12.765   8.148   2.695  1.00  0.00     0.134 A 
ATOM     68  C   UNL     1     -10.841   8.841   3.940  1.00  0.00     0.134 A 
ATOM     69  F   UNL     1     -13.694   7.237   2.364  1.00  0.00    -0.206 F 
ATOM     70  C   UNL     1     -12.783   9.373   2.026  1.00  0.00     0.040 A 
ATOM     71  C   UNL     1     -10.866  10.081   3.299  1.00  0.00     0.040 A 
ATOM     72  F   UNL     1      -9.881   8.624   4.852  1.00  0.00    -0.206 F 
ATOM     73  C   UNL     1     -11.834  10.347   2.333  1.00  0.00     0.006 A 
ENDBRANCH  52  66
BRANCH  53  74
ATOM     74  C   UNL     1     -11.283  -1.094   8.051  1.00  0.00     0.057 A 
ATOM     75  C   UNL     1     -12.434  -1.728   8.534  1.00  0.00     0.134 A 
ATOM     76  C   UNL     1     -10.060  -1.750   8.232  1.00  0.00     0.134 A 
ATOM     77  F   UNL     1     -13.632  -1.139   8.407  1.00  0.00    -0.206 F 
ATOM     78  C   UNL     1     -12.370  -2.958   9.190  1.00  0.00     0.040 A 
ATOM     79  C   UNL     1      -9.985  -2.993   8.864  1.00  0.00     0.040 A 
ATOM     80  F   UNL     1      -8.922  -1.199   7.785  1.00  0.00    -0.206 F 
ATOM     81  C   UNL     1     -11.142  -3.596   9.352  1.00  0.00     0.006 A 
ENDBRANCH  53  74
BRANCH  65  82
ATOM     82  C   UNL     1     -12.903   5.287  10.306  1.00  0.00     0.057 A 
ATOM     83  C   UNL     1     -11.996   5.409  11.367  1.00  0.00     0.134 A 
ATOM     84  C   UNL     1     -14.221   5.705  10.530  1.00  0.00     0.134 A 
ATOM     85  F   UNL     1     -10.723   5.013  11.222  1.00  0.00    -0.206 F 
ATOM     86  C   UNL     1     -12.391   5.909  12.609  1.00  0.00     0.040 A 
ATOM     87  C   UNL     1     -14.621   6.231  11.759  1.00  0.00     0.040 A 
ATOM     88  F   UNL     1     -15.137   5.622   9.554  1.00  0.00    -0.206 F 
ATOM     89  C   UNL     1     -13.706   6.328  12.805  1.00  0.00     0.006 A 
ENDBRANCH  65  82
ENDBRANCH  39  40
ENDBRANCH  31  34
ENDBRANCH  29  30
ENDBRANCH  28  29
ENDBRANCH  27  28
ENDBRANCH  26  27
ENDBRANCH   1  26
TORSDOF 17
