REMARK SMILES C[C@](C(=O)NCCCCCCNC(=O)c1ccc(-c2c3nc(c(-c4c(F)cccc4F)c4ccc([nH]4)c(-c4c(F)cccc4F)c4nc(c(-c5c(F)cccc5F)c5ccc2[nH]5)C=C4)C=C3)cc1)(c1cc(F)cc(F)c1)[NH+]1CCCC1
REMARK SMILES IDX 9 1 8 2 7 3 6 4 5 5 3 6 4 7 2 9 1 10 69 11 70 12 76 13 71 14
REMARK SMILES IDX 74 15 72 16 73 17 75 18 77 19 78 20 81 21 79 23 80 24 10 25
REMARK SMILES IDX 11 26 12 27 13 28 14 30 15 31 16 32 68 33 17 34 67 35 18 36
REMARK SMILES IDX 19 37 20 38 61 39 21 40 66 41 60 42 62 43 22 44 65 45 59 46
REMARK SMILES IDX 58 47 23 49 49 50 32 51 48 52 33 53 36 54 47 55 63 56 34 57
REMARK SMILES IDX 35 58 46 60 64 61 37 62 24 63 25 64 30 65 26 66 27 67 29 68
REMARK SMILES IDX 31 69 28 70 50 71 51 72 56 73 52 74 53 75 55 76 57 77 54 78
REMARK SMILES IDX 38 79 39 80 44 81 40 82 41 83 43 84 45 85 42 86
REMARK H PARENT 5 8 77 22 12 29 62 48 36 59
REMARK Flexibility Score: inf
ROOT
ATOM      1  C   UNL     1       1.915  -3.848  -3.069  1.00  0.00     0.002 C 
ENDROOT
BRANCH   1   2
ATOM      2  C   UNL     1       2.558  -2.457  -3.030  1.00  0.00     0.002 C 
BRANCH   2   3
ATOM      3  C   UNL     1       1.585  -1.283  -3.199  1.00  0.00     0.021 C 
BRANCH   3   4
ATOM      4  C   UNL     1       0.506  -1.214  -2.119  1.00  0.00     0.116 C 
BRANCH   4   5
ATOM      5  N   UNL     1       1.073  -0.827  -0.845  1.00  0.00    -0.350 N 
ATOM      6  C   UNL     1       1.048   0.343  -0.140  1.00  0.00     0.286 C 
ATOM      7  O   UNL     1       1.602   0.271   0.967  1.00  0.00    -0.267 OA
ATOM      8  H   UNL     1       1.575  -1.548  -0.399  1.00  0.00     0.163 HD
BRANCH   6   9
ATOM      9  C   UNL     1       0.313   1.671  -0.657  1.00  0.00     0.200 C 
ATOM     10  C   UNL     1       0.792   1.979  -2.098  1.00  0.00     0.096 C 
BRANCH   9  11
ATOM     11  C   UNL     1      -1.232   1.526  -0.648  1.00  0.00     0.028 A 
ATOM     12  C   UNL     1      -2.049   2.585  -1.090  1.00  0.00     0.050 A 
ATOM     13  C   UNL     1      -1.886   0.383  -0.146  1.00  0.00     0.050 A 
ATOM     14  C   UNL     1      -3.440   2.498  -1.019  1.00  0.00     0.126 A 
ATOM     15  C   UNL     1      -3.279   0.307  -0.112  1.00  0.00     0.126 A 
ATOM     16  F   UNL     1      -4.182   3.542  -1.411  1.00  0.00    -0.207 F 
ATOM     17  C   UNL     1      -4.067   1.361  -0.538  1.00  0.00     0.078 A 
ATOM     18  F   UNL     1      -3.862  -0.807   0.352  1.00  0.00    -0.207 F 
ENDBRANCH   9  11
BRANCH   9  19
ATOM     19  N   UNL     1       0.758   2.748   0.263  1.00  0.00    -0.319 N 
ATOM     20  C   UNL     1       0.169   2.871   1.587  1.00  0.00     0.263 C 
ATOM     21  C   UNL     1       1.258   4.044  -0.132  1.00  0.00     0.263 C 
ATOM     22  H   UNL     1       1.586   2.154   0.223  1.00  0.00     0.349 HD
ATOM     23  C   UNL     1      -0.449   4.264   1.577  1.00  0.00     0.067 C 
ATOM     24  C   UNL     1       0.271   5.029   0.471  1.00  0.00     0.067 C 
ENDBRANCH   9  19
ENDBRANCH   6   9
ENDBRANCH   4   5
ENDBRANCH   3   4
ENDBRANCH   2   3
ENDBRANCH   1   2
BRANCH   1  25
ATOM     25  C   UNL     1       1.043  -4.128  -4.295  1.00  0.00     0.021 C 
BRANCH  25  26
ATOM     26  C   UNL     1       1.752  -3.963  -5.635  1.00  0.00     0.116 C 
BRANCH  26  27
ATOM     27  N   UNL     1       2.847  -4.905  -5.798  1.00  0.00    -0.352 N 
ATOM     28  C   UNL     1       3.107  -5.766  -6.834  1.00  0.00     0.251 C 
ATOM     29  H   UNL     1       3.495  -4.929  -5.057  1.00  0.00     0.163 HD
ATOM     30  O   UNL     1       3.981  -6.620  -6.722  1.00  0.00    -0.269 OA
BRANCH  28  31
ATOM     31  C   UNL     1       2.319  -5.679  -8.082  1.00  0.00     0.039 A 
ATOM     32  C   UNL     1       1.844  -6.858  -8.661  1.00  0.00     0.014 A 
ATOM     33  C   UNL     1       2.064  -4.445  -8.688  1.00  0.00     0.014 A 
ATOM     34  C   UNL     1       1.068  -6.796  -9.820  1.00  0.00     0.010 A 
ATOM     35  C   UNL     1       1.236  -4.380  -9.806  1.00  0.00     0.010 A 
ATOM     36  C   UNL     1       0.734  -5.555 -10.385  1.00  0.00    -0.014 A 
BRANCH  36  37
ATOM     37  C   UNL     1      -0.133  -5.471 -11.588  1.00  0.00     0.031 A 
ATOM     38  C   UNL     1       0.419  -4.944 -12.883  1.00  0.00     0.074 A 
ATOM     39  C   UNL     1      -1.431  -5.822 -11.500  1.00  0.00     0.049 A 
ATOM     40  N   UNL     1      -0.194  -4.740 -14.021  1.00  0.00    -0.248 NA
ATOM     41  C   UNL     1       1.843  -4.574 -12.893  1.00  0.00     0.031 C 
ATOM     42  C   UNL     1      -2.097  -6.307 -10.289  1.00  0.00     0.029 A 
ATOM     43  N   UNL     1      -2.425  -5.816 -12.446  1.00  0.00    -0.354 N 
ATOM     44  C   UNL     1       0.765  -4.217 -14.879  1.00  0.00     0.074 A 
ATOM     45  C   UNL     1       1.986  -4.079 -14.114  1.00  0.00     0.031 C 
ATOM     46  C   UNL     1      -3.383  -6.571 -10.571  1.00  0.00     0.029 A 
ATOM     47  C   UNL     1      -3.641  -6.242 -11.970  1.00  0.00     0.049 A 
ATOM     48  H   UNL     1      -2.280  -5.534 -13.378  1.00  0.00     0.167 HD
ATOM     49  C   UNL     1       0.648  -3.904 -16.191  1.00  0.00     0.037 A 
ATOM     50  C   UNL     1      -4.830  -6.351 -12.591  1.00  0.00     0.037 A 
ATOM     51  C   UNL     1      -0.561  -4.057 -16.956  1.00  0.00     0.049 A 
ATOM     52  C   UNL     1      -4.936  -5.986 -14.046  1.00  0.00     0.074 A 
ATOM     53  C   UNL     1      -0.771  -3.800 -18.300  1.00  0.00     0.029 A 
ATOM     54  N   UNL     1      -1.767  -4.511 -16.443  1.00  0.00    -0.354 N 
ATOM     55  N   UNL     1      -4.007  -5.543 -14.857  1.00  0.00    -0.248 NA
ATOM     56  C   UNL     1      -6.256  -6.145 -14.674  1.00  0.00     0.031 C 
ATOM     57  C   UNL     1      -2.113  -4.067 -18.593  1.00  0.00     0.029 A 
ATOM     58  C   UNL     1      -2.728  -4.530 -17.441  1.00  0.00     0.049 A 
ATOM     59  H   UNL     1      -1.917  -4.780 -15.508  1.00  0.00     0.167 HD
ATOM     60  C   UNL     1      -4.620  -5.399 -16.095  1.00  0.00     0.074 A 
ATOM     61  C   UNL     1      -5.997  -5.815 -15.931  1.00  0.00     0.031 C 
ATOM     62  C   UNL     1      -4.091  -4.959 -17.262  1.00  0.00     0.037 A 
BRANCH  49  63
ATOM     63  C   UNL     1       1.869  -3.376 -16.886  1.00  0.00     0.057 A 
ATOM     64  C   UNL     1       2.966  -4.200 -17.170  1.00  0.00     0.134 A 
ATOM     65  C   UNL     1       1.939  -2.041 -17.305  1.00  0.00     0.134 A 
ATOM     66  F   UNL     1       2.968  -5.486 -16.785  1.00  0.00    -0.206 F 
ATOM     67  C   UNL     1       4.098  -3.711 -17.823  1.00  0.00     0.040 A 
ATOM     68  C   UNL     1       3.055  -1.547 -17.982  1.00  0.00     0.040 A 
ATOM     69  F   UNL     1       0.922  -1.199 -17.070  1.00  0.00    -0.206 F 
ATOM     70  C   UNL     1       4.142  -2.382 -18.238  1.00  0.00     0.006 A 
ENDBRANCH  49  63
BRANCH  50  71
ATOM     71  C   UNL     1      -6.017  -6.844 -11.848  1.00  0.00     0.057 A 
ATOM     72  C   UNL     1      -6.573  -8.098 -12.127  1.00  0.00     0.134 A 
ATOM     73  C   UNL     1      -6.636  -6.069 -10.860  1.00  0.00     0.134 A 
ATOM     74  F   UNL     1      -6.036  -8.878 -13.076  1.00  0.00    -0.206 F 
ATOM     75  C   UNL     1      -7.716  -8.554 -11.468  1.00  0.00     0.040 A 
ATOM     76  C   UNL     1      -7.765  -6.523 -10.176  1.00  0.00     0.040 A 
ATOM     77  F   UNL     1      -6.147  -4.862 -10.541  1.00  0.00    -0.206 F 
ATOM     78  C   UNL     1      -8.313  -7.766 -10.486  1.00  0.00     0.006 A 
ENDBRANCH  50  71
BRANCH  62  79
ATOM     79  C   UNL     1      -4.995  -4.943 -18.460  1.00  0.00     0.057 A 
ATOM     80  C   UNL     1      -6.018  -3.998 -18.601  1.00  0.00     0.134 A 
ATOM     81  C   UNL     1      -4.818  -5.868 -19.497  1.00  0.00     0.134 A 
ATOM     82  F   UNL     1      -6.248  -3.095 -17.636  1.00  0.00    -0.206 F 
ATOM     83  C   UNL     1      -6.851  -3.989 -19.722  1.00  0.00     0.040 A 
ATOM     84  C   UNL     1      -5.627  -5.852 -20.633  1.00  0.00     0.040 A 
ATOM     85  F   UNL     1      -3.850  -6.795 -19.426  1.00  0.00    -0.206 F 
ATOM     86  C   UNL     1      -6.651  -4.914 -20.745  1.00  0.00     0.006 A 
ENDBRANCH  62  79
ENDBRANCH  36  37
ENDBRANCH  28  31
ENDBRANCH  26  27
ENDBRANCH  25  26
ENDBRANCH   1  25
TORSDOF 15
