REMARK SMILES O=C(NCCCCCCNC(=O)[C@@H]1CC(=O)N(c2ccc(Cl)cc2C(=O)c2ccccc2)C1)c1ccc(-c2c3nc(c(-c4c(F)cccc4F)c4ccc([nH]4)c(-c4c(F)cccc4F)c4nc(c(-c5c(F)cccc5F)c5ccc2[nH]5)C=C4)C=C3)cc1
REMARK SMILES IDX 7 1 6 2 5 3 4 4 3 5 1 6 2 7 34 9 35 10 87 11 36 12 86 13
REMARK SMILES IDX 37 14 38 15 39 16 80 17 40 18 85 19 79 20 81 21 41 22 84 23
REMARK SMILES IDX 78 24 77 25 42 27 68 28 51 29 67 30 52 31 55 32 66 33 82 34
REMARK SMILES IDX 53 35 54 36 65 38 83 39 56 40 43 41 44 42 49 43 45 44 46 45
REMARK SMILES IDX 48 46 50 47 47 48 69 49 70 50 75 51 71 52 72 53 74 54 76 55
REMARK SMILES IDX 73 56 57 57 58 58 63 59 59 60 60 61 62 62 64 63 61 64 8 65
REMARK SMILES IDX 9 66 10 67 11 68 12 70 13 71 14 72 33 73 15 74 17 75 16 76
REMARK SMILES IDX 18 77 19 78 24 79 20 80 23 81 21 82 22 83 25 84 26 85 27 86
REMARK SMILES IDX 28 87 32 88 29 89 31 90 30 91
REMARK H PARENT 3 8 81 26 55 37 10 69
REMARK Flexibility Score: inf
ROOT
ATOM      1  C   UNL     1       5.046   0.390  -4.301  1.00  0.00     0.002 C 
ENDROOT
BRANCH   1   2
ATOM      2  C   UNL     1       4.411  -0.908  -3.784  1.00  0.00     0.002 C 
BRANCH   2   3
ATOM      3  C   UNL     1       4.710  -1.261  -2.328  1.00  0.00     0.021 C 
BRANCH   3   4
ATOM      4  C   UNL     1       4.388  -0.169  -1.319  1.00  0.00     0.116 C 
BRANCH   4   5
ATOM      5  N   UNL     1       2.964   0.056  -1.154  1.00  0.00    -0.352 N 
ATOM      6  O   UNL     1       1.018   0.202  -0.010  1.00  0.00    -0.269 OA
ATOM      7  C   UNL     1       2.241   0.121   0.014  1.00  0.00     0.251 C 
ATOM      8  H   UNL     1       2.449   0.176  -1.985  1.00  0.00     0.163 HD
BRANCH   7   9
ATOM      9  C   UNL     1       2.955   0.059   1.309  1.00  0.00     0.039 A 
ATOM     10  C   UNL     1       4.093   0.839   1.530  1.00  0.00     0.014 A 
ATOM     11  C   UNL     1       2.496  -0.812   2.300  1.00  0.00     0.014 A 
ATOM     12  C   UNL     1       4.851   0.642   2.677  1.00  0.00     0.010 A 
ATOM     13  C   UNL     1       3.208  -0.937   3.496  1.00  0.00     0.010 A 
ATOM     14  C   UNL     1       4.406  -0.231   3.684  1.00  0.00    -0.014 A 
BRANCH  14  15
ATOM     15  C   UNL     1       5.168  -0.321   4.956  1.00  0.00     0.031 A 
ATOM     16  C   UNL     1       5.815  -1.604   5.396  1.00  0.00     0.074 A 
ATOM     17  C   UNL     1       5.283   0.788   5.712  1.00  0.00     0.049 A 
ATOM     18  N   UNL     1       6.511  -1.845   6.479  1.00  0.00    -0.248 NA
ATOM     19  C   UNL     1       5.659  -2.770   4.512  1.00  0.00     0.031 C 
ATOM     20  C   UNL     1       4.688   2.089   5.393  1.00  0.00     0.029 A 
ATOM     21  N   UNL     1       5.944   1.009   6.892  1.00  0.00    -0.354 N 
ATOM     22  C   UNL     1       6.863  -3.188   6.417  1.00  0.00     0.074 A 
ATOM     23  C   UNL     1       6.279  -3.718   5.203  1.00  0.00     0.031 C 
ATOM     24  C   UNL     1       5.047   2.979   6.327  1.00  0.00     0.029 A 
ATOM     25  C   UNL     1       5.833   2.299   7.349  1.00  0.00     0.049 A 
ATOM     26  H   UNL     1       6.450   0.310   7.367  1.00  0.00     0.167 HD
ATOM     27  C   UNL     1       7.611  -3.907   7.290  1.00  0.00     0.037 A 
ATOM     28  C   UNL     1       6.288   2.870   8.478  1.00  0.00     0.037 A 
ATOM     29  C   UNL     1       8.189  -3.369   8.497  1.00  0.00     0.049 A 
ATOM     30  C   UNL     1       7.072   2.037   9.448  1.00  0.00     0.074 A 
ATOM     31  C   UNL     1       8.984  -4.010   9.432  1.00  0.00     0.029 A 
ATOM     32  N   UNL     1       8.025  -2.065   8.942  1.00  0.00    -0.354 N 
ATOM     33  N   UNL     1       7.428   0.779   9.357  1.00  0.00    -0.248 NA
ATOM     34  C   UNL     1       7.514   2.702  10.680  1.00  0.00     0.031 C 
ATOM     35  C   UNL     1       9.256  -3.110  10.468  1.00  0.00     0.029 A 
ATOM     36  C   UNL     1       8.682  -1.890  10.151  1.00  0.00     0.049 A 
ATOM     37  H   UNL     1       7.517  -1.367   8.470  1.00  0.00     0.167 HD
ATOM     38  C   UNL     1       8.155   0.507  10.507  1.00  0.00     0.074 A 
ATOM     39  C   UNL     1       8.207   1.738  11.269  1.00  0.00     0.031 C 
ATOM     40  C   UNL     1       8.727  -0.658  10.897  1.00  0.00     0.037 A 
BRANCH  27  41
ATOM     41  C   UNL     1       7.835  -5.362   6.985  1.00  0.00     0.057 A 
ATOM     42  C   UNL     1       8.658  -5.782   5.931  1.00  0.00     0.134 A 
ATOM     43  C   UNL     1       7.262  -6.357   7.788  1.00  0.00     0.134 A 
ATOM     44  F   UNL     1       9.233  -4.883   5.118  1.00  0.00    -0.206 F 
ATOM     45  C   UNL     1       8.883  -7.136   5.673  1.00  0.00     0.040 A 
ATOM     46  C   UNL     1       7.501  -7.713   7.557  1.00  0.00     0.040 A 
ATOM     47  F   UNL     1       6.471  -6.028   8.821  1.00  0.00    -0.206 F 
ATOM     48  C   UNL     1       8.309  -8.106   6.493  1.00  0.00     0.006 A 
ENDBRANCH  27  41
BRANCH  28  49
ATOM     49  C   UNL     1       5.999   4.300   8.753  1.00  0.00     0.057 A 
ATOM     50  C   UNL     1       7.019   5.257   8.765  1.00  0.00     0.134 A 
ATOM     51  C   UNL     1       4.694   4.743   9.008  1.00  0.00     0.134 A 
ATOM     52  F   UNL     1       8.290   4.892   8.542  1.00  0.00    -0.206 F 
ATOM     53  C   UNL     1       6.757   6.600   9.041  1.00  0.00     0.040 A 
ATOM     54  C   UNL     1       4.413   6.087   9.253  1.00  0.00     0.040 A 
ATOM     55  F   UNL     1       3.670   3.877   8.999  1.00  0.00    -0.206 F 
ATOM     56  C   UNL     1       5.449   7.019   9.279  1.00  0.00     0.006 A 
ENDBRANCH  28  49
BRANCH  40  57
ATOM     57  C   UNL     1       9.491  -0.642  12.190  1.00  0.00     0.057 A 
ATOM     58  C   UNL     1       8.848  -0.536  13.430  1.00  0.00     0.134 A 
ATOM     59  C   UNL     1      10.887  -0.755  12.193  1.00  0.00     0.134 A 
ATOM     60  F   UNL     1       7.514  -0.408  13.497  1.00  0.00    -0.206 F 
ATOM     61  C   UNL     1       9.570  -0.513  14.625  1.00  0.00     0.040 A 
ATOM     62  C   UNL     1      11.617  -0.764  13.382  1.00  0.00     0.040 A 
ATOM     63  F   UNL     1      11.564  -0.866  11.040  1.00  0.00    -0.206 F 
ATOM     64  C   UNL     1      10.958  -0.635  14.603  1.00  0.00     0.006 A 
ENDBRANCH  40  57
ENDBRANCH  14  15
ENDBRANCH   7   9
ENDBRANCH   4   5
ENDBRANCH   3   4
ENDBRANCH   2   3
ENDBRANCH   1   2
BRANCH   1  65
ATOM     65  C   UNL     1       6.528   0.595  -3.964  1.00  0.00     0.021 C 
BRANCH  65  66
ATOM     66  C   UNL     1       7.444  -0.522  -4.446  1.00  0.00     0.116 C 
BRANCH  66  67
ATOM     67  N   UNL     1       7.756  -0.404  -5.848  1.00  0.00    -0.356 N 
ATOM     68  C   UNL     1       8.617  -1.310  -6.409  1.00  0.00     0.225 C 
ATOM     69  H   UNL     1       7.358   0.314  -6.392  1.00  0.00     0.163 HD
ATOM     70  O   UNL     1       8.430  -2.520  -6.328  1.00  0.00    -0.275 OA
BRANCH  68  71
ATOM     71  C   UNL     1       9.914  -0.734  -6.939  1.00  0.00     0.107 C 
ATOM     72  C   UNL     1       9.987   0.778  -7.127  1.00  0.00     0.116 C 
ATOM     73  C   UNL     1      10.268  -1.331  -8.290  1.00  0.00     0.139 C 
ATOM     74  C   UNL     1       9.935   0.974  -8.612  1.00  0.00     0.227 C 
ATOM     75  N   UNL     1      10.014  -0.267  -9.235  1.00  0.00    -0.311 N 
ATOM     76  O   UNL     1       9.869   2.071  -9.155  1.00  0.00    -0.274 OA
BRANCH  75  77
ATOM     77  C   UNL     1      10.360  -0.406 -10.596  1.00  0.00     0.055 A 
ATOM     78  C   UNL     1      11.540   0.242 -11.016  1.00  0.00     0.028 A 
ATOM     79  C   UNL     1       9.640  -1.185 -11.517  1.00  0.00     0.048 A 
ATOM     80  C   UNL     1      12.020   0.105 -12.318  1.00  0.00     0.023 A 
ATOM     81  C   UNL     1      10.129  -1.293 -12.838  1.00  0.00     0.035 A 
ATOM     82  C   UNL     1      11.307  -0.661 -13.227  1.00  0.00     0.041 A 
ATOM     83  Cl  UNL     1      11.888  -0.838 -14.836  1.00  0.00    -0.084 Cl
BRANCH  79  84
ATOM     84  C   UNL     1       8.399  -1.965 -11.251  1.00  0.00     0.195 C 
ATOM     85  O   UNL     1       8.163  -2.936 -11.974  1.00  0.00    -0.289 OA
BRANCH  84  86
ATOM     86  C   UNL     1       7.411  -1.686 -10.187  1.00  0.00     0.023 A 
ATOM     87  C   UNL     1       6.864  -2.795  -9.524  1.00  0.00     0.012 A 
ATOM     88  C   UNL     1       6.934  -0.404  -9.902  1.00  0.00     0.012 A 
ATOM     89  C   UNL     1       5.866  -2.627  -8.567  1.00  0.00     0.001 A 
ATOM     90  C   UNL     1       5.923  -0.241  -8.946  1.00  0.00     0.001 A 
ATOM     91  C   UNL     1       5.391  -1.350  -8.282  1.00  0.00     0.000 A 
ENDBRANCH  84  86
ENDBRANCH  79  84
ENDBRANCH  75  77
ENDBRANCH  68  71
ENDBRANCH  66  67
ENDBRANCH  65  66
ENDBRANCH   1  65
TORSDOF 16
