REMARK SMILES Cc1ccc2c(c1)C=C(C(=O)NCCCCCCNC(=O)c1ccc(-c3c4nc(c(-c5c(F)cccc5F)c5ccc([nH]5)c(-c5c(F)cccc5F)c5nc(c(-c6c(F)cccc6F)c6ccc3[nH]6)C=C5)C=C4)cc1)[C@@H](C(F)(F)F)O2
REMARK SMILES IDX 16 1 15 2 14 3 13 4 12 5 10 6 11 7 9 9 1 10 2 11 3 12 7 13
REMARK SMILES IDX 4 14 6 15 5 16 8 17 81 18 76 19 77 20 78 21 79 22 80 23
REMARK SMILES IDX 17 24 18 25 19 26 20 27 21 29 22 30 23 31 75 32 24 33 74 34
REMARK SMILES IDX 25 35 26 36 27 37 68 38 28 39 73 40 67 41 69 42 29 43 72 44
REMARK SMILES IDX 66 45 65 46 30 48 56 49 39 50 55 51 40 52 43 53 54 54 70 55
REMARK SMILES IDX 41 56 42 57 53 59 71 60 44 61 31 62 32 63 37 64 33 65 34 66
REMARK SMILES IDX 36 67 38 68 35 69 57 70 58 71 63 72 59 73 60 74 62 75 64 76
REMARK SMILES IDX 61 77 45 78 46 79 51 80 47 81 48 82 50 83 52 84 49 85
REMARK H PARENT 12 8 19 28 69 47 43 58
REMARK Flexibility Score: inf
ROOT
ATOM      1  C   UNL     1       0.730  12.289  -0.336  1.00  0.00     0.002 C 
ENDROOT
BRANCH   1   2
ATOM      2  C   UNL     1       0.402  11.418   0.884  1.00  0.00     0.002 C 
BRANCH   2   3
ATOM      3  C   UNL     1      -0.290  10.084   0.583  1.00  0.00     0.021 C 
BRANCH   3   4
ATOM      4  C   UNL     1       0.469   9.185  -0.390  1.00  0.00     0.116 C 
BRANCH   4   5
ATOM      5  N   UNL     1       1.514   8.427   0.274  1.00  0.00    -0.352 N 
ATOM      6  C   UNL     1       1.842   7.126   0.444  1.00  0.00     0.251 C 
ATOM      7  O   UNL     1       2.882   6.933   1.083  1.00  0.00    -0.270 OA
ATOM      8  H   UNL     1       2.159   9.021   0.722  1.00  0.00     0.163 HD
BRANCH   6   9
ATOM      9  C   UNL     1       1.065   5.955  -0.067  1.00  0.00     0.067 C 
ATOM     10  C   UNL     1       1.097  -0.234   0.164  1.00  0.00     0.044 C 
ATOM     11  C   UNL     1       0.591   1.131  -0.197  1.00  0.00    -0.050 A 
ATOM     12  C   UNL     1      -0.608   1.276  -0.905  1.00  0.00     0.007 A 
ATOM     13  C   UNL     1       1.278   2.278   0.228  1.00  0.00     0.015 A 
ATOM     14  C   UNL     1      -1.095   2.545  -1.211  1.00  0.00     0.047 A 
ATOM     15  C   UNL     1       0.793   3.553  -0.080  1.00  0.00     0.017 A 
ATOM     16  C   UNL     1      -0.389   3.676  -0.809  1.00  0.00     0.128 A 
ATOM     17  C   UNL     1       1.475   4.754   0.382  1.00  0.00     0.025 C 
ATOM     18  O   UNL     1      -0.942   4.881  -1.123  1.00  0.00    -0.475 OA
ATOM     19  C   UNL     1      -0.074   6.044  -1.046  1.00  0.00     0.314 C 
BRANCH  19  20
ATOM     20  C   UNL     1       0.389   6.412  -2.466  1.00  0.00     0.429 C 
ATOM     21  F   UNL     1      -0.667   6.809  -3.221  1.00  0.00    -0.167 F 
ATOM     22  F   UNL     1       1.268   7.442  -2.479  1.00  0.00    -0.167 F 
ATOM     23  F   UNL     1       0.981   5.380  -3.107  1.00  0.00    -0.167 F 
ENDBRANCH  19  20
ENDBRANCH   6   9
ENDBRANCH   4   5
ENDBRANCH   3   4
ENDBRANCH   2   3
ENDBRANCH   1   2
BRANCH   1  24
ATOM     24  C   UNL     1      -0.410  12.493  -1.336  1.00  0.00     0.021 C 
BRANCH  24  25
ATOM     25  C   UNL     1      -1.679  13.104  -0.753  1.00  0.00     0.116 C 
BRANCH  25  26
ATOM     26  N   UNL     1      -1.477  14.457  -0.262  1.00  0.00    -0.352 N 
ATOM     27  C   UNL     1      -2.206  15.592  -0.525  1.00  0.00     0.251 C 
ATOM     28  H   UNL     1      -0.711  14.578   0.344  1.00  0.00     0.163 HD
ATOM     29  O   UNL     1      -1.811  16.688  -0.138  1.00  0.00    -0.269 OA
BRANCH  27  30
ATOM     30  C   UNL     1      -3.455  15.492  -1.310  1.00  0.00     0.039 A 
ATOM     31  C   UNL     1      -4.402  14.508  -1.019  1.00  0.00     0.014 A 
ATOM     32  C   UNL     1      -3.664  16.379  -2.370  1.00  0.00     0.014 A 
ATOM     33  C   UNL     1      -5.474  14.308  -1.883  1.00  0.00     0.010 A 
ATOM     34  C   UNL     1      -4.784  16.225  -3.191  1.00  0.00     0.010 A 
ATOM     35  C   UNL     1      -5.672  15.157  -2.983  1.00  0.00    -0.014 A 
BRANCH  35  36
ATOM     36  C   UNL     1      -6.799  14.899  -3.915  1.00  0.00     0.031 A 
ATOM     37  C   UNL     1      -6.537  14.493  -5.341  1.00  0.00     0.074 A 
ATOM     38  C   UNL     1      -8.064  14.978  -3.460  1.00  0.00     0.049 A 
ATOM     39  N   UNL     1      -7.394  14.225  -6.295  1.00  0.00    -0.248 NA
ATOM     40  C   UNL     1      -5.129  14.377  -5.753  1.00  0.00     0.031 C 
ATOM     41  C   UNL     1      -8.449  15.346  -2.096  1.00  0.00     0.029 A 
ATOM     42  N   UNL     1      -9.258  14.734  -4.089  1.00  0.00    -0.354 N 
ATOM     43  C   UNL     1      -6.633  13.926  -7.419  1.00  0.00     0.074 A 
ATOM     44  C   UNL     1      -5.244  14.075  -7.038  1.00  0.00     0.031 C 
ATOM     45  C   UNL     1      -9.783  15.260  -1.978  1.00  0.00     0.029 A 
ATOM     46  C   UNL     1     -10.350  14.890  -3.270  1.00  0.00     0.049 A 
ATOM     47  H   UNL     1      -9.327  14.473  -5.035  1.00  0.00     0.167 HD
ATOM     48  C   UNL     1      -7.051  13.550  -8.652  1.00  0.00     0.037 A 
ATOM     49  C   UNL     1     -11.663  14.766  -3.535  1.00  0.00     0.037 A 
ATOM     50  C   UNL     1      -8.431  13.385  -9.027  1.00  0.00     0.049 A 
ATOM     51  C   UNL     1     -12.100  14.400  -4.924  1.00  0.00     0.074 A 
ATOM     52  C   UNL     1      -8.955  12.990 -10.246  1.00  0.00     0.029 A 
ATOM     53  N   UNL     1      -9.509  13.606  -8.183  1.00  0.00    -0.354 N 
ATOM     54  N   UNL     1     -11.367  14.115  -5.973  1.00  0.00    -0.248 NA
ATOM     55  C   UNL     1     -13.548  14.351  -5.168  1.00  0.00     0.031 C 
ATOM     56  C   UNL     1     -10.351  13.008 -10.151  1.00  0.00     0.029 A 
ATOM     57  C   UNL     1     -10.696  13.375  -8.861  1.00  0.00     0.049 A 
ATOM     58  H   UNL     1      -9.442  13.886  -7.242  1.00  0.00     0.167 HD
ATOM     59  C   UNL     1     -12.264  13.838  -6.996  1.00  0.00     0.074 A 
ATOM     60  C   UNL     1     -13.593  13.968  -6.435  1.00  0.00     0.031 C 
ATOM     61  C   UNL     1     -12.010  13.511  -8.287  1.00  0.00     0.037 A 
BRANCH  48  62
ATOM     62  C   UNL     1      -5.998  13.305  -9.694  1.00  0.00     0.057 A 
ATOM     63  C   UNL     1      -5.825  14.197 -10.759  1.00  0.00     0.134 A 
ATOM     64  C   UNL     1      -5.175  12.172  -9.661  1.00  0.00     0.134 A 
ATOM     65  F   UNL     1      -6.585  15.299 -10.854  1.00  0.00    -0.206 F 
ATOM     66  C   UNL     1      -4.872  13.972 -11.754  1.00  0.00     0.040 A 
ATOM     67  C   UNL     1      -4.202  11.947 -10.637  1.00  0.00     0.040 A 
ATOM     68  F   UNL     1      -5.279  11.284  -8.660  1.00  0.00    -0.206 F 
ATOM     69  C   UNL     1      -4.053  12.847 -11.691  1.00  0.00     0.006 A 
ENDBRANCH  48  62
BRANCH  49  70
ATOM     70  C   UNL     1     -12.664  15.006  -2.466  1.00  0.00     0.057 A 
ATOM     71  C   UNL     1     -12.887  16.288  -1.951  1.00  0.00     0.134 A 
ATOM     72  C   UNL     1     -13.432  13.958  -1.947  1.00  0.00     0.134 A 
ATOM     73  F   UNL     1     -12.180  17.333  -2.405  1.00  0.00    -0.206 F 
ATOM     74  C   UNL     1     -13.832  16.519  -0.951  1.00  0.00     0.040 A 
ATOM     75  C   UNL     1     -14.399  14.178  -0.966  1.00  0.00     0.040 A 
ATOM     76  F   UNL     1     -13.277  12.711  -2.416  1.00  0.00    -0.206 F 
ATOM     77  C   UNL     1     -14.598  15.463  -0.462  1.00  0.00     0.006 A 
ENDBRANCH  49  70
BRANCH  61  78
ATOM     78  C   UNL     1     -13.197  13.252  -9.164  1.00  0.00     0.057 A 
ATOM     79  C   UNL     1     -13.519  11.949  -9.564  1.00  0.00     0.134 A 
ATOM     80  C   UNL     1     -14.017  14.292  -9.620  1.00  0.00     0.134 A 
ATOM     81  F   UNL     1     -12.771  10.909  -9.166  1.00  0.00    -0.206 F 
ATOM     82  C   UNL     1     -14.618  11.689 -10.384  1.00  0.00     0.040 A 
ATOM     83  C   UNL     1     -15.132  14.042 -10.421  1.00  0.00     0.040 A 
ATOM     84  F   UNL     1     -13.771  15.560  -9.257  1.00  0.00    -0.206 F 
ATOM     85  C   UNL     1     -15.432  12.738 -10.809  1.00  0.00     0.006 A 
ENDBRANCH  61  78
ENDBRANCH  35  36
ENDBRANCH  27  30
ENDBRANCH  25  26
ENDBRANCH  24  25
ENDBRANCH   1  24
TORSDOF 14
