REMARK SMILES CC(C)CSc1cc2c(cc1Cl)C=C(C(=O)NCCCCCCNC(=O)c1ccc(-c3c4nc(c(-c5c(F)cccc5F)c5ccc([nH]5)c(-c5c(F)cccc5F)c5nc(c(-c6c(F)cccc6F)c6ccc3[nH]6)C=C5)C=C4)cc1)[C@@H](C(F)(F)F)O2
REMARK SMILES IDX 20 1 19 2 18 3 17 4 15 5 16 6 14 8 6 9 7 10 11 11 8 12 10 13
REMARK SMILES IDX 12 14 9 15 86 16 13 17 81 18 5 19 4 20 2 21 1 22 3 23 82 24
REMARK SMILES IDX 83 25 84 26 85 27 21 28 22 29 23 30 24 31 25 32 26 34 27 35
REMARK SMILES IDX 28 36 80 37 29 38 79 39 30 40 31 41 32 42 73 43 33 44 78 45
REMARK SMILES IDX 72 46 74 47 34 48 77 49 71 50 70 51 35 53 61 54 44 55 60 56
REMARK SMILES IDX 45 57 48 58 59 59 75 60 46 61 47 62 58 64 76 65 49 66 36 67
REMARK SMILES IDX 37 68 42 69 38 70 39 71 41 72 43 73 40 74 62 75 63 76 68 77
REMARK SMILES IDX 64 78 65 79 67 80 69 81 66 82 50 83 51 84 56 85 52 86 53 87
REMARK SMILES IDX 55 88 57 89 54 90
REMARK H PARENT 17 7 24 33 74 52 48 63
REMARK Flexibility Score: inf
ROOT
ATOM      1  C   UNL     1       0.470   8.327  -6.297  1.00  0.00     0.002 C 
ENDROOT
BRANCH   1   2
ATOM      2  C   UNL     1       0.318   7.290  -5.181  1.00  0.00     0.021 C 
BRANCH   2   3
ATOM      3  C   UNL     1      -0.721   6.211  -5.465  1.00  0.00     0.116 C 
BRANCH   3   4
ATOM      4  N   UNL     1      -0.184   5.142  -6.288  1.00  0.00    -0.352 N 
ATOM      5  C   UNL     1      -0.070   3.795  -6.216  1.00  0.00     0.251 C 
ATOM      6  O   UNL     1       0.451   3.261  -7.201  1.00  0.00    -0.270 OA
ATOM      7  H   UNL     1       0.201   5.491  -7.124  1.00  0.00     0.163 HD
BRANCH   5   8
ATOM      8  C   UNL     1      -0.511   2.946  -5.067  1.00  0.00     0.067 C 
ATOM      9  C   UNL     1      -1.160  -0.911  -1.859  1.00  0.00     0.030 A 
ATOM     10  C   UNL     1      -1.475   0.451  -1.843  1.00  0.00     0.063 A 
ATOM     11  C   UNL     1      -0.573  -1.444  -3.022  1.00  0.00     0.055 A 
ATOM     12  C   UNL     1      -1.135   1.273  -2.914  1.00  0.00     0.129 A 
ATOM     13  C   UNL     1      -0.252  -0.614  -4.107  1.00  0.00     0.033 A 
ATOM     14  Cl  UNL     1      -0.174  -3.121  -3.177  1.00  0.00    -0.083 Cl
ATOM     15  C   UNL     1      -0.516   0.755  -4.046  1.00  0.00     0.019 A 
ATOM     16  O   UNL     1      -1.388   2.599  -2.743  1.00  0.00    -0.475 OA
ATOM     17  C   UNL     1      -0.121   1.659  -5.118  1.00  0.00     0.025 C 
ATOM     18  C   UNL     1      -1.361   3.437  -3.928  1.00  0.00     0.314 C 
BRANCH   9  19
ATOM     19  S   UNL     1      -1.493  -1.907  -0.407  1.00  0.00    -0.124 SA
BRANCH  19  20
ATOM     20  C   UNL     1      -0.874  -0.855   0.966  1.00  0.00     0.078 C 
BRANCH  20  21
ATOM     21  C   UNL     1       0.657  -0.822   1.137  1.00  0.00    -0.007 C 
ATOM     22  C   UNL     1       1.381   0.006   0.074  1.00  0.00     0.008 C 
ATOM     23  C   UNL     1       0.993  -0.245   2.518  1.00  0.00     0.008 C 
ENDBRANCH  20  21
ENDBRANCH  19  20
ENDBRANCH   9  19
BRANCH  18  24
ATOM     24  C   UNL     1      -2.813   3.732  -4.339  1.00  0.00     0.429 C 
ATOM     25  F   UNL     1      -3.422   4.497  -3.398  1.00  0.00    -0.167 F 
ATOM     26  F   UNL     1      -2.902   4.417  -5.501  1.00  0.00    -0.167 F 
ATOM     27  F   UNL     1      -3.545   2.605  -4.484  1.00  0.00    -0.167 F 
ENDBRANCH  18  24
ENDBRANCH   5   8
ENDBRANCH   3   4
ENDBRANCH   2   3
ENDBRANCH   1   2
BRANCH   1  28
ATOM     28  C   UNL     1      -0.818   9.058  -6.702  1.00  0.00     0.002 C 
BRANCH  28  29
ATOM     29  C   UNL     1      -1.643   9.637  -5.551  1.00  0.00     0.021 C 
BRANCH  29  30
ATOM     30  C   UNL     1      -0.900  10.619  -4.655  1.00  0.00     0.116 C 
BRANCH  30  31
ATOM     31  N   UNL     1      -0.462  11.808  -5.367  1.00  0.00    -0.352 N 
ATOM     32  C   UNL     1      -0.636  13.132  -5.044  1.00  0.00     0.251 C 
ATOM     33  H   UNL     1       0.031  11.640  -6.203  1.00  0.00     0.163 HD
ATOM     34  O   UNL     1      -0.329  14.009  -5.846  1.00  0.00    -0.269 OA
BRANCH  32  35
ATOM     35  C   UNL     1      -1.225  13.498  -3.738  1.00  0.00     0.039 A 
ATOM     36  C   UNL     1      -0.810  12.866  -2.564  1.00  0.00     0.014 A 
ATOM     37  C   UNL     1      -2.218  14.481  -3.693  1.00  0.00     0.014 A 
ATOM     38  C   UNL     1      -1.496  13.098  -1.377  1.00  0.00     0.010 A 
ATOM     39  C   UNL     1      -2.849  14.774  -2.481  1.00  0.00     0.010 A 
ATOM     40  C   UNL     1      -2.526  14.052  -1.322  1.00  0.00    -0.014 A 
BRANCH  40  41
ATOM     41  C   UNL     1      -3.251  14.268  -0.043  1.00  0.00     0.031 A 
ATOM     42  C   UNL     1      -4.715  13.937   0.077  1.00  0.00     0.074 A 
ATOM     43  C   UNL     1      -2.573  14.716   1.031  1.00  0.00     0.049 A 
ATOM     44  N   UNL     1      -5.503  14.042   1.118  1.00  0.00    -0.248 NA
ATOM     45  C   UNL     1      -5.385  13.427  -1.130  1.00  0.00     0.031 C 
ATOM     46  C   UNL     1      -1.151  15.068   1.044  1.00  0.00     0.029 A 
ATOM     47  N   UNL     1      -2.980  14.932   2.322  1.00  0.00    -0.354 N 
ATOM     48  C   UNL     1      -6.759  13.629   0.690  1.00  0.00     0.074 A 
ATOM     49  C   UNL     1      -6.637  13.302  -0.715  1.00  0.00     0.031 C 
ATOM     50  C   UNL     1      -0.794  15.408   2.291  1.00  0.00     0.029 A 
ATOM     51  C   UNL     1      -1.971  15.357   3.151  1.00  0.00     0.049 A 
ATOM     52  H   UNL     1      -3.906  14.794   2.626  1.00  0.00     0.167 HD
ATOM     53  C   UNL     1      -7.905  13.519   1.404  1.00  0.00     0.037 A 
ATOM     54  C   UNL     1      -1.994  15.686   4.455  1.00  0.00     0.037 A 
ATOM     55  C   UNL     1      -8.023  13.831   2.805  1.00  0.00     0.049 A 
ATOM     56  C   UNL     1      -3.289  15.599   5.209  1.00  0.00     0.074 A 
ATOM     57  C   UNL     1      -9.136  13.730   3.623  1.00  0.00     0.029 A 
ATOM     58  N   UNL     1      -6.990  14.308   3.598  1.00  0.00    -0.354 N 
ATOM     59  N   UNL     1      -4.462  15.187   4.795  1.00  0.00    -0.248 NA
ATOM     60  C   UNL     1      -3.263  16.032   6.613  1.00  0.00     0.031 C 
ATOM     61  C   UNL     1      -8.786  14.185   4.899  1.00  0.00     0.029 A 
ATOM     62  C   UNL     1      -7.444  14.527   4.888  1.00  0.00     0.049 A 
ATOM     63  H   UNL     1      -6.069  14.468   3.288  1.00  0.00     0.167 HD
ATOM     64  C   UNL     1      -5.310  15.297   5.888  1.00  0.00     0.074 A 
ATOM     65  C   UNL     1      -4.510  15.790   6.991  1.00  0.00     0.031 C 
ATOM     66  C   UNL     1      -6.635  15.021   5.972  1.00  0.00     0.037 A 
BRANCH  53  67
ATOM     67  C   UNL     1      -9.133  13.056   0.673  1.00  0.00     0.057 A 
ATOM     68  C   UNL     1     -10.186  13.943   0.412  1.00  0.00     0.134 A 
ATOM     69  C   UNL     1      -9.288  11.729   0.251  1.00  0.00     0.134 A 
ATOM     70  F   UNL     1     -10.107  15.226   0.795  1.00  0.00    -0.206 F 
ATOM     71  C   UNL     1     -11.347  13.526  -0.242  1.00  0.00     0.040 A 
ATOM     72  C   UNL     1     -10.434  11.306  -0.426  1.00  0.00     0.040 A 
ATOM     73  F   UNL     1      -8.312  10.832   0.457  1.00  0.00    -0.206 F 
ATOM     74  C   UNL     1     -11.471  12.206  -0.669  1.00  0.00     0.006 A 
ENDBRANCH  53  67
BRANCH  54  75
ATOM     75  C   UNL     1      -0.753  16.142   5.131  1.00  0.00     0.057 A 
ATOM     76  C   UNL     1      -0.166  17.374   4.821  1.00  0.00     0.134 A 
ATOM     77  C   UNL     1      -0.139  15.363   6.117  1.00  0.00     0.134 A 
ATOM     78  F   UNL     1      -0.705  18.164   3.881  1.00  0.00    -0.206 F 
ATOM     79  C   UNL     1       0.992  17.813   5.463  1.00  0.00     0.040 A 
ATOM     80  C   UNL     1       1.004  15.802   6.787  1.00  0.00     0.040 A 
ATOM     81  F   UNL     1      -0.666  14.181   6.471  1.00  0.00    -0.206 F 
ATOM     82  C   UNL     1       1.575  17.030   6.457  1.00  0.00     0.006 A 
ENDBRANCH  54  75
BRANCH  66  83
ATOM     83  C   UNL     1      -7.284  15.226   7.309  1.00  0.00     0.057 A 
ATOM     84  C   UNL     1      -7.670  14.130   8.091  1.00  0.00     0.134 A 
ATOM     85  C   UNL     1      -7.527  16.506   7.823  1.00  0.00     0.134 A 
ATOM     86  F   UNL     1      -7.470  12.877   7.654  1.00  0.00    -0.206 F 
ATOM     87  C   UNL     1      -8.272  14.301   9.338  1.00  0.00     0.040 A 
ATOM     88  C   UNL     1      -8.104  16.689   9.080  1.00  0.00     0.040 A 
ATOM     89  F   UNL     1      -7.164  17.597   7.130  1.00  0.00    -0.206 F 
ATOM     90  C   UNL     1      -8.482  15.584   9.840  1.00  0.00     0.006 A 
ENDBRANCH  66  83
ENDBRANCH  40  41
ENDBRANCH  32  35
ENDBRANCH  30  31
ENDBRANCH  29  30
ENDBRANCH  28  29
ENDBRANCH   1  28
TORSDOF 17
