REMARK SMILES O=C(NCCCCCCNC(=O)[C@@H]1[C@H](C(=O)NCc2ccncc2)[C@H]2C=C[C@@H]1O2)c1ccc(-c2c3nc(c(-c4c(F)cccc4F)c4ccc([nH]4)c(-c4c(F)cccc4F)c4nc(c(-c5c(F)cccc5F)c5ccc2[nH]5)C=C4)C=C3)cc1
REMARK SMILES IDX 7 1 6 2 5 3 4 4 3 5 1 6 2 7 30 9 31 10 83 11 32 12 82 13
REMARK SMILES IDX 33 14 34 15 35 16 76 17 36 18 81 19 75 20 77 21 37 22 80 23
REMARK SMILES IDX 74 24 73 25 38 27 64 28 47 29 63 30 48 31 51 32 62 33 78 34
REMARK SMILES IDX 49 35 50 36 61 38 79 39 52 40 39 41 40 42 45 43 41 44 42 45
REMARK SMILES IDX 44 46 46 47 43 48 65 49 66 50 71 51 67 52 68 53 70 54 72 55
REMARK SMILES IDX 69 56 53 57 54 58 59 59 55 60 56 61 58 62 60 63 57 64 8 65
REMARK SMILES IDX 9 66 10 67 11 68 12 70 13 71 14 72 28 73 25 74 27 75 29 76
REMARK SMILES IDX 26 77 15 78 16 79 17 80 18 82 19 83 20 84 24 85 21 86 23 87
REMARK SMILES IDX 22 88
REMARK H PARENT 3 8 77 26 51 37 10 69 17 81
REMARK Flexibility Score: inf
ROOT
ATOM      1  C   UNL     1       4.169   2.512  -3.041  1.00  0.00     0.002 C 
ENDROOT
BRANCH   1   2
ATOM      2  C   UNL     1       3.333   1.258  -3.245  1.00  0.00     0.002 C 
BRANCH   2   3
ATOM      3  C   UNL     1       3.836   0.039  -2.478  1.00  0.00     0.021 C 
BRANCH   3   4
ATOM      4  C   UNL     1       3.993   0.267  -0.981  1.00  0.00     0.116 C 
BRANCH   4   5
ATOM      5  N   UNL     1       2.709   0.523  -0.339  1.00  0.00    -0.352 N 
ATOM      6  O   UNL     1       0.899  -0.120   0.880  1.00  0.00    -0.269 OA
ATOM      7  C   UNL     1       2.066  -0.274   0.584  1.00  0.00     0.251 C 
ATOM      8  H   UNL     1       2.250   1.356  -0.594  1.00  0.00     0.163 HD
BRANCH   7   9
ATOM      9  C   UNL     1       2.885  -1.326   1.212  1.00  0.00     0.039 A 
ATOM     10  C   UNL     1       4.097  -0.941   1.789  1.00  0.00     0.014 A 
ATOM     11  C   UNL     1       2.519  -2.668   1.105  1.00  0.00     0.014 A 
ATOM     12  C   UNL     1       5.013  -1.914   2.136  1.00  0.00     0.010 A 
ATOM     13  C   UNL     1       3.397  -3.645   1.576  1.00  0.00     0.010 A 
ATOM     14  C   UNL     1       4.651  -3.272   2.088  1.00  0.00    -0.014 A 
BRANCH  14  15
ATOM     15  C   UNL     1       5.559  -4.247   2.733  1.00  0.00     0.031 A 
ATOM     16  C   UNL     1       6.235  -5.338   1.962  1.00  0.00     0.074 A 
ATOM     17  C   UNL     1       5.795  -4.073   4.049  1.00  0.00     0.049 A 
ATOM     18  N   UNL     1       7.066  -6.249   2.398  1.00  0.00    -0.248 NA
ATOM     19  C   UNL     1       5.939  -5.433   0.524  1.00  0.00     0.031 C 
ATOM     20  C   UNL     1       5.163  -3.044   4.885  1.00  0.00     0.029 A 
ATOM     21  N   UNL     1       6.644  -4.715   4.907  1.00  0.00    -0.354 N 
ATOM     22  C   UNL     1       7.381  -7.036   1.299  1.00  0.00     0.074 A 
ATOM     23  C   UNL     1       6.634  -6.509   0.176  1.00  0.00     0.031 C 
ATOM     24  C   UNL     1       5.703  -3.074   6.108  1.00  0.00     0.029 A 
ATOM     25  C   UNL     1       6.637  -4.186   6.174  1.00  0.00     0.049 A 
ATOM     26  H   UNL     1       7.204  -5.480   4.642  1.00  0.00     0.167 HD
ATOM     27  C   UNL     1       8.223  -8.097   1.244  1.00  0.00     0.037 A 
ATOM     28  C   UNL     1       7.285  -4.576   7.284  1.00  0.00     0.037 A 
ATOM     29  C   UNL     1       8.958  -8.599   2.380  1.00  0.00     0.049 A 
ATOM     30  C   UNL     1       8.189  -5.764   7.190  1.00  0.00     0.074 A 
ATOM     31  C   UNL     1       9.836  -9.667   2.438  1.00  0.00     0.029 A 
ATOM     32  N   UNL     1       8.901  -8.062   3.660  1.00  0.00    -0.354 N 
ATOM     33  N   UNL     1       8.478  -6.499   6.143  1.00  0.00    -0.248 NA
ATOM     34  C   UNL     1       8.849  -6.186   8.429  1.00  0.00     0.031 C 
ATOM     35  C   UNL     1      10.277  -9.802   3.759  1.00  0.00     0.029 A 
ATOM     36  C   UNL     1       9.716  -8.786   4.516  1.00  0.00     0.049 A 
ATOM     37  H   UNL     1       8.360  -7.282   3.921  1.00  0.00     0.167 HD
ATOM     38  C   UNL     1       9.357  -7.470   6.594  1.00  0.00     0.074 A 
ATOM     39  C   UNL     1       9.585  -7.200   8.001  1.00  0.00     0.031 C 
ATOM     40  C   UNL     1       9.916  -8.500   5.914  1.00  0.00     0.037 A 
BRANCH  27  41
ATOM     41  C   UNL     1       8.386  -8.799  -0.074  1.00  0.00     0.057 A 
ATOM     42  C   UNL     1       9.087  -8.220  -1.139  1.00  0.00     0.134 A 
ATOM     43  C   UNL     1       7.893 -10.098  -0.259  1.00  0.00     0.134 A 
ATOM     44  F   UNL     1       9.576  -6.975  -1.035  1.00  0.00    -0.206 F 
ATOM     45  C   UNL     1       9.284  -8.902  -2.343  1.00  0.00     0.040 A 
ATOM     46  C   UNL     1       8.103 -10.799  -1.448  1.00  0.00     0.040 A 
ATOM     47  F   UNL     1       7.216 -10.716   0.721  1.00  0.00    -0.206 F 
ATOM     48  C   UNL     1       8.799 -10.200  -2.496  1.00  0.00     0.006 A 
ENDBRANCH  27  41
BRANCH  28  49
ATOM     49  C   UNL     1       7.059  -3.864   8.566  1.00  0.00     0.057 A 
ATOM     50  C   UNL     1       8.082  -3.145   9.192  1.00  0.00     0.134 A 
ATOM     51  C   UNL     1       5.806  -3.881   9.194  1.00  0.00     0.134 A 
ATOM     52  F   UNL     1       9.306  -3.098   8.648  1.00  0.00    -0.206 F 
ATOM     53  C   UNL     1       7.875  -2.490  10.408  1.00  0.00     0.040 A 
ATOM     54  C   UNL     1       5.575  -3.200  10.388  1.00  0.00     0.040 A 
ATOM     55  F   UNL     1       4.777  -4.539   8.638  1.00  0.00    -0.206 F 
ATOM     56  C   UNL     1       6.616  -2.512  11.005  1.00  0.00     0.006 A 
ENDBRANCH  28  49
BRANCH  40  57
ATOM     57  C   UNL     1      10.838  -9.387   6.697  1.00  0.00     0.057 A 
ATOM     58  C   UNL     1      10.361 -10.256   7.686  1.00  0.00     0.134 A 
ATOM     59  C   UNL     1      12.219  -9.356   6.469  1.00  0.00     0.134 A 
ATOM     60  F   UNL     1       9.050 -10.317   7.965  1.00  0.00    -0.206 F 
ATOM     61  C   UNL     1      11.230 -11.034   8.451  1.00  0.00     0.040 A 
ATOM     62  C   UNL     1      13.095 -10.153   7.206  1.00  0.00     0.040 A 
ATOM     63  F   UNL     1      12.738  -8.549   5.531  1.00  0.00    -0.206 F 
ATOM     64  C   UNL     1      12.602 -10.986   8.209  1.00  0.00     0.006 A 
ENDBRANCH  40  57
ENDBRANCH  14  15
ENDBRANCH   7   9
ENDBRANCH   4   5
ENDBRANCH   3   4
ENDBRANCH   2   3
ENDBRANCH   1   2
BRANCH   1  65
ATOM     65  C   UNL     1       5.687   2.351  -3.265  1.00  0.00     0.021 C 
BRANCH  65  66
ATOM     66  C   UNL     1       6.308   2.397  -4.718  1.00  0.00     0.116 C 
BRANCH  66  67
ATOM     67  N   UNL     1       6.661   3.730  -5.351  1.00  0.00    -0.356 N 
ATOM     68  C   UNL     1       7.718   4.558  -5.678  1.00  0.00     0.227 C 
ATOM     69  H   UNL     1       5.826   4.169  -5.634  1.00  0.00     0.163 HD
ATOM     70  O   UNL     1       7.381   5.528  -6.375  1.00  0.00    -0.275 OA
BRANCH  68  71
ATOM     71  C   UNL     1       9.222   4.448  -5.311  1.00  0.00     0.127 C 
ATOM     72  C   UNL     1       9.779   3.551  -4.200  1.00  0.00     0.127 C 
ATOM     73  C   UNL     1       9.894   5.822  -4.890  1.00  0.00     0.155 C 
ATOM     74  C   UNL     1      10.944   4.380  -3.630  1.00  0.00     0.155 C 
ATOM     75  C   UNL     1      11.329   5.843  -5.333  1.00  0.00     0.004 C 
ATOM     76  O   UNL     1      10.220   5.629  -3.476  1.00  0.00    -0.365 OA
ATOM     77  C   UNL     1      11.956   4.897  -4.614  1.00  0.00     0.004 C 
BRANCH  72  78
ATOM     78  C   UNL     1       8.841   3.363  -3.019  1.00  0.00     0.227 C 
ATOM     79  O   UNL     1       8.904   2.358  -2.317  1.00  0.00    -0.275 OA
ATOM     80  N   UNL     1       7.825   4.275  -2.927  1.00  0.00    -0.352 N 
ATOM     81  H   UNL     1       7.069   4.058  -3.519  1.00  0.00     0.163 HD
BRANCH  80  82
ATOM     82  C   UNL     1       7.603   5.486  -2.160  1.00  0.00     0.151 C 
BRANCH  82  83
ATOM     83  C   UNL     1       6.439   6.321  -2.710  1.00  0.00    -0.026 A 
ATOM     84  C   UNL     1       6.421   7.697  -2.505  1.00  0.00     0.025 A 
ATOM     85  C   UNL     1       5.316   5.800  -3.369  1.00  0.00     0.025 A 
ATOM     86  C   UNL     1       5.314   8.438  -2.918  1.00  0.00     0.111 A 
ATOM     87  C   UNL     1       4.257   6.607  -3.760  1.00  0.00     0.111 A 
ATOM     88  N   UNL     1       4.227   7.924  -3.532  1.00  0.00    -0.265 NA
ENDBRANCH  82  83
ENDBRANCH  80  82
ENDBRANCH  72  78
ENDBRANCH  68  71
ENDBRANCH  66  67
ENDBRANCH  65  66
ENDBRANCH   1  65
TORSDOF 16
