REMARK SMILES Cc1ccc2cc(C[N@H+]3CC[NH2+][C@H](C(=O)NCCCCCCNC(=O)c4ccc(-c5c6nc(c(-c7c(F)cccc7F)c7ccc([nH]7)c(-c7c(F)cccc7F)c7nc(c(-c8c(F)cccc8F)c8ccc5[nH]8)C=C7)C=C6)cc4)C3)c(N3CCOCC3)nc2c1
REMARK SMILES IDX 19 1 18 2 17 3 16 4 14 5 15 6 13 8 9 9 10 10 80 11 11 13
REMARK SMILES IDX 12 14 8 17 7 18 1 19 2 20 3 21 90 22 4 23 89 24 5 25 88 26
REMARK SMILES IDX 6 27 81 28 82 29 83 30 87 31 84 32 86 33 85 34 20 35 21 36
REMARK SMILES IDX 22 37 23 38 24 39 25 41 26 42 27 43 79 44 28 45 78 46 29 47
REMARK SMILES IDX 30 48 31 49 72 50 32 51 77 52 71 53 73 54 33 55 76 56 70 57
REMARK SMILES IDX 69 58 34 60 60 61 43 62 59 63 44 64 47 65 58 66 74 67 45 68
REMARK SMILES IDX 46 69 57 71 75 72 48 73 35 74 36 75 41 76 37 77 38 78 40 79
REMARK SMILES IDX 42 80 39 81 61 82 62 83 67 84 63 85 64 86 66 87 68 88 65 89
REMARK SMILES IDX 49 90 50 91 55 92 51 93 52 94 54 95 56 96 53 97
REMARK H PARENT 16 7 9 12 12 15 12 16 23 40 73 59 47 70
REMARK Flexibility Score: inf
ROOT
ATOM      1  C   UNL     1      -0.201  -1.688  -9.178  1.00  0.00     0.002 C 
ENDROOT
BRANCH   1   2
ATOM      2  C   UNL     1       0.907  -0.689  -8.813  1.00  0.00     0.021 C 
BRANCH   2   3
ATOM      3  C   UNL     1       0.418   0.732  -8.546  1.00  0.00     0.116 C 
BRANCH   3   4
ATOM      4  N   UNL     1      -0.561   0.726  -7.489  1.00  0.00    -0.351 N 
ATOM      5  C   UNL     1      -0.629   1.372  -6.308  1.00  0.00     0.284 C 
ATOM      6  O   UNL     1      -1.552   1.015  -5.562  1.00  0.00    -0.268 OA
ATOM      7  H   UNL     1      -1.330   0.137  -7.664  1.00  0.00     0.163 HD
BRANCH   5   8
ATOM      8  C   UNL     1       0.195   2.600  -5.951  1.00  0.00     0.328 C 
ATOM      9  N   UNL     1       0.070   5.121  -6.158  1.00  0.00    -0.321 N 
ATOM     10  C   UNL     1       1.541   5.102  -6.038  1.00  0.00     0.324 C 
ATOM     11  C   UNL     1      -0.463   3.829  -6.608  1.00  0.00     0.339 C 
ATOM     12  H   UNL     1      -0.124   5.788  -6.905  1.00  0.00     0.348 HD
ATOM     13  C   UNL     1       2.195   3.789  -5.514  1.00  0.00     0.323 C 
ATOM     14  N   UNL     1       1.663   2.569  -6.178  1.00  0.00    -0.327 N 
ATOM     15  H   UNL     1       2.070   1.731  -5.762  1.00  0.00     0.347 HD
ATOM     16  H   UNL     1       1.891   2.549  -7.172  1.00  0.00     0.347 HD
BRANCH   9  17
ATOM     17  C   UNL     1      -0.659   5.725  -5.021  1.00  0.00     0.303 C 
BRANCH  17  18
ATOM     18  C   UNL     1      -0.483   5.090  -3.655  1.00  0.00     0.049 A 
ATOM     19  C   UNL     1       1.192   0.229   0.216  1.00  0.00     0.044 C 
ATOM     20  C   UNL     1       0.474   1.219  -0.651  1.00  0.00    -0.049 A 
ATOM     21  C   UNL     1      -0.649   0.843  -1.387  1.00  0.00     0.004 A 
ATOM     22  C   UNL     1       0.936   2.543  -0.743  1.00  0.00     0.032 A 
ATOM     23  C   UNL     1      -1.267   1.764  -2.229  1.00  0.00     0.010 A 
ATOM     24  C   UNL     1       0.364   3.469  -1.609  1.00  0.00     0.073 A 
ATOM     25  C   UNL     1      -0.745   3.062  -2.364  1.00  0.00     0.001 A 
ATOM     26  N   UNL     1       0.925   4.684  -1.757  1.00  0.00    -0.230 NA
ATOM     27  C   UNL     1      -1.214   3.935  -3.347  1.00  0.00     0.023 A 
ATOM     28  C   UNL     1       0.517   5.494  -2.762  1.00  0.00     0.138 A 
BRANCH  28  29
ATOM     29  N   UNL     1       1.191   6.690  -2.940  1.00  0.00    -0.352 N 
ATOM     30  C   UNL     1       0.432   7.942  -2.809  1.00  0.00     0.146 C 
ATOM     31  C   UNL     1       2.554   6.796  -2.407  1.00  0.00     0.146 C 
ATOM     32  C   UNL     1       1.205   9.046  -3.549  1.00  0.00     0.181 C 
ATOM     33  C   UNL     1       3.266   7.962  -3.119  1.00  0.00     0.181 C 
ATOM     34  O   UNL     1       2.532   9.196  -3.013  1.00  0.00    -0.378 OA
ENDBRANCH  28  29
ENDBRANCH  17  18
ENDBRANCH   9  17
ENDBRANCH   5   8
ENDBRANCH   3   4
ENDBRANCH   2   3
ENDBRANCH   1   2
BRANCH   1  35
ATOM     35  C   UNL     1      -1.148  -1.240 -10.296  1.00  0.00     0.002 C 
BRANCH  35  36
ATOM     36  C   UNL     1      -0.463  -0.795 -11.586  1.00  0.00     0.021 C 
BRANCH  36  37
ATOM     37  C   UNL     1       0.510  -1.808 -12.165  1.00  0.00     0.116 C 
BRANCH  37  38
ATOM     38  N   UNL     1      -0.140  -3.030 -12.609  1.00  0.00    -0.352 N 
ATOM     39  C   UNL     1       0.128  -3.757 -13.746  1.00  0.00     0.251 C 
ATOM     40  H   UNL     1      -0.856  -3.378 -12.029  1.00  0.00     0.163 HD
ATOM     41  O   UNL     1      -0.572  -4.708 -14.072  1.00  0.00    -0.269 OA
BRANCH  39  42
ATOM     42  C   UNL     1       1.257  -3.328 -14.596  1.00  0.00     0.039 A 
ATOM     43  C   UNL     1       2.512  -3.101 -14.025  1.00  0.00     0.014 A 
ATOM     44  C   UNL     1       1.024  -3.047 -15.943  1.00  0.00     0.014 A 
ATOM     45  C   UNL     1       3.484  -2.436 -14.761  1.00  0.00     0.010 A 
ATOM     46  C   UNL     1       2.033  -2.455 -16.704  1.00  0.00     0.010 A 
ATOM     47  C   UNL     1       3.252  -2.095 -16.105  1.00  0.00    -0.014 A 
BRANCH  47  48
ATOM     48  C   UNL     1       4.288  -1.342 -16.854  1.00  0.00     0.031 A 
ATOM     49  C   UNL     1       4.028   0.064 -17.326  1.00  0.00     0.074 A 
ATOM     50  C   UNL     1       5.493  -1.907 -17.054  1.00  0.00     0.049 A 
ATOM     51  N   UNL     1       4.821   0.876 -17.979  1.00  0.00    -0.248 NA
ATOM     52  C   UNL     1       2.704   0.632 -17.027  1.00  0.00     0.031 C 
ATOM     53  C   UNL     1       5.876  -3.252 -16.619  1.00  0.00     0.029 A 
ATOM     54  N   UNL     1       6.626  -1.411 -17.644  1.00  0.00    -0.354 N 
ATOM     55  C   UNL     1       4.089   2.040 -18.186  1.00  0.00     0.074 A 
ATOM     56  C   UNL     1       2.778   1.818 -17.615  1.00  0.00     0.031 C 
ATOM     57  C   UNL     1       7.171  -3.451 -16.903  1.00  0.00     0.029 A 
ATOM     58  C   UNL     1       7.690  -2.278 -17.596  1.00  0.00     0.049 A 
ATOM     59  H   UNL     1       6.673  -0.521 -18.062  1.00  0.00     0.167 HD
ATOM     60  C   UNL     1       4.477   3.191 -18.787  1.00  0.00     0.037 A 
ATOM     61  C   UNL     1       8.942  -2.146 -18.069  1.00  0.00     0.037 A 
ATOM     62  C   UNL     1       5.786   3.416 -19.344  1.00  0.00     0.049 A 
ATOM     63  C   UNL     1       9.322  -0.888 -18.793  1.00  0.00     0.074 A 
ATOM     64  C   UNL     1       6.280   4.552 -19.962  1.00  0.00     0.029 A 
ATOM     65  N   UNL     1       6.811   2.481 -19.351  1.00  0.00    -0.354 N 
ATOM     66  N   UNL     1       8.618   0.200 -18.986  1.00  0.00    -0.248 NA
ATOM     67  C   UNL     1      10.668  -0.851 -19.380  1.00  0.00     0.031 C 
ATOM     68  C   UNL     1       7.593   4.290 -20.376  1.00  0.00     0.029 A 
ATOM     69  C   UNL     1       7.928   3.006 -19.982  1.00  0.00     0.049 A 
ATOM     70  H   UNL     1       6.753   1.577 -18.965  1.00  0.00     0.167 HD
ATOM     71  C   UNL     1       9.439   1.058 -19.705  1.00  0.00     0.074 A 
ATOM     72  C   UNL     1      10.699   0.369 -19.896  1.00  0.00     0.031 C 
ATOM     73  C   UNL     1       9.171   2.303 -20.169  1.00  0.00     0.037 A 
BRANCH  60  74
ATOM     74  C   UNL     1       3.457   4.288 -18.889  1.00  0.00     0.057 A 
ATOM     75  C   UNL     1       2.879   4.613 -20.123  1.00  0.00     0.134 A 
ATOM     76  C   UNL     1       3.049   5.028 -17.771  1.00  0.00     0.134 A 
ATOM     77  F   UNL     1       3.228   3.949 -21.235  1.00  0.00    -0.206 F 
ATOM     78  C   UNL     1       1.929   5.630 -20.240  1.00  0.00     0.040 A 
ATOM     79  C   UNL     1       2.083   6.031 -17.872  1.00  0.00     0.040 A 
ATOM     80  F   UNL     1       3.552   4.758 -16.557  1.00  0.00    -0.206 F 
ATOM     81  C   UNL     1       1.522   6.336 -19.110  1.00  0.00     0.006 A 
ENDBRANCH  60  74
BRANCH  61  82
ATOM     82  C   UNL     1       9.926  -3.237 -17.873  1.00  0.00     0.057 A 
ATOM     83  C   UNL     1       9.806  -4.460 -18.544  1.00  0.00     0.134 A 
ATOM     84  C   UNL     1      11.011  -3.078 -17.005  1.00  0.00     0.134 A 
ATOM     85  F   UNL     1       8.785  -4.674 -19.386  1.00  0.00    -0.206 F 
ATOM     86  C   UNL     1      10.724  -5.492 -18.347  1.00  0.00     0.040 A 
ATOM     87  C   UNL     1      11.950  -4.093 -16.817  1.00  0.00     0.040 A 
ATOM     88  F   UNL     1      11.188  -1.921 -16.350  1.00  0.00    -0.206 F 
ATOM     89  C   UNL     1      11.803  -5.307 -17.485  1.00  0.00     0.006 A 
ENDBRANCH  61  82
BRANCH  73  90
ATOM     90  C   UNL     1      10.275   2.997 -20.909  1.00  0.00     0.057 A 
ATOM     91  C   UNL     1      10.985   4.046 -20.314  1.00  0.00     0.134 A 
ATOM     92  C   UNL     1      10.637   2.624 -22.210  1.00  0.00     0.134 A 
ATOM     93  F   UNL     1      10.685   4.453 -19.071  1.00  0.00    -0.206 F 
ATOM     94  C   UNL     1      12.019   4.699 -20.986  1.00  0.00     0.040 A 
ATOM     95  C   UNL     1      11.684   3.254 -22.883  1.00  0.00     0.040 A 
ATOM     96  F   UNL     1      10.007   1.612 -22.827  1.00  0.00    -0.206 F 
ATOM     97  C   UNL     1      12.376   4.298 -22.272  1.00  0.00     0.006 A 
ENDBRANCH  73  90
ENDBRANCH  47  48
ENDBRANCH  39  42
ENDBRANCH  37  38
ENDBRANCH  36  37
ENDBRANCH  35  36
ENDBRANCH   1  35
TORSDOF 16
