REMARK SMILES O=C(NCCCCCCNC(=O)c1ccc([C@@H]2CC(O)=Nc3c2ncn3-c2cccc(Cl)c2)cc1)c1ccc(-c2c3nc(c(-c4c(F)cccc4F)c4ccc([nH]4)c(-c4c(F)cccc4F)c4nc(c(-c5c(F)cccc5F)c5ccc2[nH]5)C=C4)C=C3)cc1
REMARK SMILES IDX 6 1 5 2 4 3 3 4 1 5 2 6 36 8 37 9 89 10 38 11 88 12 39 13
REMARK SMILES IDX 40 14 41 15 82 16 42 17 87 18 81 19 83 20 43 21 86 22 80 23
REMARK SMILES IDX 79 24 44 26 70 27 53 28 69 29 54 30 57 31 68 32 84 33 55 34
REMARK SMILES IDX 56 35 67 37 85 38 58 39 45 40 46 41 51 42 47 43 48 44 50 45
REMARK SMILES IDX 52 46 49 47 71 48 72 49 77 50 73 51 74 52 76 53 78 54 75 55
REMARK SMILES IDX 59 56 60 57 65 58 61 59 62 60 64 61 66 62 63 63 7 64 8 65
REMARK SMILES IDX 9 66 10 67 11 68 12 70 13 71 14 72 35 73 15 74 34 75 16 76
REMARK SMILES IDX 17 77 18 78 23 79 19 80 22 81 24 82 21 83 26 84 25 85 20 86
REMARK SMILES IDX 27 88 28 89 33 90 29 91 31 92 30 93 32 94
REMARK H PARENT 3 7 83 25 57 36 10 69 20 87
REMARK Flexibility Score: inf
ROOT
ATOM      1  C   UNL     1       4.217  -1.497   3.170  1.00  0.00     0.002 C 
ENDROOT
BRANCH   1   2
ATOM      2  C   UNL     1       4.744  -0.447   2.185  1.00  0.00     0.021 C 
BRANCH   2   3
ATOM      3  C   UNL     1       4.586  -0.816   0.712  1.00  0.00     0.116 C 
BRANCH   3   4
ATOM      4  N   UNL     1       3.218  -1.035   0.294  1.00  0.00    -0.352 N 
ATOM      5  O   UNL     1       1.171  -0.777  -0.505  1.00  0.00    -0.269 OA
ATOM      6  C   UNL     1       2.189  -0.221  -0.086  1.00  0.00     0.251 C 
ATOM      7  H   UNL     1       2.973  -1.988   0.280  1.00  0.00     0.163 HD
BRANCH   6   8
ATOM      8  C   UNL     1       2.186   1.258   0.051  1.00  0.00     0.039 A 
ATOM      9  C   UNL     1       3.312   2.076   0.161  1.00  0.00     0.014 A 
ATOM     10  C   UNL     1       0.912   1.856   0.075  1.00  0.00     0.014 A 
ATOM     11  C   UNL     1       3.168   3.442   0.391  1.00  0.00     0.010 A 
ATOM     12  C   UNL     1       0.762   3.218   0.288  1.00  0.00     0.010 A 
ATOM     13  C   UNL     1       1.893   4.005   0.484  1.00  0.00    -0.014 A 
BRANCH  13  14
ATOM     14  C   UNL     1       1.769   5.455   0.601  1.00  0.00     0.031 A 
ATOM     15  C   UNL     1       2.221   6.202  -0.611  1.00  0.00     0.074 A 
ATOM     16  C   UNL     1       1.135   6.062   1.626  1.00  0.00     0.049 A 
ATOM     17  N   UNL     1       3.167   7.079  -0.705  1.00  0.00    -0.248 NA
ATOM     18  C   UNL     1       1.621   5.837  -1.907  1.00  0.00     0.031 C 
ATOM     19  C   UNL     1       0.388   5.436   2.719  1.00  0.00     0.029 A 
ATOM     20  N   UNL     1       0.938   7.392   1.853  1.00  0.00    -0.354 N 
ATOM     21  C   UNL     1       3.158   7.516  -2.030  1.00  0.00     0.074 A 
ATOM     22  C   UNL     1       2.300   6.615  -2.751  1.00  0.00     0.031 C 
ATOM     23  C   UNL     1      -0.363   6.372   3.344  1.00  0.00     0.029 A 
ATOM     24  C   UNL     1      -0.054   7.677   2.786  1.00  0.00     0.049 A 
ATOM     25  H   UNL     1       1.454   8.093   1.393  1.00  0.00     0.167 HD
ATOM     26  C   UNL     1       3.682   8.721  -2.388  1.00  0.00     0.037 A 
ATOM     27  C   UNL     1      -0.617   8.890   3.032  1.00  0.00     0.037 A 
ATOM     28  C   UNL     1       4.557   9.235  -1.368  1.00  0.00     0.049 A 
ATOM     29  C   UNL     1       0.288   9.925   2.476  1.00  0.00     0.074 A 
ATOM     30  C   UNL     1       5.738   8.816  -0.791  1.00  0.00     0.029 A 
ATOM     31  N   UNL     1       4.056  10.204  -0.536  1.00  0.00    -0.354 N 
ATOM     32  N   UNL     1       1.462  10.203   2.966  1.00  0.00    -0.248 NA
ATOM     33  C   UNL     1       0.070  10.335   1.098  1.00  0.00     0.031 C 
ATOM     34  C   UNL     1       5.628   9.191   0.580  1.00  0.00     0.029 A 
ATOM     35  C   UNL     1       4.421   9.870   0.740  1.00  0.00     0.049 A 
ATOM     36  H   UNL     1       3.533  10.992  -0.807  1.00  0.00     0.167 HD
ATOM     37  C   UNL     1       2.265  10.402   1.853  1.00  0.00     0.074 A 
ATOM     38  C   UNL     1       1.336  10.551   0.734  1.00  0.00     0.031 C 
ATOM     39  C   UNL     1       3.603  10.139   1.898  1.00  0.00     0.037 A 
BRANCH  26  40
ATOM     40  C   UNL     1       3.115   9.615  -3.465  1.00  0.00     0.057 A 
ATOM     41  C   UNL     1       3.816  10.782  -3.827  1.00  0.00     0.134 A 
ATOM     42  C   UNL     1       1.784   9.552  -3.921  1.00  0.00     0.134 A 
ATOM     43  F   UNL     1       5.089  10.967  -3.446  1.00  0.00    -0.206 F 
ATOM     44  C   UNL     1       3.207  11.842  -4.511  1.00  0.00     0.040 A 
ATOM     45  C   UNL     1       1.182  10.583  -4.648  1.00  0.00     0.040 A 
ATOM     46  F   UNL     1       0.962   8.546  -3.600  1.00  0.00    -0.206 F 
ATOM     47  C   UNL     1       1.882  11.748  -4.915  1.00  0.00     0.006 A 
ENDBRANCH  26  40
BRANCH  27  48
ATOM     48  C   UNL     1      -2.014   9.211   3.416  1.00  0.00     0.057 A 
ATOM     49  C   UNL     1      -2.361  10.477   3.915  1.00  0.00     0.134 A 
ATOM     50  C   UNL     1      -3.086   8.389   3.029  1.00  0.00     0.134 A 
ATOM     51  F   UNL     1      -1.411  11.354   4.269  1.00  0.00    -0.206 F 
ATOM     52  C   UNL     1      -3.694  10.907   4.001  1.00  0.00     0.040 A 
ATOM     53  C   UNL     1      -4.420   8.804   3.115  1.00  0.00     0.040 A 
ATOM     54  F   UNL     1      -2.871   7.192   2.466  1.00  0.00    -0.206 F 
ATOM     55  C   UNL     1      -4.728  10.073   3.588  1.00  0.00     0.006 A 
ENDBRANCH  27  48
BRANCH  39  56
ATOM     56  C   UNL     1       4.225   9.876   3.240  1.00  0.00     0.057 A 
ATOM     57  C   UNL     1       3.901   8.786   4.062  1.00  0.00     0.134 A 
ATOM     58  C   UNL     1       5.303  10.672   3.641  1.00  0.00     0.134 A 
ATOM     59  F   UNL     1       2.950   7.910   3.712  1.00  0.00    -0.206 F 
ATOM     60  C   UNL     1       4.593   8.527   5.249  1.00  0.00     0.040 A 
ATOM     61  C   UNL     1       6.024  10.404   4.805  1.00  0.00     0.040 A 
ATOM     62  F   UNL     1       5.706  11.699   2.876  1.00  0.00    -0.206 F 
ATOM     63  C   UNL     1       5.664   9.334   5.620  1.00  0.00     0.006 A 
ENDBRANCH  39  56
ENDBRANCH  13  14
ENDBRANCH   6   8
ENDBRANCH   3   4
ENDBRANCH   2   3
ENDBRANCH   1   2
BRANCH   1  64
ATOM     64  C   UNL     1       4.734  -2.924   2.962  1.00  0.00     0.002 C 
BRANCH  64  65
ATOM     65  C   UNL     1       6.257  -3.076   2.939  1.00  0.00     0.021 C 
BRANCH  65  66
ATOM     66  C   UNL     1       6.965  -2.615   4.209  1.00  0.00     0.116 C 
BRANCH  66  67
ATOM     67  N   UNL     1       6.622  -3.440   5.357  1.00  0.00    -0.352 N 
ATOM     68  C   UNL     1       7.457  -4.151   6.178  1.00  0.00     0.251 C 
ATOM     69  H   UNL     1       5.663  -3.495   5.572  1.00  0.00     0.163 HD
ATOM     70  O   UNL     1       6.997  -4.951   6.998  1.00  0.00    -0.269 OA
BRANCH  68  71
ATOM     71  C   UNL     1       8.916  -3.971   6.069  1.00  0.00     0.039 A 
ATOM     72  C   UNL     1       9.727  -5.097   5.934  1.00  0.00     0.014 A 
ATOM     73  C   UNL     1       9.480  -2.691   6.093  1.00  0.00     0.014 A 
ATOM     74  C   UNL     1      11.101  -4.937   5.753  1.00  0.00     0.005 A 
ATOM     75  C   UNL     1      10.850  -2.532   5.895  1.00  0.00     0.005 A 
ATOM     76  C   UNL     1      11.678  -3.654   5.713  1.00  0.00    -0.038 A 
BRANCH  76  77
ATOM     77  C   UNL     1      13.180  -3.522   5.533  1.00  0.00     0.081 C 
ATOM     78  C   UNL     1      13.839  -2.774   6.714  1.00  0.00     0.111 C 
ATOM     79  C   UNL     1      13.405  -2.815   4.245  1.00  0.00     0.093 A 
ATOM     80  C   UNL     1      14.328  -1.371   6.393  1.00  0.00     0.188 C 
ATOM     81  C   UNL     1      14.070  -1.611   4.199  1.00  0.00     0.164 A 
ATOM     82  N   UNL     1      12.987  -3.208   3.001  1.00  0.00    -0.238 NA
ATOM     83  N   UNL     1      14.498  -0.840   5.226  1.00  0.00    -0.198 NA
ATOM     84  N   UNL     1      14.095  -1.258   2.865  1.00  0.00    -0.283 N 
ATOM     85  C   UNL     1      13.373  -2.230   2.203  1.00  0.00     0.206 A 
BRANCH  80  86
ATOM     86  O   UNL     1      14.658  -0.641   7.476  1.00  0.00    -0.496 OA
ATOM     87  H   UNL     1      14.546  -0.999   8.335  1.00  0.00     0.294 HD
ENDBRANCH  80  86
BRANCH  84  88
ATOM     88  C   UNL     1      14.735  -0.134   2.299  1.00  0.00     0.050 A 
ATOM     89  C   UNL     1      14.095   0.625   1.314  1.00  0.00     0.027 A 
ATOM     90  C   UNL     1      16.011   0.222   2.755  1.00  0.00     0.047 A 
ATOM     91  C   UNL     1      14.719   1.777   0.826  1.00  0.00     0.004 A 
ATOM     92  C   UNL     1      16.643   1.341   2.222  1.00  0.00     0.043 A 
ATOM     93  C   UNL     1      15.995   2.130   1.274  1.00  0.00     0.020 A 
ATOM     94  Cl  UNL     1      18.238   1.744   2.728  1.00  0.00    -0.084 Cl
ENDBRANCH  84  88
ENDBRANCH  76  77
ENDBRANCH  68  71
ENDBRANCH  66  67
ENDBRANCH  65  66
ENDBRANCH  64  65
ENDBRANCH   1  64
TORSDOF 16
