REMARK SMILES COC(=O)c1nccc(N2CCO[C@H](CC(=O)NCCCCCCNC(=O)c3ccc(-c4c5nc(c(-c6c(F)cccc6F)c6ccc([nH]6)c(-c6c(F)cccc6F)c6nc(c(-c7c(F)cccc7F)c7ccc4[nH]7)C=C6)C=C5)cc3)C2)n1
REMARK SMILES IDX 20 1 19 2 18 3 16 4 17 5 15 7 14 8 10 9 11 10 82 11 12 12
REMARK SMILES IDX 13 13 9 14 5 15 6 16 83 17 7 18 8 19 3 20 4 21 2 22 1 23
REMARK SMILES IDX 21 24 22 25 23 26 24 27 25 28 26 29 27 31 28 32 29 33 81 34
REMARK SMILES IDX 30 35 80 36 31 37 32 38 33 39 74 40 34 41 79 42 73 43 75 44
REMARK SMILES IDX 35 45 78 46 72 47 71 48 36 50 62 51 45 52 61 53 46 54 49 55
REMARK SMILES IDX 60 56 76 57 47 58 48 59 59 61 77 62 50 63 37 64 38 65 43 66
REMARK SMILES IDX 39 67 40 68 42 69 44 70 41 71 63 72 64 73 69 74 65 75 66 76
REMARK SMILES IDX 68 77 70 78 67 79 51 80 52 81 57 82 53 83 54 84 56 85 58 86
REMARK SMILES IDX 55 87
REMARK H PARENT 18 6 25 30 75 49 49 60
REMARK Flexibility Score: inf
ROOT
ATOM      1  C   UNL     1      -4.321   3.693  -0.026  1.00  0.00     0.021 C 
ENDROOT
BRANCH   1   2
ATOM      2  C   UNL     1      -4.119   5.181  -0.304  1.00  0.00     0.116 C 
BRANCH   2   3
ATOM      3  N   UNL     1      -3.028   5.465  -1.214  1.00  0.00    -0.356 N 
ATOM      4  C   UNL     1      -3.042   5.750  -2.544  1.00  0.00     0.222 C 
ATOM      5  O   UNL     1      -2.005   6.155  -3.070  1.00  0.00    -0.275 OA
ATOM      6  H   UNL     1      -2.133   5.449  -0.805  1.00  0.00     0.163 HD
BRANCH   4   7
ATOM      7  C   UNL     1      -4.312   5.611  -3.343  1.00  0.00     0.133 C 
BRANCH   7   8
ATOM      8  C   UNL     1      -4.740   4.184  -3.728  1.00  0.00     0.147 C 
ATOM      9  N   UNL     1      -2.692   3.049  -4.521  1.00  0.00    -0.352 N 
ATOM     10  C   UNL     1      -3.170   3.069  -5.897  1.00  0.00     0.146 C 
ATOM     11  C   UNL     1      -3.743   3.017  -3.512  1.00  0.00     0.150 C 
ATOM     12  C   UNL     1      -4.181   4.210  -6.074  1.00  0.00     0.182 C 
ATOM     13  O   UNL     1      -5.238   4.168  -5.093  1.00  0.00    -0.374 OA
BRANCH   9  14
ATOM     14  C   UNL     1      -1.390   3.213  -4.116  1.00  0.00     0.133 A 
ATOM     15  C   UNL     1       0.255   2.838  -2.545  1.00  0.00     0.241 A 
ATOM     16  N   UNL     1       1.142   3.671  -3.121  1.00  0.00    -0.231 NA
ATOM     17  N   UNL     1      -0.999   2.592  -2.986  1.00  0.00    -0.205 NA
ATOM     18  C   UNL     1       0.717   4.265  -4.242  1.00  0.00     0.117 A 
ATOM     19  C   UNL     1      -0.525   4.048  -4.797  1.00  0.00     0.067 A 
BRANCH  15  20
ATOM     20  C   UNL     1       0.718   2.143  -1.296  1.00  0.00     0.376 C 
ATOM     21  O   UNL     1       1.574   2.572  -0.534  1.00  0.00    -0.242 OA
BRANCH  20  22
ATOM     22  O   UNL     1       0.092   0.938  -1.163  1.00  0.00    -0.463 OA
ATOM     23  C   UNL     1       0.612   0.133  -0.103  1.00  0.00     0.282 C 
ENDBRANCH  20  22
ENDBRANCH  15  20
ENDBRANCH   9  14
ENDBRANCH   7   8
ENDBRANCH   4   7
ENDBRANCH   2   3
ENDBRANCH   1   2
BRANCH   1  24
ATOM     24  C   UNL     1      -3.048   2.921   0.351  1.00  0.00     0.002 C 
BRANCH  24  25
ATOM     25  C   UNL     1      -2.348   3.389   1.628  1.00  0.00     0.002 C 
BRANCH  25  26
ATOM     26  C   UNL     1      -3.244   3.471   2.863  1.00  0.00     0.021 C 
BRANCH  26  27
ATOM     27  C   UNL     1      -3.989   2.185   3.198  1.00  0.00     0.116 C 
BRANCH  27  28
ATOM     28  N   UNL     1      -3.103   1.140   3.684  1.00  0.00    -0.352 N 
ATOM     29  C   UNL     1      -3.178   0.438   4.863  1.00  0.00     0.251 C 
ATOM     30  H   UNL     1      -2.353   0.904   3.092  1.00  0.00     0.163 HD
ATOM     31  O   UNL     1      -2.268  -0.306   5.213  1.00  0.00    -0.269 OA
BRANCH  29  32
ATOM     32  C   UNL     1      -4.364   0.613   5.726  1.00  0.00     0.039 A 
ATOM     33  C   UNL     1      -4.183   0.963   7.066  1.00  0.00     0.014 A 
ATOM     34  C   UNL     1      -5.650   0.474   5.196  1.00  0.00     0.014 A 
ATOM     35  C   UNL     1      -5.296   1.248   7.859  1.00  0.00     0.010 A 
ATOM     36  C   UNL     1      -6.755   0.817   5.971  1.00  0.00     0.010 A 
ATOM     37  C   UNL     1      -6.587   1.214   7.307  1.00  0.00    -0.014 A 
BRANCH  37  38
ATOM     38  C   UNL     1      -7.776   1.610   8.102  1.00  0.00     0.031 A 
ATOM     39  C   UNL     1      -8.833   0.596   8.436  1.00  0.00     0.074 A 
ATOM     40  C   UNL     1      -7.942   2.899   8.457  1.00  0.00     0.049 A 
ATOM     41  N   UNL     1      -9.983   0.768   9.036  1.00  0.00    -0.248 NA
ATOM     42  C   UNL     1      -8.573  -0.790   8.017  1.00  0.00     0.031 C 
ATOM     43  C   UNL     1      -7.010   3.987   8.156  1.00  0.00     0.029 A 
ATOM     44  N   UNL     1      -8.965   3.516   9.134  1.00  0.00    -0.354 N 
ATOM     45  C   UNL     1     -10.589  -0.481   9.055  1.00  0.00     0.074 A 
ATOM     46  C   UNL     1      -9.700  -1.393   8.367  1.00  0.00     0.031 C 
ATOM     47  C   UNL     1      -7.497   5.134   8.657  1.00  0.00     0.029 A 
ATOM     48  C   UNL     1      -8.790   4.870   9.281  1.00  0.00     0.049 A 
ATOM     49  H   UNL     1      -9.749   3.033   9.481  1.00  0.00     0.167 HD
ATOM     50  C   UNL     1     -11.770  -0.840   9.612  1.00  0.00     0.037 A 
ATOM     51  C   UNL     1      -9.587   5.797   9.845  1.00  0.00     0.037 A 
ATOM     52  C   UNL     1     -12.642   0.061  10.317  1.00  0.00     0.049 A 
ATOM     53  C   UNL     1     -10.899   5.375  10.445  1.00  0.00     0.074 A 
ATOM     54  C   UNL     1     -13.828  -0.222  10.973  1.00  0.00     0.029 A 
ATOM     55  N   UNL     1     -12.424   1.424  10.456  1.00  0.00    -0.354 N 
ATOM     56  N   UNL     1     -11.430   4.179  10.511  1.00  0.00    -0.248 NA
ATOM     57  C   UNL     1     -11.721   6.432  11.051  1.00  0.00     0.031 C 
ATOM     58  C   UNL     1     -14.347   0.976  11.476  1.00  0.00     0.029 A 
ATOM     59  C   UNL     1     -13.465   1.998  11.167  1.00  0.00     0.049 A 
ATOM     60  H   UNL     1     -11.645   1.910  10.102  1.00  0.00     0.167 HD
ATOM     61  C   UNL     1     -12.636   4.335  11.181  1.00  0.00     0.074 A 
ATOM     62  C   UNL     1     -12.751   5.739  11.515  1.00  0.00     0.031 C 
ATOM     63  C   UNL     1     -13.566   3.398  11.490  1.00  0.00     0.037 A 
BRANCH  50  64
ATOM     64  C   UNL     1     -12.187  -2.275   9.481  1.00  0.00     0.057 A 
ATOM     65  C   UNL     1     -11.550  -3.295  10.200  1.00  0.00     0.134 A 
ATOM     66  C   UNL     1     -13.258  -2.637   8.656  1.00  0.00     0.134 A 
ATOM     67  F   UNL     1     -10.508  -3.016  10.998  1.00  0.00    -0.206 F 
ATOM     68  C   UNL     1     -11.948  -4.628  10.083  1.00  0.00     0.040 A 
ATOM     69  C   UNL     1     -13.682  -3.963   8.550  1.00  0.00     0.040 A 
ATOM     70  F   UNL     1     -13.915  -1.708   7.944  1.00  0.00    -0.206 F 
ATOM     71  C   UNL     1     -13.022  -4.964   9.261  1.00  0.00     0.006 A 
ENDBRANCH  50  64
BRANCH  51  72
ATOM     72  C   UNL     1      -9.164   7.219   9.878  1.00  0.00     0.057 A 
ATOM     73  C   UNL     1      -8.782   7.828  11.079  1.00  0.00     0.134 A 
ATOM     74  C   UNL     1      -9.139   8.003   8.719  1.00  0.00     0.134 A 
ATOM     75  F   UNL     1      -8.807   7.133  12.225  1.00  0.00    -0.206 F 
ATOM     76  C   UNL     1      -8.406   9.171  11.129  1.00  0.00     0.040 A 
ATOM     77  C   UNL     1      -8.742   9.341   8.751  1.00  0.00     0.040 A 
ATOM     78  F   UNL     1      -9.488   7.475   7.536  1.00  0.00    -0.206 F 
ATOM     79  C   UNL     1      -8.381   9.930   9.961  1.00  0.00     0.006 A 
ENDBRANCH  51  72
BRANCH  63  80
ATOM     80  C   UNL     1     -14.777   3.860  12.244  1.00  0.00     0.057 A 
ATOM     81  C   UNL     1     -15.792   4.600  11.624  1.00  0.00     0.134 A 
ATOM     82  C   UNL     1     -14.947   3.531  13.595  1.00  0.00     0.134 A 
ATOM     83  F   UNL     1     -15.681   4.959  10.336  1.00  0.00    -0.206 F 
ATOM     84  C   UNL     1     -16.924   5.013  12.326  1.00  0.00     0.040 A 
ATOM     85  C   UNL     1     -16.086   3.919  14.301  1.00  0.00     0.040 A 
ATOM     86  F   UNL     1     -14.015   2.819  14.245  1.00  0.00    -0.206 F 
ATOM     87  C   UNL     1     -17.077   4.667  13.668  1.00  0.00     0.006 A 
ENDBRANCH  63  80
ENDBRANCH  37  38
ENDBRANCH  29  32
ENDBRANCH  27  28
ENDBRANCH  26  27
ENDBRANCH  25  26
ENDBRANCH  24  25
ENDBRANCH   1  24
TORSDOF 17
