REMARK SMILES O=C(NCCCCCCNC(=O)c1ccc(-c2c3nc(c(-c4c(F)cccc4F)c4ccc([nH]4)c(-c4c(F)cccc4F)c4nc(c(-c5c(F)cccc5F)c5ccc2[nH]5)C=C4)C=C3)cc1)c1ccc(NC(=O)[C@H]2CCS(=O)(=O)C2)cc1
REMARK SMILES IDX 6 1 5 2 4 3 3 4 1 5 2 6 67 8 68 9 82 10 69 11 81 12 70 13
REMARK SMILES IDX 71 14 72 15 73 17 74 18 75 19 80 20 76 21 77 22 78 23 79 24
REMARK SMILES IDX 7 25 8 26 9 27 10 28 11 29 12 31 13 32 14 33 66 34 15 35
REMARK SMILES IDX 65 36 16 37 17 38 18 39 59 40 19 41 64 42 58 43 60 44 20 45
REMARK SMILES IDX 63 46 57 47 56 48 21 50 47 51 30 52 46 53 31 54 34 55 45 56
REMARK SMILES IDX 61 57 32 58 33 59 44 61 62 62 35 63 22 64 23 65 28 66 24 67
REMARK SMILES IDX 25 68 27 69 29 70 26 71 48 72 49 73 54 74 50 75 51 76 53 77
REMARK SMILES IDX 55 78 52 79 36 80 37 81 42 82 38 83 39 84 41 85 43 86 40 87
REMARK H PARENT 3 7 71 16 10 30 60 49 34 60
REMARK Flexibility Score: inf
ROOT
ATOM      1  C   UNL     1       1.715  10.450   1.328  1.00  0.00     0.002 C 
ENDROOT
BRANCH   1   2
ATOM      2  C   UNL     1       2.978   9.760   1.827  1.00  0.00     0.021 C 
BRANCH   2   3
ATOM      3  C   UNL     1       3.423   8.579   0.986  1.00  0.00     0.116 C 
BRANCH   3   4
ATOM      4  N   UNL     1       3.892   8.943  -0.345  1.00  0.00    -0.352 N 
ATOM      5  O   UNL     1       5.360   9.107  -2.064  1.00  0.00    -0.269 OA
ATOM      6  C   UNL     1       5.073   8.611  -0.980  1.00  0.00     0.251 C 
ATOM      7  H   UNL     1       3.277   9.507  -0.868  1.00  0.00     0.163 HD
BRANCH   6   8
ATOM      8  C   UNL     1       6.008   7.666  -0.328  1.00  0.00     0.039 A 
ATOM      9  C   UNL     1       5.500   6.588   0.386  1.00  0.00     0.016 A 
ATOM     10  C   UNL     1       7.385   7.900  -0.330  1.00  0.00     0.016 A 
ATOM     11  C   UNL     1       6.321   5.921   1.274  1.00  0.00     0.027 A 
ATOM     12  C   UNL     1       8.230   7.051   0.403  1.00  0.00     0.027 A 
ATOM     13  C   UNL     1       7.688   6.024   1.187  1.00  0.00     0.041 A 
BRANCH  13  14
ATOM     14  N   UNL     1       8.528   5.157   1.881  1.00  0.00    -0.326 N 
ATOM     15  C   UNL     1       8.376   3.938   2.459  1.00  0.00     0.228 C 
ATOM     16  H   UNL     1       9.443   5.508   1.974  1.00  0.00     0.169 HD
ATOM     17  O   UNL     1       9.369   3.568   3.109  1.00  0.00    -0.274 OA
BRANCH  15  18
ATOM     18  C   UNL     1       7.168   2.971   2.411  1.00  0.00     0.095 C 
ATOM     19  C   UNL     1       6.025   3.002   1.383  1.00  0.00     0.030 C 
ATOM     20  C   UNL     1       7.795   1.577   2.180  1.00  0.00     0.150 C 
ATOM     21  C   UNL     1       5.269   1.680   1.441  1.00  0.00     0.138 C 
ATOM     22  S   UNL     1       6.461   0.452   1.865  1.00  0.00     0.151 S 
ATOM     23  O   UNL     1       6.054  -0.153   3.118  1.00  0.00    -0.229 OA
ATOM     24  O   UNL     1       6.760  -0.323   0.683  1.00  0.00    -0.229 OA
ENDBRANCH  15  18
ENDBRANCH  13  14
ENDBRANCH   6   8
ENDBRANCH   3   4
ENDBRANCH   2   3
ENDBRANCH   1   2
BRANCH   1  25
ATOM     25  C   UNL     1       0.495   9.539   1.163  1.00  0.00     0.002 C 
BRANCH  25  26
ATOM     26  C   UNL     1       0.109   8.717   2.396  1.00  0.00     0.021 C 
BRANCH  26  27
ATOM     27  C   UNL     1      -0.101   9.525   3.671  1.00  0.00     0.116 C 
BRANCH  27  28
ATOM     28  N   UNL     1      -1.150  10.519   3.528  1.00  0.00    -0.352 N 
ATOM     29  C   UNL     1      -2.258  10.738   4.306  1.00  0.00     0.251 C 
ATOM     30  H   UNL     1      -1.052  11.126   2.759  1.00  0.00     0.163 HD
ATOM     31  O   UNL     1      -3.134  11.509   3.928  1.00  0.00    -0.269 OA
BRANCH  29  32
ATOM     32  C   UNL     1      -2.409  10.026   5.593  1.00  0.00     0.039 A 
ATOM     33  C   UNL     1      -3.652   9.476   5.916  1.00  0.00     0.014 A 
ATOM     34  C   UNL     1      -1.335   9.905   6.480  1.00  0.00     0.014 A 
ATOM     35  C   UNL     1      -3.801   8.753   7.101  1.00  0.00     0.010 A 
ATOM     36  C   UNL     1      -1.464   9.118   7.620  1.00  0.00     0.010 A 
ATOM     37  C   UNL     1      -2.699   8.537   7.946  1.00  0.00    -0.014 A 
BRANCH  37  38
ATOM     38  C   UNL     1      -2.821   7.703   9.168  1.00  0.00     0.031 A 
ATOM     39  C   UNL     1      -2.594   8.308  10.526  1.00  0.00     0.074 A 
ATOM     40  C   UNL     1      -3.079   6.386   9.052  1.00  0.00     0.049 A 
ATOM     41  N   UNL     1      -2.607   7.731  11.701  1.00  0.00    -0.248 NA
ATOM     42  C   UNL     1      -2.287   9.746  10.568  1.00  0.00     0.031 C 
ATOM     43  C   UNL     1      -3.279   5.671   7.789  1.00  0.00     0.029 A 
ATOM     44  N   UNL     1      -3.210   5.411  10.008  1.00  0.00    -0.354 N 
ATOM     45  C   UNL     1      -2.295   8.728  12.616  1.00  0.00     0.074 A 
ATOM     46  C   UNL     1      -2.045   9.934  11.857  1.00  0.00     0.031 C 
ATOM     47  C   UNL     1      -3.541   4.380   8.052  1.00  0.00     0.029 A 
ATOM     48  C   UNL     1      -3.482   4.166   9.494  1.00  0.00     0.049 A 
ATOM     49  H   UNL     1      -3.119   5.587  10.973  1.00  0.00     0.167 HD
ATOM     50  C   UNL     1      -2.241   8.652  13.968  1.00  0.00     0.037 A 
ATOM     51  C   UNL     1      -3.656   2.983  10.114  1.00  0.00     0.037 A 
ATOM     52  C   UNL     1      -2.510   7.454  14.720  1.00  0.00     0.049 A 
ATOM     53  C   UNL     1      -3.565   2.921  11.614  1.00  0.00     0.074 A 
ATOM     54  C   UNL     1      -2.549   7.290  16.094  1.00  0.00     0.029 A 
ATOM     55  N   UNL     1      -2.776   6.212  14.162  1.00  0.00    -0.354 N 
ATOM     56  N   UNL     1      -3.347   3.888  12.471  1.00  0.00    -0.248 NA
ATOM     57  C   UNL     1      -3.749   1.600  12.232  1.00  0.00     0.031 C 
ATOM     58  C   UNL     1      -2.775   5.938  16.367  1.00  0.00     0.029 A 
ATOM     59  C   UNL     1      -2.944   5.270  15.165  1.00  0.00     0.049 A 
ATOM     60  H   UNL     1      -2.837   6.027  13.197  1.00  0.00     0.167 HD
ATOM     61  C   UNL     1      -3.402   3.301  13.729  1.00  0.00     0.074 A 
ATOM     62  C   UNL     1      -3.687   1.897  13.523  1.00  0.00     0.031 C 
ATOM     63  C   UNL     1      -3.235   3.875  14.947  1.00  0.00     0.037 A 
BRANCH  50  64
ATOM     64  C   UNL     1      -1.866   9.897  14.721  1.00  0.00     0.057 A 
ATOM     65  C   UNL     1      -2.710  11.014  14.780  1.00  0.00     0.134 A 
ATOM     66  C   UNL     1      -0.656   9.967  15.424  1.00  0.00     0.134 A 
ATOM     67  F   UNL     1      -3.879  11.020  14.122  1.00  0.00    -0.206 F 
ATOM     68  C   UNL     1      -2.351  12.165  15.484  1.00  0.00     0.040 A 
ATOM     69  C   UNL     1      -0.301  11.100  16.158  1.00  0.00     0.040 A 
ATOM     70  F   UNL     1       0.197   8.932  15.418  1.00  0.00    -0.206 F 
ATOM     71  C   UNL     1      -1.146  12.207  16.182  1.00  0.00     0.006 A 
ENDBRANCH  50  64
BRANCH  51  72
ATOM     72  C   UNL     1      -3.959   1.763   9.323  1.00  0.00     0.057 A 
ATOM     73  C   UNL     1      -5.211   1.142   9.409  1.00  0.00     0.134 A 
ATOM     74  C   UNL     1      -3.008   1.179   8.478  1.00  0.00     0.134 A 
ATOM     75  F   UNL     1      -6.159   1.643  10.214  1.00  0.00    -0.206 F 
ATOM     76  C   UNL     1      -5.499  -0.028   8.704  1.00  0.00     0.040 A 
ATOM     77  C   UNL     1      -3.291   0.025   7.745  1.00  0.00     0.040 A 
ATOM     78  F   UNL     1      -1.792   1.729   8.343  1.00  0.00    -0.206 F 
ATOM     79  C   UNL     1      -4.537  -0.587   7.864  1.00  0.00     0.006 A 
ENDBRANCH  51  72
BRANCH  63  80
ATOM     80  C   UNL     1      -3.399   2.994  16.152  1.00  0.00     0.057 A 
ATOM     81  C   UNL     1      -2.466   2.004  16.485  1.00  0.00     0.134 A 
ATOM     82  C   UNL     1      -4.490   3.167  17.015  1.00  0.00     0.134 A 
ATOM     83  F   UNL     1      -1.405   1.777  15.695  1.00  0.00    -0.206 F 
ATOM     84  C   UNL     1      -2.626   1.200  17.615  1.00  0.00     0.040 A 
ATOM     85  C   UNL     1      -4.644   2.392  18.164  1.00  0.00     0.040 A 
ATOM     86  F   UNL     1      -5.417   4.104  16.762  1.00  0.00    -0.206 F 
ATOM     87  C   UNL     1      -3.714   1.399  18.463  1.00  0.00     0.006 A 
ENDBRANCH  63  80
ENDBRANCH  37  38
ENDBRANCH  29  32
ENDBRANCH  27  28
ENDBRANCH  26  27
ENDBRANCH  25  26
ENDBRANCH   1  25
TORSDOF 15
