REMARK SMILES O=C(NCCCCCCNC(=O)c1cnc2c(C(F)(F)F)cccc2c1Nc1cccc(O)c1)c1ccc(-c2c3nc(c(-c4c(F)cccc4F)c4ccc([nH]4)c(-c4c(F)cccc4F)c4nc(c(-c5c(F)cccc5F)c5ccc2[nH]5)C=C4)C=C3)cc1
REMARK SMILES IDX 7 1 6 2 5 3 4 4 3 5 1 6 2 7 35 9 36 10 88 11 37 12 87 13
REMARK SMILES IDX 38 14 39 15 40 16 81 17 41 18 86 19 80 20 82 21 42 22 85 23
REMARK SMILES IDX 79 24 78 25 43 27 69 28 52 29 68 30 53 31 56 32 67 33 83 34
REMARK SMILES IDX 54 35 55 36 66 38 84 39 57 40 44 41 45 42 50 43 46 44 47 45
REMARK SMILES IDX 49 46 51 47 48 48 70 49 71 50 76 51 72 52 73 53 75 54 77 55
REMARK SMILES IDX 74 56 58 57 59 58 64 59 60 60 61 61 63 62 65 63 62 64 8 65
REMARK SMILES IDX 9 66 10 67 11 68 12 70 13 71 14 72 26 73 15 74 25 75 16 76
REMARK SMILES IDX 24 77 17 78 23 79 22 80 27 81 28 83 29 84 34 85 30 86 32 87
REMARK SMILES IDX 31 88 33 89 18 91 19 92 20 93 21 94
REMARK H PARENT 3 8 82 26 56 37 10 69 27 82 33 90
REMARK Flexibility Score: inf
ROOT
ATOM      1  C   UNL     1       4.887   4.276  -0.704  1.00  0.00     0.002 C 
ENDROOT
BRANCH   1   2
ATOM      2  C   UNL     1       4.332   3.359  -1.798  1.00  0.00     0.002 C 
BRANCH   2   3
ATOM      3  C   UNL     1       4.789   1.904  -1.726  1.00  0.00     0.021 C 
BRANCH   3   4
ATOM      4  C   UNL     1       4.513   1.214  -0.399  1.00  0.00     0.116 C 
BRANCH   4   5
ATOM      5  N   UNL     1       3.091   1.060  -0.134  1.00  0.00    -0.352 N 
ATOM      6  O   UNL     1       1.150  -0.060   0.152  1.00  0.00    -0.269 OA
ATOM      7  C   UNL     1       2.377  -0.088   0.111  1.00  0.00     0.251 C 
ATOM      8  H   UNL     1       2.568   1.893  -0.129  1.00  0.00     0.163 HD
BRANCH   7   9
ATOM      9  C   UNL     1       3.095  -1.365   0.304  1.00  0.00     0.039 A 
ATOM     10  C   UNL     1       4.230  -1.421   1.115  1.00  0.00     0.014 A 
ATOM     11  C   UNL     1       2.630  -2.518  -0.335  1.00  0.00     0.014 A 
ATOM     12  C   UNL     1       4.983  -2.586   1.169  1.00  0.00     0.010 A 
ATOM     13  C   UNL     1       3.333  -3.718  -0.196  1.00  0.00     0.010 A 
ATOM     14  C   UNL     1       4.529  -3.756   0.538  1.00  0.00    -0.014 A 
BRANCH  14  15
ATOM     15  C   UNL     1       5.278  -5.022   0.743  1.00  0.00     0.031 A 
ATOM     16  C   UNL     1       5.932  -5.744  -0.400  1.00  0.00     0.074 A 
ATOM     17  C   UNL     1       5.379  -5.504   1.998  1.00  0.00     0.049 A 
ATOM     18  N   UNL     1       6.631  -6.851  -0.379  1.00  0.00    -0.248 NA
ATOM     19  C   UNL     1       5.780  -5.156  -1.739  1.00  0.00     0.031 C 
ATOM     20  C   UNL     1       4.772  -4.894   3.185  1.00  0.00     0.029 A 
ATOM     21  N   UNL     1       6.036  -6.601   2.490  1.00  0.00    -0.354 N 
ATOM     22  C   UNL     1       6.990  -7.102  -1.697  1.00  0.00     0.074 A 
ATOM     23  C   UNL     1       6.407  -6.046  -2.498  1.00  0.00     0.031 C 
ATOM     24  C   UNL     1       5.124  -5.596   4.270  1.00  0.00     0.029 A 
ATOM     25  C   UNL     1       5.915  -6.745   3.850  1.00  0.00     0.049 A 
ATOM     26  H   UNL     1       6.545  -7.225   1.923  1.00  0.00     0.167 HD
ATOM     27  C   UNL     1       7.743  -8.116  -2.188  1.00  0.00     0.037 A 
ATOM     28  C   UNL     1       6.369  -7.709   4.671  1.00  0.00     0.037 A 
ATOM     29  C   UNL     1       8.321  -9.162  -1.381  1.00  0.00     0.049 A 
ATOM     30  C   UNL     1       7.162  -8.843   4.091  1.00  0.00     0.074 A 
ATOM     31  C   UNL     1       9.127 -10.214  -1.781  1.00  0.00     0.029 A 
ATOM     32  N   UNL     1       8.147  -9.294  -0.010  1.00  0.00    -0.354 N 
ATOM     33  N   UNL     1       7.528  -9.043   2.849  1.00  0.00    -0.248 NA
ATOM     34  C   UNL     1       7.601  -9.886   5.026  1.00  0.00     0.031 C 
ATOM     35  C   UNL     1       9.392 -11.014  -0.665  1.00  0.00     0.029 A 
ATOM     36  C   UNL     1       8.805 -10.427   0.444  1.00  0.00     0.049 A 
ATOM     37  H   UNL     1       7.633  -8.675   0.556  1.00  0.00     0.167 HD
ATOM     38  C   UNL     1       8.260 -10.222   2.855  1.00  0.00     0.074 A 
ATOM     39  C   UNL     1       8.304 -10.678   4.229  1.00  0.00     0.031 C 
ATOM     40  C   UNL     1       8.841 -10.870   1.816  1.00  0.00     0.037 A 
BRANCH  27  41
ATOM     41  C   UNL     1       7.973  -8.162  -3.673  1.00  0.00     0.057 A 
ATOM     42  C   UNL     1       8.794  -7.235  -4.328  1.00  0.00     0.134 A 
ATOM     43  C   UNL     1       7.409  -9.183  -4.451  1.00  0.00     0.134 A 
ATOM     44  F   UNL     1       9.360  -6.227  -3.647  1.00  0.00    -0.206 F 
ATOM     45  C   UNL     1       9.029  -7.309  -5.703  1.00  0.00     0.040 A 
ATOM     46  C   UNL     1       7.659  -9.283  -5.821  1.00  0.00     0.040 A 
ATOM     47  F   UNL     1       6.620 -10.111  -3.889  1.00  0.00    -0.206 F 
ATOM     48  C   UNL     1       8.467  -8.340  -6.452  1.00  0.00     0.006 A 
ENDBRANCH  27  41
BRANCH  28  49
ATOM     49  C   UNL     1       6.065  -7.649   6.123  1.00  0.00     0.057 A 
ATOM     50  C   UNL     1       7.076  -7.443   7.068  1.00  0.00     0.134 A 
ATOM     51  C   UNL     1       4.756  -7.794   6.600  1.00  0.00     0.134 A 
ATOM     52  F   UNL     1       8.352  -7.311   6.675  1.00  0.00    -0.206 F 
ATOM     53  C   UNL     1       6.801  -7.406   8.436  1.00  0.00     0.040 A 
ATOM     54  C   UNL     1       4.462  -7.726   7.962  1.00  0.00     0.040 A 
ATOM     55  F   UNL     1       3.740  -7.982   5.745  1.00  0.00    -0.206 F 
ATOM     56  C   UNL     1       5.488  -7.541   8.885  1.00  0.00     0.006 A 
ENDBRANCH  28  49
BRANCH  40  57
ATOM     57  C   UNL     1       9.604 -12.123   2.135  1.00  0.00     0.057 A 
ATOM     58  C   UNL     1       8.961 -13.303   2.529  1.00  0.00     0.134 A 
ATOM     59  C   UNL     1      11.000 -12.152   2.030  1.00  0.00     0.134 A 
ATOM     60  F   UNL     1       7.626 -13.338   2.666  1.00  0.00    -0.206 F 
ATOM     61  C   UNL     1       9.681 -14.459   2.835  1.00  0.00     0.040 A 
ATOM     62  C   UNL     1      11.729 -13.310   2.302  1.00  0.00     0.040 A 
ATOM     63  F   UNL     1      11.679 -11.058   1.651  1.00  0.00    -0.206 F 
ATOM     64  C   UNL     1      11.069 -14.466   2.714  1.00  0.00     0.006 A 
ENDBRANCH  40  57
ENDBRANCH  14  15
ENDBRANCH   7   9
ENDBRANCH   4   5
ENDBRANCH   3   4
ENDBRANCH   2   3
ENDBRANCH   1   2
BRANCH   1  65
ATOM     65  C   UNL     1       6.410   4.272  -0.546  1.00  0.00     0.021 C 
BRANCH  65  66
ATOM     66  C   UNL     1       7.203   4.550  -1.819  1.00  0.00     0.116 C 
BRANCH  66  67
ATOM     67  N   UNL     1       6.844   5.803  -2.462  1.00  0.00    -0.352 N 
ATOM     68  C   UNL     1       7.662   6.830  -2.876  1.00  0.00     0.254 C 
ATOM     69  H   UNL     1       5.882   5.935  -2.626  1.00  0.00     0.163 HD
ATOM     70  O   UNL     1       7.213   7.761  -3.535  1.00  0.00    -0.269 OA
BRANCH  68  71
ATOM     71  C   UNL     1       9.102   6.740  -2.600  1.00  0.00     0.082 A 
ATOM     72  C   UNL     1       9.761   5.767  -3.330  1.00  0.00     0.127 A 
ATOM     73  C   UNL     1       9.848   7.580  -1.758  1.00  0.00     0.062 A 
ATOM     74  N   UNL     1      11.072   5.492  -3.215  1.00  0.00    -0.255 NA
ATOM     75  C   UNL     1      11.257   7.313  -1.640  1.00  0.00     0.025 A 
ATOM     76  C   UNL     1      11.811   6.238  -2.389  1.00  0.00     0.085 A 
ATOM     77  C   UNL     1      12.136   8.056  -0.812  1.00  0.00     0.012 A 
ATOM     78  C   UNL     1      13.165   5.934  -2.280  1.00  0.00     0.082 A 
ATOM     79  C   UNL     1      13.497   7.768  -0.739  1.00  0.00     0.001 A 
ATOM     80  C   UNL     1      14.010   6.706  -1.467  1.00  0.00     0.015 A 
BRANCH  73  81
ATOM     81  N   UNL     1       9.294   8.647  -0.990  1.00  0.00    -0.354 N 
ATOM     82  H   UNL     1       9.959   9.224  -0.549  1.00  0.00     0.167 HD
BRANCH  81  83
ATOM     83  C   UNL     1       7.954   9.012  -0.757  1.00  0.00     0.042 A 
ATOM     84  C   UNL     1       7.046   8.141  -0.147  1.00  0.00     0.026 A 
ATOM     85  C   UNL     1       7.483  10.236  -1.248  1.00  0.00     0.072 A 
ATOM     86  C   UNL     1       5.685   8.458  -0.077  1.00  0.00     0.006 A 
ATOM     87  C   UNL     1       6.127  10.543  -1.183  1.00  0.00     0.117 A 
ATOM     88  C   UNL     1       5.220   9.659  -0.611  1.00  0.00     0.046 A 
BRANCH  87  89
ATOM     89  O   UNL     1       5.720  11.728  -1.725  1.00  0.00    -0.508 OA
ATOM     90  H   UNL     1       4.815  11.968  -1.699  1.00  0.00     0.293 HD
ENDBRANCH  87  89
ENDBRANCH  81  83
ENDBRANCH  73  81
BRANCH  78  91
ATOM     91  C   UNL     1      13.710   4.743  -3.025  1.00  0.00     0.418 C 
ATOM     92  F   UNL     1      13.162   3.560  -2.623  1.00  0.00    -0.166 F 
ATOM     93  F   UNL     1      13.550   4.809  -4.376  1.00  0.00    -0.166 F 
ATOM     94  F   UNL     1      15.057   4.582  -2.840  1.00  0.00    -0.166 F 
ENDBRANCH  78  91
ENDBRANCH  68  71
ENDBRANCH  66  67
ENDBRANCH  65  66
ENDBRANCH   1  65
TORSDOF 17
