REMARK SMILES Cc1nsc(NC(=O)c2ccc(N)cc2)c1C(=O)NCCCCCCNC(=O)c1ccc(-c2c3nc(c(-c4c(F)cccc4F)c4ccc([nH]4)c(-c4c(F)cccc4F)c4nc(c(-c5c(F)cccc5F)c5ccc2[nH]5)C=C4)C=C3)cc1
REMARK SMILES IDX 22 1 21 2 20 3 19 4 17 5 18 6 16 8 1 9 2 10 3 11 4 12 5 13
REMARK SMILES IDX 6 14 7 15 8 17 9 18 10 19 15 20 11 21 14 22 12 23 13 24
REMARK SMILES IDX 23 27 24 28 25 29 26 30 27 31 28 33 29 34 30 35 82 36 31 37
REMARK SMILES IDX 81 38 32 39 33 40 34 41 75 42 35 43 80 44 74 45 76 46 36 47
REMARK SMILES IDX 79 48 73 49 72 50 37 52 63 53 46 54 62 55 47 56 50 57 61 58
REMARK SMILES IDX 77 59 48 60 49 61 60 63 78 64 51 65 38 66 39 67 44 68 40 69
REMARK SMILES IDX 41 70 43 71 45 72 42 73 64 74 65 75 70 76 66 77 67 78 69 79
REMARK SMILES IDX 71 80 68 81 52 82 53 83 58 84 54 85 55 86 57 87 59 88 56 89
REMARK H PARENT 19 7 6 16 13 25 13 26 26 32 76 51 50 62
REMARK Flexibility Score: inf
ROOT
ATOM      1  C   UNL     1       3.409   2.382   2.967  1.00  0.00     0.002 C 
ENDROOT
BRANCH   1   2
ATOM      2  C   UNL     1       3.202   1.498   1.744  1.00  0.00     0.021 C 
BRANCH   2   3
ATOM      3  C   UNL     1       1.819   1.494   1.118  1.00  0.00     0.116 C 
BRANCH   3   4
ATOM      4  N   UNL     1       1.455   2.645   0.343  1.00  0.00    -0.352 N 
ATOM      5  C   UNL     1       0.878   2.745  -0.900  1.00  0.00     0.256 C 
ATOM      6  O   UNL     1       0.579   3.895  -1.240  1.00  0.00    -0.269 OA
ATOM      7  H   UNL     1       1.652   3.508   0.774  1.00  0.00     0.163 HD
BRANCH   5   8
ATOM      8  C   UNL     1       0.728   1.624  -1.846  1.00  0.00     0.097 A 
ATOM      9  C   UNL     1       0.300  -0.694  -0.531  1.00  0.00     0.069 C 
ATOM     10  C   UNL     1       0.589   0.170  -1.715  1.00  0.00     0.066 A 
ATOM     11  N   UNL     1       0.719  -0.530  -2.845  1.00  0.00    -0.195 NA
ATOM     12  S   UNL     1       0.850   0.502  -4.105  1.00  0.00    -0.017 S 
ATOM     13  C   UNL     1       0.563   1.915  -3.208  1.00  0.00     0.129 A 
BRANCH  13  14
ATOM     14  N   UNL     1       0.344   3.149  -3.807  1.00  0.00    -0.312 N 
ATOM     15  C   UNL     1      -0.123   3.466  -5.068  1.00  0.00     0.256 C 
ATOM     16  H   UNL     1       0.556   3.925  -3.240  1.00  0.00     0.171 HD
ATOM     17  O   UNL     1      -0.087   4.623  -5.481  1.00  0.00    -0.269 OA
BRANCH  15  18
ATOM     18  C   UNL     1      -0.736   2.437  -5.928  1.00  0.00     0.040 A 
ATOM     19  C   UNL     1      -1.848   1.711  -5.487  1.00  0.00     0.016 A 
ATOM     20  C   UNL     1      -0.129   2.135  -7.147  1.00  0.00     0.016 A 
ATOM     21  C   UNL     1      -2.258   0.587  -6.207  1.00  0.00     0.026 A 
ATOM     22  C   UNL     1      -0.556   1.013  -7.861  1.00  0.00     0.026 A 
ATOM     23  C   UNL     1      -1.573   0.192  -7.361  1.00  0.00     0.031 A 
BRANCH  23  24
ATOM     24  N   UNL     1      -1.970  -0.937  -8.059  1.00  0.00    -0.399 N 
ATOM     25  H   UNL     1      -2.686  -1.511  -7.702  1.00  0.00     0.156 HD
ATOM     26  H   UNL     1      -1.536  -1.166  -8.913  1.00  0.00     0.156 HD
ENDBRANCH  23  24
ENDBRANCH  15  18
ENDBRANCH  13  14
ENDBRANCH   5   8
ENDBRANCH   3   4
ENDBRANCH   2   3
ENDBRANCH   1   2
BRANCH   1  27
ATOM     27  C   UNL     1       2.343   2.322   4.070  1.00  0.00     0.002 C 
BRANCH  27  28
ATOM     28  C   UNL     1       1.907   0.944   4.591  1.00  0.00     0.021 C 
BRANCH  28  29
ATOM     29  C   UNL     1       3.021   0.084   5.159  1.00  0.00     0.116 C 
BRANCH  29  30
ATOM     30  N   UNL     1       3.702   0.696   6.298  1.00  0.00    -0.352 N 
ATOM     31  C   UNL     1       4.811   0.241   6.992  1.00  0.00     0.251 C 
ATOM     32  H   UNL     1       3.322   1.548   6.614  1.00  0.00     0.163 HD
ATOM     33  O   UNL     1       5.056   0.643   8.116  1.00  0.00    -0.269 OA
BRANCH  31  34
ATOM     34  C   UNL     1       5.695  -0.746   6.343  1.00  0.00     0.039 A 
ATOM     35  C   UNL     1       6.314  -1.769   7.065  1.00  0.00     0.014 A 
ATOM     36  C   UNL     1       5.885  -0.638   4.970  1.00  0.00     0.014 A 
ATOM     37  C   UNL     1       7.065  -2.713   6.368  1.00  0.00     0.010 A 
ATOM     38  C   UNL     1       6.421  -1.681   4.270  1.00  0.00     0.010 A 
ATOM     39  C   UNL     1       7.096  -2.669   4.963  1.00  0.00    -0.014 A 
BRANCH  39  40
ATOM     40  C   UNL     1       7.782  -3.687   4.185  1.00  0.00     0.031 A 
ATOM     41  C   UNL     1       7.383  -5.075   4.511  1.00  0.00     0.074 A 
ATOM     42  C   UNL     1       8.583  -3.412   3.133  1.00  0.00     0.049 A 
ATOM     43  N   UNL     1       8.062  -5.936   5.189  1.00  0.00    -0.248 NA
ATOM     44  C   UNL     1       6.014  -5.506   4.194  1.00  0.00     0.031 C 
ATOM     45  C   UNL     1       8.842  -2.130   2.466  1.00  0.00     0.029 A 
ATOM     46  N   UNL     1       9.304  -4.285   2.380  1.00  0.00    -0.354 N 
ATOM     47  C   UNL     1       7.303  -7.100   5.197  1.00  0.00     0.074 A 
ATOM     48  C   UNL     1       5.989  -6.721   4.749  1.00  0.00     0.031 C 
ATOM     49  C   UNL     1       9.478  -2.345   1.292  1.00  0.00     0.029 A 
ATOM     50  C   UNL     1       9.838  -3.748   1.215  1.00  0.00     0.049 A 
ATOM     51  H   UNL     1       9.437  -5.225   2.639  1.00  0.00     0.167 HD
ATOM     52  C   UNL     1       7.904  -8.314   5.333  1.00  0.00     0.037 A 
ATOM     53  C   UNL     1      10.526  -4.420   0.261  1.00  0.00     0.037 A 
ATOM     54  C   UNL     1       9.259  -8.165   5.816  1.00  0.00     0.049 A 
ATOM     55  C   UNL     1      11.041  -5.662   0.889  1.00  0.00     0.074 A 
ATOM     56  C   UNL     1       9.833  -7.603   6.941  1.00  0.00     0.029 A 
ATOM     57  N   UNL     1      10.277  -8.274   4.899  1.00  0.00    -0.354 N 
ATOM     58  N   UNL     1      11.960  -5.678   1.813  1.00  0.00    -0.248 NA
ATOM     59  C   UNL     1      10.198  -6.846   0.826  1.00  0.00     0.031 C 
ATOM     60  C   UNL     1      11.011  -6.950   6.465  1.00  0.00     0.029 A 
ATOM     61  C   UNL     1      11.129  -7.218   5.101  1.00  0.00     0.049 A 
ATOM     62  H   UNL     1      10.378  -8.981   4.221  1.00  0.00     0.167 HD
ATOM     63  C   UNL     1      11.535  -6.641   2.716  1.00  0.00     0.074 A 
ATOM     64  C   UNL     1      10.494  -7.388   2.011  1.00  0.00     0.031 C 
ATOM     65  C   UNL     1      11.858  -6.560   4.040  1.00  0.00     0.037 A 
BRANCH  52  66
ATOM     66  C   UNL     1       7.432  -9.583   4.663  1.00  0.00     0.057 A 
ATOM     67  C   UNL     1       8.102 -10.788   4.947  1.00  0.00     0.134 A 
ATOM     68  C   UNL     1       6.572  -9.629   3.547  1.00  0.00     0.134 A 
ATOM     69  F   UNL     1       8.948 -10.879   5.984  1.00  0.00    -0.206 F 
ATOM     70  C   UNL     1       8.001 -11.917   4.125  1.00  0.00     0.040 A 
ATOM     71  C   UNL     1       6.425 -10.767   2.750  1.00  0.00     0.040 A 
ATOM     72  F   UNL     1       5.905  -8.559   3.102  1.00  0.00    -0.206 F 
ATOM     73  C   UNL     1       7.169 -11.904   3.014  1.00  0.00     0.006 A 
ENDBRANCH  52  66
BRANCH  53  74
ATOM     74  C   UNL     1      10.521  -4.224  -1.205  1.00  0.00     0.057 A 
ATOM     75  C   UNL     1      11.499  -4.816  -2.017  1.00  0.00     0.134 A 
ATOM     76  C   UNL     1       9.392  -3.713  -1.870  1.00  0.00     0.134 A 
ATOM     77  F   UNL     1      12.596  -5.362  -1.471  1.00  0.00    -0.206 F 
ATOM     78  C   UNL     1      11.346  -4.933  -3.405  1.00  0.00     0.040 A 
ATOM     79  C   UNL     1       9.229  -3.820  -3.255  1.00  0.00     0.040 A 
ATOM     80  F   UNL     1       8.369  -3.181  -1.185  1.00  0.00    -0.206 F 
ATOM     81  C   UNL     1      10.200  -4.448  -4.026  1.00  0.00     0.006 A 
ENDBRANCH  53  74
BRANCH  65  82
ATOM     82  C   UNL     1      12.894  -5.547   4.453  1.00  0.00     0.057 A 
ATOM     83  C   UNL     1      12.750  -4.158   4.310  1.00  0.00     0.134 A 
ATOM     84  C   UNL     1      14.022  -5.992   5.151  1.00  0.00     0.134 A 
ATOM     85  F   UNL     1      11.661  -3.627   3.742  1.00  0.00    -0.206 F 
ATOM     86  C   UNL     1      13.704  -3.260   4.801  1.00  0.00     0.040 A 
ATOM     87  C   UNL     1      14.965  -5.105   5.676  1.00  0.00     0.040 A 
ATOM     88  F   UNL     1      14.203  -7.303   5.375  1.00  0.00    -0.206 F 
ATOM     89  C   UNL     1      14.814  -3.734   5.492  1.00  0.00     0.006 A 
ENDBRANCH  65  82
ENDBRANCH  39  40
ENDBRANCH  31  34
ENDBRANCH  29  30
ENDBRANCH  28  29
ENDBRANCH  27  28
ENDBRANCH   1  27
TORSDOF 16
