REMARK SMILES C/C(=N\NC(N)=S)c1nnn(-c2ccc(C(=O)NCCCCCCNC(=O)c3ccc(-c4c5nc(c(-c6c(F)cccc6F)c6ccc([nH]6)c(-c6c(F)cccc6F)c6nc(c(-c7c(F)cccc7F)c7ccc4[nH]7)C=C6)C=C5)cc3)cc2)c1C
REMARK SMILES IDX 20 1 19 2 18 3 16 4 17 5 15 7 12 8 13 9 83 10 14 11 82 12
REMARK SMILES IDX 11 13 8 14 9 15 84 16 10 17 85 18 2 19 1 20 3 21 4 22 5 24
REMARK SMILES IDX 7 25 6 26 21 29 22 30 23 31 24 32 25 33 26 34 27 36 28 37
REMARK SMILES IDX 29 38 81 39 30 40 80 41 31 42 32 43 33 44 74 45 34 46 79 47
REMARK SMILES IDX 73 48 75 49 35 50 78 51 72 52 71 53 36 55 62 56 45 57 61 58
REMARK SMILES IDX 46 59 49 60 60 61 76 62 47 63 48 64 59 66 77 67 50 68 37 69
REMARK SMILES IDX 38 70 43 71 39 72 40 73 42 74 44 75 41 76 63 77 64 78 69 79
REMARK SMILES IDX 65 80 66 81 68 82 70 83 67 84 51 85 52 86 57 87 53 88 54 89
REMARK SMILES IDX 56 90 58 91 55 92
REMARK H PARENT 18 6 4 23 6 27 6 28 25 35 75 54 49 65
REMARK Flexibility Score: inf
ROOT
ATOM      1  C   UNL     1       8.837  -1.476  -6.783  1.00  0.00     0.021 C 
ENDROOT
BRANCH   1   2
ATOM      2  C   UNL     1       8.437  -0.236  -5.978  1.00  0.00     0.116 C 
BRANCH   2   3
ATOM      3  N   UNL     1       8.033   0.839  -6.868  1.00  0.00    -0.352 N 
ATOM      4  C   UNL     1       6.809   1.359  -7.212  1.00  0.00     0.251 C 
ATOM      5  O   UNL     1       6.789   2.311  -7.992  1.00  0.00    -0.269 OA
ATOM      6  H   UNL     1       8.788   1.284  -7.314  1.00  0.00     0.163 HD
BRANCH   4   7
ATOM      7  C   UNL     1       5.528   0.881  -6.620  1.00  0.00     0.039 A 
ATOM      8  C   UNL     1       3.220   0.242  -5.197  1.00  0.00     0.067 A 
ATOM      9  C   UNL     1       3.302   1.486  -5.822  1.00  0.00     0.029 A 
ATOM     10  C   UNL     1       4.207  -0.726  -5.385  1.00  0.00     0.029 A 
ATOM     11  C   UNL     1       4.477   1.810  -6.508  1.00  0.00     0.016 A 
ATOM     12  C   UNL     1       5.330  -0.419  -6.150  1.00  0.00     0.016 A 
BRANCH   8  13
ATOM     13  N   UNL     1       2.200  -0.011  -4.268  1.00  0.00    -0.217 N 
ATOM     14  C   UNL     1       1.060  -0.440  -2.471  1.00  0.00     0.132 A 
ATOM     15  N   UNL     1       0.195  -0.322  -3.530  1.00  0.00    -0.128 NA
ATOM     16  C   UNL     1       2.350  -0.213  -2.909  1.00  0.00     0.071 A 
ATOM     17  N   UNL     1       0.896   0.018  -4.604  1.00  0.00    -0.061 NA
ATOM     18  C   UNL     1       3.626  -0.050  -2.175  1.00  0.00     0.069 C 
BRANCH  14  19
ATOM     19  C   UNL     1       0.594  -0.562  -1.101  1.00  0.00     0.087 C 
ATOM     20  C   UNL     1       0.577   0.714  -0.302  1.00  0.00     0.071 C 
ATOM     21  N   UNL     1       0.200  -1.748  -0.743  1.00  0.00    -0.176 NA
BRANCH  21  22
ATOM     22  N   UNL     1      -0.354  -1.996   0.480  1.00  0.00    -0.254 N 
ATOM     23  H   UNL     1      -1.283  -2.323   0.463  1.00  0.00     0.193 HD
BRANCH  22  24
ATOM     24  C   UNL     1       0.199  -1.856   1.737  1.00  0.00     0.184 C 
ATOM     25  S   UNL     1       1.698  -1.295   2.185  1.00  0.00    -0.040 S 
BRANCH  24  26
ATOM     26  N   UNL     1      -0.662  -2.260   2.722  1.00  0.00    -0.375 N 
ATOM     27  H   UNL     1      -1.557  -2.597   2.486  1.00  0.00     0.159 HD
ATOM     28  H   UNL     1      -0.387  -2.214   3.666  1.00  0.00     0.159 HD
ENDBRANCH  24  26
ENDBRANCH  22  24
ENDBRANCH  21  22
ENDBRANCH  14  19
ENDBRANCH   8  13
ENDBRANCH   4   7
ENDBRANCH   2   3
ENDBRANCH   1   2
BRANCH   1  29
ATOM     29  C   UNL     1      10.250  -1.390  -7.375  1.00  0.00     0.002 C 
BRANCH  29  30
ATOM     30  C   UNL     1      11.388  -1.177  -6.361  1.00  0.00     0.002 C 
BRANCH  30  31
ATOM     31  C   UNL     1      11.426  -2.131  -5.157  1.00  0.00     0.021 C 
BRANCH  31  32
ATOM     32  C   UNL     1      11.741  -3.572  -5.522  1.00  0.00     0.116 C 
BRANCH  32  33
ATOM     33  N   UNL     1      13.101  -3.735  -6.052  1.00  0.00    -0.352 N 
ATOM     34  C   UNL     1      13.694  -4.853  -6.604  1.00  0.00     0.251 C 
ATOM     35  H   UNL     1      13.670  -2.933  -6.008  1.00  0.00     0.163 HD
ATOM     36  O   UNL     1      14.921  -4.959  -6.651  1.00  0.00    -0.269 OA
BRANCH  34  37
ATOM     37  C   UNL     1      12.841  -5.916  -7.154  1.00  0.00     0.039 A 
ATOM     38  C   UNL     1      13.178  -7.271  -7.094  1.00  0.00     0.014 A 
ATOM     39  C   UNL     1      11.645  -5.513  -7.732  1.00  0.00     0.014 A 
ATOM     40  C   UNL     1      12.264  -8.204  -7.581  1.00  0.00     0.010 A 
ATOM     41  C   UNL     1      10.656  -6.423  -7.939  1.00  0.00     0.010 A 
ATOM     42  C   UNL     1      10.999  -7.761  -7.998  1.00  0.00    -0.014 A 
BRANCH  42  43
ATOM     43  C   UNL     1       9.954  -8.666  -8.443  1.00  0.00     0.031 A 
ATOM     44  C   UNL     1       9.577  -9.680  -7.432  1.00  0.00     0.074 A 
ATOM     45  C   UNL     1       9.220  -8.433  -9.555  1.00  0.00     0.049 A 
ATOM     46  N   UNL     1       9.825 -10.945  -7.461  1.00  0.00    -0.248 NA
ATOM     47  C   UNL     1       9.017  -9.208  -6.155  1.00  0.00     0.031 C 
ATOM     48  C   UNL     1       9.257  -7.272 -10.457  1.00  0.00     0.029 A 
ATOM     49  N   UNL     1       8.192  -9.161 -10.065  1.00  0.00    -0.354 N 
ATOM     50  C   UNL     1       9.232 -11.466  -6.316  1.00  0.00     0.074 A 
ATOM     51  C   UNL     1       8.967 -10.344  -5.456  1.00  0.00     0.031 C 
ATOM     52  C   UNL     1       8.163  -7.271 -11.250  1.00  0.00     0.029 A 
ATOM     53  C   UNL     1       7.442  -8.511 -11.042  1.00  0.00     0.049 A 
ATOM     54  H   UNL     1       7.992 -10.078  -9.767  1.00  0.00     0.167 HD
ATOM     55  C   UNL     1       8.746 -12.737  -6.307  1.00  0.00     0.037 A 
ATOM     56  C   UNL     1       6.299  -8.966 -11.614  1.00  0.00     0.037 A 
ATOM     57  C   UNL     1       9.263 -13.491  -7.426  1.00  0.00     0.049 A 
ATOM     58  C   UNL     1       6.246 -10.429 -11.370  1.00  0.00     0.074 A 
ATOM     59  C   UNL     1      10.527 -13.829  -7.872  1.00  0.00     0.029 A 
ATOM     60  N   UNL     1       8.430 -13.673  -8.505  1.00  0.00    -0.354 N 
ATOM     61  N   UNL     1       7.076 -11.282 -11.904  1.00  0.00    -0.248 NA
ATOM     62  C   UNL     1       5.578 -10.880 -10.159  1.00  0.00     0.031 C 
ATOM     63  C   UNL     1      10.460 -13.715  -9.293  1.00  0.00     0.029 A 
ATOM     64  C   UNL     1       9.147 -13.396  -9.639  1.00  0.00     0.049 A 
ATOM     65  H   UNL     1       7.487 -13.953  -8.468  1.00  0.00     0.167 HD
ATOM     66  C   UNL     1       7.367 -12.177 -10.884  1.00  0.00     0.074 A 
ATOM     67  C   UNL     1       6.354 -11.925  -9.859  1.00  0.00     0.031 C 
ATOM     68  C   UNL     1       8.570 -12.821 -10.835  1.00  0.00     0.037 A 
BRANCH  55  69
ATOM     69  C   UNL     1       7.507 -13.169  -5.558  1.00  0.00     0.057 A 
ATOM     70  C   UNL     1       7.162 -14.533  -5.555  1.00  0.00     0.134 A 
ATOM     71  C   UNL     1       6.494 -12.300  -5.101  1.00  0.00     0.134 A 
ATOM     72  F   UNL     1       8.035 -15.465  -5.968  1.00  0.00    -0.206 F 
ATOM     73  C   UNL     1       5.881 -14.985  -5.216  1.00  0.00     0.040 A 
ATOM     74  C   UNL     1       5.229 -12.746  -4.710  1.00  0.00     0.040 A 
ATOM     75  F   UNL     1       6.624 -10.969  -5.100  1.00  0.00    -0.206 F 
ATOM     76  C   UNL     1       4.906 -14.089  -4.802  1.00  0.00     0.006 A 
ENDBRANCH  55  69
BRANCH  56  77
ATOM     77  C   UNL     1       5.117  -8.202 -12.077  1.00  0.00     0.057 A 
ATOM     78  C   UNL     1       4.151  -8.792 -12.906  1.00  0.00     0.134 A 
ATOM     79  C   UNL     1       4.755  -6.979 -11.485  1.00  0.00     0.134 A 
ATOM     80  F   UNL     1       4.385  -9.979 -13.485  1.00  0.00    -0.206 F 
ATOM     81  C   UNL     1       2.888  -8.217 -13.108  1.00  0.00     0.040 A 
ATOM     82  C   UNL     1       3.500  -6.393 -11.682  1.00  0.00     0.040 A 
ATOM     83  F   UNL     1       5.573  -6.361 -10.620  1.00  0.00    -0.206 F 
ATOM     84  C   UNL     1       2.554  -7.020 -12.484  1.00  0.00     0.006 A 
ENDBRANCH  56  77
BRANCH  68  85
ATOM     85  C   UNL     1       9.467 -12.735 -12.042  1.00  0.00     0.057 A 
ATOM     86  C   UNL     1      10.044 -11.547 -12.519  1.00  0.00     0.134 A 
ATOM     87  C   UNL     1       9.886 -13.923 -12.649  1.00  0.00     0.134 A 
ATOM     88  F   UNL     1       9.781 -10.367 -11.946  1.00  0.00    -0.206 F 
ATOM     89  C   UNL     1      10.966 -11.542 -13.572  1.00  0.00     0.040 A 
ATOM     90  C   UNL     1      10.830 -13.936 -13.678  1.00  0.00     0.040 A 
ATOM     91  F   UNL     1       9.419 -15.104 -12.213  1.00  0.00    -0.206 F 
ATOM     92  C   UNL     1      11.368 -12.741 -14.150  1.00  0.00     0.006 A 
ENDBRANCH  68  85
ENDBRANCH  42  43
ENDBRANCH  34  37
ENDBRANCH  32  33
ENDBRANCH  31  32
ENDBRANCH  30  31
ENDBRANCH  29  30
ENDBRANCH   1  29
TORSDOF 18
