REMARK SMILES CN(C(=O)C[C@@H]1SC(=O)N(c2ccccc2)C1=O)c1ccccc1C(=O)NCCCCCCNC(=O)c1ccc(-c2c3nc(c(-c4c(F)cccc4F)c4ccc([nH]4)c(-c4c(F)cccc4F)c4nc(c(-c5c(F)cccc5F)c5ccc2[nH]5)C=C4)C=C3)cc1
REMARK SMILES IDX 29 1 28 2 27 3 25 4 26 5 24 7 19 8 20 9 21 10 23 11 22 12
REMARK SMILES IDX 2 13 1 14 3 15 4 16 5 17 6 18 7 19 17 20 8 21 10 22 18 23
REMARK SMILES IDX 9 24 11 25 12 26 16 27 13 28 15 29 14 30 30 31 31 32 32 33
REMARK SMILES IDX 33 34 34 35 35 36 36 38 37 39 38 40 90 41 39 42 89 43 40 44
REMARK SMILES IDX 41 45 42 46 83 47 43 48 88 49 82 50 84 51 44 52 87 53 81 54
REMARK SMILES IDX 80 55 45 57 71 58 54 59 70 60 55 61 58 62 69 63 85 64 56 65
REMARK SMILES IDX 57 66 68 68 86 69 59 70 46 71 47 72 52 73 48 74 49 75 51 76
REMARK SMILES IDX 53 77 50 78 72 79 73 80 78 81 74 82 75 83 77 84 79 85 76 86
REMARK SMILES IDX 60 87 61 88 66 89 62 90 63 91 65 92 67 93 64 94
REMARK H PARENT 27 6 34 37 84 56 58 67
REMARK Flexibility Score: inf
ROOT
ATOM      1  C   UNL     1       2.472   1.642  -0.182  1.00  0.00     0.021 C 
ENDROOT
BRANCH   1   2
ATOM      2  C   UNL     1       2.570   0.161  -0.540  1.00  0.00     0.116 C 
BRANCH   2   3
ATOM      3  N   UNL     1       3.383  -0.521   0.435  1.00  0.00    -0.352 N 
ATOM      4  C   UNL     1       3.247  -1.429   1.439  1.00  0.00     0.253 C 
ATOM      5  O   UNL     1       4.341  -1.712   1.951  1.00  0.00    -0.269 OA
ATOM      6  H   UNL     1       4.324  -0.247   0.347  1.00  0.00     0.163 HD
BRANCH   4   7
ATOM      7  C   UNL     1       2.038  -2.164   1.950  1.00  0.00     0.063 A 
ATOM      8  C   UNL     1       0.676  -1.809   2.076  1.00  0.00     0.056 A 
ATOM      9  C   UNL     1      -0.207  -2.709   2.738  1.00  0.00     0.027 A 
ATOM     10  C   UNL     1       0.223  -3.891   3.332  1.00  0.00     0.002 A 
ATOM     11  C   UNL     1       2.426  -3.407   2.537  1.00  0.00     0.016 A 
ATOM     12  C   UNL     1       1.551  -4.244   3.232  1.00  0.00     0.001 A 
BRANCH   8  13
ATOM     13  N   UNL     1       0.080  -0.576   1.623  1.00  0.00    -0.315 N 
ATOM     14  C   UNL     1      -0.627  -0.742   0.348  1.00  0.00     0.153 C 
BRANCH  13  15
ATOM     15  C   UNL     1      -0.617   0.202   2.584  1.00  0.00     0.228 C 
ATOM     16  O   UNL     1      -1.001  -0.205   3.682  1.00  0.00    -0.274 OA
BRANCH  15  17
ATOM     17  C   UNL     1      -0.801   1.672   2.266  1.00  0.00     0.125 C 
BRANCH  17  18
ATOM     18  C   UNL     1       0.424   2.487   2.657  1.00  0.00     0.156 C 
ATOM     19  S   UNL     1       1.514   1.887   3.963  1.00  0.00    -0.050 SA
ATOM     20  C   UNL     1       0.182   3.939   3.021  1.00  0.00     0.248 C 
ATOM     21  C   UNL     1       2.180   3.487   4.181  1.00  0.00     0.293 C 
ATOM     22  N   UNL     1       1.314   4.436   3.671  1.00  0.00    -0.240 N 
ATOM     23  O   UNL     1      -0.789   4.562   2.605  1.00  0.00    -0.273 OA
ATOM     24  O   UNL     1       3.259   3.633   4.734  1.00  0.00    -0.261 OA
BRANCH  22  25
ATOM     25  C   UNL     1       1.600   5.830   3.774  1.00  0.00     0.053 A 
ATOM     26  C   UNL     1       0.584   6.785   3.908  1.00  0.00     0.027 A 
ATOM     27  C   UNL     1       2.929   6.286   3.731  1.00  0.00     0.027 A 
ATOM     28  C   UNL     1       0.893   8.144   4.038  1.00  0.00     0.002 A 
ATOM     29  C   UNL     1       3.237   7.643   3.839  1.00  0.00     0.002 A 
ATOM     30  C   UNL     1       2.218   8.572   4.004  1.00  0.00     0.000 A 
ENDBRANCH  22  25
ENDBRANCH  17  18
ENDBRANCH  15  17
ENDBRANCH  13  15
ENDBRANCH   8  13
ENDBRANCH   4   7
ENDBRANCH   2   3
ENDBRANCH   1   2
BRANCH   1  31
ATOM     31  C   UNL     1       2.864   2.624  -1.285  1.00  0.00     0.002 C 
BRANCH  31  32
ATOM     32  C   UNL     1       1.879   2.675  -2.454  1.00  0.00     0.002 C 
BRANCH  32  33
ATOM     33  C   UNL     1       0.429   3.027  -2.091  1.00  0.00     0.021 C 
BRANCH  33  34
ATOM     34  C   UNL     1       0.230   4.321  -1.300  1.00  0.00     0.116 C 
BRANCH  34  35
ATOM     35  N   UNL     1       0.758   5.481  -1.993  1.00  0.00    -0.352 N 
ATOM     36  C   UNL     1       0.130   6.595  -2.486  1.00  0.00     0.251 C 
ATOM     37  H   UNL     1       1.733   5.465  -2.132  1.00  0.00     0.163 HD
ATOM     38  O   UNL     1       0.757   7.366  -3.208  1.00  0.00    -0.269 OA
BRANCH  36  39
ATOM     39  C   UNL     1      -1.293   6.877  -2.188  1.00  0.00     0.039 A 
ATOM     40  C   UNL     1      -2.096   7.380  -3.217  1.00  0.00     0.014 A 
ATOM     41  C   UNL     1      -1.827   6.720  -0.906  1.00  0.00     0.014 A 
ATOM     42  C   UNL     1      -3.440   7.677  -2.978  1.00  0.00     0.010 A 
ATOM     43  C   UNL     1      -3.185   6.959  -0.682  1.00  0.00     0.010 A 
ATOM     44  C   UNL     1      -4.004   7.444  -1.714  1.00  0.00    -0.014 A 
BRANCH  44  45
ATOM     45  C   UNL     1      -5.446   7.699  -1.468  1.00  0.00     0.031 A 
ATOM     46  C   UNL     1      -5.885   8.785  -0.526  1.00  0.00     0.074 A 
ATOM     47  C   UNL     1      -6.369   6.914  -2.057  1.00  0.00     0.049 A 
ATOM     48  N   UNL     1      -7.096   9.126  -0.163  1.00  0.00    -0.248 NA
ATOM     49  C   UNL     1      -4.821   9.576   0.109  1.00  0.00     0.031 C 
ATOM     50  C   UNL     1      -6.075   5.795  -2.952  1.00  0.00     0.029 A 
ATOM     51  N   UNL     1      -7.739   6.928  -1.977  1.00  0.00    -0.354 N 
ATOM     52  C   UNL     1      -6.941  10.160   0.751  1.00  0.00     0.074 A 
ATOM     53  C   UNL     1      -5.517  10.359   0.921  1.00  0.00     0.031 C 
ATOM     54  C   UNL     1      -7.229   5.233  -3.344  1.00  0.00     0.029 A 
ATOM     55  C   UNL     1      -8.341   5.933  -2.707  1.00  0.00     0.049 A 
ATOM     56  H   UNL     1      -8.241   7.588  -1.447  1.00  0.00     0.167 HD
ATOM     57  C   UNL     1      -7.895  10.890   1.377  1.00  0.00     0.037 A 
ATOM     58  C   UNL     1      -9.642   5.613  -2.843  1.00  0.00     0.037 A 
ATOM     59  C   UNL     1      -9.312  10.702   1.197  1.00  0.00     0.049 A 
ATOM     60  C   UNL     1     -10.685   6.439  -2.148  1.00  0.00     0.074 A 
ATOM     61  C   UNL     1     -10.355  11.438   1.732  1.00  0.00     0.029 A 
ATOM     62  N   UNL     1      -9.885   9.699   0.429  1.00  0.00    -0.354 N 
ATOM     63  N   UNL     1     -10.526   7.466  -1.349  1.00  0.00    -0.248 NA
ATOM     64  C   UNL     1     -12.088   6.068  -2.380  1.00  0.00     0.031 C 
ATOM     65  C   UNL     1     -11.560  10.853   1.323  1.00  0.00     0.029 A 
ATOM     66  C   UNL     1     -11.267   9.779   0.498  1.00  0.00     0.049 A 
ATOM     67  H   UNL     1      -9.383   9.028  -0.088  1.00  0.00     0.167 HD
ATOM     68  C   UNL     1     -11.805   7.875  -0.996  1.00  0.00     0.074 A 
ATOM     69  C   UNL     1     -12.730   6.994  -1.681  1.00  0.00     0.031 C 
ATOM     70  C   UNL     1     -12.178   8.891  -0.179  1.00  0.00     0.037 A 
BRANCH  57  71
ATOM     71  C   UNL     1      -7.429  11.956   2.327  1.00  0.00     0.057 A 
ATOM     72  C   UNL     1      -6.798  13.123   1.878  1.00  0.00     0.134 A 
ATOM     73  C   UNL     1      -7.619  11.816   3.708  1.00  0.00     0.134 A 
ATOM     74  F   UNL     1      -6.577  13.315   0.568  1.00  0.00    -0.206 F 
ATOM     75  C   UNL     1      -6.338  14.095   2.769  1.00  0.00     0.040 A 
ATOM     76  C   UNL     1      -7.188  12.793   4.607  1.00  0.00     0.040 A 
ATOM     77  F   UNL     1      -8.224  10.727   4.206  1.00  0.00    -0.206 F 
ATOM     78  C   UNL     1      -6.536  13.932   4.138  1.00  0.00     0.006 A 
ENDBRANCH  57  71
BRANCH  58  79
ATOM     79  C   UNL     1     -10.020   4.458  -3.694  1.00  0.00     0.057 A 
ATOM     80  C   UNL     1     -10.606   4.646  -4.950  1.00  0.00     0.134 A 
ATOM     81  C   UNL     1      -9.771   3.142  -3.285  1.00  0.00     0.134 A 
ATOM     82  F   UNL     1     -10.882   5.883  -5.387  1.00  0.00    -0.206 F 
ATOM     83  C   UNL     1     -10.937   3.566  -5.770  1.00  0.00     0.040 A 
ATOM     84  C   UNL     1     -10.078   2.054  -4.103  1.00  0.00     0.040 A 
ATOM     85  F   UNL     1      -9.202   2.899  -2.096  1.00  0.00    -0.206 F 
ATOM     86  C   UNL     1     -10.665   2.265  -5.349  1.00  0.00     0.006 A 
ENDBRANCH  58  79
BRANCH  70  87
ATOM     87  C   UNL     1     -13.650   9.112   0.012  1.00  0.00     0.057 A 
ATOM     88  C   UNL     1     -14.431   8.246   0.787  1.00  0.00     0.134 A 
ATOM     89  C   UNL     1     -14.286  10.223  -0.557  1.00  0.00     0.134 A 
ATOM     90  F   UNL     1     -13.886   7.156   1.347  1.00  0.00    -0.206 F 
ATOM     91  C   UNL     1     -15.797   8.467   0.975  1.00  0.00     0.040 A 
ATOM     92  C   UNL     1     -15.645  10.468  -0.357  1.00  0.00     0.040 A 
ATOM     93  F   UNL     1     -13.593  11.095  -1.306  1.00  0.00    -0.206 F 
ATOM     94  C   UNL     1     -16.406   9.585   0.407  1.00  0.00     0.006 A 
ENDBRANCH  70  87
ENDBRANCH  44  45
ENDBRANCH  36  39
ENDBRANCH  34  35
ENDBRANCH  33  34
ENDBRANCH  32  33
ENDBRANCH  31  32
ENDBRANCH   1  31
TORSDOF 18
