REMARK SMILES Cn1ccc(-c2n[nH]c(=O)n2-c2ccc(C(=O)NCCCCCCNC(=O)c3ccc(-c4c5nc(c(-c6c(F)cccc6F)c6ccc([nH]6)c(-c6c(F)cccc6F)c6nc(c(-c7c(F)cccc7F)c7ccc4[nH]7)C=C6)C=C5)cc3)cc2)n1
REMARK SMILES IDX 21 1 20 2 19 3 18 4 16 5 17 6 15 8 12 9 13 10 83 11 14 12
REMARK SMILES IDX 82 13 11 14 6 15 7 16 8 17 9 18 10 20 5 21 1 22 2 23 3 24
REMARK SMILES IDX 84 25 4 26 22 27 23 28 24 29 25 30 26 31 27 33 28 34 29 35
REMARK SMILES IDX 81 36 30 37 80 38 31 39 32 40 33 41 74 42 34 43 79 44 73 45
REMARK SMILES IDX 75 46 35 47 78 48 72 49 71 50 36 52 62 53 45 54 61 55 46 56
REMARK SMILES IDX 49 57 60 58 76 59 47 60 48 61 59 63 77 64 50 65 37 66 38 67
REMARK SMILES IDX 43 68 39 69 40 70 42 71 44 72 41 73 63 74 64 75 69 76 65 77
REMARK SMILES IDX 66 78 68 79 70 80 67 81 51 82 52 83 57 84 53 85 54 86 56 87
REMARK SMILES IDX 58 88 55 89
REMARK H PARENT 18 7 8 19 25 32 75 51 49 62
REMARK Flexibility Score: inf
ROOT
ATOM      1  C   UNL     1       0.261   0.562   8.880  1.00  0.00     0.002 C 
ENDROOT
BRANCH   1   2
ATOM      2  C   UNL     1       0.842   0.630   7.460  1.00  0.00     0.021 C 
BRANCH   2   3
ATOM      3  C   UNL     1      -0.166   1.133   6.424  1.00  0.00     0.116 C 
BRANCH   3   4
ATOM      4  N   UNL     1      -0.244   2.581   6.472  1.00  0.00    -0.352 N 
ATOM      5  C   UNL     1       0.257   3.576   5.674  1.00  0.00     0.251 C 
ATOM      6  O   UNL     1       0.028   4.738   6.012  1.00  0.00    -0.269 OA
ATOM      7  H   UNL     1      -0.764   2.918   7.237  1.00  0.00     0.163 HD
BRANCH   5   8
ATOM      8  C   UNL     1       0.990   3.324   4.401  1.00  0.00     0.039 A 
ATOM      9  C   UNL     1       2.139   2.935   1.861  1.00  0.00     0.052 A 
ATOM     10  C   UNL     1       1.568   4.165   2.182  1.00  0.00     0.028 A 
ATOM     11  C   UNL     1       2.217   1.938   2.838  1.00  0.00     0.028 A 
ATOM     12  C   UNL     1       0.966   4.343   3.433  1.00  0.00     0.016 A 
ATOM     13  C   UNL     1       1.702   2.159   4.117  1.00  0.00     0.016 A 
BRANCH   9  14
ATOM     14  N   UNL     1       2.706   2.707   0.602  1.00  0.00    -0.242 N 
ATOM     15  C   UNL     1       2.581   1.611  -0.199  1.00  0.00     0.189 A 
ATOM     16  N   UNL     1       3.492   1.503  -1.129  1.00  0.00    -0.150 NA
ATOM     17  N   UNL     1       4.257   2.627  -0.960  1.00  0.00    -0.226 N 
ATOM     18  C   UNL     1       3.788   3.393   0.107  1.00  0.00     0.348 A 
ATOM     19  H   UNL     1       5.034   2.862  -1.517  1.00  0.00     0.195 HD
ATOM     20  O   UNL     1       4.326   4.410   0.529  1.00  0.00    -0.246 OA
BRANCH  15  21
ATOM     21  C   UNL     1       1.484   0.664  -0.091  1.00  0.00     0.130 A 
ATOM     22  C   UNL     1      -1.957   0.023   0.027  1.00  0.00     0.173 C 
ATOM     23  N   UNL     1      -0.515  -0.057   0.021  1.00  0.00    -0.275 N 
ATOM     24  C   UNL     1       0.242  -1.182  -0.116  1.00  0.00     0.109 A 
ATOM     25  N   UNL     1       0.214   1.069   0.105  1.00  0.00    -0.170 NA
ATOM     26  C   UNL     1       1.542  -0.747  -0.229  1.00  0.00     0.054 A 
ENDBRANCH  15  21
ENDBRANCH   9  14
ENDBRANCH   5   8
ENDBRANCH   3   4
ENDBRANCH   2   3
ENDBRANCH   1   2
BRANCH   1  27
ATOM     27  C   UNL     1      -0.963  -0.353   9.040  1.00  0.00     0.002 C 
BRANCH  27  28
ATOM     28  C   UNL     1      -0.792  -1.787   8.516  1.00  0.00     0.021 C 
BRANCH  28  29
ATOM     29  C   UNL     1       0.195  -2.607   9.335  1.00  0.00     0.116 C 
BRANCH  29  30
ATOM     30  N   UNL     1      -0.319  -2.872  10.675  1.00  0.00    -0.352 N 
ATOM     31  C   UNL     1       0.271  -3.561  11.706  1.00  0.00     0.251 C 
ATOM     32  H   UNL     1      -1.213  -2.506  10.866  1.00  0.00     0.163 HD
ATOM     33  O   UNL     1      -0.407  -3.997  12.632  1.00  0.00    -0.269 OA
BRANCH  31  34
ATOM     34  C   UNL     1       1.725  -3.783  11.690  1.00  0.00     0.039 A 
ATOM     35  C   UNL     1       2.248  -5.016  12.092  1.00  0.00     0.014 A 
ATOM     36  C   UNL     1       2.566  -2.750  11.281  1.00  0.00     0.014 A 
ATOM     37  C   UNL     1       3.619  -5.230  12.005  1.00  0.00     0.010 A 
ATOM     38  C   UNL     1       3.908  -2.994  11.097  1.00  0.00     0.010 A 
ATOM     39  C   UNL     1       4.443  -4.221  11.485  1.00  0.00    -0.014 A 
BRANCH  39  40
ATOM     40  C   UNL     1       5.849  -4.499  11.204  1.00  0.00     0.031 A 
ATOM     41  C   UNL     1       6.091  -5.643  10.278  1.00  0.00     0.074 A 
ATOM     42  C   UNL     1       6.843  -3.654  11.550  1.00  0.00     0.049 A 
ATOM     43  N   UNL     1       6.765  -6.719  10.513  1.00  0.00    -0.248 NA
ATOM     44  C   UNL     1       5.416  -5.642   8.969  1.00  0.00     0.031 C 
ATOM     45  C   UNL     1       6.731  -2.349  12.208  1.00  0.00     0.029 A 
ATOM     46  N   UNL     1       8.172  -3.733  11.265  1.00  0.00    -0.354 N 
ATOM     47  C   UNL     1       6.759  -7.453   9.328  1.00  0.00     0.074 A 
ATOM     48  C   UNL     1       5.790  -6.822   8.471  1.00  0.00     0.031 C 
ATOM     49  C   UNL     1       7.886  -1.668  12.055  1.00  0.00     0.029 A 
ATOM     50  C   UNL     1       8.862  -2.536  11.421  1.00  0.00     0.049 A 
ATOM     51  H   UNL     1       8.607  -4.566  10.974  1.00  0.00     0.167 HD
ATOM     52  C   UNL     1       7.716  -8.390   9.074  1.00  0.00     0.037 A 
ATOM     53  C   UNL     1      10.131  -2.267  11.024  1.00  0.00     0.037 A 
ATOM     54  C   UNL     1       8.407  -8.762  10.284  1.00  0.00     0.049 A 
ATOM     55  C   UNL     1      10.819  -3.569  10.839  1.00  0.00     0.074 A 
ATOM     56  C   UNL     1       8.020  -9.292  11.500  1.00  0.00     0.029 A 
ATOM     57  N   UNL     1       9.665  -8.250  10.486  1.00  0.00    -0.354 N 
ATOM     58  N   UNL     1      11.138  -4.364  11.821  1.00  0.00    -0.248 NA
ATOM     59  C   UNL     1      10.753  -4.196   9.527  1.00  0.00     0.031 C 
ATOM     60  C   UNL     1       8.832  -8.628  12.464  1.00  0.00     0.029 A 
ATOM     61  C   UNL     1       9.712  -7.792  11.776  1.00  0.00     0.049 A 
ATOM     62  H   UNL     1      10.397  -8.217   9.828  1.00  0.00     0.167 HD
ATOM     63  C   UNL     1      10.861  -5.635  11.343  1.00  0.00     0.074 A 
ATOM     64  C   UNL     1      10.735  -5.480   9.895  1.00  0.00     0.031 C 
ATOM     65  C   UNL     1      10.467  -6.633  12.187  1.00  0.00     0.037 A 
BRANCH  52  66
ATOM     66  C   UNL     1       8.290  -8.696   7.709  1.00  0.00     0.057 A 
ATOM     67  C   UNL     1       9.230  -9.738   7.583  1.00  0.00     0.134 A 
ATOM     68  C   UNL     1       8.208  -7.833   6.598  1.00  0.00     0.134 A 
ATOM     69  F   UNL     1       9.404 -10.634   8.566  1.00  0.00    -0.206 F 
ATOM     70  C   UNL     1      10.095  -9.845   6.487  1.00  0.00     0.040 A 
ATOM     71  C   UNL     1       9.032  -7.962   5.476  1.00  0.00     0.040 A 
ATOM     72  F   UNL     1       7.405  -6.764   6.573  1.00  0.00    -0.206 F 
ATOM     73  C   UNL     1      10.007  -8.945   5.434  1.00  0.00     0.006 A 
ENDBRANCH  52  66
BRANCH  53  74
ATOM     74  C   UNL     1      10.732  -0.983  10.594  1.00  0.00     0.057 A 
ATOM     75  C   UNL     1      12.122  -0.839  10.468  1.00  0.00     0.134 A 
ATOM     76  C   UNL     1       9.958   0.054  10.044  1.00  0.00     0.134 A 
ATOM     77  F   UNL     1      12.951  -1.787  10.927  1.00  0.00    -0.206 F 
ATOM     78  C   UNL     1      12.705   0.252   9.808  1.00  0.00     0.040 A 
ATOM     79  C   UNL     1      10.527   1.154   9.393  1.00  0.00     0.040 A 
ATOM     80  F   UNL     1       8.618  -0.004  10.039  1.00  0.00    -0.206 F 
ATOM     81  C   UNL     1      11.906   1.248   9.257  1.00  0.00     0.006 A 
ENDBRANCH  53  74
BRANCH  65  82
ATOM     82  C   UNL     1      10.589  -6.399  13.667  1.00  0.00     0.057 A 
ATOM     83  C   UNL     1       9.896  -5.400  14.367  1.00  0.00     0.134 A 
ATOM     84  C   UNL     1      11.312  -7.320  14.434  1.00  0.00     0.134 A 
ATOM     85  F   UNL     1       9.094  -4.536  13.735  1.00  0.00    -0.206 F 
ATOM     86  C   UNL     1       9.957  -5.295  15.760  1.00  0.00     0.040 A 
ATOM     87  C   UNL     1      11.352  -7.248  15.828  1.00  0.00     0.040 A 
ATOM     88  F   UNL     1      11.953  -8.339  13.839  1.00  0.00    -0.206 F 
ATOM     89  C   UNL     1      10.681  -6.227  16.495  1.00  0.00     0.006 A 
ENDBRANCH  65  82
ENDBRANCH  39  40
ENDBRANCH  31  34
ENDBRANCH  29  30
ENDBRANCH  28  29
ENDBRANCH  27  28
ENDBRANCH   1  27
TORSDOF 15
