REMARK SMILES C/C(=N\NC(N)=O)c1nnn(-c2ccc(C(=O)NCCCCCCNC(=O)c3ccc(-c4c5nc(c(-c6c(F)cccc6F)c6ccc([nH]6)c(-c6c(F)cccc6F)c6nc(c(-c7c(F)cccc7F)c7ccc4[nH]7)C=C6)C=C5)cc3)cc2)c1C
REMARK SMILES IDX 21 1 20 2 19 3 18 4 16 5 17 6 15 8 12 9 13 10 83 11 14 12
REMARK SMILES IDX 82 13 11 14 8 15 9 16 84 17 10 18 85 19 2 20 1 21 3 22 4 23
REMARK SMILES IDX 5 24 6 26 7 27 22 30 23 31 24 32 25 33 26 34 27 36 28 37
REMARK SMILES IDX 29 38 81 39 30 40 80 41 31 42 32 43 33 44 74 45 34 46 79 47
REMARK SMILES IDX 73 48 75 49 35 50 78 51 72 52 71 53 36 55 62 56 45 57 61 58
REMARK SMILES IDX 46 59 49 60 60 61 76 62 47 63 48 64 59 66 77 67 50 68 37 69
REMARK SMILES IDX 38 70 43 71 39 72 40 73 42 74 44 75 41 76 63 77 64 78 69 79
REMARK SMILES IDX 65 80 66 81 68 82 70 83 67 84 51 85 52 86 57 87 53 88 54 89
REMARK SMILES IDX 56 90 58 91 55 92
REMARK H PARENT 18 7 4 25 6 28 6 29 25 35 75 54 49 65
REMARK Flexibility Score: inf
ROOT
ATOM      1  C   UNL     1       9.954   6.556  -4.578  1.00  0.00     0.002 C 
ENDROOT
BRANCH   1   2
ATOM      2  C   UNL     1       8.566   5.934  -4.375  1.00  0.00     0.021 C 
BRANCH   2   3
ATOM      3  C   UNL     1       8.231   5.671  -2.904  1.00  0.00     0.116 C 
BRANCH   3   4
ATOM      4  N   UNL     1       7.800   6.900  -2.261  1.00  0.00    -0.352 N 
ATOM      5  C   UNL     1       6.569   7.379  -1.889  1.00  0.00     0.251 C 
ATOM      6  O   UNL     1       6.525   8.483  -1.347  1.00  0.00    -0.269 OA
ATOM      7  H   UNL     1       8.540   7.514  -2.051  1.00  0.00     0.163 HD
BRANCH   5   8
ATOM      8  C   UNL     1       5.312   6.590  -2.032  1.00  0.00     0.039 A 
ATOM      9  C   UNL     1       3.059   4.951  -1.932  1.00  0.00     0.067 A 
ATOM     10  C   UNL     1       3.130   6.051  -1.079  1.00  0.00     0.029 A 
ATOM     11  C   UNL     1       4.028   4.739  -2.914  1.00  0.00     0.029 A 
ATOM     12  C   UNL     1       4.278   6.849  -1.112  1.00  0.00     0.016 A 
ATOM     13  C   UNL     1       5.119   5.601  -2.998  1.00  0.00     0.016 A 
BRANCH   9  14
ATOM     14  N   UNL     1       2.059   3.983  -1.750  1.00  0.00    -0.217 N 
ATOM     15  C   UNL     1       0.952   2.151  -1.380  1.00  0.00     0.132 A 
ATOM     16  N   UNL     1       0.065   3.155  -1.674  1.00  0.00    -0.128 NA
ATOM     17  C   UNL     1       2.238   2.658  -1.399  1.00  0.00     0.071 A 
ATOM     18  N   UNL     1       0.748   4.285  -1.812  1.00  0.00    -0.061 NA
ATOM     19  C   UNL     1       3.540   2.064  -1.012  1.00  0.00     0.069 C 
BRANCH  15  20
ATOM     20  C   UNL     1       0.524   0.834  -0.936  1.00  0.00     0.087 C 
ATOM     21  C   UNL     1       0.752   0.528   0.520  1.00  0.00     0.071 C 
ATOM     22  N   UNL     1      -0.044   0.094  -1.843  1.00  0.00    -0.174 NA
BRANCH  22  23
ATOM     23  N   UNL     1      -0.494  -1.175  -1.604  1.00  0.00    -0.229 N 
ATOM     24  C   UNL     1       0.104  -2.159  -0.848  1.00  0.00     0.332 C 
ATOM     25  H   UNL     1      -1.351  -1.415  -2.024  1.00  0.00     0.195 HD
ATOM     26  N   UNL     1      -0.642  -3.299  -0.796  1.00  0.00    -0.350 N 
ATOM     27  O   UNL     1       1.169  -2.100  -0.249  1.00  0.00    -0.247 OA
ATOM     28  H   UNL     1      -1.500  -3.348  -1.277  1.00  0.00     0.161 HD
ATOM     29  H   UNL     1      -0.324  -4.073  -0.278  1.00  0.00     0.161 HD
ENDBRANCH  22  23
ENDBRANCH  15  20
ENDBRANCH   9  14
ENDBRANCH   5   8
ENDBRANCH   3   4
ENDBRANCH   2   3
ENDBRANCH   1   2
BRANCH   1  30
ATOM     30  C   UNL     1      11.131   5.746  -4.006  1.00  0.00     0.002 C 
BRANCH  30  31
ATOM     31  C   UNL     1      11.205   4.271  -4.429  1.00  0.00     0.021 C 
BRANCH  31  32
ATOM     32  C   UNL     1      11.609   4.093  -5.881  1.00  0.00     0.116 C 
BRANCH  32  33
ATOM     33  N   UNL     1      13.008   4.468  -6.118  1.00  0.00    -0.352 N 
ATOM     34  C   UNL     1      13.708   4.456  -7.315  1.00  0.00     0.251 C 
ATOM     35  H   UNL     1      13.512   4.767  -5.328  1.00  0.00     0.163 HD
ATOM     36  O   UNL     1      14.923   4.449  -7.353  1.00  0.00    -0.269 OA
BRANCH  34  37
ATOM     37  C   UNL     1      12.915   4.493  -8.553  1.00  0.00     0.039 A 
ATOM     38  C   UNL     1      13.202   3.701  -9.669  1.00  0.00     0.014 A 
ATOM     39  C   UNL     1      11.805   5.326  -8.526  1.00  0.00     0.014 A 
ATOM     40  C   UNL     1      12.313   3.726 -10.742  1.00  0.00     0.010 A 
ATOM     41  C   UNL     1      10.822   5.147  -9.446  1.00  0.00     0.010 A 
ATOM     42  C   UNL     1      11.124   4.456 -10.611  1.00  0.00    -0.014 A 
BRANCH  42  43
ATOM     43  C   UNL     1      10.109   4.520 -11.647  1.00  0.00     0.031 A 
ATOM     44  C   UNL     1       9.454   3.222 -11.958  1.00  0.00     0.074 A 
ATOM     45  C   UNL     1       9.615   5.720 -12.034  1.00  0.00     0.049 A 
ATOM     46  N   UNL     1       9.463   2.570 -13.072  1.00  0.00    -0.248 NA
ATOM     47  C   UNL     1       8.822   2.486 -10.848  1.00  0.00     0.031 C 
ATOM     48  C   UNL     1       9.939   7.061 -11.517  1.00  0.00     0.029 A 
ATOM     49  N   UNL     1       8.609   5.985 -12.906  1.00  0.00    -0.354 N 
ATOM     50  C   UNL     1       8.667   1.444 -12.867  1.00  0.00     0.074 A 
ATOM     51  C   UNL     1       8.467   1.347 -11.446  1.00  0.00     0.031 C 
ATOM     52  C   UNL     1       8.995   7.946 -11.905  1.00  0.00     0.029 A 
ATOM     53  C   UNL     1       8.114   7.286 -12.845  1.00  0.00     0.049 A 
ATOM     54  H   UNL     1       8.257   5.311 -13.532  1.00  0.00     0.167 HD
ATOM     55  C   UNL     1       8.043   0.820 -13.905  1.00  0.00     0.037 A 
ATOM     56  C   UNL     1       7.029   7.754 -13.511  1.00  0.00     0.037 A 
ATOM     57  C   UNL     1       8.602   1.242 -15.164  1.00  0.00     0.049 A 
ATOM     58  C   UNL     1       6.756   6.794 -14.612  1.00  0.00     0.074 A 
ATOM     59  C   UNL     1       9.845   1.139 -15.757  1.00  0.00     0.029 A 
ATOM     60  N   UNL     1       7.946   2.239 -15.845  1.00  0.00    -0.354 N 
ATOM     61  N   UNL     1       7.570   6.595 -15.614  1.00  0.00    -0.248 NA
ATOM     62  C   UNL     1       5.838   5.703 -14.324  1.00  0.00     0.031 C 
ATOM     63  C   UNL     1      10.044   2.393 -16.407  1.00  0.00     0.029 A 
ATOM     64  C   UNL     1       8.885   3.154 -16.249  1.00  0.00     0.049 A 
ATOM     65  H   UNL     1       6.977   2.288 -16.013  1.00  0.00     0.167 HD
ATOM     66  C   UNL     1       7.558   5.221 -15.817  1.00  0.00     0.074 A 
ATOM     67  C   UNL     1       6.429   4.731 -15.025  1.00  0.00     0.031 C 
ATOM     68  C   UNL     1       8.632   4.574 -16.360  1.00  0.00     0.037 A 
BRANCH  55  69
ATOM     69  C   UNL     1       6.709   0.115 -13.820  1.00  0.00     0.057 A 
ATOM     70  C   UNL     1       6.233  -0.585 -14.945  1.00  0.00     0.134 A 
ATOM     71  C   UNL     1       5.755   0.321 -12.803  1.00  0.00     0.134 A 
ATOM     72  F   UNL     1       7.038  -0.845 -15.987  1.00  0.00    -0.206 F 
ATOM     73  C   UNL     1       4.894  -0.975 -15.081  1.00  0.00     0.040 A 
ATOM     74  C   UNL     1       4.428  -0.110 -12.906  1.00  0.00     0.040 A 
ATOM     75  F   UNL     1       6.017   1.031 -11.700  1.00  0.00    -0.206 F 
ATOM     76  C   UNL     1       3.984  -0.730 -14.062  1.00  0.00     0.006 A 
ENDBRANCH  55  69
BRANCH  56  77
ATOM     77  C   UNL     1       6.018   8.727 -13.038  1.00  0.00     0.057 A 
ATOM     78  C   UNL     1       5.158   9.378 -13.933  1.00  0.00     0.134 A 
ATOM     79  C   UNL     1       5.680   8.823 -11.675  1.00  0.00     0.134 A 
ATOM     80  F   UNL     1       5.374   9.305 -15.254  1.00  0.00    -0.206 F 
ATOM     81  C   UNL     1       4.016  10.067 -13.501  1.00  0.00     0.040 A 
ATOM     82  C   UNL     1       4.543   9.508 -11.231  1.00  0.00     0.040 A 
ATOM     83  F   UNL     1       6.391   8.175 -10.741  1.00  0.00    -0.206 F 
ATOM     84  C   UNL     1       3.699  10.123 -12.147  1.00  0.00     0.006 A 
ENDBRANCH  56  77
BRANCH  68  85
ATOM     85  C   UNL     1       9.753   5.411 -16.925  1.00  0.00     0.057 A 
ATOM     86  C   UNL     1      10.587   6.241 -16.157  1.00  0.00     0.134 A 
ATOM     87  C   UNL     1      10.115   5.230 -18.263  1.00  0.00     0.134 A 
ATOM     88  F   UNL     1      10.382   6.408 -14.847  1.00  0.00    -0.206 F 
ATOM     89  C   UNL     1      11.707   6.880 -16.701  1.00  0.00     0.040 A 
ATOM     90  C   UNL     1      11.248   5.835 -18.812  1.00  0.00     0.040 A 
ATOM     91  F   UNL     1       9.402   4.407 -19.047  1.00  0.00    -0.206 F 
ATOM     92  C   UNL     1      12.046   6.669 -18.033  1.00  0.00     0.006 A 
ENDBRANCH  68  85
ENDBRANCH  42  43
ENDBRANCH  34  37
ENDBRANCH  32  33
ENDBRANCH  31  32
ENDBRANCH  30  31
ENDBRANCH   1  30
TORSDOF 16
