REMARK SMILES C[C@H](C[N@H+]1[C@@H]2CC[C@H]1C[C@H](CC(=O)NCCCCCCNC(=O)c1ccc(-c3c4nc(c(-c5c(F)cccc5F)c5ccc([nH]5)c(-c5c(F)cccc5F)c5nc(c(-c6c(F)cccc6F)c6ccc3[nH]6)C=C5)C=C4)cc1)C2)c1ccccc1
REMARK SMILES IDX 16 1 15 2 14 3 12 4 13 5 11 7 10 8 4 9 5 10 8 11 6 13 78 14
REMARK SMILES IDX 7 15 9 16 3 17 2 18 1 19 79 20 80 21 84 22 81 23 83 24 82 25
REMARK SMILES IDX 17 26 18 27 19 28 20 29 21 30 22 31 23 33 24 34 25 35 77 36
REMARK SMILES IDX 26 37 76 38 27 39 28 40 29 41 70 42 30 43 75 44 69 45 71 46
REMARK SMILES IDX 31 47 74 48 68 49 67 50 32 52 58 53 41 54 57 55 42 56 45 57
REMARK SMILES IDX 56 58 72 59 43 60 44 61 55 63 73 64 46 65 33 66 34 67 39 68
REMARK SMILES IDX 35 69 36 70 38 71 40 72 37 73 59 74 60 75 65 76 61 77 62 78
REMARK SMILES IDX 64 79 66 80 63 81 47 82 48 83 53 84 49 85 50 86 52 87 54 88
REMARK SMILES IDX 51 89
REMARK H PARENT 14 6 4 12 21 32 71 51 45 62
REMARK Flexibility Score: inf
ROOT
ATOM      1  C   UNL     1      -3.602   2.564  -1.260  1.00  0.00     0.021 C 
ENDROOT
BRANCH   1   2
ATOM      2  C   UNL     1      -4.041   1.230  -0.637  1.00  0.00     0.116 C 
BRANCH   2   3
ATOM      3  N   UNL     1      -4.460   0.277  -1.656  1.00  0.00    -0.356 N 
ATOM      4  C   UNL     1      -3.882  -0.865  -2.122  1.00  0.00     0.220 C 
ATOM      5  O   UNL     1      -4.471  -1.484  -3.013  1.00  0.00    -0.275 OA
ATOM      6  H   UNL     1      -5.318   0.500  -2.087  1.00  0.00     0.163 HD
BRANCH   4   7
ATOM      7  C   UNL     1      -2.561  -1.383  -1.577  1.00  0.00     0.104 C 
BRANCH   7   8
ATOM      8  C   UNL     1      -1.322  -0.835  -2.313  1.00  0.00     0.010 C 
ATOM      9  N   UNL     1       1.349   0.213  -1.457  1.00  0.00    -0.330 N 
ATOM     10  C   UNL     1       1.268  -1.008  -2.283  1.00  0.00     0.184 C 
ATOM     11  C   UNL     1       0.385   1.097  -2.092  1.00  0.00     0.184 C 
ATOM     12  H   UNL     1       2.240   0.710  -1.443  1.00  0.00     0.348 HD
ATOM     13  C   UNL     1       1.394  -0.414  -3.690  1.00  0.00     0.071 C 
ATOM     14  C   UNL     1      -0.086  -1.741  -2.105  1.00  0.00     0.069 C 
ATOM     15  C   UNL     1       0.798   0.987  -3.565  1.00  0.00     0.071 C 
ATOM     16  C   UNL     1      -1.045   0.615  -1.897  1.00  0.00     0.069 C 
BRANCH   9  17
ATOM     17  C   UNL     1       1.363  -0.046  -0.012  1.00  0.00     0.270 C 
BRANCH  17  18
ATOM     18  C   UNL     1       0.963   0.992   1.099  1.00  0.00     0.071 C 
ATOM     19  C   UNL     1       1.385   2.423   0.737  1.00  0.00     0.019 C 
BRANCH  18  20
ATOM     20  C   UNL     1      -0.441   0.867   1.719  1.00  0.00    -0.040 A 
ATOM     21  C   UNL     1      -1.089   1.972   2.299  1.00  0.00     0.004 A 
ATOM     22  C   UNL     1      -1.086  -0.377   1.850  1.00  0.00     0.004 A 
ATOM     23  C   UNL     1      -2.343   1.853   2.914  1.00  0.00     0.000 A 
ATOM     24  C   UNL     1      -2.348  -0.496   2.449  1.00  0.00     0.000 A 
ATOM     25  C   UNL     1      -2.983   0.622   2.972  1.00  0.00     0.000 A 
ENDBRANCH  18  20
ENDBRANCH  17  18
ENDBRANCH   9  17
ENDBRANCH   7   8
ENDBRANCH   4   7
ENDBRANCH   2   3
ENDBRANCH   1   2
BRANCH   1  26
ATOM     26  C   UNL     1      -4.576   3.727  -1.055  1.00  0.00     0.002 C 
BRANCH  26  27
ATOM     27  C   UNL     1      -4.690   4.239   0.383  1.00  0.00     0.002 C 
BRANCH  27  28
ATOM     28  C   UNL     1      -3.396   4.767   1.008  1.00  0.00     0.021 C 
BRANCH  28  29
ATOM     29  C   UNL     1      -2.723   5.932   0.288  1.00  0.00     0.116 C 
BRANCH  29  30
ATOM     30  N   UNL     1      -3.560   7.118   0.257  1.00  0.00    -0.352 N 
ATOM     31  C   UNL     1      -3.373   8.360   0.810  1.00  0.00     0.251 C 
ATOM     32  H   UNL     1      -4.401   7.014  -0.243  1.00  0.00     0.163 HD
ATOM     33  O   UNL     1      -4.309   9.155   0.831  1.00  0.00    -0.269 OA
BRANCH  31  34
ATOM     34  C   UNL     1      -2.068   8.761   1.389  1.00  0.00     0.039 A 
ATOM     35  C   UNL     1      -2.067   9.552   2.544  1.00  0.00     0.014 A 
ATOM     36  C   UNL     1      -0.856   8.438   0.773  1.00  0.00     0.014 A 
ATOM     37  C   UNL     1      -0.858   9.983   3.098  1.00  0.00     0.010 A 
ATOM     38  C   UNL     1       0.352   8.810   1.366  1.00  0.00     0.010 A 
ATOM     39  C   UNL     1       0.364   9.599   2.526  1.00  0.00    -0.014 A 
BRANCH  39  40
ATOM     40  C   UNL     1       1.656  10.041   3.113  1.00  0.00     0.031 A 
ATOM     41  C   UNL     1       2.566  10.962   2.344  1.00  0.00     0.074 A 
ATOM     42  C   UNL     1       2.034   9.583   4.322  1.00  0.00     0.049 A 
ATOM     43  N   UNL     1       3.748  11.421   2.671  1.00  0.00    -0.248 NA
ATOM     44  C   UNL     1       2.095  11.407   1.023  1.00  0.00     0.031 C 
ATOM     45  C   UNL     1       1.266   8.654   5.153  1.00  0.00     0.029 A 
ATOM     46  N   UNL     1       3.163   9.833   5.061  1.00  0.00    -0.354 N 
ATOM     47  C   UNL     1       4.167  12.191   1.593  1.00  0.00     0.074 A 
ATOM     48  C   UNL     1       3.135  12.099   0.583  1.00  0.00     0.031 C 
ATOM     49  C   UNL     1       1.935   8.430   6.295  1.00  0.00     0.029 A 
ATOM     50  C   UNL     1       3.191   9.173   6.266  1.00  0.00     0.049 A 
ATOM     51  H   UNL     1       3.886  10.429   4.756  1.00  0.00     0.167 HD
ATOM     52  C   UNL     1       5.297  12.928   1.463  1.00  0.00     0.037 A 
ATOM     53  C   UNL     1       4.124   9.166   7.236  1.00  0.00     0.037 A 
ATOM     54  C   UNL     1       6.309  13.046   2.480  1.00  0.00     0.049 A 
ATOM     55  C   UNL     1       5.366   9.998   7.073  1.00  0.00     0.074 A 
ATOM     56  C   UNL     1       7.459  13.817   2.467  1.00  0.00     0.029 A 
ATOM     57  N   UNL     1       6.291  12.376   3.694  1.00  0.00    -0.354 N 
ATOM     58  N   UNL     1       5.718  10.770   6.074  1.00  0.00    -0.248 NA
ATOM     59  C   UNL     1       6.336   9.962   8.177  1.00  0.00     0.031 C 
ATOM     60  C   UNL     1       8.155  13.584   3.658  1.00  0.00     0.029 A 
ATOM     61  C   UNL     1       7.418  12.701   4.430  1.00  0.00     0.049 A 
ATOM     62  H   UNL     1       5.581  11.760   3.988  1.00  0.00     0.167 HD
ATOM     63  C   UNL     1       6.935  11.331   6.438  1.00  0.00     0.074 A 
ATOM     64  C   UNL     1       7.254  10.822   7.756  1.00  0.00     0.031 C 
ATOM     65  C   UNL     1       7.719  12.190   5.742  1.00  0.00     0.037 A 
BRANCH  52  66
ATOM     66  C   UNL     1       5.495  13.670   0.173  1.00  0.00     0.057 A 
ATOM     67  C   UNL     1       4.725  14.792  -0.158  1.00  0.00     0.134 A 
ATOM     68  C   UNL     1       6.489  13.278  -0.733  1.00  0.00     0.134 A 
ATOM     69  F   UNL     1       3.749  15.213   0.661  1.00  0.00    -0.206 F 
ATOM     70  C   UNL     1       4.918  15.483  -1.356  1.00  0.00     0.040 A 
ATOM     71  C   UNL     1       6.709  13.976  -1.922  1.00  0.00     0.040 A 
ATOM     72  F   UNL     1       7.267  12.216  -0.474  1.00  0.00    -0.206 F 
ATOM     73  C   UNL     1       5.917  15.078  -2.239  1.00  0.00     0.006 A 
ENDBRANCH  52  66
BRANCH  53  74
ATOM     74  C   UNL     1       3.908   8.363   8.466  1.00  0.00     0.057 A 
ATOM     75  C   UNL     1       3.638   8.982   9.692  1.00  0.00     0.134 A 
ATOM     76  C   UNL     1       3.970   6.965   8.448  1.00  0.00     0.134 A 
ATOM     77  F   UNL     1       3.586  10.320   9.776  1.00  0.00    -0.206 F 
ATOM     78  C   UNL     1       3.454   8.241  10.860  1.00  0.00     0.040 A 
ATOM     79  C   UNL     1       3.765   6.210   9.604  1.00  0.00     0.040 A 
ATOM     80  F   UNL     1       4.218   6.313   7.303  1.00  0.00    -0.206 F 
ATOM     81  C   UNL     1       3.512   6.849  10.816  1.00  0.00     0.006 A 
ENDBRANCH  53  74
BRANCH  65  82
ATOM     82  C   UNL     1       8.981  12.655   6.406  1.00  0.00     0.057 A 
ATOM     83  C   UNL     1      10.092  11.815   6.551  1.00  0.00     0.134 A 
ATOM     84  C   UNL     1       9.098  13.970   6.875  1.00  0.00     0.134 A 
ATOM     85  F   UNL     1      10.039  10.540   6.133  1.00  0.00    -0.206 F 
ATOM     86  C   UNL     1      11.267  12.258   7.160  1.00  0.00     0.040 A 
ATOM     87  C   UNL     1      10.275  14.432   7.464  1.00  0.00     0.040 A 
ATOM     88  F   UNL     1       8.073  14.828   6.760  1.00  0.00    -0.206 F 
ATOM     89  C   UNL     1      11.362  13.573   7.613  1.00  0.00     0.006 A 
ENDBRANCH  65  82
ENDBRANCH  39  40
ENDBRANCH  31  34
ENDBRANCH  29  30
ENDBRANCH  28  29
ENDBRANCH  27  28
ENDBRANCH  26  27
ENDBRANCH   1  26
TORSDOF 17
