REMARK SMILES O=C(NCCCCCCNC(=O)c1ccc(S(=O)(=O)NCC[NH+]2CCCC2)c(F)c1)c1ccc(-c2c3nc(c(-c4c(F)cccc4F)c4ccc([nH]4)c(-c4c(F)cccc4F)c4nc(c(-c5c(F)cccc5F)c5ccc2[nH]5)C=C4)C=C3)cc1
REMARK SMILES IDX 8 1 7 2 6 3 5 4 4 5 3 6 1 7 2 8 31 10 32 11 84 12 33 13
REMARK SMILES IDX 83 14 34 15 35 16 36 17 77 18 37 19 82 20 76 21 78 22 38 23
REMARK SMILES IDX 81 24 75 25 74 26 39 28 65 29 48 30 64 31 49 32 52 33 63 34
REMARK SMILES IDX 79 35 50 36 51 37 62 39 80 40 53 41 40 42 41 43 46 44 42 45
REMARK SMILES IDX 43 46 45 47 47 48 44 49 66 50 67 51 72 52 68 53 69 54 71 55
REMARK SMILES IDX 73 56 70 57 54 58 55 59 60 60 56 61 57 62 59 63 61 64 58 65
REMARK SMILES IDX 9 66 10 67 11 68 12 70 13 71 14 72 30 73 15 74 28 75 16 76
REMARK SMILES IDX 29 77 17 78 18 79 19 80 20 81 21 83 22 84 23 85 24 86 27 87
REMARK SMILES IDX 25 89 26 90
REMARK H PARENT 3 9 78 27 52 38 10 69 20 82 23 88
REMARK Flexibility Score: inf
ROOT
ATOM      1  C   UNL     1       6.228  -4.423   0.931  1.00  0.00     0.021 C 
ENDROOT
BRANCH   1   2
ATOM      2  C   UNL     1       4.705  -4.342   1.069  1.00  0.00     0.002 C 
BRANCH   2   3
ATOM      3  C   UNL     1       4.179  -3.372   2.129  1.00  0.00     0.002 C 
BRANCH   3   4
ATOM      4  C   UNL     1       4.683  -1.931   2.026  1.00  0.00     0.021 C 
BRANCH   4   5
ATOM      5  C   UNL     1       4.475  -1.258   0.674  1.00  0.00     0.116 C 
BRANCH   5   6
ATOM      6  N   UNL     1       3.074  -1.139   0.312  1.00  0.00    -0.352 N 
ATOM      7  O   UNL     1       1.156  -0.096  -0.248  1.00  0.00    -0.269 OA
ATOM      8  C   UNL     1       2.374  -0.038  -0.115  1.00  0.00     0.251 C 
ATOM      9  H   UNL     1       2.549  -1.969   0.384  1.00  0.00     0.163 HD
BRANCH   8  10
ATOM     10  C   UNL     1       3.083   1.231  -0.392  1.00  0.00     0.039 A 
ATOM     11  C   UNL     1       4.264   1.251  -1.139  1.00  0.00     0.014 A 
ATOM     12  C   UNL     1       2.535   2.426   0.085  1.00  0.00     0.014 A 
ATOM     13  C   UNL     1       4.954   2.447  -1.312  1.00  0.00     0.010 A 
ATOM     14  C   UNL     1       3.196   3.635  -0.143  1.00  0.00     0.010 A 
ATOM     15  C   UNL     1       4.423   3.652  -0.823  1.00  0.00    -0.014 A 
BRANCH  15  16
ATOM     16  C   UNL     1       5.135   4.927  -1.082  1.00  0.00     0.031 A 
ATOM     17  C   UNL     1       5.769   5.702   0.038  1.00  0.00     0.074 A 
ATOM     18  C   UNL     1       5.222   5.376  -2.348  1.00  0.00     0.049 A 
ATOM     19  N   UNL     1       6.426   6.832  -0.014  1.00  0.00    -0.248 NA
ATOM     20  C   UNL     1       5.649   5.138   1.391  1.00  0.00     0.031 C 
ATOM     21  C   UNL     1       4.644   4.711  -3.517  1.00  0.00     0.029 A 
ATOM     22  N   UNL     1       5.841   6.484  -2.866  1.00  0.00    -0.354 N 
ATOM     23  C   UNL     1       6.786   7.124   1.294  1.00  0.00     0.074 A 
ATOM     24  C   UNL     1       6.258   6.062   2.124  1.00  0.00     0.031 C 
ATOM     25  C   UNL     1       4.971   5.401  -4.620  1.00  0.00     0.029 A 
ATOM     26  C   UNL     1       5.736   6.581  -4.232  1.00  0.00     0.049 A 
ATOM     27  H   UNL     1       6.315   7.147  -2.313  1.00  0.00     0.167 HD
ATOM     28  C   UNL     1       7.498   8.179   1.758  1.00  0.00     0.037 A 
ATOM     29  C   UNL     1       6.196   7.519  -5.079  1.00  0.00     0.037 A 
ATOM     30  C   UNL     1       8.036   9.226   0.929  1.00  0.00     0.049 A 
ATOM     31  C   UNL     1       6.961   8.690  -4.537  1.00  0.00     0.074 A 
ATOM     32  C   UNL     1       8.793  10.322   1.308  1.00  0.00     0.029 A 
ATOM     33  N   UNL     1       7.875   9.308  -0.446  1.00  0.00    -0.354 N 
ATOM     34  N   UNL     1       7.299   8.947  -3.297  1.00  0.00    -0.248 NA
ATOM     35  C   UNL     1       7.397   9.704  -5.506  1.00  0.00     0.031 C 
ATOM     36  C   UNL     1       9.063  11.084   0.167  1.00  0.00     0.029 A 
ATOM     37  C   UNL     1       8.505  10.444  -0.927  1.00  0.00     0.049 A 
ATOM     38  H   UNL     1       7.386   8.656  -0.997  1.00  0.00     0.167 HD
ATOM     39  C   UNL     1       7.994  10.147  -3.336  1.00  0.00     0.074 A 
ATOM     40  C   UNL     1       8.042  10.560  -4.724  1.00  0.00     0.031 C 
ATOM     41  C   UNL     1       8.539  10.844  -2.310  1.00  0.00     0.037 A 
BRANCH  28  42
ATOM     42  C   UNL     1       7.734   8.264   3.236  1.00  0.00     0.057 A 
ATOM     43  C   UNL     1       7.060   9.213   4.014  1.00  0.00     0.134 A 
ATOM     44  C   UNL     1       8.678   7.452   3.877  1.00  0.00     0.134 A 
ATOM     45  F   UNL     1       6.147  10.024   3.459  1.00  0.00    -0.206 F 
ATOM     46  C   UNL     1       7.322   9.358   5.377  1.00  0.00     0.040 A 
ATOM     47  C   UNL     1       8.937   7.576   5.244  1.00  0.00     0.040 A 
ATOM     48  F   UNL     1       9.350   6.517   3.189  1.00  0.00    -0.206 F 
ATOM     49  C   UNL     1       8.263   8.537   5.996  1.00  0.00     0.006 A 
ENDBRANCH  28  42
BRANCH  29  50
ATOM     50  C   UNL     1       5.946   7.370  -6.532  1.00  0.00     0.057 A 
ATOM     51  C   UNL     1       4.667   7.546  -7.073  1.00  0.00     0.134 A 
ATOM     52  C   UNL     1       6.973   6.994  -7.403  1.00  0.00     0.134 A 
ATOM     53  F   UNL     1       3.641   7.899  -6.284  1.00  0.00    -0.206 F 
ATOM     54  C   UNL     1       4.412   7.331  -8.427  1.00  0.00     0.040 A 
ATOM     55  C   UNL     1       6.737   6.795  -8.764  1.00  0.00     0.040 A 
ATOM     56  F   UNL     1       8.221   6.825  -6.942  1.00  0.00    -0.206 F 
ATOM     57  C   UNL     1       5.450   6.954  -9.277  1.00  0.00     0.006 A 
ENDBRANCH  29  50
BRANCH  41  58
ATOM     58  C   UNL     1       9.242  12.122  -2.647  1.00  0.00     0.057 A 
ATOM     59  C   UNL     1      10.640  12.196  -2.627  1.00  0.00     0.134 A 
ATOM     60  C   UNL     1       8.532  13.294  -2.931  1.00  0.00     0.134 A 
ATOM     61  F   UNL     1      11.376  11.108  -2.355  1.00  0.00    -0.206 F 
ATOM     62  C   UNL     1      11.309  13.397  -2.868  1.00  0.00     0.040 A 
ATOM     63  C   UNL     1       9.189  14.497  -3.192  1.00  0.00     0.040 A 
ATOM     64  F   UNL     1       7.191  13.282  -2.977  1.00  0.00    -0.206 F 
ATOM     65  C   UNL     1      10.582  14.552  -3.152  1.00  0.00     0.006 A 
ENDBRANCH  41  58
ENDBRANCH  15  16
ENDBRANCH   8  10
ENDBRANCH   5   6
ENDBRANCH   4   5
ENDBRANCH   3   4
ENDBRANCH   2   3
ENDBRANCH   1   2
BRANCH   1  66
ATOM     66  C   UNL     1       6.996  -4.697   2.221  1.00  0.00     0.116 C 
BRANCH  66  67
ATOM     67  N   UNL     1       6.619  -5.952   2.850  1.00  0.00    -0.352 N 
ATOM     68  C   UNL     1       7.421  -6.942   3.358  1.00  0.00     0.251 C 
ATOM     69  H   UNL     1       5.651  -6.114   2.921  1.00  0.00     0.163 HD
ATOM     70  O   UNL     1       6.941  -7.996   3.760  1.00  0.00    -0.269 OA
BRANCH  68  71
ATOM     71  C   UNL     1       8.884  -6.752   3.382  1.00  0.00     0.042 A 
ATOM     72  C   UNL     1       9.454  -5.613   3.963  1.00  0.00     0.015 A 
ATOM     73  C   UNL     1       9.692  -7.730   2.798  1.00  0.00     0.054 A 
ATOM     74  C   UNL     1      10.826  -5.401   3.851  1.00  0.00     0.026 A 
ATOM     75  C   UNL     1      11.066  -7.524   2.715  1.00  0.00     0.144 A 
ATOM     76  C   UNL     1      11.627  -6.350   3.200  1.00  0.00     0.118 A 
ATOM     77  F   UNL     1      11.807  -8.477   2.134  1.00  0.00    -0.205 F 
BRANCH  76  78
ATOM     78  S   UNL     1      13.323  -5.944   2.962  1.00  0.00     0.243 S 
ATOM     79  O   UNL     1      13.352  -4.580   2.482  1.00  0.00    -0.207 OA
ATOM     80  O   UNL     1      14.017  -6.337   4.168  1.00  0.00    -0.207 OA
BRANCH  78  81
ATOM     81  N   UNL     1      13.907  -6.912   1.751  1.00  0.00    -0.205 NA
ATOM     82  H   UNL     1      13.682  -7.868   2.028  1.00  0.00     0.141 HD
BRANCH  81  83
ATOM     83  C   UNL     1      13.503  -6.800   0.353  1.00  0.00     0.160 C 
BRANCH  83  84
ATOM     84  C   UNL     1      14.272  -5.729  -0.446  1.00  0.00     0.278 C 
BRANCH  84  85
ATOM     85  N   UNL     1      15.734  -5.774  -0.556  1.00  0.00    -0.334 N 
ATOM     86  C   UNL     1      16.316  -7.041  -0.981  1.00  0.00     0.262 C 
ATOM     87  C   UNL     1      16.451  -5.330   0.638  1.00  0.00     0.262 C 
ATOM     88  H   UNL     1      15.868  -5.101  -1.311  1.00  0.00     0.348 HD
ATOM     89  C   UNL     1      16.854  -7.697   0.275  1.00  0.00     0.067 C 
ATOM     90  C   UNL     1      17.168  -6.544   1.212  1.00  0.00     0.067 C 
ENDBRANCH  84  85
ENDBRANCH  83  84
ENDBRANCH  81  83
ENDBRANCH  78  81
ENDBRANCH  76  78
ENDBRANCH  68  71
ENDBRANCH  66  67
ENDBRANCH   1  66
TORSDOF 18
