REMARK SMILES C[C@@H](C(=O)NCCCCCCNC(=O)c1ccc(-c2c3nc(c(-c4c(F)cccc4F)c4ccc([nH]4)c(-c4c(F)cccc4F)c4nc(c(-c5c(F)cccc5F)c5ccc2[nH]5)C=C4)C=C3)cc1)c1ccc(C[C@@H]2CCC[C@@H]2O)cc1Br
REMARK SMILES IDX 7 1 6 2 5 3 3 4 4 5 2 7 1 8 69 9 70 10 81 11 71 12 80 13
REMARK SMILES IDX 82 14 72 15 73 16 74 17 75 18 78 19 76 20 77 21 79 22 8 24
REMARK SMILES IDX 9 25 10 26 11 27 12 28 13 29 14 31 15 32 16 33 68 34 17 35
REMARK SMILES IDX 67 36 18 37 19 38 20 39 61 40 21 41 66 42 60 43 62 44 22 45
REMARK SMILES IDX 65 46 59 47 58 48 23 50 49 51 32 52 48 53 33 54 36 55 47 56
REMARK SMILES IDX 63 57 34 58 35 59 46 61 64 62 37 63 24 64 25 65 30 66 26 67
REMARK SMILES IDX 27 68 29 69 31 70 28 71 50 72 51 73 56 74 52 75 53 76 55 77
REMARK SMILES IDX 57 78 54 79 38 80 39 81 44 82 40 83 41 84 43 85 45 86 42 87
REMARK H PARENT 5 6 79 23 12 30 62 49 36 60
REMARK Flexibility Score: inf
ROOT
ATOM      1  C   UNL     1      -9.891   3.358   9.683  1.00  0.00     0.021 C 
ENDROOT
BRANCH   1   2
ATOM      2  C   UNL     1     -10.652   3.219   8.360  1.00  0.00     0.116 C 
BRANCH   2   3
ATOM      3  N   UNL     1      -9.757   3.493   7.254  1.00  0.00    -0.356 N 
ATOM      4  C   UNL     1      -9.078   2.613   6.460  1.00  0.00     0.227 C 
ATOM      5  O   UNL     1      -8.110   3.049   5.834  1.00  0.00    -0.274 OA
ATOM      6  H   UNL     1      -9.619   4.445   7.046  1.00  0.00     0.163 HD
BRANCH   4   7
ATOM      7  C   UNL     1      -9.558   1.152   6.362  1.00  0.00     0.106 C 
ATOM      8  C   UNL     1      -9.082   0.401   7.618  1.00  0.00     0.023 C 
BRANCH   7   9
ATOM      9  C   UNL     1      -9.114   0.498   5.045  1.00  0.00    -0.022 A 
ATOM     10  C   UNL     1      -8.339  -0.674   5.059  1.00  0.00     0.006 A 
ATOM     11  C   UNL     1      -9.423   1.041   3.782  1.00  0.00     0.022 A 
ATOM     12  C   UNL     1      -7.806  -1.214   3.891  1.00  0.00     0.004 A 
ATOM     13  C   UNL     1      -8.836   0.528   2.613  1.00  0.00     0.019 A 
ATOM     14  Br  UNL     1     -10.654   2.476   3.550  1.00  0.00    -0.051 Br
ATOM     15  C   UNL     1      -7.968  -0.569   2.668  1.00  0.00    -0.047 A 
BRANCH  15  16
ATOM     16  C   UNL     1      -7.218  -1.044   1.449  1.00  0.00     0.041 C 
BRANCH  16  17
ATOM     17  C   UNL     1      -5.687  -0.802   1.400  1.00  0.00     0.022 C 
ATOM     18  C   UNL     1      -4.857  -1.468   2.507  1.00  0.00     0.007 C 
ATOM     19  C   UNL     1      -5.206   0.651   1.469  1.00  0.00     0.117 C 
ATOM     20  C   UNL     1      -4.563  -0.387   3.554  1.00  0.00     0.003 C 
ATOM     21  C   UNL     1      -5.025   0.938   2.955  1.00  0.00     0.032 C 
BRANCH  19  22
ATOM     22  O   UNL     1      -6.065   1.564   0.819  1.00  0.00    -0.393 OA
ATOM     23  H   UNL     1      -6.943   1.530   1.230  1.00  0.00     0.210 HD
ENDBRANCH  19  22
ENDBRANCH  16  17
ENDBRANCH  15  16
ENDBRANCH   7   9
ENDBRANCH   4   7
ENDBRANCH   2   3
ENDBRANCH   1   2
BRANCH   1  24
ATOM     24  C   UNL     1      -9.508   4.805  10.020  1.00  0.00     0.002 C 
BRANCH  24  25
ATOM     25  C   UNL     1     -10.694   5.764  10.156  1.00  0.00     0.002 C 
BRANCH  25  26
ATOM     26  C   UNL     1     -11.760   5.317  11.158  1.00  0.00     0.021 C 
BRANCH  26  27
ATOM     27  C   UNL     1     -11.240   5.149  12.580  1.00  0.00     0.116 C 
BRANCH  27  28
ATOM     28  N   UNL     1     -10.822   6.418  13.158  1.00  0.00    -0.352 N 
ATOM     29  C   UNL     1     -11.238   7.006  14.326  1.00  0.00     0.251 C 
ATOM     30  H   UNL     1     -10.151   6.922  12.641  1.00  0.00     0.163 HD
ATOM     31  O   UNL     1     -10.953   8.171  14.581  1.00  0.00    -0.269 OA
BRANCH  29  32
ATOM     32  C   UNL     1     -12.052   6.217  15.270  1.00  0.00     0.039 A 
ATOM     33  C   UNL     1     -13.232   6.763  15.779  1.00  0.00     0.014 A 
ATOM     34  C   UNL     1     -11.658   4.922  15.618  1.00  0.00     0.014 A 
ATOM     35  C   UNL     1     -14.056   5.982  16.591  1.00  0.00     0.010 A 
ATOM     36  C   UNL     1     -12.515   4.123  16.362  1.00  0.00     0.010 A 
ATOM     37  C   UNL     1     -13.720   4.645  16.859  1.00  0.00    -0.014 A 
BRANCH  37  38
ATOM     38  C   UNL     1     -14.598   3.763  17.666  1.00  0.00     0.031 A 
ATOM     39  C   UNL     1     -14.088   3.193  18.959  1.00  0.00     0.074 A 
ATOM     40  C   UNL     1     -15.797   3.385  17.186  1.00  0.00     0.049 A 
ATOM     41  N   UNL     1     -14.621   2.282  19.731  1.00  0.00    -0.248 NA
ATOM     42  C   UNL     1     -12.783   3.688  19.423  1.00  0.00     0.031 C 
ATOM     43  C   UNL     1     -16.382   3.836  15.922  1.00  0.00     0.029 A 
ATOM     44  N   UNL     1     -16.725   2.509  17.690  1.00  0.00    -0.354 N 
ATOM     45  C   UNL     1     -13.705   2.075  20.753  1.00  0.00     0.074 A 
ATOM     46  C   UNL     1     -12.561   2.915  20.474  1.00  0.00     0.031 C 
ATOM     47  C   UNL     1     -17.568   3.231  15.749  1.00  0.00     0.029 A 
ATOM     48  C   UNL     1     -17.805   2.318  16.864  1.00  0.00     0.049 A 
ATOM     49  H   UNL     1     -16.625   2.060  18.561  1.00  0.00     0.167 HD
ATOM     50  C   UNL     1     -13.815   1.268  21.836  1.00  0.00     0.037 A 
ATOM     51  C   UNL     1     -18.855   1.481  16.977  1.00  0.00     0.037 A 
ATOM     52  C   UNL     1     -14.966   0.452  22.115  1.00  0.00     0.049 A 
ATOM     53  C   UNL     1     -18.960   0.590  18.182  1.00  0.00     0.074 A 
ATOM     54  C   UNL     1     -15.211  -0.343  23.221  1.00  0.00     0.029 A 
ATOM     55  N   UNL     1     -16.062   0.319  21.274  1.00  0.00    -0.354 N 
ATOM     56  N   UNL     1     -18.122   0.454  19.182  1.00  0.00    -0.248 NA
ATOM     57  C   UNL     1     -20.154  -0.261  18.281  1.00  0.00     0.031 C 
ATOM     58  C   UNL     1     -16.428  -1.003  23.022  1.00  0.00     0.029 A 
ATOM     59  C   UNL     1     -16.971  -0.571  21.822  1.00  0.00     0.049 A 
ATOM     60  H   UNL     1     -16.176   0.787  20.416  1.00  0.00     0.167 HD
ATOM     61  C   UNL     1     -18.699  -0.472  20.042  1.00  0.00     0.074 A 
ATOM     62  C   UNL     1     -19.959  -0.865  19.446  1.00  0.00     0.031 C 
ATOM     63  C   UNL     1     -18.228  -0.946  21.221  1.00  0.00     0.037 A 
BRANCH  50  64
ATOM     64  C   UNL     1     -12.648   1.222  22.780  1.00  0.00     0.057 A 
ATOM     65  C   UNL     1     -12.276   2.326  23.561  1.00  0.00     0.134 A 
ATOM     66  C   UNL     1     -11.880   0.058  22.908  1.00  0.00     0.134 A 
ATOM     67  F   UNL     1     -12.961   3.477  23.481  1.00  0.00    -0.206 F 
ATOM     68  C   UNL     1     -11.158   2.289  24.395  1.00  0.00     0.040 A 
ATOM     69  C   UNL     1     -10.780  -0.003  23.765  1.00  0.00     0.040 A 
ATOM     70  F   UNL     1     -12.184  -1.040  22.199  1.00  0.00    -0.206 F 
ATOM     71  C   UNL     1     -10.408   1.119  24.501  1.00  0.00     0.006 A 
ENDBRANCH  50  64
BRANCH  51  72
ATOM     72  C   UNL     1     -19.888   1.462  15.912  1.00  0.00     0.057 A 
ATOM     73  C   UNL     1     -21.159   2.006  16.126  1.00  0.00     0.134 A 
ATOM     74  C   UNL     1     -19.615   0.940  14.641  1.00  0.00     0.134 A 
ATOM     75  F   UNL     1     -21.484   2.508  17.326  1.00  0.00    -0.206 F 
ATOM     76  C   UNL     1     -22.124   2.027  15.118  1.00  0.00     0.040 A 
ATOM     77  C   UNL     1     -20.563   0.975  13.617  1.00  0.00     0.040 A 
ATOM     78  F   UNL     1     -18.412   0.414  14.369  1.00  0.00    -0.206 F 
ATOM     79  C   UNL     1     -21.824   1.518  13.855  1.00  0.00     0.006 A 
ENDBRANCH  51  72
BRANCH  63  80
ATOM     80  C   UNL     1     -19.089  -1.915  21.978  1.00  0.00     0.057 A 
ATOM     81  C   UNL     1     -19.237  -3.247  21.576  1.00  0.00     0.134 A 
ATOM     82  C   UNL     1     -19.703  -1.527  23.176  1.00  0.00     0.134 A 
ATOM     83  F   UNL     1     -18.684  -3.679  20.433  1.00  0.00    -0.206 F 
ATOM     84  C   UNL     1     -19.970  -4.160  22.338  1.00  0.00     0.040 A 
ATOM     85  C   UNL     1     -20.416  -2.435  23.959  1.00  0.00     0.040 A 
ATOM     86  F   UNL     1     -19.593  -0.266  23.621  1.00  0.00    -0.206 F 
ATOM     87  C   UNL     1     -20.552  -3.757  23.539  1.00  0.00     0.006 A 
ENDBRANCH  63  80
ENDBRANCH  37  38
ENDBRANCH  29  32
ENDBRANCH  27  28
ENDBRANCH  26  27
ENDBRANCH  25  26
ENDBRANCH  24  25
ENDBRANCH   1  24
TORSDOF 17
