REMARK SMILES C=CCn1nc(C(=O)NCCCCCCNC(=O)c2ccc(-c3c4nc(c(-c5c(F)cccc5F)c5ccc([nH]5)c(-c5c(F)cccc5F)c5nc(c(-c6c(F)cccc6F)c6ccc3[nH]6)C=C5)C=C4)cc2)c2c1CC[C@@H]([NH+]1CCC(C(C)(C)O)CC1)C2
REMARK SMILES IDX 12 1 11 2 10 3 9 4 7 5 8 6 6 8 4 9 5 10 74 11 73 12 75 13
REMARK SMILES IDX 88 14 76 15 77 16 3 17 2 18 1 19 78 20 79 21 87 22 80 24
REMARK SMILES IDX 86 25 81 26 82 27 83 28 84 29 85 30 13 32 14 33 15 34 16 35
REMARK SMILES IDX 17 36 18 38 19 39 20 40 72 41 21 42 71 43 22 44 23 45 24 46
REMARK SMILES IDX 65 47 25 48 70 49 64 50 66 51 26 52 69 53 63 54 62 55 27 57
REMARK SMILES IDX 53 58 36 59 52 60 37 61 40 62 51 63 67 64 38 65 39 66 50 68
REMARK SMILES IDX 68 69 41 70 28 71 29 72 34 73 30 74 31 75 33 76 35 77 32 78
REMARK SMILES IDX 54 79 55 80 60 81 56 82 57 83 59 84 61 85 58 86 42 87 43 88
REMARK SMILES IDX 48 89 44 90 45 91 47 92 49 93 46 94
REMARK H PARENT 9 7 78 23 85 31 16 37 66 56 40 67
REMARK Flexibility Score: inf
ROOT
ATOM      1  C   UNL     1      -2.844   2.610  -9.392  1.00  0.00     0.002 C 
ENDROOT
BRANCH   1   2
ATOM      2  C   UNL     1      -2.528   2.165  -7.966  1.00  0.00     0.021 C 
BRANCH   2   3
ATOM      3  C   UNL     1      -3.617   1.302  -7.302  1.00  0.00     0.116 C 
BRANCH   3   4
ATOM      4  N   UNL     1      -3.143  -0.030  -6.983  1.00  0.00    -0.351 N 
ATOM      5  C   UNL     1      -2.768  -0.688  -5.834  1.00  0.00     0.272 C 
ATOM      6  O   UNL     1      -2.597  -1.904  -5.991  1.00  0.00    -0.267 OA
ATOM      7  H   UNL     1      -3.071  -0.602  -7.781  1.00  0.00     0.163 HD
BRANCH   5   8
ATOM      8  C   UNL     1      -2.588  -0.048  -4.505  1.00  0.00     0.153 A 
ATOM      9  N   UNL     1      -2.221  -0.037  -2.378  1.00  0.00    -0.265 N 
ATOM     10  N   UNL     1      -2.499  -0.849  -3.415  1.00  0.00    -0.167 NA
ATOM     11  C   UNL     1      -2.344   1.278  -2.710  1.00  0.00     0.043 A 
ATOM     12  C   UNL     1      -2.389   1.299  -4.089  1.00  0.00     0.012 A 
ATOM     13  C   UNL     1      -2.244   2.455  -1.814  1.00  0.00     0.062 C 
ATOM     14  C   UNL     1      -2.155   2.551  -4.839  1.00  0.00     0.105 C 
ATOM     15  C   UNL     1      -2.089   3.750  -2.638  1.00  0.00     0.072 C 
ATOM     16  C   UNL     1      -1.417   3.644  -4.034  1.00  0.00     0.189 C 
BRANCH   9  17
ATOM     17  C   UNL     1      -1.718  -0.619  -1.133  1.00  0.00     0.171 C 
BRANCH  17  18
ATOM     18  C   UNL     1      -0.216  -0.795  -1.152  1.00  0.00    -0.011 C 
ATOM     19  C   UNL     1       0.606  -0.530  -0.128  1.00  0.00     0.006 C 
ENDBRANCH  17  18
ENDBRANCH   9  17
BRANCH  16  20
ATOM     20  N   UNL     1       0.038   3.547  -4.273  1.00  0.00    -0.332 N 
ATOM     21  C   UNL     1       0.793   2.429  -3.740  1.00  0.00     0.262 C 
ATOM     22  C   UNL     1       0.806   4.773  -4.127  1.00  0.00     0.262 C 
ATOM     23  H   UNL     1      -0.062   3.329  -5.264  1.00  0.00     0.348 HD
ATOM     24  C   UNL     1       1.156   2.571  -2.270  1.00  0.00     0.068 C 
ATOM     25  C   UNL     1       1.048   5.146  -2.677  1.00  0.00     0.068 C 
ATOM     26  C   UNL     1       1.528   3.986  -1.768  1.00  0.00     0.031 C 
BRANCH  26  27
ATOM     27  C   UNL     1       1.109   4.234  -0.272  1.00  0.00     0.062 C 
ATOM     28  C   UNL     1       1.394   3.045   0.649  1.00  0.00     0.042 C 
ATOM     29  C   UNL     1       1.784   5.494   0.276  1.00  0.00     0.042 C 
BRANCH  27  30
ATOM     30  O   UNL     1      -0.303   4.459  -0.195  1.00  0.00    -0.390 OA
ATOM     31  H   UNL     1      -0.773   3.682  -0.534  1.00  0.00     0.211 HD
ENDBRANCH  27  30
ENDBRANCH  26  27
ENDBRANCH  16  20
ENDBRANCH   5   8
ENDBRANCH   3   4
ENDBRANCH   2   3
ENDBRANCH   1   2
BRANCH   1  32
ATOM     32  C   UNL     1      -4.085   3.508  -9.522  1.00  0.00     0.002 C 
BRANCH  32  33
ATOM     33  C   UNL     1      -4.054   4.861  -8.789  1.00  0.00     0.021 C 
BRANCH  33  34
ATOM     34  C   UNL     1      -3.043   5.848  -9.350  1.00  0.00     0.116 C 
BRANCH  34  35
ATOM     35  N   UNL     1      -3.291   6.182 -10.762  1.00  0.00    -0.352 N 
ATOM     36  C   UNL     1      -2.545   6.950 -11.649  1.00  0.00     0.251 C 
ATOM     37  H   UNL     1      -4.118   5.802 -11.139  1.00  0.00     0.163 HD
ATOM     38  O   UNL     1      -3.037   7.396 -12.668  1.00  0.00    -0.269 OA
BRANCH  36  39
ATOM     39  C   UNL     1      -1.128   7.205 -11.332  1.00  0.00     0.039 A 
ATOM     40  C   UNL     1      -0.455   8.385 -11.660  1.00  0.00     0.014 A 
ATOM     41  C   UNL     1      -0.479   6.206 -10.632  1.00  0.00     0.014 A 
ATOM     42  C   UNL     1       0.867   8.524 -11.236  1.00  0.00     0.010 A 
ATOM     43  C   UNL     1       0.617   6.520  -9.900  1.00  0.00     0.010 A 
ATOM     44  C   UNL     1       1.390   7.564 -10.357  1.00  0.00    -0.014 A 
BRANCH  44  45
ATOM     45  C   UNL     1       2.740   7.589  -9.830  1.00  0.00     0.031 A 
ATOM     46  C   UNL     1       3.022   8.789  -9.022  1.00  0.00     0.074 A 
ATOM     47  C   UNL     1       3.537   6.494  -9.835  1.00  0.00     0.049 A 
ATOM     48  N   UNL     1       3.715   9.819  -9.368  1.00  0.00    -0.248 NA
ATOM     49  C   UNL     1       2.287   8.956  -7.758  1.00  0.00     0.031 C 
ATOM     50  C   UNL     1       3.215   5.124 -10.277  1.00  0.00     0.029 A 
ATOM     51  N   UNL     1       4.801   6.353  -9.350  1.00  0.00    -0.354 N 
ATOM     52  C   UNL     1       3.716  10.647  -8.253  1.00  0.00     0.074 A 
ATOM     53  C   UNL     1       2.638  10.197  -7.415  1.00  0.00     0.031 C 
ATOM     54  C   UNL     1       4.163   4.264  -9.842  1.00  0.00     0.029 A 
ATOM     55  C   UNL     1       5.244   5.036  -9.262  1.00  0.00     0.049 A 
ATOM     56  H   UNL     1       5.356   7.120  -9.082  1.00  0.00     0.167 HD
ATOM     57  C   UNL     1       4.811  11.401  -7.962  1.00  0.00     0.037 A 
ATOM     58  C   UNL     1       6.425   4.620  -8.746  1.00  0.00     0.037 A 
ATOM     59  C   UNL     1       5.738  11.392  -9.069  1.00  0.00     0.049 A 
ATOM     60  C   UNL     1       7.334   5.788  -8.766  1.00  0.00     0.074 A 
ATOM     61  C   UNL     1       5.767  11.896 -10.351  1.00  0.00     0.029 A 
ATOM     62  N   UNL     1       6.663  10.380  -9.010  1.00  0.00    -0.354 N 
ATOM     63  N   UNL     1       7.757   6.354  -9.862  1.00  0.00    -0.248 NA
ATOM     64  C   UNL     1       7.471   6.591  -7.559  1.00  0.00     0.031 C 
ATOM     65  C   UNL     1       6.544  10.972 -11.114  1.00  0.00     0.029 A 
ATOM     66  C   UNL     1       7.008   9.965 -10.267  1.00  0.00     0.049 A 
ATOM     67  H   UNL     1       7.029  10.005  -8.176  1.00  0.00     0.167 HD
ATOM     68  C   UNL     1       7.804   7.705  -9.563  1.00  0.00     0.074 A 
ATOM     69  C   UNL     1       7.787   7.769  -8.106  1.00  0.00     0.031 C 
ATOM     70  C   UNL     1       7.533   8.638 -10.523  1.00  0.00     0.037 A 
BRANCH  57  71
ATOM     71  C   UNL     1       5.290  11.717  -6.562  1.00  0.00     0.057 A 
ATOM     72  C   UNL     1       6.354  12.623  -6.403  1.00  0.00     0.134 A 
ATOM     73  C   UNL     1       4.973  10.962  -5.413  1.00  0.00     0.134 A 
ATOM     74  F   UNL     1       6.767  13.384  -7.428  1.00  0.00    -0.206 F 
ATOM     75  C   UNL     1       7.086  12.722  -5.213  1.00  0.00     0.040 A 
ATOM     76  C   UNL     1       5.663  11.092  -4.205  1.00  0.00     0.040 A 
ATOM     77  F   UNL     1       4.059   9.986  -5.418  1.00  0.00    -0.206 F 
ATOM     78  C   UNL     1       6.744  11.951  -4.109  1.00  0.00     0.006 A 
ENDBRANCH  57  71
BRANCH  58  79
ATOM     79  C   UNL     1       6.722   3.397  -7.968  1.00  0.00     0.057 A 
ATOM     80  C   UNL     1       8.038   2.943  -7.796  1.00  0.00     0.134 A 
ATOM     81  C   UNL     1       5.755   2.825  -7.124  1.00  0.00     0.134 A 
ATOM     82  F   UNL     1       9.035   3.456  -8.532  1.00  0.00    -0.206 F 
ATOM     83  C   UNL     1       8.379   2.003  -6.814  1.00  0.00     0.040 A 
ATOM     84  C   UNL     1       6.082   1.885  -6.141  1.00  0.00     0.040 A 
ATOM     85  F   UNL     1       4.479   3.235  -7.162  1.00  0.00    -0.206 F 
ATOM     86  C   UNL     1       7.401   1.483  -5.971  1.00  0.00     0.006 A 
ENDBRANCH  58  79
BRANCH  70  87
ATOM     87  C   UNL     1       7.627   8.194 -11.956  1.00  0.00     0.057 A 
ATOM     88  C   UNL     1       6.754   7.287 -12.573  1.00  0.00     0.134 A 
ATOM     89  C   UNL     1       8.597   8.788 -12.770  1.00  0.00     0.134 A 
ATOM     90  F   UNL     1       5.745   6.726 -11.897  1.00  0.00    -0.206 F 
ATOM     91  C   UNL     1       6.867   6.958 -13.928  1.00  0.00     0.040 A 
ATOM     92  C   UNL     1       8.701   8.494 -14.131  1.00  0.00     0.040 A 
ATOM     93  F   UNL     1       9.439   9.700 -12.259  1.00  0.00    -0.206 F 
ATOM     94  C   UNL     1       7.841   7.567 -14.713  1.00  0.00     0.006 A 
ENDBRANCH  70  87
ENDBRANCH  44  45
ENDBRANCH  36  39
ENDBRANCH  34  35
ENDBRANCH  33  34
ENDBRANCH  32  33
ENDBRANCH   1  32
TORSDOF 18
