REMARK SMILES C[C@H](C(=O)NCCCCCCNC(=O)c1ccc(-c2c3nc(c(-c4c(F)cccc4F)c4ccc([nH]4)c(-c4c(F)cccc4F)c4nc(c(-c5c(F)cccc5F)c5ccc2[nH]5)C=C4)C=C3)cc1)c1ccc(C[C@@H]2CCC[C@H]2O)cc1
REMARK SMILES IDX 7 1 6 2 5 3 3 4 4 5 2 7 1 8 69 9 70 10 81 11 71 12 80 13
REMARK SMILES IDX 72 14 73 15 74 16 75 17 78 18 76 19 77 20 79 21 8 23 9 24
REMARK SMILES IDX 10 25 11 26 12 27 13 28 14 30 15 31 16 32 68 33 17 34 67 35
REMARK SMILES IDX 18 36 19 37 20 38 61 39 21 40 66 41 60 42 62 43 22 44 65 45
REMARK SMILES IDX 59 46 58 47 23 49 49 50 32 51 48 52 33 53 36 54 47 55 63 56
REMARK SMILES IDX 34 57 35 58 46 60 64 61 37 62 24 63 25 64 30 65 26 66 27 67
REMARK SMILES IDX 29 68 31 69 28 70 50 71 51 72 56 73 52 74 53 75 55 76 57 77
REMARK SMILES IDX 54 78 38 79 39 80 44 81 40 82 41 83 43 84 45 85 42 86
REMARK H PARENT 5 6 79 22 12 29 62 48 36 59
REMARK Flexibility Score: inf
ROOT
ATOM      1  C   UNL     1     -11.320   6.852   9.264  1.00  0.00     0.021 C 
ENDROOT
BRANCH   1   2
ATOM      2  C   UNL     1     -11.294   5.569   8.440  1.00  0.00     0.116 C 
BRANCH   2   3
ATOM      3  N   UNL     1     -11.538   5.803   7.029  1.00  0.00    -0.356 N 
ATOM      4  C   UNL     1     -11.147   5.066   5.942  1.00  0.00     0.227 C 
ATOM      5  O   UNL     1     -11.674   5.361   4.869  1.00  0.00    -0.274 OA
ATOM      6  H   UNL     1     -12.062   6.611   6.822  1.00  0.00     0.163 HD
BRANCH   4   7
ATOM      7  C   UNL     1     -10.131   3.933   6.142  1.00  0.00     0.105 C 
ATOM      8  C   UNL     1     -10.844   2.771   6.859  1.00  0.00     0.023 C 
BRANCH   7   9
ATOM      9  C   UNL     1      -9.369   3.410   4.919  1.00  0.00    -0.036 A 
ATOM     10  C   UNL     1      -8.569   2.262   5.067  1.00  0.00     0.005 A 
ATOM     11  C   UNL     1      -9.399   4.007   3.652  1.00  0.00     0.005 A 
ATOM     12  C   UNL     1      -7.894   1.693   3.987  1.00  0.00     0.004 A 
ATOM     13  C   UNL     1      -8.704   3.450   2.570  1.00  0.00     0.004 A 
ATOM     14  C   UNL     1      -7.941   2.288   2.727  1.00  0.00    -0.048 A 
BRANCH  14  15
ATOM     15  C   UNL     1      -7.170   1.713   1.568  1.00  0.00     0.041 C 
BRANCH  15  16
ATOM     16  C   UNL     1      -5.653   1.991   1.515  1.00  0.00     0.022 C 
ATOM     17  C   UNL     1      -4.843   1.327   2.636  1.00  0.00     0.007 C 
ATOM     18  C   UNL     1      -5.264   3.469   1.614  1.00  0.00     0.117 C 
ATOM     19  C   UNL     1      -4.554   2.405   3.681  1.00  0.00     0.003 C 
ATOM     20  C   UNL     1      -5.026   3.735   3.096  1.00  0.00     0.032 C 
BRANCH  18  21
ATOM     21  O   UNL     1      -4.045   3.688   0.899  1.00  0.00    -0.393 OA
ATOM     22  H   UNL     1      -3.351   3.115   1.260  1.00  0.00     0.210 HD
ENDBRANCH  18  21
ENDBRANCH  15  16
ENDBRANCH  14  15
ENDBRANCH   7   9
ENDBRANCH   4   7
ENDBRANCH   2   3
ENDBRANCH   1   2
BRANCH   1  23
ATOM     23  C   UNL     1     -12.603   7.684   9.141  1.00  0.00     0.002 C 
BRANCH  23  24
ATOM     24  C   UNL     1     -13.912   6.933   9.401  1.00  0.00     0.002 C 
BRANCH  24  25
ATOM     25  C   UNL     1     -14.025   6.254  10.767  1.00  0.00     0.021 C 
BRANCH  25  26
ATOM     26  C   UNL     1     -13.760   7.157  11.967  1.00  0.00     0.116 C 
BRANCH  26  27
ATOM     27  N   UNL     1     -14.656   8.299  12.022  1.00  0.00    -0.352 N 
ATOM     28  C   UNL     1     -15.327   8.829  13.092  1.00  0.00     0.251 C 
ATOM     29  H   UNL     1     -14.802   8.759  11.165  1.00  0.00     0.163 HD
ATOM     30  O   UNL     1     -16.153   9.726  12.914  1.00  0.00    -0.269 OA
BRANCH  28  31
ATOM     31  C   UNL     1     -15.092   8.312  14.457  1.00  0.00     0.039 A 
ATOM     32  C   UNL     1     -16.195   8.110  15.291  1.00  0.00     0.014 A 
ATOM     33  C   UNL     1     -13.803   8.046  14.928  1.00  0.00     0.014 A 
ATOM     34  C   UNL     1     -16.010   7.593  16.573  1.00  0.00     0.010 A 
ATOM     35  C   UNL     1     -13.625   7.463  16.182  1.00  0.00     0.010 A 
ATOM     36  C   UNL     1     -14.727   7.236  17.019  1.00  0.00    -0.014 A 
BRANCH  36  37
ATOM     37  C   UNL     1     -14.540   6.621  18.358  1.00  0.00     0.031 A 
ATOM     38  C   UNL     1     -13.777   7.343  19.433  1.00  0.00     0.074 A 
ATOM     39  C   UNL     1     -15.045   5.394  18.596  1.00  0.00     0.049 A 
ATOM     40  N   UNL     1     -13.526   6.965  20.662  1.00  0.00    -0.248 NA
ATOM     41  C   UNL     1     -13.200   8.649  19.079  1.00  0.00     0.031 C 
ATOM     42  C   UNL     1     -15.752   4.566  17.617  1.00  0.00     0.029 A 
ATOM     43  N   UNL     1     -15.041   4.630  19.736  1.00  0.00    -0.354 N 
ATOM     44  C   UNL     1     -12.773   7.987  21.226  1.00  0.00     0.074 A 
ATOM     45  C   UNL     1     -12.550   8.969  20.188  1.00  0.00     0.031 C 
ATOM     46  C   UNL     1     -16.137   3.422  18.205  1.00  0.00     0.029 A 
ATOM     47  C   UNL     1     -15.682   3.424  19.591  1.00  0.00     0.049 A 
ATOM     48  H   UNL     1     -14.620   4.920  20.577  1.00  0.00     0.167 HD
ATOM     49  C   UNL     1     -12.333   8.110  22.502  1.00  0.00     0.037 A 
ATOM     50  C   UNL     1     -15.883   2.431  20.478  1.00  0.00     0.037 A 
ATOM     51  C   UNL     1     -12.562   7.136  23.537  1.00  0.00     0.049 A 
ATOM     52  C   UNL     1     -15.389   2.596  21.888  1.00  0.00     0.074 A 
ATOM     53  C   UNL     1     -12.181   7.185  24.867  1.00  0.00     0.029 A 
ATOM     54  N   UNL     1     -13.234   5.937  23.358  1.00  0.00    -0.354 N 
ATOM     55  N   UNL     1     -14.733   3.598  22.423  1.00  0.00    -0.248 NA
ATOM     56  C   UNL     1     -15.676   1.499  22.823  1.00  0.00     0.031 C 
ATOM     57  C   UNL     1     -12.593   5.999  25.485  1.00  0.00     0.029 A 
ATOM     58  C   UNL     1     -13.270   5.232  24.550  1.00  0.00     0.049 A 
ATOM     59  H   UNL     1     -13.628   5.632  22.509  1.00  0.00     0.167 HD
ATOM     60  C   UNL     1     -14.548   3.262  23.757  1.00  0.00     0.074 A 
ATOM     61  C   UNL     1     -15.184   1.976  23.956  1.00  0.00     0.031 C 
ATOM     62  C   UNL     1     -13.906   3.953  24.731  1.00  0.00     0.037 A 
BRANCH  49  63
ATOM     63  C   UNL     1     -11.574   9.357  22.853  1.00  0.00     0.057 A 
ATOM     64  C   UNL     1     -12.212  10.603  22.938  1.00  0.00     0.134 A 
ATOM     65  C   UNL     1     -10.207   9.311  23.152  1.00  0.00     0.134 A 
ATOM     66  F   UNL     1     -13.517  10.719  22.653  1.00  0.00    -0.206 F 
ATOM     67  C   UNL     1     -11.513  11.759  23.288  1.00  0.00     0.040 A 
ATOM     68  C   UNL     1      -9.503  10.457  23.528  1.00  0.00     0.040 A 
ATOM     69  F   UNL     1      -9.536   8.151  23.095  1.00  0.00    -0.206 F 
ATOM     70  C   UNL     1     -10.155  11.686  23.592  1.00  0.00     0.006 A 
ENDBRANCH  49  63
BRANCH  50  71
ATOM     71  C   UNL     1     -16.603   1.199  20.067  1.00  0.00     0.057 A 
ATOM     72  C   UNL     1     -17.880   0.905  20.558  1.00  0.00     0.134 A 
ATOM     73  C   UNL     1     -16.022   0.278  19.187  1.00  0.00     0.134 A 
ATOM     74  F   UNL     1     -18.481   1.740  21.418  1.00  0.00    -0.206 F 
ATOM     75  C   UNL     1     -18.543  -0.274  20.213  1.00  0.00     0.040 A 
ATOM     76  C   UNL     1     -16.685  -0.891  18.811  1.00  0.00     0.040 A 
ATOM     77  F   UNL     1     -14.805   0.506  18.672  1.00  0.00    -0.206 F 
ATOM     78  C   UNL     1     -17.946  -1.174  19.333  1.00  0.00     0.006 A 
ENDBRANCH  50  71
BRANCH  62  79
ATOM     79  C   UNL     1     -13.882   3.337  26.099  1.00  0.00     0.057 A 
ATOM     80  C   UNL     1     -13.106   2.207  26.387  1.00  0.00     0.134 A 
ATOM     81  C   UNL     1     -14.633   3.890  27.144  1.00  0.00     0.134 A 
ATOM     82  F   UNL     1     -12.374   1.622  25.427  1.00  0.00    -0.206 F 
ATOM     83  C   UNL     1     -13.103   1.629  27.658  1.00  0.00     0.040 A 
ATOM     84  C   UNL     1     -14.616   3.338  28.426  1.00  0.00     0.040 A 
ATOM     85  F   UNL     1     -15.390   4.978  26.938  1.00  0.00    -0.206 F 
ATOM     86  C   UNL     1     -13.856   2.199  28.683  1.00  0.00     0.006 A 
ENDBRANCH  62  79
ENDBRANCH  36  37
ENDBRANCH  28  31
ENDBRANCH  26  27
ENDBRANCH  25  26
ENDBRANCH  24  25
ENDBRANCH  23  24
ENDBRANCH   1  23
TORSDOF 17
