REMARK SMILES CS(=O)(=O)c1ccc(/C=C(/C(=O)NCCCCCCNC(=O)c2ccc(-c3c4nc(c(-c5c(F)cccc5F)c5ccc([nH]5)c(-c5c(F)cccc5F)c5nc(c(-c6c(F)cccc6F)c6ccc3[nH]6)C=C5)C=C4)cc2)c2ccc(F)cc2)cc1
REMARK SMILES IDX 16 1 15 2 14 3 13 4 11 5 12 6 10 8 9 9 8 10 5 11 6 12 85 13
REMARK SMILES IDX 7 14 84 15 2 16 1 17 3 18 4 19 77 20 78 21 83 22 79 23 82 24
REMARK SMILES IDX 80 25 81 26 17 27 18 28 19 29 20 30 21 31 22 33 23 34 24 35
REMARK SMILES IDX 76 36 25 37 75 38 26 39 27 40 28 41 69 42 29 43 74 44 68 45
REMARK SMILES IDX 70 46 30 47 73 48 67 49 66 50 31 52 57 53 40 54 56 55 41 56
REMARK SMILES IDX 44 57 55 58 71 59 42 60 43 61 54 63 72 64 45 65 32 66 33 67
REMARK SMILES IDX 38 68 34 69 35 70 37 71 39 72 36 73 58 74 59 75 64 76 60 77
REMARK SMILES IDX 61 78 63 79 65 80 62 81 46 82 47 83 52 84 48 85 49 86 51 87
REMARK SMILES IDX 53 88 50 89
REMARK H PARENT 13 7 20 32 70 51 44 62
REMARK Flexibility Score: inf
ROOT
ATOM      1  C   UNL     1       3.490   4.409  -9.678  1.00  0.00     0.002 C 
ENDROOT
BRANCH   1   2
ATOM      2  C   UNL     1       3.063   3.689  -8.388  1.00  0.00     0.021 C 
BRANCH   2   3
ATOM      3  C   UNL     1       2.077   2.542  -8.633  1.00  0.00     0.116 C 
BRANCH   3   4
ATOM      4  N   UNL     1       2.777   1.431  -9.244  1.00  0.00    -0.352 N 
ATOM      5  C   UNL     1       3.240   0.236  -8.798  1.00  0.00     0.251 C 
ATOM      6  O   UNL     1       3.905  -0.416  -9.608  1.00  0.00    -0.269 OA
ATOM      7  H   UNL     1       2.957   1.575 -10.201  1.00  0.00     0.163 HD
BRANCH   5   8
ATOM      8  C   UNL     1       2.898  -0.347  -7.444  1.00  0.00     0.047 C 
ATOM      9  C   UNL     1       2.733   0.421  -6.343  1.00  0.00     0.022 C 
BRANCH   9  10
ATOM     10  C   UNL     1       2.228   0.043  -5.003  1.00  0.00    -0.025 A 
ATOM     11  C   UNL     1       1.016  -0.632  -2.562  1.00  0.00     0.067 A 
ATOM     12  C   UNL     1       2.014  -1.450  -3.092  1.00  0.00     0.021 A 
ATOM     13  C   UNL     1       0.635   0.538  -3.218  1.00  0.00     0.021 A 
ATOM     14  C   UNL     1       2.636  -1.093  -4.293  1.00  0.00     0.009 A 
ATOM     15  C   UNL     1       1.245   0.871  -4.431  1.00  0.00     0.009 A 
BRANCH  11  16
ATOM     16  S   UNL     1       0.170  -1.105  -1.072  1.00  0.00     0.175 S 
ATOM     17  C   UNL     1       0.863  -0.030   0.155  1.00  0.00     0.163 C 
ATOM     18  O   UNL     1       0.570  -2.465  -0.750  1.00  0.00    -0.224 OA
ATOM     19  O   UNL     1      -1.226  -0.762  -1.245  1.00  0.00    -0.224 OA
ENDBRANCH  11  16
ENDBRANCH   9  10
BRANCH   8  20
ATOM     20  C   UNL     1       2.922  -1.829  -7.345  1.00  0.00    -0.013 A 
ATOM     21  C   UNL     1       4.161  -2.483  -7.490  1.00  0.00     0.012 A 
ATOM     22  C   UNL     1       1.783  -2.589  -7.042  1.00  0.00     0.012 A 
ATOM     23  C   UNL     1       4.269  -3.860  -7.309  1.00  0.00     0.040 A 
ATOM     24  C   UNL     1       1.898  -3.969  -6.840  1.00  0.00     0.040 A 
ATOM     25  C   UNL     1       3.138  -4.588  -6.971  1.00  0.00     0.123 A 
ATOM     26  F   UNL     1       3.245  -5.906  -6.757  1.00  0.00    -0.207 F 
ENDBRANCH   8  20
ENDBRANCH   5   8
ENDBRANCH   3   4
ENDBRANCH   2   3
ENDBRANCH   1   2
BRANCH   1  27
ATOM     27  C   UNL     1       2.345   5.064 -10.459  1.00  0.00     0.002 C 
BRANCH  27  28
ATOM     28  C   UNL     1       1.487   6.036  -9.645  1.00  0.00     0.021 C 
BRANCH  28  29
ATOM     29  C   UNL     1       2.257   7.214  -9.055  1.00  0.00     0.116 C 
BRANCH  29  30
ATOM     30  N   UNL     1       2.827   8.057 -10.091  1.00  0.00    -0.352 N 
ATOM     31  C   UNL     1       2.700   9.406 -10.291  1.00  0.00     0.251 C 
ATOM     32  H   UNL     1       3.390   7.588 -10.748  1.00  0.00     0.163 HD
ATOM     33  O   UNL     1       3.067   9.902 -11.353  1.00  0.00    -0.269 OA
BRANCH  31  34
ATOM     34  C   UNL     1       2.113  10.269  -9.243  1.00  0.00     0.039 A 
ATOM     35  C   UNL     1       1.260  11.304  -9.632  1.00  0.00     0.014 A 
ATOM     36  C   UNL     1       2.431  10.095  -7.892  1.00  0.00     0.014 A 
ATOM     37  C   UNL     1       0.699  12.139  -8.666  1.00  0.00     0.010 A 
ATOM     38  C   UNL     1       1.810  10.881  -6.922  1.00  0.00     0.010 A 
ATOM     39  C   UNL     1       0.948  11.919  -7.300  1.00  0.00    -0.014 A 
BRANCH  39  40
ATOM     40  C   UNL     1       0.297  12.775  -6.276  1.00  0.00     0.031 A 
ATOM     41  C   UNL     1       1.112  13.680  -5.395  1.00  0.00     0.074 A 
ATOM     42  C   UNL     1      -1.042  12.723  -6.136  1.00  0.00     0.049 A 
ATOM     43  N   UNL     1       0.705  14.540  -4.494  1.00  0.00    -0.248 NA
ATOM     44  C   UNL     1       2.575  13.594  -5.520  1.00  0.00     0.031 C 
ATOM     45  C   UNL     1      -1.935  11.836  -6.883  1.00  0.00     0.029 A 
ATOM     46  N   UNL     1      -1.885  13.439  -5.325  1.00  0.00    -0.354 N 
ATOM     47  C   UNL     1       1.856  15.093  -3.949  1.00  0.00     0.074 A 
ATOM     48  C   UNL     1       2.979  14.428  -4.573  1.00  0.00     0.031 C 
ATOM     49  C   UNL     1      -3.204  12.092  -6.530  1.00  0.00     0.029 A 
ATOM     50  C   UNL     1      -3.213  13.139  -5.514  1.00  0.00     0.049 A 
ATOM     51  H   UNL     1      -1.570  14.104  -4.672  1.00  0.00     0.167 HD
ATOM     52  C   UNL     1       1.968  16.084  -3.031  1.00  0.00     0.037 A 
ATOM     53  C   UNL     1      -4.314  13.659  -4.941  1.00  0.00     0.037 A 
ATOM     54  C   UNL     1       0.847  16.753  -2.422  1.00  0.00     0.049 A 
ATOM     55  C   UNL     1      -4.163  14.771  -3.943  1.00  0.00     0.074 A 
ATOM     56  C   UNL     1       0.854  17.809  -1.527  1.00  0.00     0.029 A 
ATOM     57  N   UNL     1      -0.483  16.427  -2.642  1.00  0.00    -0.354 N 
ATOM     58  N   UNL     1      -3.070  15.344  -3.500  1.00  0.00    -0.248 NA
ATOM     59  C   UNL     1      -5.403  15.319  -3.376  1.00  0.00     0.031 C 
ATOM     60  C   UNL     1      -0.470  18.090  -1.169  1.00  0.00     0.029 A 
ATOM     61  C   UNL     1      -1.304  17.244  -1.882  1.00  0.00     0.049 A 
ATOM     62  H   UNL     1      -0.797  15.718  -3.249  1.00  0.00     0.167 HD
ATOM     63  C   UNL     1      -3.490  16.332  -2.619  1.00  0.00     0.074 A 
ATOM     64  C   UNL     1      -4.938  16.299  -2.614  1.00  0.00     0.031 C 
ATOM     65  C   UNL     1      -2.744  17.189  -1.877  1.00  0.00     0.037 A 
BRANCH  52  66
ATOM     66  C   UNL     1       3.355  16.505  -2.633  1.00  0.00     0.057 A 
ATOM     67  C   UNL     1       4.203  17.187  -3.517  1.00  0.00     0.134 A 
ATOM     68  C   UNL     1       3.837  16.258  -1.342  1.00  0.00     0.134 A 
ATOM     69  F   UNL     1       3.809  17.446  -4.773  1.00  0.00    -0.206 F 
ATOM     70  C   UNL     1       5.489  17.581  -3.141  1.00  0.00     0.040 A 
ATOM     71  C   UNL     1       5.110  16.672  -0.945  1.00  0.00     0.040 A 
ATOM     72  F   UNL     1       3.077  15.615  -0.442  1.00  0.00    -0.206 F 
ATOM     73  C   UNL     1       5.942  17.330  -1.848  1.00  0.00     0.006 A 
ENDBRANCH  52  66
BRANCH  53  74
ATOM     74  C   UNL     1      -5.658  13.161  -5.330  1.00  0.00     0.057 A 
ATOM     75  C   UNL     1      -6.542  13.960  -6.065  1.00  0.00     0.134 A 
ATOM     76  C   UNL     1      -6.092  11.878  -4.975  1.00  0.00     0.134 A 
ATOM     77  F   UNL     1      -6.189  15.204  -6.421  1.00  0.00    -0.206 F 
ATOM     78  C   UNL     1      -7.817  13.512  -6.412  1.00  0.00     0.040 A 
ATOM     79  C   UNL     1      -7.354  11.407  -5.339  1.00  0.00     0.040 A 
ATOM     80  F   UNL     1      -5.288  11.059  -4.281  1.00  0.00    -0.206 F 
ATOM     81  C   UNL     1      -8.224  12.229  -6.053  1.00  0.00     0.006 A 
ENDBRANCH  53  74
BRANCH  65  82
ATOM     82  C   UNL     1      -3.493  18.165  -1.015  1.00  0.00     0.057 A 
ATOM     83  C   UNL     1      -4.210  17.754   0.117  1.00  0.00     0.134 A 
ATOM     84  C   UNL     1      -3.500  19.532  -1.323  1.00  0.00     0.134 A 
ATOM     85  F   UNL     1      -4.254  16.458   0.460  1.00  0.00    -0.206 F 
ATOM     86  C   UNL     1      -4.942  18.660   0.886  1.00  0.00     0.040 A 
ATOM     87  C   UNL     1      -4.202  20.451  -0.543  1.00  0.00     0.040 A 
ATOM     88  F   UNL     1      -2.826  19.995  -2.386  1.00  0.00    -0.206 F 
ATOM     89  C   UNL     1      -4.936  20.015   0.558  1.00  0.00     0.006 A 
ENDBRANCH  65  82
ENDBRANCH  39  40
ENDBRANCH  31  34
ENDBRANCH  29  30
ENDBRANCH  28  29
ENDBRANCH  27  28
ENDBRANCH   1  27
TORSDOF 16
