REMARK SMILES CS(=O)(=O)c1ccc(/C=C(/C(=O)NCCCCCCNC(=O)c2ccc(-c3c4nc(c(-c5c(F)cccc5F)c5ccc([nH]5)c(-c5c(F)cccc5F)c5nc(c(-c6c(F)cccc6F)c6ccc3[nH]6)C=C5)C=C4)cc2)c2ccccc2)cc1
REMARK SMILES IDX 16 1 15 2 14 3 13 4 11 5 12 6 10 8 9 9 8 10 5 11 6 12 84 13
REMARK SMILES IDX 7 14 83 15 2 16 1 17 3 18 4 19 77 20 78 21 82 22 79 23 81 24
REMARK SMILES IDX 80 25 17 26 18 27 19 28 20 29 21 30 22 32 23 33 24 34 76 35
REMARK SMILES IDX 25 36 75 37 26 38 27 39 28 40 69 41 29 42 74 43 68 44 70 45
REMARK SMILES IDX 30 46 73 47 67 48 66 49 31 51 57 52 40 53 56 54 41 55 44 56
REMARK SMILES IDX 55 57 71 58 42 59 43 60 54 62 72 63 45 64 32 65 33 66 38 67
REMARK SMILES IDX 34 68 35 69 37 70 39 71 36 72 58 73 59 74 64 75 60 76 61 77
REMARK SMILES IDX 63 78 65 79 62 80 46 81 47 82 52 83 48 84 49 85 51 86 53 87
REMARK SMILES IDX 50 88
REMARK H PARENT 13 7 20 31 70 50 44 61
REMARK Flexibility Score: inf
ROOT
ATOM      1  C   UNL     1       5.026  -7.081  -7.435  1.00  0.00     0.002 C 
ENDROOT
BRANCH   1   2
ATOM      2  C   UNL     1       4.483  -6.210  -6.288  1.00  0.00     0.021 C 
BRANCH   2   3
ATOM      3  C   UNL     1       2.955  -6.106  -6.278  1.00  0.00     0.116 C 
BRANCH   3   4
ATOM      4  N   UNL     1       2.393  -7.367  -5.843  1.00  0.00    -0.352 N 
ATOM      5  C   UNL     1       1.853  -7.818  -4.683  1.00  0.00     0.251 C 
ATOM      6  O   UNL     1       1.596  -9.024  -4.652  1.00  0.00    -0.269 OA
ATOM      7  H   UNL     1       2.406  -8.053  -6.548  1.00  0.00     0.163 HD
BRANCH   5   8
ATOM      8  C   UNL     1       1.473  -6.921  -3.524  1.00  0.00     0.047 C 
ATOM      9  C   UNL     1       2.178  -5.815  -3.188  1.00  0.00     0.022 C 
BRANCH   9  10
ATOM     10  C   UNL     1       1.843  -4.759  -2.203  1.00  0.00    -0.025 A 
ATOM     11  C   UNL     1       0.994  -2.643  -0.552  1.00  0.00     0.067 A 
ATOM     12  C   UNL     1       0.911  -3.963  -0.103  1.00  0.00     0.021 A 
ATOM     13  C   UNL     1       1.565  -2.361  -1.791  1.00  0.00     0.021 A 
ATOM     14  C   UNL     1       1.360  -5.009  -0.914  1.00  0.00     0.009 A 
ATOM     15  C   UNL     1       1.984  -3.419  -2.609  1.00  0.00     0.009 A 
BRANCH  11  16
ATOM     16  S   UNL     1       0.326  -1.376   0.500  1.00  0.00     0.175 S 
ATOM     17  C   UNL     1       1.012   0.168  -0.024  1.00  0.00     0.163 C 
ATOM     18  O   UNL     1       0.832  -1.634   1.833  1.00  0.00    -0.224 OA
ATOM     19  O   UNL     1      -1.101  -1.336   0.232  1.00  0.00    -0.224 OA
ENDBRANCH  11  16
ENDBRANCH   9  10
BRANCH   8  20
ATOM     20  C   UNL     1       0.375  -7.415  -2.654  1.00  0.00    -0.013 A 
ATOM     21  C   UNL     1       0.607  -8.567  -1.881  1.00  0.00     0.009 A 
ATOM     22  C   UNL     1      -0.842  -6.738  -2.510  1.00  0.00     0.009 A 
ATOM     23  C   UNL     1      -0.337  -9.014  -0.959  1.00  0.00     0.001 A 
ATOM     24  C   UNL     1      -1.780  -7.177  -1.570  1.00  0.00     0.001 A 
ATOM     25  C   UNL     1      -1.525  -8.309  -0.793  1.00  0.00     0.000 A 
ENDBRANCH   8  20
ENDBRANCH   5   8
ENDBRANCH   3   4
ENDBRANCH   2   3
ENDBRANCH   1   2
BRANCH   1  26
ATOM     26  C   UNL     1       4.674  -6.584  -8.843  1.00  0.00     0.002 C 
BRANCH  26  27
ATOM     27  C   UNL     1       5.055  -5.129  -9.120  1.00  0.00     0.021 C 
BRANCH  27  28
ATOM     28  C   UNL     1       6.545  -4.841  -8.988  1.00  0.00     0.116 C 
BRANCH  28  29
ATOM     29  N   UNL     1       7.320  -5.540  -9.999  1.00  0.00    -0.352 N 
ATOM     30  C   UNL     1       8.190  -5.029 -10.929  1.00  0.00     0.251 C 
ATOM     31  H   UNL     1       7.205  -6.518 -10.020  1.00  0.00     0.163 HD
ATOM     32  O   UNL     1       8.585  -5.726 -11.858  1.00  0.00    -0.269 OA
BRANCH  30  33
ATOM     33  C   UNL     1       8.640  -3.627 -10.814  1.00  0.00     0.039 A 
ATOM     34  C   UNL     1       8.676  -2.830 -11.961  1.00  0.00     0.014 A 
ATOM     35  C   UNL     1       9.036  -3.105  -9.579  1.00  0.00     0.014 A 
ATOM     36  C   UNL     1       9.064  -1.493 -11.859  1.00  0.00     0.010 A 
ATOM     37  C   UNL     1       9.348  -1.754  -9.467  1.00  0.00     0.010 A 
ATOM     38  C   UNL     1       9.376  -0.938 -10.607  1.00  0.00    -0.014 A 
BRANCH  38  39
ATOM     39  C   UNL     1       9.752   0.492 -10.473  1.00  0.00     0.031 A 
ATOM     40  C   UNL     1      11.127   0.868  -9.996  1.00  0.00     0.074 A 
ATOM     41  C   UNL     1       8.838   1.448 -10.725  1.00  0.00     0.049 A 
ATOM     42  N   UNL     1      11.623   2.054  -9.753  1.00  0.00    -0.248 NA
ATOM     43  C   UNL     1      12.060  -0.239  -9.729  1.00  0.00     0.031 C 
ATOM     44  C   UNL     1       7.458   1.210 -11.153  1.00  0.00     0.029 A 
ATOM     45  N   UNL     1       8.930   2.815 -10.649  1.00  0.00    -0.354 N 
ATOM     46  C   UNL     1      12.916   1.836  -9.296  1.00  0.00     0.074 A 
ATOM     47  C   UNL     1      13.109   0.404  -9.237  1.00  0.00     0.031 C 
ATOM     48  C   UNL     1       6.841   2.390 -11.326  1.00  0.00     0.029 A 
ATOM     49  C   UNL     1       7.767   3.465 -10.984  1.00  0.00     0.049 A 
ATOM     50  H   UNL     1       9.752   3.286 -10.380  1.00  0.00     0.167 HD
ATOM     51  C   UNL     1      13.867   2.747  -8.977  1.00  0.00     0.037 A 
ATOM     52  C   UNL     1       7.479   4.780 -11.006  1.00  0.00     0.037 A 
ATOM     53  C   UNL     1      13.678   4.172  -9.058  1.00  0.00     0.049 A 
ATOM     54  C   UNL     1       8.546   5.772 -10.633  1.00  0.00     0.074 A 
ATOM     55  C   UNL     1      14.595   5.178  -8.811  1.00  0.00     0.029 A 
ATOM     56  N   UNL     1      12.489   4.792  -9.411  1.00  0.00    -0.354 N 
ATOM     57  N   UNL     1       9.786   5.553 -10.265  1.00  0.00    -0.248 NA
ATOM     58  C   UNL     1       8.177   7.193 -10.685  1.00  0.00     0.031 C 
ATOM     59  C   UNL     1      13.947   6.407  -8.966  1.00  0.00     0.029 A 
ATOM     60  C   UNL     1      12.642   6.168  -9.364  1.00  0.00     0.049 A 
ATOM     61  H   UNL     1      11.659   4.323  -9.659  1.00  0.00     0.167 HD
ATOM     62  C   UNL     1      10.352   6.807 -10.071  1.00  0.00     0.074 A 
ATOM     63  C   UNL     1       9.324   7.780 -10.376  1.00  0.00     0.031 C 
ATOM     64  C   UNL     1      11.610   7.124  -9.677  1.00  0.00     0.037 A 
BRANCH  51  65
ATOM     65  C   UNL     1      15.197   2.226  -8.514  1.00  0.00     0.057 A 
ATOM     66  C   UNL     1      16.077   1.565  -9.382  1.00  0.00     0.134 A 
ATOM     67  C   UNL     1      15.618   2.413  -7.191  1.00  0.00     0.134 A 
ATOM     68  F   UNL     1      15.731   1.342 -10.659  1.00  0.00    -0.206 F 
ATOM     69  C   UNL     1      17.311   1.082  -8.944  1.00  0.00     0.040 A 
ATOM     70  C   UNL     1      16.863   1.961  -6.749  1.00  0.00     0.040 A 
ATOM     71  F   UNL     1      14.829   3.043  -6.307  1.00  0.00    -0.206 F 
ATOM     72  C   UNL     1      17.710   1.286  -7.625  1.00  0.00     0.006 A 
ENDBRANCH  51  65
BRANCH  52  73
ATOM     73  C   UNL     1       6.127   5.239 -11.416  1.00  0.00     0.057 A 
ATOM     74  C   UNL     1       5.932   5.922 -12.622  1.00  0.00     0.134 A 
ATOM     75  C   UNL     1       5.002   5.016 -10.613  1.00  0.00     0.134 A 
ATOM     76  F   UNL     1       6.974   6.181 -13.427  1.00  0.00    -0.206 F 
ATOM     77  C   UNL     1       4.673   6.387 -13.005  1.00  0.00     0.040 A 
ATOM     78  C   UNL     1       3.733   5.452 -10.996  1.00  0.00     0.040 A 
ATOM     79  F   UNL     1       5.119   4.360  -9.449  1.00  0.00    -0.206 F 
ATOM     80  C   UNL     1       3.567   6.147 -12.192  1.00  0.00     0.006 A 
ENDBRANCH  52  73
BRANCH  64  81
ATOM     81  C   UNL     1      11.956   8.582  -9.588  1.00  0.00     0.057 A 
ATOM     82  C   UNL     1      11.444   9.405  -8.578  1.00  0.00     0.134 A 
ATOM     83  C   UNL     1      12.845   9.158 -10.505  1.00  0.00     0.134 A 
ATOM     84  F   UNL     1      10.577   8.918  -7.677  1.00  0.00    -0.206 F 
ATOM     85  C   UNL     1      11.786  10.756  -8.496  1.00  0.00     0.040 A 
ATOM     86  C   UNL     1      13.217  10.500 -10.415  1.00  0.00     0.040 A 
ATOM     87  F   UNL     1      13.379   8.423 -11.491  1.00  0.00    -0.206 F 
ATOM     88  C   UNL     1      12.681  11.305  -9.412  1.00  0.00     0.006 A 
ENDBRANCH  64  81
ENDBRANCH  38  39
ENDBRANCH  30  33
ENDBRANCH  28  29
ENDBRANCH  27  28
ENDBRANCH  26  27
ENDBRANCH   1  26
TORSDOF 16
