REMARK SMILES C[C@H]1[C@@H](C(=O)NCCCCCCNC(=O)c2ccc(-c3c4nc(c(-c5c(F)cccc5F)c5ccc([nH]5)c(-c5c(F)cccc5F)c5nc(c(-c6c(F)cccc6F)c6ccc3[nH]6)C=C5)C=C4)cc2)CC[N@@H+]1CC1(O)CCCC1
REMARK SMILES IDX 9 1 8 2 7 3 6 4 4 5 5 6 3 8 1 9 2 10 72 11 70 12 71 13 73 15
REMARK SMILES IDX 74 16 76 17 79 18 77 19 78 20 75 21 10 23 11 24 12 25 13 26
REMARK SMILES IDX 14 27 15 29 16 30 17 31 69 32 18 33 68 34 19 35 20 36 21 37
REMARK SMILES IDX 62 38 22 39 67 40 61 41 63 42 23 43 66 44 60 45 59 46 24 48
REMARK SMILES IDX 50 49 33 50 49 51 34 52 37 53 48 54 64 55 35 56 36 57 47 59
REMARK SMILES IDX 65 60 38 61 25 62 26 63 31 64 27 65 28 66 30 67 32 68 29 69
REMARK SMILES IDX 51 70 52 71 57 72 53 73 54 74 56 75 58 76 55 77 39 78 40 79
REMARK SMILES IDX 45 80 41 81 42 82 44 83 46 84 43 85
REMARK H PARENT 6 7 72 14 75 22 13 28 63 47 37 58
REMARK Flexibility Score: inf
ROOT
ATOM      1  C   UNL     1       4.440   1.253  -3.245  1.00  0.00     0.002 C 
ENDROOT
BRANCH   1   2
ATOM      2  C   UNL     1       3.631   0.657  -2.093  1.00  0.00     0.021 C 
BRANCH   2   3
ATOM      3  C   UNL     1       2.897   1.696  -1.239  1.00  0.00     0.116 C 
BRANCH   3   4
ATOM      4  N   UNL     1       1.648   2.014  -1.890  1.00  0.00    -0.356 N 
ATOM      5  C   UNL     1       0.424   1.443  -1.712  1.00  0.00     0.229 C 
ATOM      6  O   UNL     1      -0.346   1.506  -2.673  1.00  0.00    -0.275 OA
ATOM      7  H   UNL     1       1.686   2.742  -2.551  1.00  0.00     0.163 HD
BRANCH   5   8
ATOM      8  C   UNL     1      -0.010   0.933  -0.335  1.00  0.00     0.142 C 
ATOM      9  C   UNL     1       1.498  -1.243  -0.524  1.00  0.00     0.076 C 
ATOM     10  C   UNL     1       0.537  -0.378   0.279  1.00  0.00     0.193 C 
ATOM     11  N   UNL     1      -0.619  -1.241   0.546  1.00  0.00    -0.330 N 
ATOM     12  C   UNL     1      -1.539   0.749  -0.301  1.00  0.00     0.081 C 
ATOM     13  C   UNL     1      -1.739  -0.749  -0.240  1.00  0.00     0.263 C 
ATOM     14  H   UNL     1      -0.394  -2.184   0.229  1.00  0.00     0.348 HD
BRANCH  11  15
ATOM     15  C   UNL     1      -0.887  -1.587   1.946  1.00  0.00     0.297 C 
BRANCH  15  16
ATOM     16  C   UNL     1      -1.488  -0.556   2.938  1.00  0.00     0.113 C 
ATOM     17  C   UNL     1      -0.621   0.673   3.231  1.00  0.00     0.041 C 
ATOM     18  C   UNL     1      -1.625  -1.163   4.341  1.00  0.00     0.041 C 
ATOM     19  C   UNL     1      -1.137   1.212   4.566  1.00  0.00     0.003 C 
ATOM     20  C   UNL     1      -1.837   0.042   5.254  1.00  0.00     0.003 C 
BRANCH  16  21
ATOM     21  O   UNL     1      -2.798  -0.178   2.502  1.00  0.00    -0.384 OA
ATOM     22  H   UNL     1      -2.745   0.210   1.615  1.00  0.00     0.211 HD
ENDBRANCH  16  21
ENDBRANCH  15  16
ENDBRANCH  11  15
ENDBRANCH   5   8
ENDBRANCH   3   4
ENDBRANCH   2   3
ENDBRANCH   1   2
BRANCH   1  23
ATOM     23  C   UNL     1       5.711   1.980  -2.806  1.00  0.00     0.002 C 
BRANCH  23  24
ATOM     24  C   UNL     1       6.633   1.171  -1.888  1.00  0.00     0.021 C 
BRANCH  24  25
ATOM     25  C   UNL     1       6.990  -0.221  -2.404  1.00  0.00     0.116 C 
BRANCH  25  26
ATOM     26  N   UNL     1       7.679  -0.162  -3.682  1.00  0.00    -0.352 N 
ATOM     27  C   UNL     1       8.968  -0.506  -3.987  1.00  0.00     0.251 C 
ATOM     28  H   UNL     1       7.142   0.174  -4.436  1.00  0.00     0.163 HD
ATOM     29  O   UNL     1       9.466  -0.164  -5.059  1.00  0.00    -0.269 OA
BRANCH  27  30
ATOM     30  C   UNL     1       9.767  -1.284  -3.021  1.00  0.00     0.039 A 
ATOM     31  C   UNL     1      11.078  -0.888  -2.752  1.00  0.00     0.014 A 
ATOM     32  C   UNL     1       9.227  -2.414  -2.398  1.00  0.00     0.014 A 
ATOM     33  C   UNL     1      11.836  -1.598  -1.820  1.00  0.00     0.010 A 
ATOM     34  C   UNL     1       9.959  -3.079  -1.419  1.00  0.00     0.010 A 
ATOM     35  C   UNL     1      11.273  -2.683  -1.128  1.00  0.00    -0.014 A 
BRANCH  35  36
ATOM     36  C   UNL     1      12.050  -3.422  -0.103  1.00  0.00     0.031 A 
ATOM     37  C   UNL     1      12.414  -4.863  -0.327  1.00  0.00     0.074 A 
ATOM     38  C   UNL     1      12.377  -2.811   1.051  1.00  0.00     0.049 A 
ATOM     39  N   UNL     1      13.038  -5.691   0.472  1.00  0.00    -0.248 NA
ATOM     40  C   UNL     1      12.000  -5.460  -1.606  1.00  0.00     0.031 C 
ATOM     41  C   UNL     1      12.041  -1.430   1.403  1.00  0.00     0.029 A 
ATOM     42  N   UNL     1      13.059  -3.277   2.147  1.00  0.00    -0.354 N 
ATOM     43  C   UNL     1      13.080  -6.905  -0.202  1.00  0.00     0.074 A 
ATOM     44  C   UNL     1      12.372  -6.721  -1.450  1.00  0.00     0.031 C 
ATOM     45  C   UNL     1      12.537  -1.154   2.620  1.00  0.00     0.029 A 
ATOM     46  C   UNL     1      13.194  -2.346   3.148  1.00  0.00     0.049 A 
ATOM     47  H   UNL     1      13.417  -4.192   2.210  1.00  0.00     0.167 HD
ATOM     48  C   UNL     1      13.675  -8.062   0.176  1.00  0.00     0.037 A 
ATOM     49  C   UNL     1      13.776  -2.446   4.357  1.00  0.00     0.037 A 
ATOM     50  C   UNL     1      14.397  -8.234   1.408  1.00  0.00     0.049 A 
ATOM     51  C   UNL     1      14.422  -3.743   4.756  1.00  0.00     0.074 A 
ATOM     52  C   UNL     1      15.087  -9.348   1.856  1.00  0.00     0.029 A 
ATOM     53  N   UNL     1      14.521  -7.265   2.393  1.00  0.00    -0.354 N 
ATOM     54  N   UNL     1      14.512  -4.863   4.081  1.00  0.00    -0.248 NA
ATOM     55  C   UNL     1      15.050  -3.789   6.084  1.00  0.00     0.031 C 
ATOM     56  C   UNL     1      15.591  -9.066   3.130  1.00  0.00     0.029 A 
ATOM     57  C   UNL     1      15.255  -7.762   3.456  1.00  0.00     0.049 A 
ATOM     58  H   UNL     1      14.142  -6.358   2.342  1.00  0.00     0.167 HD
ATOM     59  C   UNL     1      15.227  -5.737   4.889  1.00  0.00     0.074 A 
ATOM     60  C   UNL     1      15.559  -5.012   6.098  1.00  0.00     0.031 C 
ATOM     61  C   UNL     1      15.578  -7.025   4.652  1.00  0.00     0.037 A 
BRANCH  48  62
ATOM     62  C   UNL     1      13.569  -9.231  -0.761  1.00  0.00     0.057 A 
ATOM     63  C   UNL     1      14.249  -9.259  -1.986  1.00  0.00     0.134 A 
ATOM     64  C   UNL     1      12.800 -10.352  -0.424  1.00  0.00     0.134 A 
ATOM     65  F   UNL     1      14.993  -8.213  -2.375  1.00  0.00    -0.206 F 
ATOM     66  C   UNL     1      14.146 -10.348  -2.854  1.00  0.00     0.040 A 
ATOM     67  C   UNL     1      12.712 -11.458  -1.271  1.00  0.00     0.040 A 
ATOM     68  F   UNL     1      12.128 -10.393   0.736  1.00  0.00    -0.206 F 
ATOM     69  C   UNL     1      13.380 -11.454  -2.494  1.00  0.00     0.006 A 
ENDBRANCH  48  62
BRANCH  49  70
ATOM     70  C   UNL     1      13.798  -1.274   5.268  1.00  0.00     0.057 A 
ATOM     71  C   UNL     1      14.991  -0.592   5.535  1.00  0.00     0.134 A 
ATOM     72  C   UNL     1      12.635  -0.811   5.894  1.00  0.00     0.134 A 
ATOM     73  F   UNL     1      16.141  -1.000   4.978  1.00  0.00    -0.206 F 
ATOM     74  C   UNL     1      15.030   0.499   6.405  1.00  0.00     0.040 A 
ATOM     75  C   UNL     1      12.656   0.293   6.748  1.00  0.00     0.040 A 
ATOM     76  F   UNL     1      11.459  -1.417   5.673  1.00  0.00    -0.206 F 
ATOM     77  C   UNL     1      13.858   0.947   7.011  1.00  0.00     0.006 A 
ENDBRANCH  49  70
BRANCH  61  78
ATOM     78  C   UNL     1      16.383  -7.722   5.709  1.00  0.00     0.057 A 
ATOM     79  C   UNL     1      15.814  -8.128   6.922  1.00  0.00     0.134 A 
ATOM     80  C   UNL     1      17.734  -8.023   5.494  1.00  0.00     0.134 A 
ATOM     81  F   UNL     1      14.528  -7.856   7.195  1.00  0.00    -0.206 F 
ATOM     82  C   UNL     1      16.566  -8.789   7.894  1.00  0.00     0.040 A 
ATOM     83  C   UNL     1      18.489  -8.707   6.446  1.00  0.00     0.040 A 
ATOM     84  F   UNL     1      18.337  -7.669   4.349  1.00  0.00    -0.206 F 
ATOM     85  C   UNL     1      17.906  -9.087   7.654  1.00  0.00     0.006 A 
ENDBRANCH  61  78
ENDBRANCH  35  36
ENDBRANCH  27  30
ENDBRANCH  25  26
ENDBRANCH  24  25
ENDBRANCH  23  24
ENDBRANCH   1  23
TORSDOF 16
