REMARK SMILES CCc1ccc([C@H](C)[N@@H+]2[C@@H](C(=O)NCCCCCCNC(=O)c3ccc(-c4c5nc(c(-c6c(F)cccc6F)c6ccc([nH]6)c(-c6c(F)cccc6F)c6nc(c(-c7c(F)cccc7F)c7ccc4[nH]7)C=C6)C=C5)cc3)C[C@H]3CCCC[C@H]32)s1
REMARK SMILES IDX 16 1 15 2 14 3 13 4 11 5 12 6 10 8 9 9 83 10 77 12 78 13
REMARK SMILES IDX 82 14 79 15 81 16 80 17 7 18 8 19 6 20 3 21 4 22 84 23 5 24
REMARK SMILES IDX 2 25 1 26 17 27 18 28 19 29 20 30 21 31 22 33 23 34 24 35
REMARK SMILES IDX 76 36 25 37 75 38 26 39 27 40 28 41 69 42 29 43 74 44 68 45
REMARK SMILES IDX 70 46 30 47 73 48 67 49 66 50 31 52 57 53 40 54 56 55 41 56
REMARK SMILES IDX 44 57 55 58 71 59 42 60 43 61 54 63 72 64 45 65 32 66 33 67
REMARK SMILES IDX 38 68 34 69 35 70 37 71 39 72 36 73 58 74 59 75 64 76 60 77
REMARK SMILES IDX 61 78 63 79 65 80 62 81 46 82 47 83 52 84 48 85 49 86 51 87
REMARK SMILES IDX 53 88 50 89
REMARK H PARENT 13 7 9 11 20 32 70 51 44 62
REMARK Flexibility Score: inf
ROOT
ATOM      1  C   UNL     1      -3.998   3.362  -8.887  1.00  0.00     0.002 C 
ENDROOT
BRANCH   1   2
ATOM      2  C   UNL     1      -3.128   3.510  -7.638  1.00  0.00     0.021 C 
BRANCH   2   3
ATOM      3  C   UNL     1      -2.625   2.205  -7.032  1.00  0.00     0.116 C 
BRANCH   3   4
ATOM      4  N   UNL     1      -1.710   1.489  -7.899  1.00  0.00    -0.351 N 
ATOM      5  C   UNL     1      -0.559   0.818  -7.554  1.00  0.00     0.278 C 
ATOM      6  O   UNL     1       0.055   0.238  -8.449  1.00  0.00    -0.268 OA
ATOM      7  H   UNL     1      -1.940   1.483  -8.856  1.00  0.00     0.163 HD
BRANCH   5   8
ATOM      8  C   UNL     1      -0.106   0.888  -6.077  1.00  0.00     0.275 C 
ATOM      9  N   UNL     1       1.212   0.225  -5.853  1.00  0.00    -0.315 N 
ATOM     10  C   UNL     1       0.952  -1.002  -5.075  1.00  0.00     0.188 C 
ATOM     11  H   UNL     1       1.655  -0.062  -6.726  1.00  0.00     0.349 HD
ATOM     12  C   UNL     1      -1.106   0.199  -5.136  1.00  0.00     0.085 C 
ATOM     13  C   UNL     1      -0.254  -0.654  -4.208  1.00  0.00     0.054 C 
ATOM     14  C   UNL     1       0.658  -2.171  -6.042  1.00  0.00     0.065 C 
ATOM     15  C   UNL     1      -0.975  -1.854  -3.600  1.00  0.00     0.010 C 
ATOM     16  C   UNL     1       0.023  -3.369  -5.339  1.00  0.00     0.006 C 
ATOM     17  C   UNL     1      -1.249  -2.970  -4.600  1.00  0.00     0.001 C 
BRANCH   9  18
ATOM     18  C   UNL     1       2.226   1.163  -5.306  1.00  0.00     0.223 C 
ATOM     19  C   UNL     1       1.819   1.941  -4.034  1.00  0.00     0.082 C 
BRANCH  18  20
ATOM     20  C   UNL     1       3.616   0.530  -5.191  1.00  0.00     0.062 A 
ATOM     21  C   UNL     1       5.893  -0.155  -4.425  1.00  0.00     0.005 A 
ATOM     22  C   UNL     1       5.644  -0.509  -5.737  1.00  0.00     0.016 A 
ATOM     23  S   UNL     1       4.537   0.620  -3.744  1.00  0.00    -0.139 S 
ATOM     24  C   UNL     1       4.341  -0.120  -6.175  1.00  0.00     0.022 A 
BRANCH  21  25
ATOM     25  C   UNL     1       7.173  -0.336  -3.651  1.00  0.00     0.043 C 
ATOM     26  C   UNL     1       7.015  -0.465  -2.141  1.00  0.00     0.010 C 
ENDBRANCH  21  25
ENDBRANCH  18  20
ENDBRANCH   9  18
ENDBRANCH   5   8
ENDBRANCH   3   4
ENDBRANCH   2   3
ENDBRANCH   1   2
BRANCH   1  27
ATOM     27  C   UNL     1      -5.213   2.442  -8.748  1.00  0.00     0.002 C 
BRANCH  27  28
ATOM     28  C   UNL     1      -6.160   2.745  -7.584  1.00  0.00     0.021 C 
BRANCH  28  29
ATOM     29  C   UNL     1      -6.679   4.178  -7.503  1.00  0.00     0.116 C 
BRANCH  29  30
ATOM     30  N   UNL     1      -7.393   4.592  -8.697  1.00  0.00    -0.352 N 
ATOM     31  C   UNL     1      -8.572   5.279  -8.821  1.00  0.00     0.251 C 
ATOM     32  H   UNL     1      -6.965   4.340  -9.547  1.00  0.00     0.163 HD
ATOM     33  O   UNL     1      -9.071   5.431  -9.938  1.00  0.00    -0.269 OA
BRANCH  31  34
ATOM     34  C   UNL     1      -9.272   5.816  -7.633  1.00  0.00     0.039 A 
ATOM     35  C   UNL     1     -10.663   5.693  -7.573  1.00  0.00     0.014 A 
ATOM     36  C   UNL     1      -8.586   6.461  -6.598  1.00  0.00     0.014 A 
ATOM     37  C   UNL     1     -11.358   6.167  -6.459  1.00  0.00     0.010 A 
ATOM     38  C   UNL     1      -9.274   6.875  -5.456  1.00  0.00     0.010 A 
ATOM     39  C   UNL     1     -10.667   6.736  -5.376  1.00  0.00    -0.014 A 
BRANCH  39  40
ATOM     40  C   UNL     1     -11.402   7.168  -4.159  1.00  0.00     0.031 A 
ATOM     41  C   UNL     1     -11.472   8.620  -3.775  1.00  0.00     0.074 A 
ATOM     42  C   UNL     1     -11.988   6.239  -3.380  1.00  0.00     0.049 A 
ATOM     43  N   UNL     1     -12.093   9.177  -2.766  1.00  0.00    -0.248 NA
ATOM     44  C   UNL     1     -10.729   9.568  -4.619  1.00  0.00     0.031 C 
ATOM     45  C   UNL     1     -11.940   4.793  -3.606  1.00  0.00     0.029 A 
ATOM     46  N   UNL     1     -12.744   6.372  -2.242  1.00  0.00    -0.354 N 
ATOM     47  C   UNL     1     -11.812  10.535  -2.850  1.00  0.00     0.074 A 
ATOM     48  C   UNL     1     -10.921  10.711  -3.977  1.00  0.00     0.031 C 
ATOM     49  C   UNL     1     -12.665   4.176  -2.660  1.00  0.00     0.029 A 
ATOM     50  C   UNL     1     -13.209   5.177  -1.748  1.00  0.00     0.049 A 
ATOM     51  H   UNL     1     -12.934   7.240  -1.820  1.00  0.00     0.167 HD
ATOM     52  C   UNL     1     -12.273  11.547  -2.075  1.00  0.00     0.037 A 
ATOM     53  C   UNL     1     -13.996   4.918  -0.688  1.00  0.00     0.037 A 
ATOM     54  C   UNL     1     -13.176  11.375  -0.966  1.00  0.00     0.049 A 
ATOM     55  C   UNL     1     -14.521   6.060   0.136  1.00  0.00     0.074 A 
ATOM     56  C   UNL     1     -13.741  12.343  -0.154  1.00  0.00     0.029 A 
ATOM     57  N   UNL     1     -13.646  10.152  -0.513  1.00  0.00    -0.354 N 
ATOM     58  N   UNL     1     -14.307   7.346  -0.002  1.00  0.00    -0.248 NA
ATOM     59  C   UNL     1     -15.412   5.714   1.252  1.00  0.00     0.031 C 
ATOM     60  C   UNL     1     -14.527  11.703   0.812  1.00  0.00     0.029 A 
ATOM     61  C   UNL     1     -14.485  10.339   0.574  1.00  0.00     0.049 A 
ATOM     62  H   UNL     1     -13.419   9.278  -0.907  1.00  0.00     0.167 HD
ATOM     63  C   UNL     1     -15.056   7.964   0.991  1.00  0.00     0.074 A 
ATOM     64  C   UNL     1     -15.743   6.912   1.711  1.00  0.00     0.031 C 
ATOM     65  C   UNL     1     -15.164   9.284   1.280  1.00  0.00     0.037 A 
BRANCH  52  66
ATOM     66  C   UNL     1     -11.811  12.936  -2.407  1.00  0.00     0.057 A 
ATOM     67  C   UNL     1     -12.255  13.604  -3.556  1.00  0.00     0.134 A 
ATOM     68  C   UNL     1     -10.942  13.628  -1.555  1.00  0.00     0.134 A 
ATOM     69  F   UNL     1     -13.080  12.995  -4.421  1.00  0.00    -0.206 F 
ATOM     70  C   UNL     1     -11.831  14.900  -3.859  1.00  0.00     0.040 A 
ATOM     71  C   UNL     1     -10.531  14.933  -1.833  1.00  0.00     0.040 A 
ATOM     72  F   UNL     1     -10.483  13.050  -0.434  1.00  0.00    -0.206 F 
ATOM     73  C   UNL     1     -10.971  15.570  -2.991  1.00  0.00     0.006 A 
ENDBRANCH  52  66
BRANCH  53  74
ATOM     74  C   UNL     1     -14.379   3.519  -0.374  1.00  0.00     0.057 A 
ATOM     75  C   UNL     1     -15.686   3.065  -0.586  1.00  0.00     0.134 A 
ATOM     76  C   UNL     1     -13.454   2.608   0.147  1.00  0.00     0.134 A 
ATOM     77  F   UNL     1     -16.620   3.898  -1.067  1.00  0.00    -0.206 F 
ATOM     78  C   UNL     1     -16.066   1.760  -0.272  1.00  0.00     0.040 A 
ATOM     79  C   UNL     1     -13.814   1.292   0.444  1.00  0.00     0.040 A 
ATOM     80  F   UNL     1     -12.184   2.980   0.364  1.00  0.00    -0.206 F 
ATOM     81  C   UNL     1     -15.126   0.867   0.240  1.00  0.00     0.006 A 
ENDBRANCH  53  74
BRANCH  65  82
ATOM     82  C   UNL     1     -16.084   9.659   2.404  1.00  0.00     0.057 A 
ATOM     83  C   UNL     1     -15.764   9.398   3.743  1.00  0.00     0.134 A 
ATOM     84  C   UNL     1     -17.304  10.296   2.143  1.00  0.00     0.134 A 
ATOM     85  F   UNL     1     -14.616   8.779   4.059  1.00  0.00    -0.206 F 
ATOM     86  C   UNL     1     -16.639   9.726   4.779  1.00  0.00     0.040 A 
ATOM     87  C   UNL     1     -18.176  10.653   3.173  1.00  0.00     0.040 A 
ATOM     88  F   UNL     1     -17.668  10.583   0.884  1.00  0.00    -0.206 F 
ATOM     89  C   UNL     1     -17.848  10.359   4.495  1.00  0.00     0.006 A 
ENDBRANCH  65  82
ENDBRANCH  39  40
ENDBRANCH  31  34
ENDBRANCH  29  30
ENDBRANCH  28  29
ENDBRANCH  27  28
ENDBRANCH   1  27
TORSDOF 16
