REMARK SMILES C[C@@H](C(=O)NCCCCCCNC(=O)c1ccc(-c2c3nc(c(-c4c(F)cccc4F)c4ccc([nH]4)c(-c4c(F)cccc4F)c4nc(c(-c5c(F)cccc5F)c5ccc2[nH]5)C=C4)C=C3)cc1)N1C(=O)/C(=C/c2nc3ccccc3[nH]2)SC1=S
REMARK SMILES IDX 8 1 7 2 6 3 5 4 3 5 4 6 2 8 1 9 69 10 70 11 84 12 71 13
REMARK SMILES IDX 72 14 83 15 85 16 73 17 74 18 75 19 82 20 76 21 81 22 77 24
REMARK SMILES IDX 80 25 78 26 79 27 9 28 10 29 11 30 12 31 13 32 14 34 15 35
REMARK SMILES IDX 16 36 68 37 17 38 67 39 18 40 19 41 20 42 61 43 21 44 66 45
REMARK SMILES IDX 60 46 62 47 22 48 65 49 59 50 58 51 23 53 49 54 32 55 48 56
REMARK SMILES IDX 33 57 36 58 47 59 63 60 34 61 35 62 46 64 64 65 37 66 24 67
REMARK SMILES IDX 25 68 30 69 26 70 27 71 29 72 31 73 28 74 50 75 51 76 56 77
REMARK SMILES IDX 52 78 53 79 55 80 57 81 54 82 38 83 39 84 44 85 40 86 41 87
REMARK SMILES IDX 43 88 45 89 42 90
REMARK H PARENT 5 7 82 23 12 33 62 52 36 63
REMARK Flexibility Score: inf
ROOT
ATOM      1  C   UNL     1       4.994  -1.821  -2.316  1.00  0.00     0.002 C 
ENDROOT
BRANCH   1   2
ATOM      2  C   UNL     1       4.239  -0.969  -1.288  1.00  0.00     0.021 C 
BRANCH   2   3
ATOM      3  C   UNL     1       3.395   0.143  -1.906  1.00  0.00     0.116 C 
BRANCH   3   4
ATOM      4  N   UNL     1       2.290  -0.403  -2.665  1.00  0.00    -0.354 N 
ATOM      5  C   UNL     1       0.955  -0.402  -2.383  1.00  0.00     0.242 C 
ATOM      6  O   UNL     1       0.200  -0.901  -3.220  1.00  0.00    -0.273 OA
ATOM      7  H   UNL     1       2.538  -0.841  -3.511  1.00  0.00     0.163 HD
BRANCH   5   8
ATOM      8  C   UNL     1       0.447   0.254  -1.081  1.00  0.00     0.178 C 
ATOM      9  C   UNL     1       0.851  -0.456   0.208  1.00  0.00     0.042 C 
BRANCH   8  10
ATOM     10  N   UNL     1      -1.007   0.454  -1.184  1.00  0.00    -0.281 N 
ATOM     11  C   UNL     1      -1.866  -0.635  -1.104  1.00  0.00     0.267 C 
ATOM     12  C   UNL     1      -1.590   1.681  -1.426  1.00  0.00     0.149 C 
ATOM     13  O   UNL     1      -1.565  -1.793  -0.837  1.00  0.00    -0.268 OA
ATOM     14  C   UNL     1      -3.266  -0.209  -1.351  1.00  0.00     0.084 C 
ATOM     15  S   UNL     1      -3.325   1.507  -1.494  1.00  0.00    -0.054 SA
ATOM     16  S   UNL     1      -0.859   3.173  -1.597  1.00  0.00    -0.052 S 
ATOM     17  C   UNL     1      -4.284  -1.083  -1.417  1.00  0.00     0.068 C 
BRANCH  17  18
ATOM     18  C   UNL     1      -5.600  -0.641  -1.691  1.00  0.00     0.132 A 
ATOM     19  N   UNL     1      -6.001   0.354  -2.451  1.00  0.00    -0.229 NA
ATOM     20  N   UNL     1      -6.671  -1.214  -1.045  1.00  0.00    -0.338 N 
ATOM     21  C   UNL     1      -7.310   0.564  -2.135  1.00  0.00     0.089 A 
ATOM     22  C   UNL     1      -7.768  -0.409  -1.256  1.00  0.00     0.066 A 
ATOM     23  H   UNL     1      -6.657  -2.050  -0.525  1.00  0.00     0.168 HD
ATOM     24  C   UNL     1      -8.156   1.603  -2.537  1.00  0.00     0.030 A 
ATOM     25  C   UNL     1      -9.070  -0.417  -0.752  1.00  0.00     0.028 A 
ATOM     26  C   UNL     1      -9.455   1.635  -2.024  1.00  0.00     0.002 A 
ATOM     27  C   UNL     1      -9.903   0.638  -1.153  1.00  0.00     0.002 A 
ENDBRANCH  17  18
ENDBRANCH   8  10
ENDBRANCH   5   8
ENDBRANCH   3   4
ENDBRANCH   2   3
ENDBRANCH   1   2
BRANCH   1  28
ATOM     28  C   UNL     1       5.931  -1.038  -3.241  1.00  0.00     0.002 C 
BRANCH  28  29
ATOM     29  C   UNL     1       6.963  -0.164  -2.526  1.00  0.00     0.021 C 
BRANCH  29  30
ATOM     30  C   UNL     1       7.896  -0.926  -1.593  1.00  0.00     0.116 C 
BRANCH  30  31
ATOM     31  N   UNL     1       8.722  -1.882  -2.310  1.00  0.00    -0.352 N 
ATOM     32  C   UNL     1      10.080  -2.064  -2.265  1.00  0.00     0.251 C 
ATOM     33  H   UNL     1       8.236  -2.487  -2.916  1.00  0.00     0.163 HD
ATOM     34  O   UNL     1      10.631  -2.787  -3.091  1.00  0.00    -0.269 OA
BRANCH  32  35
ATOM     35  C   UNL     1      10.887  -1.382  -1.230  1.00  0.00     0.039 A 
ATOM     36  C   UNL     1      12.125  -0.843  -1.589  1.00  0.00     0.014 A 
ATOM     37  C   UNL     1      10.446  -1.305   0.094  1.00  0.00     0.014 A 
ATOM     38  C   UNL     1      12.906  -0.202  -0.625  1.00  0.00     0.010 A 
ATOM     39  C   UNL     1      11.187  -0.594   1.034  1.00  0.00     0.010 A 
ATOM     40  C   UNL     1      12.436  -0.058   0.690  1.00  0.00    -0.014 A 
BRANCH  40  41
ATOM     41  C   UNL     1      13.262   0.611   1.727  1.00  0.00     0.031 A 
ATOM     42  C   UNL     1      13.757  -0.170   2.916  1.00  0.00     0.074 A 
ATOM     43  C   UNL     1      13.538   1.925   1.620  1.00  0.00     0.049 A 
ATOM     44  N   UNL     1      14.472   0.237   3.934  1.00  0.00    -0.248 NA
ATOM     45  C   UNL     1      13.373  -1.589   2.984  1.00  0.00     0.031 C 
ATOM     46  C   UNL     1      13.080   2.801   0.540  1.00  0.00     0.029 A 
ATOM     47  N   UNL     1      14.271   2.753   2.432  1.00  0.00    -0.354 N 
ATOM     48  C   UNL     1      14.605  -0.867   4.768  1.00  0.00     0.074 A 
ATOM     49  C   UNL     1      13.849  -1.943   4.168  1.00  0.00     0.031 C 
ATOM     50  C   UNL     1      13.573   4.035   0.737  1.00  0.00     0.029 A 
ATOM     51  C   UNL     1      14.351   4.045   1.972  1.00  0.00     0.049 A 
ATOM     52  H   UNL     1      14.700   2.450   3.264  1.00  0.00     0.167 HD
ATOM     53  C   UNL     1      15.315  -0.983   5.915  1.00  0.00     0.037 A 
ATOM     54  C   UNL     1      14.983   5.116   2.488  1.00  0.00     0.037 A 
ATOM     55  C   UNL     1      16.093   0.082   6.492  1.00  0.00     0.049 A 
ATOM     56  C   UNL     1      15.766   4.961   3.764  1.00  0.00     0.074 A 
ATOM     57  C   UNL     1      16.901   0.049   7.615  1.00  0.00     0.029 A 
ATOM     58  N   UNL     1      16.156   1.374   5.992  1.00  0.00    -0.354 N 
ATOM     59  N   UNL     1      15.946   3.892   4.501  1.00  0.00    -0.248 NA
ATOM     60  C   UNL     1      16.442   6.162   4.272  1.00  0.00     0.031 C 
ATOM     61  C   UNL     1      17.412   1.334   7.824  1.00  0.00     0.029 A 
ATOM     62  C   UNL     1      16.970   2.153   6.797  1.00  0.00     0.049 A 
ATOM     63  H   UNL     1      15.691   1.690   5.184  1.00  0.00     0.167 HD
ATOM     64  C   UNL     1      16.788   4.280   5.536  1.00  0.00     0.074 A 
ATOM     65  C   UNL     1      17.089   5.681   5.324  1.00  0.00     0.031 C 
ATOM     66  C   UNL     1      17.271   3.544   6.567  1.00  0.00     0.037 A 
BRANCH  53  67
ATOM     67  C   UNL     1      15.278  -2.308   6.623  1.00  0.00     0.057 A 
ATOM     68  C   UNL     1      15.884  -3.454   6.089  1.00  0.00     0.134 A 
ATOM     69  C   UNL     1      14.650  -2.434   7.869  1.00  0.00     0.134 A 
ATOM     70  F   UNL     1      16.494  -3.407   4.895  1.00  0.00    -0.206 F 
ATOM     71  C   UNL     1      15.837  -4.682   6.751  1.00  0.00     0.040 A 
ATOM     72  C   UNL     1      14.624  -3.649   8.555  1.00  0.00     0.040 A 
ATOM     73  F   UNL     1      14.055  -1.377   8.442  1.00  0.00    -0.206 F 
ATOM     74  C   UNL     1      15.211  -4.780   7.992  1.00  0.00     0.006 A 
ENDBRANCH  53  67
BRANCH  54  75
ATOM     75  C   UNL     1      14.940   6.421   1.781  1.00  0.00     0.057 A 
ATOM     76  C   UNL     1      16.087   6.951   1.178  1.00  0.00     0.134 A 
ATOM     77  C   UNL     1      13.764   7.176   1.703  1.00  0.00     0.134 A 
ATOM     78  F   UNL     1      17.249   6.283   1.234  1.00  0.00    -0.206 F 
ATOM     79  C   UNL     1      16.073   8.195   0.545  1.00  0.00     0.040 A 
ATOM     80  C   UNL     1      13.729   8.409   1.050  1.00  0.00     0.040 A 
ATOM     81  F   UNL     1      12.629   6.720   2.252  1.00  0.00    -0.206 F 
ATOM     82  C   UNL     1      14.889   8.926   0.476  1.00  0.00     0.006 A 
ENDBRANCH  54  75
BRANCH  66  83
ATOM     83  C   UNL     1      18.218   4.224   7.513  1.00  0.00     0.057 A 
ATOM     84  C   UNL     1      17.794   5.212   8.411  1.00  0.00     0.134 A 
ATOM     85  C   UNL     1      19.571   3.862   7.543  1.00  0.00     0.134 A 
ATOM     86  F   UNL     1      16.514   5.613   8.426  1.00  0.00    -0.206 F 
ATOM     87  C   UNL     1      18.688   5.838   9.281  1.00  0.00     0.040 A 
ATOM     88  C   UNL     1      20.468   4.459   8.430  1.00  0.00     0.040 A 
ATOM     89  F   UNL     1      20.042   2.915   6.717  1.00  0.00    -0.206 F 
ATOM     90  C   UNL     1      20.028   5.457   9.296  1.00  0.00     0.006 A 
ENDBRANCH  66  83
ENDBRANCH  40  41
ENDBRANCH  32  35
ENDBRANCH  30  31
ENDBRANCH  29  30
ENDBRANCH  28  29
ENDBRANCH   1  28
TORSDOF 15
