REMARK SMILES O=C(C[C@@H]([NH2+]Cc1cccnc1)C(=O)NCCCCCCNC(=O)c1ccc(-c2c3nc(c(-c4c(F)cccc4F)c4ccc([nH]4)c(-c4c(F)cccc4F)c4nc(c(-c5c(F)cccc5F)c5ccc2[nH]5)C=C4)C=C3)cc1)Nc1ccc2ccccc2c1
REMARK SMILES IDX 18 1 17 2 16 3 15 4 13 5 14 6 4 8 3 9 2 10 1 11 79 12 80 14
REMARK SMILES IDX 81 15 89 16 82 17 88 18 83 19 87 20 84 21 86 22 85 23 5 24
REMARK SMILES IDX 6 27 7 28 8 29 12 30 9 31 11 32 10 33 19 34 20 35 21 36
REMARK SMILES IDX 22 37 23 38 24 40 25 41 26 42 78 43 27 44 77 45 28 46 29 47
REMARK SMILES IDX 30 48 71 49 31 50 76 51 70 52 72 53 32 54 75 55 69 56 68 57
REMARK SMILES IDX 33 59 59 60 42 61 58 62 43 63 46 64 57 65 73 66 44 67 45 68
REMARK SMILES IDX 56 70 74 71 47 72 34 73 35 74 40 75 36 76 37 77 39 78 41 79
REMARK SMILES IDX 38 80 60 81 61 82 66 83 62 84 63 85 65 86 67 87 64 88 48 89
REMARK SMILES IDX 49 90 54 91 50 92 51 93 53 94 55 95 52 96
REMARK H PARENT 15 7 79 13 5 25 5 26 22 39 72 58 46 69
REMARK Flexibility Score: inf
ROOT
ATOM      1  C   UNL     1       6.367   4.439   1.705  1.00  0.00     0.002 C 
ENDROOT
BRANCH   1   2
ATOM      2  C   UNL     1       5.544   3.476   0.838  1.00  0.00     0.021 C 
BRANCH   2   3
ATOM      3  C   UNL     1       5.934   2.011   1.041  1.00  0.00     0.116 C 
BRANCH   3   4
ATOM      4  N   UNL     1       5.485   1.578   2.347  1.00  0.00    -0.351 N 
ATOM      5  C   UNL     1       4.424   0.800   2.693  1.00  0.00     0.278 C 
ATOM      6  O   UNL     1       4.149   0.711   3.892  1.00  0.00    -0.268 OA
ATOM      7  H   UNL     1       6.032   1.896   3.102  1.00  0.00     0.163 HD
BRANCH   5   8
ATOM      8  C   UNL     1       3.651  -0.025   1.642  1.00  0.00     0.282 C 
BRANCH   8   9
ATOM      9  C   UNL     1       2.868   0.920   0.705  1.00  0.00     0.175 C 
BRANCH   9  10
ATOM     10  C   UNL     1       2.022   0.224  -0.339  1.00  0.00     0.230 C 
ATOM     11  O   UNL     1       0.806   0.371  -0.382  1.00  0.00    -0.274 OA
ATOM     12  N   UNL     1       2.776  -0.564  -1.191  1.00  0.00    -0.326 N 
ATOM     13  H   UNL     1       3.756  -0.473  -1.167  1.00  0.00     0.169 HD
BRANCH  12  14
ATOM     14  C   UNL     1       2.214  -1.483  -2.086  1.00  0.00     0.041 A 
ATOM     15  C   UNL     1       2.673  -2.798  -2.021  1.00  0.00     0.027 A 
ATOM     16  C   UNL     1       1.230  -1.127  -3.008  1.00  0.00     0.034 A 
ATOM     17  C   UNL     1       2.058  -3.784  -2.787  1.00  0.00     0.011 A 
ATOM     18  C   UNL     1       0.699  -2.093  -3.883  1.00  0.00    -0.016 A 
ATOM     19  C   UNL     1       1.071  -3.447  -3.720  1.00  0.00    -0.018 A 
ATOM     20  C   UNL     1      -0.181  -1.753  -4.925  1.00  0.00     0.009 A 
ATOM     21  C   UNL     1       0.468  -4.433  -4.514  1.00  0.00     0.009 A 
ATOM     22  C   UNL     1      -0.709  -2.739  -5.763  1.00  0.00     0.001 A 
ATOM     23  C   UNL     1      -0.412  -4.080  -5.535  1.00  0.00     0.001 A 
ENDBRANCH  12  14
ENDBRANCH   9  10
ENDBRANCH   8   9
BRANCH   8  24
ATOM     24  N   UNL     1       4.549  -1.012   0.955  1.00  0.00    -0.332 N 
ATOM     25  H   UNL     1       5.102  -0.508   0.261  1.00  0.00     0.347 HD
ATOM     26  H   UNL     1       3.940  -1.720   0.545  1.00  0.00     0.347 HD
BRANCH  24  27
ATOM     27  C   UNL     1       5.482  -1.731   1.853  1.00  0.00     0.299 C 
BRANCH  27  28
ATOM     28  C   UNL     1       4.858  -2.907   2.556  1.00  0.00     0.024 A 
ATOM     29  C   UNL     1       5.095  -4.218   2.127  1.00  0.00     0.013 A 
ATOM     30  C   UNL     1       4.019  -2.746   3.655  1.00  0.00     0.120 A 
ATOM     31  C   UNL     1       4.476  -5.284   2.775  1.00  0.00     0.021 A 
ATOM     32  N   UNL     1       3.389  -3.761   4.289  1.00  0.00    -0.264 NA
ATOM     33  C   UNL     1       3.627  -5.006   3.832  1.00  0.00     0.111 A 
ENDBRANCH  27  28
ENDBRANCH  24  27
ENDBRANCH   8  24
ENDBRANCH   5   8
ENDBRANCH   3   4
ENDBRANCH   2   3
ENDBRANCH   1   2
BRANCH   1  34
ATOM     34  C   UNL     1       7.876   4.390   1.446  1.00  0.00     0.002 C 
BRANCH  34  35
ATOM     35  C   UNL     1       8.273   4.603  -0.016  1.00  0.00     0.021 C 
BRANCH  35  36
ATOM     36  C   UNL     1       7.803   5.932  -0.596  1.00  0.00     0.116 C 
BRANCH  36  37
ATOM     37  N   UNL     1       8.420   7.061   0.082  1.00  0.00    -0.352 N 
ATOM     38  C   UNL     1       9.145   8.097  -0.451  1.00  0.00     0.251 C 
ATOM     39  H   UNL     1       8.302   7.085   1.058  1.00  0.00     0.163 HD
ATOM     40  O   UNL     1       9.789   8.843   0.276  1.00  0.00    -0.269 OA
BRANCH  38  41
ATOM     41  C   UNL     1       9.156   8.295  -1.915  1.00  0.00     0.039 A 
ATOM     42  C   UNL     1      10.371   8.554  -2.553  1.00  0.00     0.014 A 
ATOM     43  C   UNL     1       7.971   8.218  -2.653  1.00  0.00     0.014 A 
ATOM     44  C   UNL     1      10.404   8.682  -3.942  1.00  0.00     0.010 A 
ATOM     45  C   UNL     1       8.019   8.266  -4.042  1.00  0.00     0.010 A 
ATOM     46  C   UNL     1       9.234   8.505  -4.700  1.00  0.00    -0.014 A 
BRANCH  46  47
ATOM     47  C   UNL     1       9.264   8.567  -6.183  1.00  0.00     0.031 A 
ATOM     48  C   UNL     1       8.495   9.634  -6.911  1.00  0.00     0.074 A 
ATOM     49  C   UNL     1       9.935   7.625  -6.874  1.00  0.00     0.049 A 
ATOM     50  N   UNL     1       8.349   9.814  -8.199  1.00  0.00    -0.248 NA
ATOM     51  C   UNL     1       7.771  10.612  -6.083  1.00  0.00     0.031 C 
ATOM     52  C   UNL     1      10.682   6.513  -6.283  1.00  0.00     0.029 A 
ATOM     53  N   UNL     1      10.090   7.448  -8.226  1.00  0.00    -0.354 N 
ATOM     54  C   UNL     1       7.512  10.914  -8.334  1.00  0.00     0.074 A 
ATOM     55  C   UNL     1       7.135  11.325  -7.000  1.00  0.00     0.031 C 
ATOM     56  C   UNL     1      11.236   5.785  -7.266  1.00  0.00     0.029 A 
ATOM     57  C   UNL     1      10.848   6.350  -8.554  1.00  0.00     0.049 A 
ATOM     58  H   UNL     1       9.695   8.050  -8.897  1.00  0.00     0.167 HD
ATOM     59  C   UNL     1       7.112  11.540  -9.467  1.00  0.00     0.037 A 
ATOM     60  C   UNL     1      11.183   5.849  -9.758  1.00  0.00     0.037 A 
ATOM     61  C   UNL     1       7.504  11.136 -10.792  1.00  0.00     0.049 A 
ATOM     62  C   UNL     1      10.710   6.550 -11.001  1.00  0.00     0.074 A 
ATOM     63  C   UNL     1       7.200  11.738 -12.001  1.00  0.00     0.029 A 
ATOM     64  N   UNL     1       8.279  10.024 -11.084  1.00  0.00    -0.354 N 
ATOM     65  N   UNL     1       9.977   7.632 -11.113  1.00  0.00    -0.248 NA
ATOM     66  C   UNL     1      11.115   5.964 -12.286  1.00  0.00     0.031 C 
ATOM     67  C   UNL     1       7.742  10.958 -13.026  1.00  0.00     0.029 A 
ATOM     68  C   UNL     1       8.439   9.905 -12.455  1.00  0.00     0.049 A 
ATOM     69  H   UNL     1       8.660   9.409 -10.415  1.00  0.00     0.167 HD
ATOM     70  C   UNL     1       9.860   7.874 -12.476  1.00  0.00     0.074 A 
ATOM     71  C   UNL     1      10.610   6.834 -13.150  1.00  0.00     0.031 C 
ATOM     72  C   UNL     1       9.193   8.868 -13.112  1.00  0.00     0.037 A 
BRANCH  59  73
ATOM     73  C   UNL     1       6.202  12.726  -9.322  1.00  0.00     0.057 A 
ATOM     74  C   UNL     1       6.643  13.935  -8.767  1.00  0.00     0.134 A 
ATOM     75  C   UNL     1       4.878  12.670  -9.775  1.00  0.00     0.134 A 
ATOM     76  F   UNL     1       7.896  14.054  -8.302  1.00  0.00    -0.206 F 
ATOM     77  C   UNL     1       5.792  15.036  -8.643  1.00  0.00     0.040 A 
ATOM     78  C   UNL     1       4.028  13.774  -9.686  1.00  0.00     0.040 A 
ATOM     79  F   UNL     1       4.391  11.547 -10.323  1.00  0.00    -0.206 F 
ATOM     80  C   UNL     1       4.482  14.959  -9.111  1.00  0.00     0.006 A 
ENDBRANCH  59  73
BRANCH  60  81
ATOM     81  C   UNL     1      12.021   4.626  -9.848  1.00  0.00     0.057 A 
ATOM     82  C   UNL     1      13.330   4.681 -10.341  1.00  0.00     0.134 A 
ATOM     83  C   UNL     1      11.533   3.373  -9.457  1.00  0.00     0.134 A 
ATOM     84  F   UNL     1      13.850   5.848 -10.748  1.00  0.00    -0.206 F 
ATOM     85  C   UNL     1      14.115   3.533 -10.464  1.00  0.00     0.040 A 
ATOM     86  C   UNL     1      12.316   2.221  -9.548  1.00  0.00     0.040 A 
ATOM     87  F   UNL     1      10.290   3.253  -8.967  1.00  0.00    -0.206 F 
ATOM     88  C   UNL     1      13.609   2.299 -10.062  1.00  0.00     0.006 A 
ENDBRANCH  60  81
BRANCH  72  89
ATOM     89  C   UNL     1       9.275   8.903 -14.611  1.00  0.00     0.057 A 
ATOM     90  C   UNL     1       8.631   7.953 -15.414  1.00  0.00     0.134 A 
ATOM     91  C   UNL     1       9.978   9.927 -15.260  1.00  0.00     0.134 A 
ATOM     92  F   UNL     1       7.951   6.940 -14.857  1.00  0.00    -0.206 F 
ATOM     93  C   UNL     1       8.705   8.006 -16.807  1.00  0.00     0.040 A 
ATOM     94  C   UNL     1      10.033  10.008 -16.652  1.00  0.00     0.040 A 
ATOM     95  F   UNL     1      10.610  10.875 -14.552  1.00  0.00    -0.206 F 
ATOM     96  C   UNL     1       9.401   9.040 -17.430  1.00  0.00     0.006 A 
ENDBRANCH  72  89
ENDBRANCH  46  47
ENDBRANCH  38  41
ENDBRANCH  36  37
ENDBRANCH  35  36
ENDBRANCH  34  35
ENDBRANCH   1  34
TORSDOF 19
