REMARK SMILES O=C(NCCCCCCNC(=O)c1cnc2sc(N3CCCCCC3)nn2c1=O)c1ccc(-c2c3nc(c(-c4c(F)cccc4F)c4ccc([nH]4)c(-c4c(F)cccc4F)c4nc(c(-c5c(F)cccc5F)c5ccc2[nH]5)C=C4)C=C3)cc1
REMARK SMILES IDX 8 1 7 2 6 3 5 4 4 5 3 6 1 7 2 8 30 10 31 11 83 12 32 13
REMARK SMILES IDX 82 14 33 15 34 16 35 17 76 18 36 19 81 20 75 21 77 22 37 23
REMARK SMILES IDX 80 24 74 25 73 26 38 28 64 29 47 30 63 31 48 32 51 33 62 34
REMARK SMILES IDX 78 35 49 36 50 37 61 39 79 40 52 41 39 42 40 43 45 44 41 45
REMARK SMILES IDX 42 46 44 47 46 48 43 49 65 50 66 51 71 52 67 53 68 54 70 55
REMARK SMILES IDX 72 56 69 57 53 58 54 59 59 60 55 61 56 62 58 63 60 64 57 65
REMARK SMILES IDX 9 66 10 67 11 68 12 70 13 71 14 72 28 73 15 74 27 75 29 76
REMARK SMILES IDX 16 77 26 78 17 79 18 80 19 81 20 82 21 83 25 85 24 86 23 87
REMARK SMILES IDX 22 88
REMARK H PARENT 3 9 77 27 51 38 10 69
REMARK Flexibility Score: 80.00
ROOT
ATOM      1  C   UNL     1       6.263  -3.659   2.377  1.00  0.00     0.021 C 
ENDROOT
BRANCH   1   2
ATOM      2  C   UNL     1       4.738  -3.564   2.476  1.00  0.00     0.002 C 
BRANCH   2   3
ATOM      3  C   UNL     1       4.204  -2.263   3.083  1.00  0.00     0.002 C 
BRANCH   3   4
ATOM      4  C   UNL     1       4.680  -0.980   2.399  1.00  0.00     0.021 C 
BRANCH   4   5
ATOM      5  C   UNL     1       4.409  -0.917   0.900  1.00  0.00     0.116 C 
BRANCH   5   6
ATOM      6  N   UNL     1       2.988  -0.954   0.595  1.00  0.00    -0.352 N 
ATOM      7  O   UNL     1       0.992  -0.142  -0.073  1.00  0.00    -0.269 OA
ATOM      8  C   UNL     1       2.217  -0.036  -0.070  1.00  0.00     0.251 C 
ATOM      9  H   UNL     1       2.510  -1.754   0.912  1.00  0.00     0.163 HD
BRANCH   8  10
ATOM     10  C   UNL     1       2.857   1.096  -0.769  1.00  0.00     0.039 A 
ATOM     11  C   UNL     1       3.971   0.895  -1.590  1.00  0.00     0.014 A 
ATOM     12  C   UNL     1       2.318   2.375  -0.616  1.00  0.00     0.014 A 
ATOM     13  C   UNL     1       4.619   1.987  -2.159  1.00  0.00     0.010 A 
ATOM     14  C   UNL     1       2.925   3.461  -1.249  1.00  0.00     0.010 A 
ATOM     15  C   UNL     1       4.095   3.279  -2.004  1.00  0.00    -0.014 A 
BRANCH  15  16
ATOM     16  C   UNL     1       4.741   4.436  -2.671  1.00  0.00     0.031 A 
ATOM     17  C   UNL     1       5.341   5.548  -1.861  1.00  0.00     0.074 A 
ATOM     18  C   UNL     1       4.747   4.499  -4.015  1.00  0.00     0.049 A 
ATOM     19  N   UNL     1       5.854   6.682  -2.266  1.00  0.00    -0.248 NA
ATOM     20  C   UNL     1       5.358   5.367  -0.402  1.00  0.00     0.031 C 
ATOM     21  C   UNL     1       4.196   3.478  -4.908  1.00  0.00     0.029 A 
ATOM     22  N   UNL     1       5.216   5.468  -4.864  1.00  0.00    -0.354 N 
ATOM     23  C   UNL     1       6.231   7.361  -1.115  1.00  0.00     0.074 A 
ATOM     24  C   UNL     1       5.864   6.522   0.007  1.00  0.00     0.031 C 
ATOM     25  C   UNL     1       4.362   3.871  -6.178  1.00  0.00     0.029 A 
ATOM     26  C   UNL     1       4.971   5.197  -6.188  1.00  0.00     0.049 A 
ATOM     27  H   UNL     1       5.683   6.278  -4.555  1.00  0.00     0.167 HD
ATOM     28  C   UNL     1       6.831   8.572  -1.006  1.00  0.00     0.037 A 
ATOM     29  C   UNL     1       5.175   5.947  -7.286  1.00  0.00     0.037 A 
ATOM     30  C   UNL     1       7.187   9.399  -2.131  1.00  0.00     0.049 A 
ATOM     31  C   UNL     1       5.791   7.308  -7.141  1.00  0.00     0.074 A 
ATOM     32  C   UNL     1       7.828  10.626  -2.130  1.00  0.00     0.029 A 
ATOM     33  N   UNL     1       6.918   9.091  -3.458  1.00  0.00    -0.354 N 
ATOM     34  N   UNL     1       6.176   7.926  -6.051  1.00  0.00    -0.248 NA
ATOM     35  C   UNL     1       6.003   8.075  -8.375  1.00  0.00     0.031 C 
ATOM     36  C   UNL     1       7.891  11.088  -3.449  1.00  0.00     0.029 A 
ATOM     37  C   UNL     1       7.353  10.118  -4.280  1.00  0.00     0.049 A 
ATOM     38  H   UNL     1       6.482   8.265  -3.768  1.00  0.00     0.167 HD
ATOM     39  C   UNL     1       6.706   9.139  -6.467  1.00  0.00     0.074 A 
ATOM     40  C   UNL     1       6.592   9.170  -7.911  1.00  0.00     0.031 C 
ATOM     41  C   UNL     1       7.246  10.132  -5.719  1.00  0.00     0.037 A 
BRANCH  28  42
ATOM     42  C   UNL     1       7.099   9.089   0.380  1.00  0.00     0.057 A 
ATOM     43  C   UNL     1       8.047   8.499   1.227  1.00  0.00     0.134 A 
ATOM     44  C   UNL     1       6.404  10.202   0.871  1.00  0.00     0.134 A 
ATOM     45  F   UNL     1       8.744   7.425   0.825  1.00  0.00    -0.206 F 
ATOM     46  C   UNL     1       8.264   8.971   2.524  1.00  0.00     0.040 A 
ATOM     47  C   UNL     1       6.635  10.703   2.153  1.00  0.00     0.040 A 
ATOM     48  F   UNL     1       5.491  10.825   0.111  1.00  0.00    -0.206 F 
ATOM     49  C   UNL     1       7.559  10.079   2.989  1.00  0.00     0.006 A 
ENDBRANCH  28  42
BRANCH  29  50
ATOM     50  C   UNL     1       4.777   5.415  -8.613  1.00  0.00     0.057 A 
ATOM     51  C   UNL     1       5.736   5.023  -9.552  1.00  0.00     0.134 A 
ATOM     52  C   UNL     1       3.429   5.242  -8.953  1.00  0.00     0.134 A 
ATOM     53  F   UNL     1       7.042   5.176  -9.287  1.00  0.00    -0.206 F 
ATOM     54  C   UNL     1       5.370   4.483 -10.786  1.00  0.00     0.040 A 
ATOM     55  C   UNL     1       3.050   4.679 -10.171  1.00  0.00     0.040 A 
ATOM     56  F   UNL     1       2.463   5.587  -8.089  1.00  0.00    -0.206 F 
ATOM     57  C   UNL     1       4.023   4.301 -11.094  1.00  0.00     0.006 A 
ENDBRANCH  29  50
BRANCH  41  58
ATOM     58  C   UNL     1       7.813  11.318  -6.445  1.00  0.00     0.057 A 
ATOM     59  C   UNL     1       7.000  12.279  -7.055  1.00  0.00     0.134 A 
ATOM     60  C   UNL     1       9.198  11.531  -6.471  1.00  0.00     0.134 A 
ATOM     61  F   UNL     1       5.667  12.128  -7.079  1.00  0.00    -0.206 F 
ATOM     62  C   UNL     1       7.544  13.406  -7.675  1.00  0.00     0.040 A 
ATOM     63  C   UNL     1       9.752  12.667  -7.061  1.00  0.00     0.040 A 
ATOM     64  F   UNL     1      10.034  10.651  -5.899  1.00  0.00    -0.206 F 
ATOM     65  C   UNL     1       8.924  13.608  -7.669  1.00  0.00     0.006 A 
ENDBRANCH  41  58
ENDBRANCH  15  16
ENDBRANCH   8  10
ENDBRANCH   5   6
ENDBRANCH   4   5
ENDBRANCH   3   4
ENDBRANCH   2   3
ENDBRANCH   1   2
BRANCH   1  66
ATOM     66  C   UNL     1       6.998  -3.528   3.708  1.00  0.00     0.116 C 
BRANCH  66  67
ATOM     67  N   UNL     1       6.694  -4.634   4.604  1.00  0.00    -0.352 N 
ATOM     68  C   UNL     1       7.554  -5.443   5.292  1.00  0.00     0.258 C 
ATOM     69  H   UNL     1       5.737  -4.826   4.732  1.00  0.00     0.163 HD
ATOM     70  O   UNL     1       7.128  -6.402   5.930  1.00  0.00    -0.269 OA
BRANCH  68  71
ATOM     71  C   UNL     1       8.998  -5.184   5.177  1.00  0.00     0.125 A 
ATOM     72  C   UNL     1       9.779  -6.135   4.640  1.00  0.00     0.134 A 
ATOM     73  C   UNL     1       9.612  -3.896   5.570  1.00  0.00     0.288 A 
ATOM     74  N   UNL     1      11.114  -5.987   4.329  1.00  0.00    -0.226 NA
ATOM     75  N   UNL     1      10.948  -3.808   5.234  1.00  0.00    -0.165 N 
ATOM     76  O   UNL     1       8.951  -3.006   6.100  1.00  0.00    -0.266 OA
ATOM     77  C   UNL     1      11.616  -4.833   4.620  1.00  0.00     0.217 A 
ATOM     78  N   UNL     1      11.665  -2.673   5.487  1.00  0.00    -0.133 NA
ATOM     79  S   UNL     1      13.235  -4.338   4.254  1.00  0.00    -0.057 S 
ATOM     80  C   UNL     1      12.870  -2.801   5.024  1.00  0.00     0.208 A 
BRANCH  80  81
ATOM     81  N   UNL     1      13.853  -1.848   5.144  1.00  0.00    -0.347 N 
BRANCH  81  82
ATOM     82  C   UNL     1      14.472  -1.270   3.954  1.00  0.00     0.119 C 
BRANCH  82  83
ATOM     83  C   UNL     1      15.944  -1.652   3.859  1.00  0.00     0.021 CG0
ATOM     84  G   UNL     1      16.848  -0.933   4.858  1.00  0.00     0.000 G0
ENDBRANCH  82  83
ENDBRANCH  81  82
BRANCH  81  85
ATOM     85  C   UNL     1      13.863  -1.063   6.379  1.00  0.00     0.119 C 
BRANCH  85  86
ATOM     86  C   UNL     1      15.158  -0.303   6.647  1.00  0.00     0.021 C 
BRANCH  86  87
ATOM     87  C   UNL     1      16.433  -1.079   6.322  1.00  0.00     0.002 C 
BRANCH  87  88
ATOM     88  C   UNL     1      16.848  -0.933   4.858  1.00  0.00     0.002 CG0
ATOM     89  G   UNL     1      15.944  -1.652   3.859  1.00  0.00     0.000 G0
ENDBRANCH  87  88
ENDBRANCH  86  87
ENDBRANCH  85  86
ENDBRANCH  81  85
ENDBRANCH  80  81
ENDBRANCH  68  71
ENDBRANCH  66  67
ENDBRANCH   1  66
TORSDOF 14
