REMARK SMILES CCCc1cc(OC(F)(F)F)cc2c1O[C@@H](C(F)(F)F)C(C(=O)NCCCCCCNC(=O)c1ccc(-c3c4nc(c(-c5c(F)cccc5F)c5ccc([nH]5)c(-c5c(F)cccc5F)c5nc(c(-c6c(F)cccc6F)c6ccc3[nH]6)C=C5)C=C4)cc1)=C2
REMARK SMILES IDX 27 1 26 2 25 3 24 4 22 5 23 6 21 8 4 9 5 10 14 11 6 12 13 13
REMARK SMILES IDX 15 14 12 15 88 16 16 17 3 18 2 19 1 20 7 21 8 22 9 23 10 24
REMARK SMILES IDX 11 25 17 26 18 27 19 28 20 29 28 30 29 31 30 32 31 33 32 34
REMARK SMILES IDX 33 36 34 37 35 38 87 39 36 40 86 41 37 42 38 43 39 44 80 45
REMARK SMILES IDX 40 46 85 47 79 48 81 49 41 50 84 51 78 52 77 53 42 55 68 56
REMARK SMILES IDX 51 57 67 58 52 59 55 60 66 61 82 62 53 63 54 64 65 66 83 67
REMARK SMILES IDX 56 68 43 69 44 70 49 71 45 72 46 73 48 74 50 75 47 76 69 77
REMARK SMILES IDX 70 78 75 79 71 80 72 81 74 82 76 83 73 84 57 85 58 86 63 87
REMARK SMILES IDX 59 88 60 89 62 90 64 91 61 92
REMARK H PARENT 24 7 31 35 81 54 55 65
REMARK Flexibility Score: inf
ROOT
ATOM      1  C   UNL     1      -5.814   5.494   6.539  1.00  0.00     0.002 C 
ENDROOT
BRANCH   1   2
ATOM      2  C   UNL     1      -4.582   5.012   5.760  1.00  0.00     0.021 C 
BRANCH   2   3
ATOM      3  C   UNL     1      -3.800   3.922   6.504  1.00  0.00     0.116 C 
BRANCH   3   4
ATOM      4  N   UNL     1      -4.480   2.650   6.332  1.00  0.00    -0.352 N 
ATOM      5  C   UNL     1      -4.353   1.654   5.418  1.00  0.00     0.251 C 
ATOM      6  O   UNL     1      -5.247   0.813   5.358  1.00  0.00    -0.270 OA
ATOM      7  H   UNL     1      -5.170   2.476   7.012  1.00  0.00     0.163 HD
BRANCH   5   8
ATOM      8  C   UNL     1      -3.142   1.489   4.572  1.00  0.00     0.067 C 
ATOM      9  C   UNL     1       0.524   0.761   2.652  1.00  0.00    -0.002 A 
ATOM     10  C   UNL     1       1.315   1.859   2.264  1.00  0.00     0.054 A 
ATOM     11  C   UNL     1      -0.725   0.989   3.248  1.00  0.00     0.131 A 
ATOM     12  C   UNL     1       0.855   3.163   2.423  1.00  0.00     0.130 A 
ATOM     13  C   UNL     1      -1.193   2.290   3.405  1.00  0.00     0.021 A 
ATOM     14  O   UNL     1      -1.411  -0.099   3.702  1.00  0.00    -0.475 OA
ATOM     15  C   UNL     1      -0.403   3.370   2.992  1.00  0.00     0.058 A 
ATOM     16  C   UNL     1      -2.459   2.529   4.074  1.00  0.00     0.025 C 
ATOM     17  C   UNL     1      -2.780   0.062   4.170  1.00  0.00     0.314 C 
BRANCH   9  18
ATOM     18  C   UNL     1       1.005  -0.637   2.335  1.00  0.00     0.039 C 
BRANCH  18  19
ATOM     19  C   UNL     1       0.444  -1.152   1.003  1.00  0.00     0.001 C 
ATOM     20  C   UNL     1       0.893  -0.336  -0.205  1.00  0.00     0.004 C 
ENDBRANCH  18  19
ENDBRANCH   9  18
BRANCH  12  21
ATOM     21  O   UNL     1       1.517   4.305   2.077  1.00  0.00    -0.406 OA
BRANCH  21  22
ATOM     22  C   UNL     1       2.706   4.169   1.315  1.00  0.00     0.573 C 
ATOM     23  F   UNL     1       3.671   3.550   2.027  1.00  0.00    -0.132 F 
ATOM     24  F   UNL     1       2.477   3.486   0.173  1.00  0.00    -0.132 F 
ATOM     25  F   UNL     1       3.151   5.401   0.986  1.00  0.00    -0.132 F 
ENDBRANCH  21  22
ENDBRANCH  12  21
BRANCH  17  26
ATOM     26  C   UNL     1      -3.041  -1.054   5.210  1.00  0.00     0.429 C 
ATOM     27  F   UNL     1      -4.318  -1.495   5.200  1.00  0.00    -0.167 F 
ATOM     28  F   UNL     1      -2.282  -2.152   4.941  1.00  0.00    -0.167 F 
ATOM     29  F   UNL     1      -2.733  -0.669   6.470  1.00  0.00    -0.167 F 
ENDBRANCH  17  26
ENDBRANCH   5   8
ENDBRANCH   3   4
ENDBRANCH   2   3
ENDBRANCH   1   2
BRANCH   1  30
ATOM     30  C   UNL     1      -5.492   6.165   7.880  1.00  0.00     0.002 C 
BRANCH  30  31
ATOM     31  C   UNL     1      -4.511   7.335   7.787  1.00  0.00     0.021 C 
BRANCH  31  32
ATOM     32  C   UNL     1      -5.017   8.493   6.935  1.00  0.00     0.116 C 
BRANCH  32  33
ATOM     33  N   UNL     1      -6.179   9.127   7.539  1.00  0.00    -0.352 N 
ATOM     34  C   UNL     1      -6.348  10.437   7.911  1.00  0.00     0.251 C 
ATOM     35  H   UNL     1      -6.949   8.536   7.704  1.00  0.00     0.163 HD
ATOM     36  O   UNL     1      -7.281  10.765   8.633  1.00  0.00    -0.269 OA
BRANCH  34  37
ATOM     37  C   UNL     1      -5.385  11.450   7.434  1.00  0.00     0.039 A 
ATOM     38  C   UNL     1      -4.889  12.397   8.333  1.00  0.00     0.014 A 
ATOM     39  C   UNL     1      -4.978  11.460   6.097  1.00  0.00     0.014 A 
ATOM     40  C   UNL     1      -3.944  13.327   7.899  1.00  0.00     0.010 A 
ATOM     41  C   UNL     1      -3.980  12.336   5.687  1.00  0.00     0.010 A 
ATOM     42  C   UNL     1      -3.462  13.286   6.580  1.00  0.00    -0.014 A 
BRANCH  42  43
ATOM     43  C   UNL     1      -2.438  14.245   6.098  1.00  0.00     0.031 A 
ATOM     44  C   UNL     1      -2.782  15.210   4.997  1.00  0.00     0.074 A 
ATOM     45  C   UNL     1      -1.189  14.202   6.599  1.00  0.00     0.049 A 
ATOM     46  N   UNL     1      -2.007  16.051   4.361  1.00  0.00    -0.248 NA
ATOM     47  C   UNL     1      -4.178  15.209   4.528  1.00  0.00     0.031 C 
ATOM     48  C   UNL     1      -0.726  13.291   7.647  1.00  0.00     0.029 A 
ATOM     49  N   UNL     1      -0.074  14.937   6.282  1.00  0.00    -0.354 N 
ATOM     50  C   UNL     1      -2.816  16.667   3.414  1.00  0.00     0.074 A 
ATOM     51  C   UNL     1      -4.125  16.061   3.516  1.00  0.00     0.031 C 
ATOM     52  C   UNL     1       0.571  13.534   7.899  1.00  0.00     0.029 A 
ATOM     53  C   UNL     1       1.042  14.585   7.003  1.00  0.00     0.049 A 
ATOM     54  H   UNL     1      -0.074  15.650   5.603  1.00  0.00     0.167 HD
ATOM     55  C   UNL     1      -2.503  17.665   2.555  1.00  0.00     0.037 A 
ATOM     56  C   UNL     1       2.304  15.048   6.936  1.00  0.00     0.037 A 
ATOM     57  C   UNL     1      -1.204  18.279   2.473  1.00  0.00     0.049 A 
ATOM     58  C   UNL     1       2.633  16.137   5.949  1.00  0.00     0.074 A 
ATOM     59  C   UNL     1      -0.795  19.323   1.663  1.00  0.00     0.029 A 
ATOM     60  N   UNL     1      -0.105  17.904   3.230  1.00  0.00    -0.354 N 
ATOM     61  N   UNL     1       1.846  16.745   5.095  1.00  0.00    -0.248 NA
ATOM     62  C   UNL     1       4.025  16.607   5.921  1.00  0.00     0.031 C 
ATOM     63  C   UNL     1       0.564  19.549   1.897  1.00  0.00     0.029 A 
ATOM     64  C   UNL     1       0.987  18.685   2.894  1.00  0.00     0.049 A 
ATOM     65  H   UNL     1      -0.102  17.188   3.906  1.00  0.00     0.167 HD
ATOM     66  C   UNL     1       2.635  17.696   4.460  1.00  0.00     0.074 A 
ATOM     67  C   UNL     1       3.961  17.588   5.032  1.00  0.00     0.031 C 
ATOM     68  C   UNL     1       2.293  18.582   3.493  1.00  0.00     0.037 A 
BRANCH  55  69
ATOM     69  C   UNL     1      -3.586  18.161   1.641  1.00  0.00     0.057 A 
ATOM     70  C   UNL     1      -4.685  18.885   2.123  1.00  0.00     0.134 A 
ATOM     71  C   UNL     1      -3.509  17.951   0.258  1.00  0.00     0.134 A 
ATOM     72  F   UNL     1      -4.826  19.111   3.438  1.00  0.00    -0.206 F 
ATOM     73  C   UNL     1      -5.679  19.360   1.267  1.00  0.00     0.040 A 
ATOM     74  C   UNL     1      -4.481  18.447  -0.611  1.00  0.00     0.040 A 
ATOM     75  F   UNL     1      -2.481  17.271  -0.272  1.00  0.00    -0.206 F 
ATOM     76  C   UNL     1      -5.574  19.148  -0.106  1.00  0.00     0.006 A 
ENDBRANCH  55  69
BRANCH  56  77
ATOM     77  C   UNL     1       3.354  14.502   7.834  1.00  0.00     0.057 A 
ATOM     78  C   UNL     1       3.928  15.292   8.837  1.00  0.00     0.134 A 
ATOM     79  C   UNL     1       3.831  13.193   7.695  1.00  0.00     0.134 A 
ATOM     80  F   UNL     1       3.526  16.560   9.010  1.00  0.00    -0.206 F 
ATOM     81  C   UNL     1       4.958  14.813   9.648  1.00  0.00     0.040 A 
ATOM     82  C   UNL     1       4.841  12.691   8.518  1.00  0.00     0.040 A 
ATOM     83  F   UNL     1       3.317  12.380   6.760  1.00  0.00    -0.206 F 
ATOM     84  C   UNL     1       5.416  13.507   9.490  1.00  0.00     0.006 A 
ENDBRANCH  56  77
BRANCH  68  85
ATOM     85  C   UNL     1       3.346  19.549   3.035  1.00  0.00     0.057 A 
ATOM     86  C   UNL     1       4.433  19.149   2.248  1.00  0.00     0.134 A 
ATOM     87  C   UNL     1       3.235  20.911   3.342  1.00  0.00     0.134 A 
ATOM     88  F   UNL     1       4.603  17.857   1.929  1.00  0.00    -0.206 F 
ATOM     89  C   UNL     1       5.383  20.068   1.800  1.00  0.00     0.040 A 
ATOM     90  C   UNL     1       4.161  21.843   2.875  1.00  0.00     0.040 A 
ATOM     91  F   UNL     1       2.211  21.362   4.084  1.00  0.00    -0.206 F 
ATOM     92  C   UNL     1       5.243  21.421   2.105  1.00  0.00     0.006 A 
ENDBRANCH  68  85
ENDBRANCH  42  43
ENDBRANCH  34  37
ENDBRANCH  32  33
ENDBRANCH  31  32
ENDBRANCH  30  31
ENDBRANCH   1  30
TORSDOF 18
