REMARK SMILES O=C(NCCCCCCNC(=O)c1cn(Cc2ccc(N3CCCC3=O)cc2)c2cc(F)c(F)cc2c1=O)c1ccc(-c2c3nc(c(-c4c(F)cccc4F)c4ccc([nH]4)c(-c4c(F)cccc4F)c4nc(c(-c5c(F)cccc5F)c5ccc2[nH]5)C=C4)C=C3)cc1
REMARK SMILES IDX 7 1 6 2 5 3 4 4 3 5 1 6 2 7 39 9 40 10 92 11 41 12 91 13
REMARK SMILES IDX 42 14 43 15 44 16 85 17 45 18 90 19 84 20 86 21 46 22 89 23
REMARK SMILES IDX 83 24 82 25 47 27 73 28 56 29 72 30 57 31 60 32 71 33 87 34
REMARK SMILES IDX 58 35 59 36 70 38 88 39 61 40 48 41 49 42 54 43 50 44 51 45
REMARK SMILES IDX 53 46 55 47 52 48 74 49 75 50 80 51 76 52 77 53 79 54 81 55
REMARK SMILES IDX 78 56 62 57 63 58 68 59 64 60 65 61 67 62 69 63 66 64 8 65
REMARK SMILES IDX 9 66 10 67 11 68 12 70 13 71 14 72 37 73 15 74 36 75 38 76
REMARK SMILES IDX 29 77 35 78 30 79 33 80 31 81 34 82 32 83 16 84 17 85 18 86
REMARK SMILES IDX 28 87 19 88 27 89 20 90 21 91 22 92 25 93 23 94 24 95 26 96
REMARK H PARENT 3 8 86 26 60 37 10 69
REMARK Flexibility Score: inf
ROOT
ATOM      1  C   UNL     1       4.815  -1.121   4.155  1.00  0.00     0.002 C 
ENDROOT
BRANCH   1   2
ATOM      2  C   UNL     1       4.293   0.258   3.742  1.00  0.00     0.002 C 
BRANCH   2   3
ATOM      3  C   UNL     1       4.783   0.767   2.384  1.00  0.00     0.021 C 
BRANCH   3   4
ATOM      4  C   UNL     1       4.495  -0.161   1.210  1.00  0.00     0.116 C 
BRANCH   4   5
ATOM      5  N   UNL     1       3.070  -0.356   1.008  1.00  0.00    -0.352 N 
ATOM      6  O   UNL     1       1.080  -0.142  -0.017  1.00  0.00    -0.269 OA
ATOM      7  C   UNL     1       2.305  -0.118  -0.103  1.00  0.00     0.251 C 
ATOM      8  H   UNL     1       2.582  -0.711   1.785  1.00  0.00     0.163 HD
BRANCH   7   9
ATOM      9  C   UNL     1       2.942   0.165  -1.408  1.00  0.00     0.039 A 
ATOM     10  C   UNL     1       2.354   1.116  -2.248  1.00  0.00     0.014 A 
ATOM     11  C   UNL     1       4.063  -0.549  -1.840  1.00  0.00     0.014 A 
ATOM     12  C   UNL     1       2.890   1.350  -3.515  1.00  0.00     0.010 A 
ATOM     13  C   UNL     1       4.647  -0.255  -3.069  1.00  0.00     0.010 A 
ATOM     14  C   UNL     1       4.042   0.666  -3.937  1.00  0.00    -0.014 A 
BRANCH  14  15
ATOM     15  C   UNL     1       4.559   0.822  -5.320  1.00  0.00     0.031 A 
ATOM     16  C   UNL     1       4.524  -0.354  -6.261  1.00  0.00     0.074 A 
ATOM     17  C   UNL     1       5.064   2.000  -5.730  1.00  0.00     0.049 A 
ATOM     18  N   UNL     1       4.967  -0.449  -7.489  1.00  0.00    -0.248 NA
ATOM     19  C   UNL     1       3.932  -1.598  -5.741  1.00  0.00     0.031 C 
ATOM     20  C   UNL     1       5.164   3.212  -4.915  1.00  0.00     0.029 A 
ATOM     21  N   UNL     1       5.589   2.370  -6.943  1.00  0.00    -0.354 N 
ATOM     22  C   UNL     1       4.716  -1.759  -7.880  1.00  0.00     0.074 A 
ATOM     23  C   UNL     1       4.148  -2.440  -6.739  1.00  0.00     0.031 C 
ATOM     24  C   UNL     1       5.688   4.199  -5.660  1.00  0.00     0.029 A 
ATOM     25  C   UNL     1       6.001   3.680  -6.989  1.00  0.00     0.049 A 
ATOM     26  H   UNL     1       5.663   1.755  -7.708  1.00  0.00     0.167 HD
ATOM     27  C   UNL     1       4.911  -2.338  -9.089  1.00  0.00     0.037 A 
ATOM     28  C   UNL     1       6.574   4.377  -7.988  1.00  0.00     0.037 A 
ATOM     29  C   UNL     1       5.460  -1.656 -10.230  1.00  0.00     0.049 A 
ATOM     30  C   UNL     1       6.833   3.694  -9.305  1.00  0.00     0.074 A 
ATOM     31  C   UNL     1       5.668  -2.141 -11.509  1.00  0.00     0.029 A 
ATOM     32  N   UNL     1       5.891  -0.338 -10.227  1.00  0.00    -0.354 N 
ATOM     33  N   UNL     1       6.552   2.467  -9.674  1.00  0.00    -0.248 NA
ATOM     34  C   UNL     1       7.492   4.497 -10.344  1.00  0.00     0.031 C 
ATOM     35  C   UNL     1       6.274  -1.132 -12.266  1.00  0.00     0.029 A 
ATOM     36  C   UNL     1       6.390  -0.001 -11.475  1.00  0.00     0.049 A 
ATOM     37  H   UNL     1       5.848   0.269  -9.453  1.00  0.00     0.167 HD
ATOM     38  C   UNL     1       6.971   2.362 -10.995  1.00  0.00     0.074 A 
ATOM     39  C   UNL     1       7.506   3.655 -11.367  1.00  0.00     0.031 C 
ATOM     40  C   UNL     1       6.918   1.293 -11.828  1.00  0.00     0.037 A 
BRANCH  27  41
ATOM     41  C   UNL     1       4.532  -3.786  -9.227  1.00  0.00     0.057 A 
ATOM     42  C   UNL     1       5.514  -4.768  -9.409  1.00  0.00     0.134 A 
ATOM     43  C   UNL     1       3.197  -4.210  -9.184  1.00  0.00     0.134 A 
ATOM     44  F   UNL     1       6.811  -4.434  -9.466  1.00  0.00    -0.206 F 
ATOM     45  C   UNL     1       5.182  -6.118  -9.538  1.00  0.00     0.040 A 
ATOM     46  C   UNL     1       2.854  -5.561  -9.278  1.00  0.00     0.040 A 
ATOM     47  F   UNL     1       2.207  -3.324  -8.998  1.00  0.00    -0.206 F 
ATOM     48  C   UNL     1       3.849  -6.519  -9.461  1.00  0.00     0.006 A 
ENDBRANCH  27  41
BRANCH  28  49
ATOM     49  C   UNL     1       6.940   5.804  -7.797  1.00  0.00     0.057 A 
ATOM     50  C   UNL     1       7.977   6.185  -6.937  1.00  0.00     0.134 A 
ATOM     51  C   UNL     1       6.288   6.819  -8.508  1.00  0.00     0.134 A 
ATOM     52  F   UNL     1       8.639   5.263  -6.222  1.00  0.00    -0.206 F 
ATOM     53  C   UNL     1       8.353   7.521  -6.792  1.00  0.00     0.040 A 
ATOM     54  C   UNL     1       6.673   8.156  -8.396  1.00  0.00     0.040 A 
ATOM     55  F   UNL     1       5.301   6.516  -9.364  1.00  0.00    -0.206 F 
ATOM     56  C   UNL     1       7.708   8.510  -7.532  1.00  0.00     0.006 A 
ENDBRANCH  28  49
BRANCH  40  57
ATOM     57  C   UNL     1       7.421   1.491 -13.229  1.00  0.00     0.057 A 
ATOM     58  C   UNL     1       6.532   1.492 -14.311  1.00  0.00     0.134 A 
ATOM     59  C   UNL     1       8.783   1.665 -13.512  1.00  0.00     0.134 A 
ATOM     60  F   UNL     1       5.216   1.320 -14.113  1.00  0.00    -0.206 F 
ATOM     61  C   UNL     1       6.978   1.659 -15.623  1.00  0.00     0.040 A 
ATOM     62  C   UNL     1       9.237   1.865 -14.816  1.00  0.00     0.040 A 
ATOM     63  F   UNL     1       9.686   1.688 -12.520  1.00  0.00    -0.206 F 
ATOM     64  C   UNL     1       8.333   1.857 -15.877  1.00  0.00     0.006 A 
ENDBRANCH  40  57
ENDBRANCH  14  15
ENDBRANCH   7   9
ENDBRANCH   4   5
ENDBRANCH   3   4
ENDBRANCH   2   3
ENDBRANCH   1   2
BRANCH   1  65
ATOM     65  C   UNL     1       6.336  -1.281   4.141  1.00  0.00     0.021 C 
BRANCH  65  66
ATOM     66  C   UNL     1       7.106  -0.231   4.935  1.00  0.00     0.116 C 
BRANCH  66  67
ATOM     67  N   UNL     1       6.771  -0.225   6.349  1.00  0.00    -0.352 N 
ATOM     68  C   UNL     1       7.587  -0.329   7.445  1.00  0.00     0.256 C 
ATOM     69  H   UNL     1       5.812  -0.131   6.550  1.00  0.00     0.163 HD
ATOM     70  O   UNL     1       7.098  -0.295   8.570  1.00  0.00    -0.269 OA
BRANCH  68  71
ATOM     71  C   UNL     1       9.041  -0.477   7.231  1.00  0.00     0.104 A 
ATOM     72  C   UNL     1       9.726   0.456   6.550  1.00  0.00     0.104 A 
ATOM     73  C   UNL     1       9.794  -1.636   7.752  1.00  0.00     0.202 A 
ATOM     74  N   UNL     1      11.051   0.367   6.136  1.00  0.00    -0.342 N 
ATOM     75  C   UNL     1      11.238  -1.705   7.426  1.00  0.00     0.050 A 
ATOM     76  O   UNL     1       9.260  -2.556   8.361  1.00  0.00    -0.288 OA
ATOM     77  C   UNL     1      11.781  -0.789   6.497  1.00  0.00     0.055 A 
ATOM     78  C   UNL     1      12.011  -2.724   8.003  1.00  0.00     0.056 A 
ATOM     79  C   UNL     1      13.048  -1.099   5.993  1.00  0.00     0.069 A 
ATOM     80  C   UNL     1      13.328  -2.875   7.606  1.00  0.00     0.159 A 
ATOM     81  C   UNL     1      13.830  -2.095   6.577  1.00  0.00     0.160 A 
ATOM     82  F   UNL     1      14.100  -3.798   8.192  1.00  0.00    -0.204 F 
ATOM     83  F   UNL     1      15.086  -2.269   6.144  1.00  0.00    -0.204 F 
BRANCH  74  84
ATOM     84  C   UNL     1      11.708   1.491   5.417  1.00  0.00     0.157 C 
BRANCH  84  85
ATOM     85  C   UNL     1      12.618   2.326   6.302  1.00  0.00    -0.028 A 
ATOM     86  C   UNL     1      13.933   1.927   6.564  1.00  0.00     0.008 A 
ATOM     87  C   UNL     1      12.186   3.523   6.883  1.00  0.00     0.008 A 
ATOM     88  C   UNL     1      14.761   2.637   7.431  1.00  0.00     0.027 A 
ATOM     89  C   UNL     1      13.026   4.248   7.750  1.00  0.00     0.027 A 
ATOM     90  C   UNL     1      14.317   3.799   8.055  1.00  0.00     0.044 A 
BRANCH  90  91
ATOM     91  N   UNL     1      15.156   4.465   8.979  1.00  0.00    -0.312 N 
ATOM     92  C   UNL     1      16.598   4.386   8.937  1.00  0.00     0.126 C 
ATOM     93  C   UNL     1      14.725   5.309  10.011  1.00  0.00     0.227 C 
ATOM     94  C   UNL     1      17.036   4.806  10.321  1.00  0.00     0.032 C 
ATOM     95  C   UNL     1      15.952   5.771  10.764  1.00  0.00     0.102 C 
ATOM     96  O   UNL     1      13.591   5.646  10.302  1.00  0.00    -0.275 OA
ENDBRANCH  90  91
ENDBRANCH  84  85
ENDBRANCH  74  84
ENDBRANCH  68  71
ENDBRANCH  66  67
ENDBRANCH  65  66
ENDBRANCH   1  65
TORSDOF 16
