REMARK SMILES C[C@@H]1C[C@@H](C)CN(C(=O)CSc2csc(C(=O)NCCCCCCNC(=O)c3ccc(-c4c5nc(c(-c6c(F)cccc6F)c6ccc([nH]6)c(-c6c(F)cccc6F)c6nc(c(-c7c(F)cccc7F)c7ccc4[nH]7)C=C6)C=C5)cc3)c2)C1
REMARK SMILES IDX 21 1 20 2 19 3 18 4 16 5 17 6 15 8 12 9 13 10 82 11 14 12
REMARK SMILES IDX 11 13 10 14 8 15 1 16 2 17 3 18 83 19 4 20 7 21 6 22 5 23
REMARK SMILES IDX 9 24 22 25 23 26 24 27 25 28 26 29 27 31 28 32 29 33 81 34
REMARK SMILES IDX 30 35 80 36 31 37 32 38 33 39 74 40 34 41 79 42 73 43 75 44
REMARK SMILES IDX 35 45 78 46 72 47 71 48 36 50 62 51 45 52 61 53 46 54 49 55
REMARK SMILES IDX 60 56 76 57 47 58 48 59 59 61 77 62 50 63 37 64 38 65 43 66
REMARK SMILES IDX 39 67 40 68 42 69 44 70 41 71 63 72 64 73 69 74 65 75 66 76
REMARK SMILES IDX 68 77 70 78 67 79 51 80 52 81 57 82 53 83 54 84 56 85 58 86
REMARK SMILES IDX 55 87
REMARK H PARENT 18 7 25 30 75 49 49 60
REMARK Flexibility Score: inf
ROOT
ATOM      1  C   UNL     1      -0.978   6.503  -2.674  1.00  0.00     0.002 C 
ENDROOT
BRANCH   1   2
ATOM      2  C   UNL     1      -1.323   5.011  -2.563  1.00  0.00     0.021 C 
BRANCH   2   3
ATOM      3  C   UNL     1      -1.485   4.334  -3.925  1.00  0.00     0.116 C 
BRANCH   3   4
ATOM      4  N   UNL     1      -0.197   3.938  -4.455  1.00  0.00    -0.351 N 
ATOM      5  C   UNL     1       0.442   2.723  -4.536  1.00  0.00     0.261 C 
ATOM      6  O   UNL     1       1.550   2.754  -5.079  1.00  0.00    -0.268 OA
ATOM      7  H   UNL     1       0.324   4.685  -4.830  1.00  0.00     0.163 HD
BRANCH   5   8
ATOM      8  C   UNL     1      -0.180   1.496  -4.053  1.00  0.00     0.093 A 
ATOM      9  C   UNL     1      -1.592  -0.107  -3.086  1.00  0.00     0.019 A 
ATOM     10  C   UNL     1      -0.754  -0.906  -3.827  1.00  0.00     0.080 A 
ATOM     11  C   UNL     1      -1.205   1.258  -3.154  1.00  0.00     0.040 A 
ATOM     12  S   UNL     1       0.438  -0.002  -4.646  1.00  0.00    -0.137 S 
BRANCH   9  13
ATOM     13  S   UNL     1      -2.969  -0.762  -2.218  1.00  0.00    -0.115 SA
BRANCH  13  14
ATOM     14  C   UNL     1      -3.515   0.534  -1.076  1.00  0.00     0.175 C 
BRANCH  14  15
ATOM     15  C   UNL     1      -2.443   1.003  -0.104  1.00  0.00     0.232 C 
ATOM     16  C   UNL     1       1.039  -0.011   0.075  1.00  0.00     0.009 C 
ATOM     17  C   UNL     1       0.387  -0.359   1.417  1.00  0.00     0.006 C 
ATOM     18  C   UNL     1       0.009  -1.854   1.494  1.00  0.00     0.010 C 
ATOM     19  C   UNL     1      -0.834   0.536   1.696  1.00  0.00     0.122 C 
ATOM     20  C   UNL     1      -1.259  -2.193   0.686  1.00  0.00     0.006 C 
ATOM     21  N   UNL     1      -1.970   0.137   0.870  1.00  0.00    -0.341 N 
ATOM     22  C   UNL     1      -2.399  -1.244   1.076  1.00  0.00     0.122 C 
ATOM     23  C   UNL     1      -1.676  -3.648   0.874  1.00  0.00     0.009 C 
ATOM     24  O   UNL     1      -2.042   2.171  -0.180  1.00  0.00    -0.274 OA
ENDBRANCH  14  15
ENDBRANCH  13  14
ENDBRANCH   9  13
ENDBRANCH   5   8
ENDBRANCH   3   4
ENDBRANCH   2   3
ENDBRANCH   1   2
BRANCH   1  25
ATOM     25  C   UNL     1      -2.055   7.364  -3.349  1.00  0.00     0.002 C 
BRANCH  25  26
ATOM     26  C   UNL     1      -3.447   7.276  -2.716  1.00  0.00     0.021 C 
BRANCH  26  27
ATOM     27  C   UNL     1      -3.509   7.750  -1.268  1.00  0.00     0.116 C 
BRANCH  27  28
ATOM     28  N   UNL     1      -3.204   9.168  -1.155  1.00  0.00    -0.352 N 
ATOM     29  C   UNL     1      -3.945  10.180  -0.600  1.00  0.00     0.251 C 
ATOM     30  H   UNL     1      -2.337   9.442  -1.532  1.00  0.00     0.163 HD
ATOM     31  O   UNL     1      -3.634  11.351  -0.795  1.00  0.00    -0.269 OA
BRANCH  29  32
ATOM     32  C   UNL     1      -5.126   9.863   0.230  1.00  0.00     0.039 A 
ATOM     33  C   UNL     1      -6.288  10.622   0.069  1.00  0.00     0.014 A 
ATOM     34  C   UNL     1      -5.077   8.846   1.188  1.00  0.00     0.014 A 
ATOM     35  C   UNL     1      -7.417  10.332   0.837  1.00  0.00     0.010 A 
ATOM     36  C   UNL     1      -6.223   8.514   1.905  1.00  0.00     0.010 A 
ATOM     37  C   UNL     1      -7.400   9.260   1.744  1.00  0.00    -0.014 A 
BRANCH  37  38
ATOM     38  C   UNL     1      -8.601   8.913   2.544  1.00  0.00     0.031 A 
ATOM     39  C   UNL     1      -8.579   9.056   4.040  1.00  0.00     0.074 A 
ATOM     40  C   UNL     1      -9.687   8.410   1.928  1.00  0.00     0.049 A 
ATOM     41  N   UNL     1      -9.503   8.748   4.914  1.00  0.00    -0.248 NA
ATOM     42  C   UNL     1      -7.343   9.588   4.635  1.00  0.00     0.031 C 
ATOM     43  C   UNL     1      -9.812   8.177   0.488  1.00  0.00     0.029 A 
ATOM     44  N   UNL     1     -10.890   7.992   2.439  1.00  0.00    -0.354 N 
ATOM     45  C   UNL     1      -8.956   9.031   6.158  1.00  0.00     0.074 A 
ATOM     46  C   UNL     1      -7.602   9.488   5.930  1.00  0.00     0.031 C 
ATOM     47  C   UNL     1     -11.030   7.677   0.229  1.00  0.00     0.029 A 
ATOM     48  C   UNL     1     -11.759   7.524   1.485  1.00  0.00     0.049 A 
ATOM     49  H   UNL     1     -11.109   8.026   3.398  1.00  0.00     0.167 HD
ATOM     50  C   UNL     1      -9.535   8.940   7.379  1.00  0.00     0.037 A 
ATOM     51  C   UNL     1     -13.003   7.024   1.609  1.00  0.00     0.037 A 
ATOM     52  C   UNL     1     -10.892   8.511   7.600  1.00  0.00     0.049 A 
ATOM     53  C   UNL     1     -13.630   6.944   2.972  1.00  0.00     0.074 A 
ATOM     54  C   UNL     1     -11.594   8.449   8.790  1.00  0.00     0.029 A 
ATOM     55  N   UNL     1     -11.750   8.069   6.604  1.00  0.00    -0.354 N 
ATOM     56  N   UNL     1     -13.126   7.281   4.134  1.00  0.00    -0.248 NA
ATOM     57  C   UNL     1     -15.002   6.421   3.039  1.00  0.00     0.031 C 
ATOM     58  C   UNL     1     -12.866   7.930   8.521  1.00  0.00     0.029 A 
ATOM     59  C   UNL     1     -12.970   7.712   7.157  1.00  0.00     0.049 A 
ATOM     60  H   UNL     1     -11.527   8.016   5.647  1.00  0.00     0.167 HD
ATOM     61  C   UNL     1     -14.125   7.037   5.067  1.00  0.00     0.074 A 
ATOM     62  C   UNL     1     -15.268   6.534   4.333  1.00  0.00     0.031 C 
ATOM     63  C   UNL     1     -14.098   7.214   6.411  1.00  0.00     0.037 A 
BRANCH  50  64
ATOM     64  C   UNL     1      -8.698   9.311   8.569  1.00  0.00     0.057 A 
ATOM     65  C   UNL     1      -8.322  10.637   8.824  1.00  0.00     0.134 A 
ATOM     66  C   UNL     1      -8.278   8.335   9.480  1.00  0.00     0.134 A 
ATOM     67  F   UNL     1      -8.681  11.619   7.983  1.00  0.00    -0.206 F 
ATOM     68  C   UNL     1      -7.531  10.973   9.923  1.00  0.00     0.040 A 
ATOM     69  C   UNL     1      -7.510   8.663  10.599  1.00  0.00     0.040 A 
ATOM     70  F   UNL     1      -8.607   7.047   9.301  1.00  0.00    -0.206 F 
ATOM     71  C   UNL     1      -7.127   9.985  10.818  1.00  0.00     0.006 A 
ENDBRANCH  50  64
BRANCH  51  72
ATOM     72  C   UNL     1     -13.746   6.591   0.401  1.00  0.00     0.057 A 
ATOM     73  C   UNL     1     -14.827   7.335  -0.085  1.00  0.00     0.134 A 
ATOM     74  C   UNL     1     -13.390   5.434  -0.302  1.00  0.00     0.134 A 
ATOM     75  F   UNL     1     -15.225   8.444   0.556  1.00  0.00    -0.206 F 
ATOM     76  C   UNL     1     -15.536   6.939  -1.220  1.00  0.00     0.040 A 
ATOM     77  C   UNL     1     -14.076   5.038  -1.452  1.00  0.00     0.040 A 
ATOM     78  F   UNL     1     -12.358   4.682   0.108  1.00  0.00    -0.206 F 
ATOM     79  C   UNL     1     -15.157   5.789  -1.910  1.00  0.00     0.006 A 
ENDBRANCH  51  72
BRANCH  63  80
ATOM     80  C   UNL     1     -15.351   6.888   7.170  1.00  0.00     0.057 A 
ATOM     81  C   UNL     1     -15.762   5.567   7.384  1.00  0.00     0.134 A 
ATOM     82  C   UNL     1     -16.134   7.909   7.723  1.00  0.00     0.134 A 
ATOM     83  F   UNL     1     -15.063   4.545   6.869  1.00  0.00    -0.206 F 
ATOM     84  C   UNL     1     -16.922   5.274   8.104  1.00  0.00     0.040 A 
ATOM     85  C   UNL     1     -17.281   7.628   8.466  1.00  0.00     0.040 A 
ATOM     86  F   UNL     1     -15.790   9.196   7.560  1.00  0.00    -0.206 F 
ATOM     87  C   UNL     1     -17.681   6.306   8.653  1.00  0.00     0.006 A 
ENDBRANCH  63  80
ENDBRANCH  37  38
ENDBRANCH  29  32
ENDBRANCH  27  28
ENDBRANCH  26  27
ENDBRANCH  25  26
ENDBRANCH   1  25
TORSDOF 16
