REMARK SMILES O=C(NCCCCCCNC(=O)[C@H](c1cnn(Cc2ccccc2)c1)[NH+]1CCOCC1)c1ccc(-c2c3nc(c(-c4c(F)cccc4F)c4ccc([nH]4)c(-c4c(F)cccc4F)c4nc(c(-c5c(F)cccc5F)c5ccc2[nH]5)C=C4)C=C3)cc1
REMARK SMILES IDX 7 1 6 2 5 3 4 4 3 5 1 6 2 7 32 9 33 10 85 11 34 12 84 13
REMARK SMILES IDX 35 14 36 15 37 16 78 17 38 18 83 19 77 20 79 21 39 22 82 23
REMARK SMILES IDX 76 24 75 25 40 27 66 28 49 29 65 30 50 31 53 32 64 33 80 34
REMARK SMILES IDX 51 35 52 36 63 38 81 39 54 40 41 41 42 42 47 43 43 44 44 45
REMARK SMILES IDX 46 46 48 47 45 48 67 49 68 50 73 51 69 52 70 53 72 54 74 55
REMARK SMILES IDX 71 56 55 57 56 58 61 59 57 60 58 61 60 62 62 63 59 64 8 65
REMARK SMILES IDX 9 66 10 67 11 68 12 70 13 71 26 72 27 73 31 74 28 76 30 77
REMARK SMILES IDX 29 78 14 79 15 80 25 81 16 82 17 83 18 84 19 85 20 86 24 87
REMARK SMILES IDX 21 88 23 89 22 90
REMARK H PARENT 3 8 79 26 53 37 10 69 26 75
REMARK Flexibility Score: inf
ROOT
ATOM      1  C   UNL     1       8.801   8.742   2.705  1.00  0.00     0.002 C 
ENDROOT
BRANCH   1   2
ATOM      2  C   UNL     1      10.075   9.302   3.348  1.00  0.00     0.002 C 
BRANCH   2   3
ATOM      3  C   UNL     1      10.243  10.825   3.259  1.00  0.00     0.021 C 
BRANCH   3   4
ATOM      4  C   UNL     1       9.095  11.624   3.874  1.00  0.00     0.116 C 
BRANCH   4   5
ATOM      5  N   UNL     1       8.899  11.356   5.283  1.00  0.00    -0.352 N 
ATOM      6  O   UNL     1       8.899  11.411   7.485  1.00  0.00    -0.269 OA
ATOM      7  C   UNL     1       9.413  11.849   6.445  1.00  0.00     0.251 C 
ATOM      8  H   UNL     1       8.235  10.647   5.440  1.00  0.00     0.163 HD
BRANCH   7   9
ATOM      9  C   UNL     1      10.547  12.808   6.569  1.00  0.00     0.039 A 
ATOM     10  C   UNL     1      11.166  13.500   5.528  1.00  0.00     0.014 A 
ATOM     11  C   UNL     1      11.036  12.999   7.878  1.00  0.00     0.014 A 
ATOM     12  C   UNL     1      12.278  14.307   5.780  1.00  0.00     0.010 A 
ATOM     13  C   UNL     1      12.139  13.806   8.135  1.00  0.00     0.010 A 
ATOM     14  C   UNL     1      12.785  14.437   7.079  1.00  0.00    -0.014 A 
BRANCH  14  15
ATOM     15  C   UNL     1      13.902  15.353   7.313  1.00  0.00     0.031 A 
ATOM     16  C   UNL     1      13.610  16.786   7.004  1.00  0.00     0.074 A 
ATOM     17  C   UNL     1      15.064  15.002   7.904  1.00  0.00     0.049 A 
ATOM     18  N   UNL     1      14.183  17.552   6.132  1.00  0.00    -0.248 NA
ATOM     19  C   UNL     1      12.471  17.418   7.691  1.00  0.00     0.031 C 
ATOM     20  C   UNL     1      15.411  13.732   8.547  1.00  0.00     0.029 A 
ATOM     21  N   UNL     1      16.174  15.765   8.128  1.00  0.00    -0.354 N 
ATOM     22  C   UNL     1      13.595  18.810   6.268  1.00  0.00     0.074 A 
ATOM     23  C   UNL     1      12.473  18.639   7.154  1.00  0.00     0.031 C 
ATOM     24  C   UNL     1      16.546  13.887   9.268  1.00  0.00     0.029 A 
ATOM     25  C   UNL     1      17.084  15.215   9.024  1.00  0.00     0.049 A 
ATOM     26  H   UNL     1      16.319  16.635   7.690  1.00  0.00     0.167 HD
ATOM     27  C   UNL     1      14.187  19.937   5.782  1.00  0.00     0.037 A 
ATOM     28  C   UNL     1      18.175  15.824   9.557  1.00  0.00     0.037 A 
ATOM     29  C   UNL     1      15.197  19.619   4.809  1.00  0.00     0.049 A 
ATOM     30  C   UNL     1      18.514  16.977   8.690  1.00  0.00     0.074 A 
ATOM     31  C   UNL     1      15.204  19.008   3.571  1.00  0.00     0.029 A 
ATOM     32  N   UNL     1      16.507  19.653   5.213  1.00  0.00    -0.354 N 
ATOM     33  N   UNL     1      18.974  16.869   7.477  1.00  0.00    -0.248 NA
ATOM     34  C   UNL     1      17.928  18.265   9.027  1.00  0.00     0.031 C 
ATOM     35  C   UNL     1      16.421  18.268   3.537  1.00  0.00     0.029 A 
ATOM     36  C   UNL     1      17.103  18.522   4.727  1.00  0.00     0.049 A 
ATOM     37  H   UNL     1      16.936  20.358   5.751  1.00  0.00     0.167 HD
ATOM     38  C   UNL     1      18.356  17.891   6.776  1.00  0.00     0.074 A 
ATOM     39  C   UNL     1      17.790  18.768   7.799  1.00  0.00     0.031 C 
ATOM     40  C   UNL     1      18.120  17.785   5.437  1.00  0.00     0.037 A 
BRANCH  27  41
ATOM     41  C   UNL     1      14.116  21.302   6.423  1.00  0.00     0.057 A 
ATOM     42  C   UNL     1      14.688  22.406   5.758  1.00  0.00     0.134 A 
ATOM     43  C   UNL     1      13.806  21.518   7.779  1.00  0.00     0.134 A 
ATOM     44  F   UNL     1      15.030  22.330   4.463  1.00  0.00    -0.206 F 
ATOM     45  C   UNL     1      15.016  23.596   6.420  1.00  0.00     0.040 A 
ATOM     46  C   UNL     1      14.086  22.720   8.437  1.00  0.00     0.040 A 
ATOM     47  F   UNL     1      13.315  20.551   8.563  1.00  0.00    -0.206 F 
ATOM     48  C   UNL     1      14.727  23.750   7.768  1.00  0.00     0.006 A 
ENDBRANCH  27  41
BRANCH  28  49
ATOM     49  C   UNL     1      18.756  15.683  10.914  1.00  0.00     0.057 A 
ATOM     50  C   UNL     1      20.054  16.131  11.206  1.00  0.00     0.134 A 
ATOM     51  C   UNL     1      17.946  15.383  12.022  1.00  0.00     0.134 A 
ATOM     52  F   UNL     1      20.889  16.488  10.219  1.00  0.00    -0.206 F 
ATOM     53  C   UNL     1      20.510  16.295  12.522  1.00  0.00     0.040 A 
ATOM     54  C   UNL     1      18.389  15.538  13.340  1.00  0.00     0.040 A 
ATOM     55  F   UNL     1      16.665  15.020  11.861  1.00  0.00    -0.206 F 
ATOM     56  C   UNL     1      19.671  16.009  13.595  1.00  0.00     0.006 A 
ENDBRANCH  28  49
BRANCH  40  57
ATOM     57  C   UNL     1      18.769  16.657   4.688  1.00  0.00     0.057 A 
ATOM     58  C   UNL     1      18.472  15.302   4.896  1.00  0.00     0.134 A 
ATOM     59  C   UNL     1      19.578  16.969   3.590  1.00  0.00     0.134 A 
ATOM     60  F   UNL     1      17.633  14.915   5.865  1.00  0.00    -0.206 F 
ATOM     61  C   UNL     1      18.979  14.302   4.060  1.00  0.00     0.040 A 
ATOM     62  C   UNL     1      20.064  15.983   2.729  1.00  0.00     0.040 A 
ATOM     63  F   UNL     1      19.859  18.249   3.300  1.00  0.00    -0.206 F 
ATOM     64  C   UNL     1      19.768  14.643   2.965  1.00  0.00     0.006 A 
ENDBRANCH  40  57
ENDBRANCH  14  15
ENDBRANCH   7   9
ENDBRANCH   4   5
ENDBRANCH   3   4
ENDBRANCH   2   3
ENDBRANCH   1   2
BRANCH   1  65
ATOM     65  C   UNL     1       8.604   9.097   1.224  1.00  0.00     0.021 C 
BRANCH  65  66
ATOM     66  C   UNL     1       9.743   8.635   0.312  1.00  0.00     0.116 C 
BRANCH  66  67
ATOM     67  N   UNL     1       9.849   7.188   0.332  1.00  0.00    -0.351 N 
ATOM     68  C   UNL     1       9.201   6.300  -0.486  1.00  0.00     0.283 C 
ATOM     69  H   UNL     1      10.454   6.802   1.007  1.00  0.00     0.163 HD
ATOM     70  O   UNL     1       8.941   5.192  -0.010  1.00  0.00    -0.268 OA
BRANCH  68  71
ATOM     71  C   UNL     1       8.829   6.731  -1.929  1.00  0.00     0.308 C 
BRANCH  71  72
ATOM     72  N   UNL     1       9.220   5.776  -3.001  1.00  0.00    -0.317 N 
ATOM     73  C   UNL     1       8.207   4.889  -3.585  1.00  0.00     0.292 C 
ATOM     74  C   UNL     1      10.464   5.014  -2.761  1.00  0.00     0.292 C 
ATOM     75  H   UNL     1       9.383   6.483  -3.717  1.00  0.00     0.349 HD
ATOM     76  C   UNL     1       8.025   3.580  -2.815  1.00  0.00     0.221 C 
ATOM     77  C   UNL     1      10.292   3.590  -2.174  1.00  0.00     0.221 C 
ATOM     78  O   UNL     1       9.255   2.844  -2.822  1.00  0.00    -0.370 OA
ENDBRANCH  71  72
BRANCH  71  79
ATOM     79  C   UNL     1       7.386   7.149  -1.966  1.00  0.00     0.057 A 
ATOM     80  C   UNL     1       6.290   6.490  -1.356  1.00  0.00     0.145 A 
ATOM     81  C   UNL     1       6.815   8.277  -2.529  1.00  0.00     0.119 A 
ATOM     82  N   UNL     1       5.141   7.147  -1.503  1.00  0.00    -0.181 NA
ATOM     83  N   UNL     1       5.472   8.208  -2.267  1.00  0.00    -0.268 N 
BRANCH  83  84
ATOM     84  C   UNL     1       4.453   9.194  -2.613  1.00  0.00     0.179 C 
BRANCH  84  85
ATOM     85  C   UNL     1       3.640   8.802  -3.824  1.00  0.00    -0.027 A 
ATOM     86  C   UNL     1       3.531   9.672  -4.919  1.00  0.00     0.005 A 
ATOM     87  C   UNL     1       2.925   7.593  -3.856  1.00  0.00     0.005 A 
ATOM     88  C   UNL     1       2.743   9.331  -6.022  1.00  0.00     0.000 A 
ATOM     89  C   UNL     1       2.145   7.251  -4.960  1.00  0.00     0.000 A 
ATOM     90  C   UNL     1       2.054   8.120  -6.043  1.00  0.00     0.000 A 
ENDBRANCH  84  85
ENDBRANCH  83  84
ENDBRANCH  71  79
ENDBRANCH  68  71
ENDBRANCH  66  67
ENDBRANCH  65  66
ENDBRANCH   1  65
TORSDOF 17
