REMARK SMILES CC(=O)Nc1cnc(N2CC=C(c3ccccc3C)CC2)c(C(=O)NCCCCCCNC(=O)c2ccc(-c3c4nc(c(-c5c(F)cccc5F)c5ccc([nH]5)c(-c5c(F)cccc5F)c5nc(c(-c6c(F)cccc6F)c6ccc3[nH]6)C=C5)C=C4)cc2)c1
REMARK SMILES IDX 28 1 27 2 26 3 25 4 23 5 24 6 22 8 5 9 6 10 89 11 7 12 8 13
REMARK SMILES IDX 4 14 1 15 2 16 3 17 9 19 10 20 21 21 11 22 20 23 12 24 13 25
REMARK SMILES IDX 14 26 18 27 15 28 17 29 19 30 16 31 29 32 30 33 31 34 32 35
REMARK SMILES IDX 33 36 34 38 35 39 36 40 88 41 37 42 87 43 38 44 39 45 40 46
REMARK SMILES IDX 81 47 41 48 86 49 80 50 82 51 42 52 85 53 79 54 78 55 43 57
REMARK SMILES IDX 69 58 52 59 68 60 53 61 56 62 67 63 83 64 54 65 55 66 66 68
REMARK SMILES IDX 84 69 57 70 44 71 45 72 50 73 46 74 47 75 49 76 51 77 48 78
REMARK SMILES IDX 70 79 71 80 76 81 72 82 73 83 75 84 77 85 74 86 58 87 59 88
REMARK SMILES IDX 64 89 60 90 61 91 63 92 65 93 62 94
REMARK H PARENT 25 7 4 18 32 37 82 56 56 67
REMARK Flexibility Score: inf
ROOT
ATOM      1  C   UNL     1       6.520  -1.534   0.540  1.00  0.00     0.002 C 
ENDROOT
BRANCH   1   2
ATOM      2  C   UNL     1       5.289  -0.960  -0.180  1.00  0.00     0.021 C 
BRANCH   2   3
ATOM      3  C   UNL     1       4.537   0.113   0.606  1.00  0.00     0.116 C 
BRANCH   3   4
ATOM      4  N   UNL     1       5.130   1.421   0.456  1.00  0.00    -0.352 N 
ATOM      5  C   UNL     1       4.711   2.647   0.004  1.00  0.00     0.255 C 
ATOM      6  O   UNL     1       5.379   3.565   0.484  1.00  0.00    -0.269 OA
ATOM      7  H   UNL     1       6.069   1.437   0.752  1.00  0.00     0.163 HD
BRANCH   5   8
ATOM      8  C   UNL     1       3.560   2.919  -0.929  1.00  0.00     0.084 A 
ATOM      9  C   UNL     1       1.515   2.191  -2.058  1.00  0.00     0.060 A 
ATOM     10  C   UNL     1       1.310   3.502  -2.429  1.00  0.00     0.139 A 
ATOM     11  C   UNL     1       2.689   1.904  -1.362  1.00  0.00     0.045 A 
ATOM     12  N   UNL     1       2.146   4.502  -2.098  1.00  0.00    -0.236 NA
ATOM     13  C   UNL     1       3.266   4.232  -1.368  1.00  0.00     0.141 A 
BRANCH   9  14
ATOM     14  N   UNL     1       0.568   1.219  -2.421  1.00  0.00    -0.325 N 
ATOM     15  C   UNL     1       0.569  -0.126  -0.327  1.00  0.00     0.114 C 
ATOM     16  C   UNL     1       0.188   0.079  -1.770  1.00  0.00     0.221 C 
ATOM     17  O   UNL     1      -0.523  -0.741  -2.353  1.00  0.00    -0.275 OA
ATOM     18  H   UNL     1       0.108   1.385  -3.275  1.00  0.00     0.169 HD
ENDBRANCH   9  14
BRANCH  13  19
ATOM     19  N   UNL     1       4.041   5.347  -1.178  1.00  0.00    -0.352 N 
ATOM     20  C   UNL     1       3.533   6.352  -0.261  1.00  0.00     0.146 C 
ATOM     21  C   UNL     1       5.432   5.415  -1.603  1.00  0.00     0.123 C 
ATOM     22  C   UNL     1       4.201   7.680  -0.489  1.00  0.00    -0.002 C 
ATOM     23  C   UNL     1       5.704   6.779  -2.248  1.00  0.00     0.057 C 
ATOM     24  C   UNL     1       5.179   7.902  -1.389  1.00  0.00    -0.041 C 
BRANCH  24  25
ATOM     25  C   UNL     1       5.779   9.242  -1.527  1.00  0.00    -0.020 A 
ATOM     26  C   UNL     1       6.417   9.798  -0.402  1.00  0.00     0.008 A 
ATOM     27  C   UNL     1       5.738   9.982  -2.726  1.00  0.00    -0.044 A 
ATOM     28  C   UNL     1       7.008  11.060  -0.459  1.00  0.00     0.001 A 
ATOM     29  C   UNL     1       6.354  11.245  -2.771  1.00  0.00     0.004 A 
ATOM     30  C   UNL     1       5.075   9.465  -3.973  1.00  0.00     0.045 C 
ATOM     31  C   UNL     1       6.978  11.783  -1.646  1.00  0.00     0.000 A 
ENDBRANCH  24  25
ENDBRANCH  13  19
ENDBRANCH   5   8
ENDBRANCH   3   4
ENDBRANCH   2   3
ENDBRANCH   1   2
BRANCH   1  32
ATOM     32  C   UNL     1       6.311  -2.020   1.988  1.00  0.00     0.002 C 
BRANCH  32  33
ATOM     33  C   UNL     1       5.045  -2.843   2.258  1.00  0.00     0.021 C 
BRANCH  33  34
ATOM     34  C   UNL     1       5.055  -4.221   1.609  1.00  0.00     0.116 C 
BRANCH  34  35
ATOM     35  N   UNL     1       5.210  -5.317   2.557  1.00  0.00    -0.352 N 
ATOM     36  C   UNL     1       5.449  -6.657   2.293  1.00  0.00     0.251 C 
ATOM     37  H   UNL     1       5.136  -5.075   3.508  1.00  0.00     0.163 HD
ATOM     38  O   UNL     1       5.583  -7.459   3.204  1.00  0.00    -0.269 OA
BRANCH  36  39
ATOM     39  C   UNL     1       5.671  -7.070   0.887  1.00  0.00     0.039 A 
ATOM     40  C   UNL     1       6.857  -7.747   0.591  1.00  0.00     0.014 A 
ATOM     41  C   UNL     1       4.859  -6.583  -0.135  1.00  0.00     0.014 A 
ATOM     42  C   UNL     1       7.357  -7.701  -0.708  1.00  0.00     0.010 A 
ATOM     43  C   UNL     1       5.389  -6.469  -1.408  1.00  0.00     0.010 A 
ATOM     44  C   UNL     1       6.671  -6.959  -1.673  1.00  0.00    -0.014 A 
BRANCH  44  45
ATOM     45  C   UNL     1       7.301  -6.529  -2.917  1.00  0.00     0.031 A 
ATOM     46  C   UNL     1       7.008  -7.198  -4.197  1.00  0.00     0.074 A 
ATOM     47  C   UNL     1       8.191  -5.511  -2.917  1.00  0.00     0.049 A 
ATOM     48  N   UNL     1       7.874  -7.311  -5.151  1.00  0.00    -0.248 NA
ATOM     49  C   UNL     1       5.721  -7.812  -4.496  1.00  0.00     0.031 C 
ATOM     50  C   UNL     1       8.776  -4.848  -4.080  1.00  0.00     0.029 A 
ATOM     51  N   UNL     1       8.931  -5.027  -1.834  1.00  0.00    -0.354 N 
ATOM     52  C   UNL     1       7.204  -7.760  -6.258  1.00  0.00     0.074 A 
ATOM     53  C   UNL     1       5.883  -8.124  -5.787  1.00  0.00     0.031 C 
ATOM     54  C   UNL     1       9.944  -4.297  -3.720  1.00  0.00     0.029 A 
ATOM     55  C   UNL     1      10.201  -4.676  -2.344  1.00  0.00     0.049 A 
ATOM     56  H   UNL     1       8.627  -4.948  -0.900  1.00  0.00     0.167 HD
ATOM     57  C   UNL     1       7.772  -7.668  -7.491  1.00  0.00     0.037 A 
ATOM     58  C   UNL     1      11.338  -5.263  -1.872  1.00  0.00     0.037 A 
ATOM     59  C   UNL     1       9.098  -7.064  -7.469  1.00  0.00     0.049 A 
ATOM     60  C   UNL     1      12.133  -6.027  -2.910  1.00  0.00     0.074 A 
ATOM     61  C   UNL     1       9.586  -5.796  -7.736  1.00  0.00     0.029 A 
ATOM     62  N   UNL     1      10.131  -7.742  -6.848  1.00  0.00    -0.354 N 
ATOM     63  N   UNL     1      11.789  -6.149  -4.162  1.00  0.00    -0.248 NA
ATOM     64  C   UNL     1      13.324  -6.815  -2.583  1.00  0.00     0.031 C 
ATOM     65  C   UNL     1      10.932  -5.726  -7.281  1.00  0.00     0.029 A 
ATOM     66  C   UNL     1      11.259  -6.952  -6.734  1.00  0.00     0.049 A 
ATOM     67  H   UNL     1      10.071  -8.671  -6.528  1.00  0.00     0.167 HD
ATOM     68  C   UNL     1      12.614  -7.060  -4.770  1.00  0.00     0.074 A 
ATOM     69  C   UNL     1      13.568  -7.440  -3.747  1.00  0.00     0.031 C 
ATOM     70  C   UNL     1      12.425  -7.484  -6.052  1.00  0.00     0.037 A 
BRANCH  57  71
ATOM     71  C   UNL     1       6.972  -7.925  -8.734  1.00  0.00     0.057 A 
ATOM     72  C   UNL     1       7.058  -7.080  -9.852  1.00  0.00     0.134 A 
ATOM     73  C   UNL     1       6.059  -8.987  -8.851  1.00  0.00     0.134 A 
ATOM     74  F   UNL     1       7.931  -6.066  -9.903  1.00  0.00    -0.206 F 
ATOM     75  C   UNL     1       6.224  -7.222 -10.967  1.00  0.00     0.040 A 
ATOM     76  C   UNL     1       5.184  -9.111  -9.937  1.00  0.00     0.040 A 
ATOM     77  F   UNL     1       5.982  -9.938  -7.907  1.00  0.00    -0.206 F 
ATOM     78  C   UNL     1       5.258  -8.218 -10.997  1.00  0.00     0.006 A 
ENDBRANCH  57  71
BRANCH  58  79
ATOM     79  C   UNL     1      11.233  -5.630  -0.436  1.00  0.00     0.057 A 
ATOM     80  C   UNL     1      11.017  -4.604   0.504  1.00  0.00     0.134 A 
ATOM     81  C   UNL     1      10.952  -6.937  -0.032  1.00  0.00     0.134 A 
ATOM     82  F   UNL     1      11.268  -3.326   0.177  1.00  0.00    -0.206 F 
ATOM     83  C   UNL     1      10.418  -4.853   1.739  1.00  0.00     0.040 A 
ATOM     84  C   UNL     1      10.375  -7.200   1.214  1.00  0.00     0.040 A 
ATOM     85  F   UNL     1      11.117  -7.965  -0.875  1.00  0.00    -0.206 F 
ATOM     86  C   UNL     1      10.063  -6.154   2.082  1.00  0.00     0.006 A 
ENDBRANCH  58  79
BRANCH  70  87
ATOM     87  C   UNL     1      13.333  -8.450  -6.757  1.00  0.00     0.057 A 
ATOM     88  C   UNL     1      14.731  -8.353  -6.697  1.00  0.00     0.134 A 
ATOM     89  C   UNL     1      12.828  -9.437  -7.626  1.00  0.00     0.134 A 
ATOM     90  F   UNL     1      15.326  -7.404  -5.959  1.00  0.00    -0.206 F 
ATOM     91  C   UNL     1      15.571  -9.211  -7.417  1.00  0.00     0.040 A 
ATOM     92  C   UNL     1      13.656 -10.269  -8.386  1.00  0.00     0.040 A 
ATOM     93  F   UNL     1      11.511  -9.647  -7.762  1.00  0.00    -0.206 F 
ATOM     94  C   UNL     1      15.034 -10.166  -8.273  1.00  0.00     0.006 A 
ENDBRANCH  70  87
ENDBRANCH  44  45
ENDBRANCH  36  39
ENDBRANCH  34  35
ENDBRANCH  33  34
ENDBRANCH  32  33
ENDBRANCH   1  32
TORSDOF 16
