REMARK SMILES CC(C)[C@H](CO)NS(=O)(=O)c1ccc(Cl)c(C(=O)NCCCCCCNC(=O)c2ccc(-c3c4nc(c(-c5c(F)cccc5F)c5ccc([nH]5)c(-c5c(F)cccc5F)c5nc(c(-c6c(F)cccc6F)c6ccc3[nH]6)C=C5)C=C4)cc2)c1
REMARK SMILES IDX 21 1 20 2 19 3 17 4 18 5 16 7 11 8 12 9 83 10 13 11 14 12
REMARK SMILES IDX 15 13 8 14 9 15 10 16 7 17 4 19 2 20 1 21 3 22 5 23 6 24
REMARK SMILES IDX 22 26 23 27 24 28 25 29 26 30 27 31 28 33 29 34 30 35 82 36
REMARK SMILES IDX 31 37 81 38 32 39 33 40 34 41 75 42 35 43 80 44 74 45 76 46
REMARK SMILES IDX 36 47 79 48 73 49 72 50 37 52 63 53 46 54 62 55 47 56 50 57
REMARK SMILES IDX 61 58 77 59 48 60 49 61 60 63 78 64 51 65 38 66 39 67 44 68
REMARK SMILES IDX 40 69 41 70 43 71 45 72 42 73 64 74 65 75 70 76 66 77 67 78
REMARK SMILES IDX 69 79 71 80 68 81 52 82 53 83 58 84 54 85 55 86 57 87 59 88
REMARK SMILES IDX 56 89
REMARK H PARENT 19 6 7 18 6 25 26 32 76 51 50 62
REMARK Flexibility Score: inf
ROOT
ATOM      1  C   UNL     1      -4.511   2.243  -5.882  1.00  0.00     0.021 C 
ENDROOT
BRANCH   1   2
ATOM      2  C   UNL     1      -5.164   2.608  -4.554  1.00  0.00     0.116 C 
BRANCH   2   3
ATOM      3  N   UNL     1      -5.527   1.493  -3.707  1.00  0.00    -0.352 N 
ATOM      4  C   UNL     1      -5.601   1.393  -2.335  1.00  0.00     0.252 C 
ATOM      5  O   UNL     1      -6.030   0.335  -1.871  1.00  0.00    -0.269 OA
ATOM      6  H   UNL     1      -5.761   0.669  -4.191  1.00  0.00     0.163 HD
BRANCH   4   7
ATOM      7  C   UNL     1      -5.064   2.417  -1.385  1.00  0.00     0.059 A 
ATOM      8  C   UNL     1      -3.846   2.732   0.720  1.00  0.00     0.083 A 
ATOM      9  C   UNL     1      -3.744   4.097   0.479  1.00  0.00     0.023 A 
ATOM     10  C   UNL     1      -4.476   1.896  -0.213  1.00  0.00     0.037 A 
ATOM     11  C   UNL     1      -4.402   4.634  -0.625  1.00  0.00     0.023 A 
ATOM     12  C   UNL     1      -5.131   3.811  -1.502  1.00  0.00     0.053 A 
ATOM     13  Cl  UNL     1      -6.264   4.642  -2.510  1.00  0.00    -0.083 Cl
BRANCH   8  14
ATOM     14  S   UNL     1      -3.386   2.091   2.312  1.00  0.00     0.240 S 
ATOM     15  O   UNL     1      -4.231   0.968   2.623  1.00  0.00    -0.207 OA
ATOM     16  O   UNL     1      -3.314   3.216   3.224  1.00  0.00    -0.207 OA
BRANCH  14  17
ATOM     17  N   UNL     1      -1.819   1.585   2.131  1.00  0.00    -0.206 NA
ATOM     18  H   UNL     1      -1.277   2.446   2.057  1.00  0.00     0.141 HD
BRANCH  17  19
ATOM     19  C   UNL     1      -1.264   0.700   1.083  1.00  0.00     0.098 C 
BRANCH  19  20
ATOM     20  C   UNL     1      -1.507  -0.809   1.379  1.00  0.00     0.003 C 
ATOM     21  C   UNL     1      -2.878  -1.281   0.868  1.00  0.00     0.009 C 
ATOM     22  C   UNL     1      -0.479  -1.732   0.706  1.00  0.00     0.009 C 
ENDBRANCH  19  20
BRANCH  19  23
ATOM     23  C   UNL     1       0.239   1.113   1.010  1.00  0.00     0.176 C 
BRANCH  23  24
ATOM     24  O   UNL     1       0.777   1.355   2.315  1.00  0.00    -0.395 OA
ATOM     25  H   UNL     1       0.290   2.081   2.736  1.00  0.00     0.210 HD
ENDBRANCH  23  24
ENDBRANCH  19  23
ENDBRANCH  17  19
ENDBRANCH  14  17
ENDBRANCH   8  14
ENDBRANCH   4   7
ENDBRANCH   2   3
ENDBRANCH   1   2
BRANCH   1  26
ATOM     26  C   UNL     1      -5.396   1.558  -6.927  1.00  0.00     0.002 C 
BRANCH  26  27
ATOM     27  C   UNL     1      -6.742   2.216  -7.250  1.00  0.00     0.002 C 
BRANCH  27  28
ATOM     28  C   UNL     1      -6.720   3.709  -7.586  1.00  0.00     0.021 C 
BRANCH  28  29
ATOM     29  C   UNL     1      -5.774   4.129  -8.704  1.00  0.00     0.116 C 
BRANCH  29  30
ATOM     30  N   UNL     1      -6.082   3.495  -9.974  1.00  0.00    -0.352 N 
ATOM     31  C   UNL     1      -6.324   4.058 -11.203  1.00  0.00     0.251 C 
ATOM     32  H   UNL     1      -6.123   2.511  -9.950  1.00  0.00     0.163 HD
ATOM     33  O   UNL     1      -6.721   3.358 -12.130  1.00  0.00    -0.269 OA
BRANCH  31  34
ATOM     34  C   UNL     1      -6.131   5.510 -11.413  1.00  0.00     0.039 A 
ATOM     35  C   UNL     1      -7.093   6.219 -12.139  1.00  0.00     0.014 A 
ATOM     36  C   UNL     1      -5.002   6.170 -10.921  1.00  0.00     0.014 A 
ATOM     37  C   UNL     1      -6.953   7.597 -12.317  1.00  0.00     0.010 A 
ATOM     38  C   UNL     1      -4.903   7.555 -11.032  1.00  0.00     0.010 A 
ATOM     39  C   UNL     1      -5.875   8.284 -11.736  1.00  0.00    -0.014 A 
BRANCH  39  40
ATOM     40  C   UNL     1      -5.745   9.759 -11.857  1.00  0.00     0.031 A 
ATOM     41  C   UNL     1      -4.570  10.361 -12.577  1.00  0.00     0.074 A 
ATOM     42  C   UNL     1      -6.656  10.560 -11.268  1.00  0.00     0.049 A 
ATOM     43  N   UNL     1      -4.247  11.621 -12.726  1.00  0.00    -0.248 NA
ATOM     44  C   UNL     1      -3.617   9.422 -13.189  1.00  0.00     0.031 C 
ATOM     45  C   UNL     1      -7.821  10.102 -10.509  1.00  0.00     0.029 A 
ATOM     46  N   UNL     1      -6.739  11.929 -11.208  1.00  0.00    -0.354 N 
ATOM     47  C   UNL     1      -3.053  11.624 -13.437  1.00  0.00     0.074 A 
ATOM     48  C   UNL     1      -2.679  10.241 -13.639  1.00  0.00     0.031 C 
ATOM     49  C   UNL     1      -8.513  11.168 -10.079  1.00  0.00     0.029 A 
ATOM     50  C   UNL     1      -7.820  12.384 -10.492  1.00  0.00     0.049 A 
ATOM     51  H   UNL     1      -6.086  12.528 -11.637  1.00  0.00     0.167 HD
ATOM     52  C   UNL     1      -2.345  12.682 -13.901  1.00  0.00     0.037 A 
ATOM     53  C   UNL     1      -8.202  13.640 -10.190  1.00  0.00     0.037 A 
ATOM     54  C   UNL     1      -2.728  14.057 -13.711  1.00  0.00     0.049 A 
ATOM     55  C   UNL     1      -7.381  14.798 -10.690  1.00  0.00     0.074 A 
ATOM     56  C   UNL     1      -2.106  15.198 -14.185  1.00  0.00     0.029 A 
ATOM     57  N   UNL     1      -3.831  14.477 -12.982  1.00  0.00    -0.354 N 
ATOM     58  N   UNL     1      -6.290  14.786 -11.417  1.00  0.00    -0.248 NA
ATOM     59  C   UNL     1      -7.848  16.144 -10.331  1.00  0.00     0.031 C 
ATOM     60  C   UNL     1      -2.798  16.310 -13.695  1.00  0.00     0.029 A 
ATOM     61  C   UNL     1      -3.889  15.862 -12.969  1.00  0.00     0.049 A 
ATOM     62  H   UNL     1      -4.477  13.880 -12.540  1.00  0.00     0.167 HD
ATOM     63  C   UNL     1      -5.959  16.119 -11.629  1.00  0.00     0.074 A 
ATOM     64  C   UNL     1      -6.974  16.911 -10.967  1.00  0.00     0.031 C 
ATOM     65  C   UNL     1      -4.909  16.639 -12.311  1.00  0.00     0.037 A 
BRANCH  52  66
ATOM     66  C   UNL     1      -1.079  12.393 -14.657  1.00  0.00     0.057 A 
ATOM     67  C   UNL     1      -1.092  11.799 -15.926  1.00  0.00     0.134 A 
ATOM     68  C   UNL     1       0.168  12.748 -14.125  1.00  0.00     0.134 A 
ATOM     69  F   UNL     1      -2.250  11.425 -16.490  1.00  0.00    -0.206 F 
ATOM     70  C   UNL     1       0.089  11.540 -16.625  1.00  0.00     0.040 A 
ATOM     71  C   UNL     1       1.353  12.523 -14.828  1.00  0.00     0.040 A 
ATOM     72  F   UNL     1       0.256  13.327 -12.918  1.00  0.00    -0.206 F 
ATOM     73  C   UNL     1       1.316  11.911 -16.079  1.00  0.00     0.006 A 
ENDBRANCH  52  66
BRANCH  53  74
ATOM     74  C   UNL     1      -9.427  13.874  -9.381  1.00  0.00     0.057 A 
ATOM     75  C   UNL     1     -10.560  14.476  -9.941  1.00  0.00     0.134 A 
ATOM     76  C   UNL     1      -9.488  13.521  -8.028  1.00  0.00     0.134 A 
ATOM     77  F   UNL     1     -10.557  14.854 -11.228  1.00  0.00    -0.206 F 
ATOM     78  C   UNL     1     -11.700  14.741  -9.181  1.00  0.00     0.040 A 
ATOM     79  C   UNL     1     -10.632  13.754  -7.262  1.00  0.00     0.040 A 
ATOM     80  F   UNL     1      -8.440  12.935  -7.431  1.00  0.00    -0.206 F 
ATOM     81  C   UNL     1     -11.739  14.375  -7.837  1.00  0.00     0.006 A 
ENDBRANCH  53  74
BRANCH  65  82
ATOM     82  C   UNL     1      -4.825  18.136 -12.410  1.00  0.00     0.057 A 
ATOM     83  C   UNL     1      -4.515  18.939 -11.304  1.00  0.00     0.134 A 
ATOM     84  C   UNL     1      -5.021  18.779 -13.639  1.00  0.00     0.134 A 
ATOM     85  F   UNL     1      -4.327  18.388 -10.095  1.00  0.00    -0.206 F 
ATOM     86  C   UNL     1      -4.430  20.328 -11.412  1.00  0.00     0.040 A 
ATOM     87  C   UNL     1      -4.907  20.164 -13.766  1.00  0.00     0.040 A 
ATOM     88  F   UNL     1      -5.311  18.070 -14.741  1.00  0.00    -0.206 F 
ATOM     89  C   UNL     1      -4.618  20.943 -12.649  1.00  0.00     0.006 A 
ENDBRANCH  65  82
ENDBRANCH  39  40
ENDBRANCH  31  34
ENDBRANCH  29  30
ENDBRANCH  28  29
ENDBRANCH  27  28
ENDBRANCH  26  27
ENDBRANCH   1  26
TORSDOF 19
