REMARK SMILES CCCc1cc(S(F)(F)(F)(F)F)cc2c1O[C@@H](C(F)(F)F)C(C(=O)NCCCCCCNC(=O)c1ccc(-c3c4nc(c(-c5c(F)cccc5F)c5ccc([nH]5)c(-c5c(F)cccc5F)c5nc(c(-c6c(F)cccc6F)c6ccc3[nH]6)C=C5)C=C4)cc1)=C2
REMARK SMILES IDX 28 1 27 2 26 3 25 4 23 5 24 6 22 8 4 9 5 10 15 11 6 12 14 13
REMARK SMILES IDX 16 14 13 15 89 16 17 17 3 18 2 19 1 20 7 21 8 22 9 23 10 24
REMARK SMILES IDX 11 25 12 26 18 27 19 28 20 29 21 30 29 31 30 32 31 33 32 34
REMARK SMILES IDX 33 35 34 37 35 38 36 39 88 40 37 41 87 42 38 43 39 44 40 45
REMARK SMILES IDX 81 46 41 47 86 48 80 49 82 50 42 51 85 52 79 53 78 54 43 56
REMARK SMILES IDX 69 57 52 58 68 59 53 60 56 61 67 62 83 63 54 64 55 65 66 67
REMARK SMILES IDX 84 68 57 69 44 70 45 71 50 72 46 73 47 74 49 75 51 76 48 77
REMARK SMILES IDX 70 78 71 79 76 80 72 81 73 82 75 83 77 84 74 85 58 86 59 87
REMARK SMILES IDX 64 88 60 89 61 90 63 91 65 92 62 93
REMARK H PARENT 25 7 32 36 82 55 56 66
REMARK Flexibility Score: inf
ROOT
ATOM      1  C   UNL     1      -5.197   5.282   7.411  1.00  0.00     0.002 C 
ENDROOT
BRANCH   1   2
ATOM      2  C   UNL     1      -4.212   4.897   6.319  1.00  0.00     0.021 C 
BRANCH   2   3
ATOM      3  C   UNL     1      -3.291   3.801   6.831  1.00  0.00     0.116 C 
BRANCH   3   4
ATOM      4  N   UNL     1      -4.090   2.626   7.205  1.00  0.00    -0.352 N 
ATOM      5  C   UNL     1      -3.859   1.336   6.538  1.00  0.00     0.251 C 
ATOM      6  O   UNL     1      -4.550   0.320   6.862  1.00  0.00    -0.270 OA
ATOM      7  H   UNL     1      -4.780   2.702   7.904  1.00  0.00     0.163 HD
BRANCH   5   8
ATOM      8  C   UNL     1      -2.794   1.219   5.460  1.00  0.00     0.067 C 
ATOM      9  C   UNL     1       0.435   0.698   2.861  1.00  0.00    -0.004 A 
ATOM     10  C   UNL     1       1.082   1.802   2.335  1.00  0.00     0.032 A 
ATOM     11  C   UNL     1      -0.589   0.898   3.755  1.00  0.00     0.131 A 
ATOM     12  C   UNL     1       0.717   3.071   2.697  1.00  0.00     0.108 A 
ATOM     13  C   UNL     1      -0.998   2.166   4.129  1.00  0.00     0.019 A 
ATOM     14  O   UNL     1      -1.146  -0.205   4.354  1.00  0.00    -0.475 OA
ATOM     15  C   UNL     1      -0.323   3.253   3.585  1.00  0.00     0.036 A 
ATOM     16  C   UNL     1      -2.064   2.271   5.110  1.00  0.00     0.025 C 
ATOM     17  C   UNL     1      -2.541  -0.108   4.758  1.00  0.00     0.314 C 
BRANCH   9  18
ATOM     18  C   UNL     1       0.942  -0.679   2.468  1.00  0.00     0.039 C 
BRANCH  18  19
ATOM     19  C   UNL     1       0.435  -1.027   1.077  1.00  0.00     0.001 C 
ATOM     20  C   UNL     1       0.942   0.003   0.081  1.00  0.00     0.004 C 
ENDBRANCH  18  19
ENDBRANCH   9  18
BRANCH  12  21
ATOM     21  S   UNL     1       1.592   4.501   2.014  1.00  0.00     0.310 S 
ATOM     22  F   UNL     1       2.644   4.614   3.196  1.00  0.00    -0.094 F 
ATOM     23  F   UNL     1       0.617   5.375   2.891  1.00  0.00    -0.094 F 
ATOM     24  F   UNL     1       2.233   5.780   1.404  1.00  0.00    -0.094 F 
ATOM     25  F   UNL     1       2.653   3.615   1.251  1.00  0.00    -0.094 F 
ATOM     26  F   UNL     1       1.027   3.200   2.711  1.00  0.00    -0.094 F 
ENDBRANCH  12  21
BRANCH  17  27
ATOM     27  C   UNL     1      -2.860  -1.245   5.715  1.00  0.00     0.429 C 
ATOM     28  F   UNL     1      -4.135  -1.167   6.087  1.00  0.00    -0.167 F 
ATOM     29  F   UNL     1      -2.646  -2.409   5.109  1.00  0.00    -0.167 F 
ATOM     30  F   UNL     1      -2.079  -1.153   6.788  1.00  0.00    -0.167 F 
ENDBRANCH  17  27
ENDBRANCH   5   8
ENDBRANCH   3   4
ENDBRANCH   2   3
ENDBRANCH   1   2
BRANCH   1  31
ATOM     31  C   UNL     1      -4.436   5.785   8.626  1.00  0.00     0.002 C 
BRANCH  31  32
ATOM     32  C   UNL     1      -3.610   7.001   8.239  1.00  0.00     0.021 C 
BRANCH  32  33
ATOM     33  C   UNL     1      -4.530   8.097   7.727  1.00  0.00     0.116 C 
BRANCH  33  34
ATOM     34  N   UNL     1      -5.483   8.469   8.783  1.00  0.00    -0.352 N 
ATOM     35  C   UNL     1      -5.517   9.848   9.290  1.00  0.00     0.251 C 
ATOM     36  H   UNL     1      -6.098   7.794   9.151  1.00  0.00     0.163 HD
ATOM     37  O   UNL     1      -6.341  10.170  10.203  1.00  0.00    -0.269 OA
BRANCH  35  38
ATOM     38  C   UNL     1      -4.567  10.890   8.722  1.00  0.00     0.039 A 
ATOM     39  C   UNL     1      -3.839  11.739   9.539  1.00  0.00     0.014 A 
ATOM     40  C   UNL     1      -4.436  10.925   7.401  1.00  0.00     0.014 A 
ATOM     41  C   UNL     1      -3.205  12.797   8.846  1.00  0.00     0.010 A 
ATOM     42  C   UNL     1      -3.689  11.908   6.798  1.00  0.00     0.010 A 
ATOM     43  C   UNL     1      -2.990  12.817   7.543  1.00  0.00    -0.014 A 
BRANCH  43  44
ATOM     44  C   UNL     1      -2.019  13.797   6.906  1.00  0.00     0.031 A 
ATOM     45  C   UNL     1      -2.580  14.663   5.965  1.00  0.00     0.074 A 
ATOM     46  C   UNL     1      -0.672  13.765   7.222  1.00  0.00     0.049 A 
ATOM     47  N   UNL     1      -1.957  15.602   5.251  1.00  0.00    -0.248 NA
ATOM     48  C   UNL     1      -4.005  14.676   5.603  1.00  0.00     0.031 C 
ATOM     49  C   UNL     1      -0.100  12.900   8.176  1.00  0.00     0.029 A 
ATOM     50  N   UNL     1       0.339  14.535   6.691  1.00  0.00    -0.354 N 
ATOM     51  C   UNL     1      -2.830  16.242   4.470  1.00  0.00     0.074 A 
ATOM     52  C   UNL     1      -4.159  15.651   4.681  1.00  0.00     0.031 C 
ATOM     53  C   UNL     1       1.237  13.138   8.211  1.00  0.00     0.029 A 
ATOM     54  C   UNL     1       1.524  14.155   7.281  1.00  0.00     0.049 A 
ATOM     55  H   UNL     1       0.233  15.236   6.008  1.00  0.00     0.167 HD
ATOM     56  C   UNL     1      -2.571  17.295   3.591  1.00  0.00     0.037 A 
ATOM     57  C   UNL     1       2.794  14.653   7.034  1.00  0.00     0.037 A 
ATOM     58  C   UNL     1      -1.307  17.823   3.376  1.00  0.00     0.049 A 
ATOM     59  C   UNL     1       3.062  15.668   6.112  1.00  0.00     0.074 A 
ATOM     60  C   UNL     1      -1.030  18.889   2.500  1.00  0.00     0.029 A 
ATOM     61  N   UNL     1      -0.119  17.426   3.948  1.00  0.00    -0.354 N 
ATOM     62  N   UNL     1       2.184  16.333   5.361  1.00  0.00    -0.248 NA
ATOM     63  C   UNL     1       4.407  16.181   5.819  1.00  0.00     0.031 C 
ATOM     64  C   UNL     1       0.309  19.127   2.536  1.00  0.00     0.029 A 
ATOM     65  C   UNL     1       0.889  18.211   3.435  1.00  0.00     0.049 A 
ATOM     66  H   UNL     1      -0.009  16.705   4.610  1.00  0.00     0.167 HD
ATOM     67  C   UNL     1       2.813  17.244   4.616  1.00  0.00     0.074 A 
ATOM     68  C   UNL     1       4.253  17.154   4.895  1.00  0.00     0.031 C 
ATOM     69  C   UNL     1       2.245  18.149   3.718  1.00  0.00     0.037 A 
BRANCH  56  70
ATOM     70  C   UNL     1      -3.739  17.897   2.828  1.00  0.00     0.057 A 
ATOM     71  C   UNL     1      -4.758  18.488   3.557  1.00  0.00     0.134 A 
ATOM     72  C   UNL     1      -3.759  17.885   1.500  1.00  0.00     0.134 A 
ATOM     73  F   UNL     1      -4.664  18.747   4.857  1.00  0.00    -0.206 F 
ATOM     74  C   UNL     1      -5.909  18.790   2.791  1.00  0.00     0.040 A 
ATOM     75  C   UNL     1      -4.865  18.323   0.813  1.00  0.00     0.040 A 
ATOM     76  F   UNL     1      -2.697  17.446   0.829  1.00  0.00    -0.206 F 
ATOM     77  C   UNL     1      -5.934  18.864   1.473  1.00  0.00     0.006 A 
ENDBRANCH  56  70
BRANCH  57  78
ATOM     78  C   UNL     1       3.959  14.062   7.810  1.00  0.00     0.057 A 
ATOM     79  C   UNL     1       4.736  14.912   8.580  1.00  0.00     0.134 A 
ATOM     80  C   UNL     1       4.243  12.768   7.714  1.00  0.00     0.134 A 
ATOM     81  F   UNL     1       4.356  16.143   8.909  1.00  0.00    -0.206 F 
ATOM     82  C   UNL     1       5.971  14.353   8.983  1.00  0.00     0.040 A 
ATOM     83  C   UNL     1       5.403  12.265   8.251  1.00  0.00     0.040 A 
ATOM     84  F   UNL     1       3.396  11.953   7.093  1.00  0.00    -0.206 F 
ATOM     85  C   UNL     1       6.247  13.061   8.973  1.00  0.00     0.006 A 
ENDBRANCH  57  78
BRANCH  69  86
ATOM     86  C   UNL     1       3.168  19.126   3.009  1.00  0.00     0.057 A 
ATOM     87  C   UNL     1       4.164  18.710   2.141  1.00  0.00     0.134 A 
ATOM     88  C   UNL     1       2.928  20.416   3.215  1.00  0.00     0.134 A 
ATOM     89  F   UNL     1       4.276  17.457   1.712  1.00  0.00    -0.206 F 
ATOM     90  C   UNL     1       5.053  19.741   1.753  1.00  0.00     0.040 A 
ATOM     91  C   UNL     1       3.762  21.375   2.692  1.00  0.00     0.040 A 
ATOM     92  F   UNL     1       1.871  20.783   3.934  1.00  0.00    -0.206 F 
ATOM     93  C   UNL     1       4.802  21.032   1.874  1.00  0.00     0.006 A 
ENDBRANCH  69  86
ENDBRANCH  43  44
ENDBRANCH  35  38
ENDBRANCH  33  34
ENDBRANCH  32  33
ENDBRANCH  31  32
ENDBRANCH   1  31
TORSDOF 17
