REMARK SMILES COc1ccc(-c2cc(CC3(C(=O)NCCCCCCNC(=O)c4ccc(-c5c6nc(c(-c7c(F)cccc7F)c7ccc([nH]7)c(-c7c(F)cccc7F)c7nc(c(-c8c(F)cccc8F)c8ccc5[nH]8)C=C7)C=C6)cc4)CCN(C(=O)C4CCCC4)CC3)on2)cc1
REMARK SMILES IDX 16 1 15 2 14 3 12 4 13 5 11 7 78 8 89 9 79 10 88 11 80 12
REMARK SMILES IDX 81 13 82 14 10 15 9 16 7 17 8 18 91 19 90 20 6 21 3 22 4 23
REMARK SMILES IDX 93 24 5 25 92 26 2 27 1 28 83 29 84 30 87 31 85 32 86 33
REMARK SMILES IDX 17 34 18 35 19 36 20 37 21 38 22 39 23 41 24 42 25 43 77 44
REMARK SMILES IDX 26 45 76 46 27 47 28 48 29 49 70 50 30 51 75 52 69 53 71 54
REMARK SMILES IDX 31 55 74 56 68 57 67 58 32 60 58 61 41 62 57 63 42 64 45 65
REMARK SMILES IDX 56 66 72 67 43 68 44 69 55 71 73 72 46 73 33 74 34 75 39 76
REMARK SMILES IDX 35 77 36 78 38 79 40 80 37 81 59 82 60 83 65 84 61 85 62 86
REMARK SMILES IDX 64 87 66 88 63 89 47 90 48 91 53 92 49 93 50 94 52 95 54 96
REMARK SMILES IDX 51 97
REMARK H PARENT 14 6 21 40 71 59 45 70
REMARK Flexibility Score: inf
ROOT
ATOM      1  C   UNL     1       2.132 -13.830  -6.474  1.00  0.00     0.021 C 
ENDROOT
BRANCH   1   2
ATOM      2  C   UNL     1       1.957 -12.844  -5.326  1.00  0.00     0.116 C 
BRANCH   2   3
ATOM      3  N   UNL     1       3.222 -12.214  -5.009  1.00  0.00    -0.356 N 
ATOM      4  C   UNL     1       3.547 -10.951  -4.647  1.00  0.00     0.226 C 
ATOM      5  O   UNL     1       4.753 -10.754  -4.464  1.00  0.00    -0.274 OA
ATOM      6  H   UNL     1       3.994 -12.822  -5.069  1.00  0.00     0.163 HD
BRANCH   4   7
ATOM      7  C   UNL     1       2.490  -9.840  -4.427  1.00  0.00     0.060 C 
ATOM      8  C   UNL     1       1.776  -9.529  -5.771  1.00  0.00     0.039 C 
ATOM      9  C   UNL     1       1.556 -10.313  -3.272  1.00  0.00     0.039 C 
ATOM     10  C   UNL     1       0.316  -9.104  -5.641  1.00  0.00     0.120 C 
ATOM     11  C   UNL     1       0.072  -9.969  -3.385  1.00  0.00     0.120 C 
ATOM     12  N   UNL     1      -0.416  -9.998  -4.753  1.00  0.00    -0.342 N 
ATOM     13  C   UNL     1      -1.570 -10.594  -5.237  1.00  0.00     0.225 C 
ATOM     14  O   UNL     1      -1.972 -10.355  -6.383  1.00  0.00    -0.275 OA
BRANCH   7  15
ATOM     15  C   UNL     1       3.339  -8.608  -3.985  1.00  0.00     0.095 C 
BRANCH  15  16
ATOM     16  C   UNL     1       2.594  -7.383  -3.635  1.00  0.00     0.138 A 
ATOM     17  C   UNL     1       1.718  -5.529  -2.847  1.00  0.00     0.114 A 
ATOM     18  C   UNL     1       2.405  -6.702  -2.461  1.00  0.00     0.077 A 
ATOM     19  N   UNL     1       1.463  -5.529  -4.162  1.00  0.00    -0.080 NA
ATOM     20  O   UNL     1       2.061  -6.669  -4.659  1.00  0.00    -0.361 OA
BRANCH  17  21
ATOM     21  C   UNL     1       1.384  -4.402  -2.009  1.00  0.00     0.004 A 
ATOM     22  C   UNL     1       0.790  -2.199  -0.409  1.00  0.00     0.118 A 
ATOM     23  C   UNL     1      -0.218  -3.099  -0.760  1.00  0.00     0.047 A 
ATOM     24  C   UNL     1       2.104  -2.419  -0.823  1.00  0.00     0.047 A 
ATOM     25  C   UNL     1       0.073  -4.196  -1.573  1.00  0.00     0.014 A 
ATOM     26  C   UNL     1       2.400  -3.519  -1.626  1.00  0.00     0.014 A 
BRANCH  22  27
ATOM     27  O   UNL     1       0.418  -1.149   0.385  1.00  0.00    -0.497 OA
ATOM     28  C   UNL     1       0.968   0.097  -0.038  1.00  0.00     0.278 C 
ENDBRANCH  22  27
ENDBRANCH  17  21
ENDBRANCH  15  16
ENDBRANCH   7  15
BRANCH  13  29
ATOM     29  C   UNL     1      -2.354 -11.630  -4.436  1.00  0.00     0.078 C 
ATOM     30  C   UNL     1      -1.555 -12.876  -4.081  1.00  0.00     0.013 C 
ATOM     31  C   UNL     1      -3.038 -11.188  -3.146  1.00  0.00     0.013 C 
ATOM     32  C   UNL     1      -2.422 -13.563  -3.042  1.00  0.00     0.001 C 
ATOM     33  C   UNL     1      -3.055 -12.427  -2.244  1.00  0.00     0.001 C 
ENDBRANCH  13  29
ENDBRANCH   4   7
ENDBRANCH   2   3
ENDBRANCH   1   2
BRANCH   1  34
ATOM     34  C   UNL     1       2.962 -15.065  -6.096  1.00  0.00     0.002 C 
BRANCH  34  35
ATOM     35  C   UNL     1       2.400 -15.881  -4.927  1.00  0.00     0.002 C 
BRANCH  35  36
ATOM     36  C   UNL     1       0.946 -16.323  -5.098  1.00  0.00     0.021 C 
BRANCH  36  37
ATOM     37  C   UNL     1       0.667 -17.070  -6.396  1.00  0.00     0.116 C 
BRANCH  37  38
ATOM     38  N   UNL     1       1.461 -18.281  -6.514  1.00  0.00    -0.352 N 
ATOM     39  C   UNL     1       1.058 -19.546  -6.862  1.00  0.00     0.251 C 
ATOM     40  H   UNL     1       2.420 -18.180  -6.317  1.00  0.00     0.163 HD
ATOM     41  O   UNL     1       1.821 -20.495  -6.747  1.00  0.00    -0.269 OA
BRANCH  39  42
ATOM     42  C   UNL     1      -0.320 -19.753  -7.351  1.00  0.00     0.039 A 
ATOM     43  C   UNL     1      -1.069 -20.806  -6.823  1.00  0.00     0.014 A 
ATOM     44  C   UNL     1      -0.874 -18.900  -8.310  1.00  0.00     0.014 A 
ATOM     45  C   UNL     1      -2.396 -20.971  -7.219  1.00  0.00     0.010 A 
ATOM     46  C   UNL     1      -2.219 -19.018  -8.643  1.00  0.00     0.010 A 
ATOM     47  C   UNL     1      -2.992 -20.058  -8.105  1.00  0.00    -0.014 A 
BRANCH  47  48
ATOM     48  C   UNL     1      -4.422 -20.179  -8.481  1.00  0.00     0.031 A 
ATOM     49  C   UNL     1      -4.807 -20.446  -9.910  1.00  0.00     0.074 A 
ATOM     50  C   UNL     1      -5.374 -19.996  -7.545  1.00  0.00     0.049 A 
ATOM     51  N   UNL     1      -5.999 -20.530 -10.442  1.00  0.00    -0.248 NA
ATOM     52  C   UNL     1      -3.707 -20.619 -10.872  1.00  0.00     0.031 C 
ATOM     53  C   UNL     1      -5.128 -19.688  -6.135  1.00  0.00     0.029 A 
ATOM     54  N   UNL     1      -6.742 -20.035  -7.642  1.00  0.00    -0.354 N 
ATOM     55  C   UNL     1      -5.793 -20.756 -11.797  1.00  0.00     0.074 A 
ATOM     56  C   UNL     1      -4.363 -20.738 -12.017  1.00  0.00     0.031 C 
ATOM     57  C   UNL     1      -6.304 -19.591  -5.494  1.00  0.00     0.029 A 
ATOM     58  C   UNL     1      -7.386 -19.786  -6.453  1.00  0.00     0.049 A 
ATOM     59  H   UNL     1      -7.218 -20.223  -8.483  1.00  0.00     0.167 HD
ATOM     60  C   UNL     1      -6.710 -20.984 -12.766  1.00  0.00     0.037 A 
ATOM     61  C   UNL     1      -8.701 -19.713  -6.172  1.00  0.00     0.037 A 
ATOM     62  C   UNL     1      -8.132 -21.017 -12.541  1.00  0.00     0.049 A 
ATOM     63  C   UNL     1      -9.699 -19.945  -7.274  1.00  0.00     0.074 A 
ATOM     64  C   UNL     1      -9.141 -21.288 -13.448  1.00  0.00     0.029 A 
ATOM     65  N   UNL     1      -8.744 -20.768 -11.322  1.00  0.00    -0.354 N 
ATOM     66  N   UNL     1      -9.488 -20.226  -8.537  1.00  0.00    -0.248 NA
ATOM     67  C   UNL     1     -11.120 -19.855  -6.909  1.00  0.00     0.031 C 
ATOM     68  C   UNL     1     -10.367 -21.151 -12.790  1.00  0.00     0.029 A 
ATOM     69  C   UNL     1     -10.120 -20.855 -11.459  1.00  0.00     0.049 A 
ATOM     70  H   UNL     1      -8.272 -20.560 -10.484  1.00  0.00     0.167 HD
ATOM     71  C   UNL     1     -10.745 -20.379  -9.108  1.00  0.00     0.074 A 
ATOM     72  C   UNL     1     -11.712 -20.176  -8.050  1.00  0.00     0.031 C 
ATOM     73  C   UNL     1     -11.069 -20.663 -10.393  1.00  0.00     0.037 A 
BRANCH  60  74
ATOM     74  C   UNL     1      -6.206 -21.221 -14.161  1.00  0.00     0.057 A 
ATOM     75  C   UNL     1      -5.516 -22.391 -14.508  1.00  0.00     0.134 A 
ATOM     76  C   UNL     1      -6.454 -20.293 -15.180  1.00  0.00     0.134 A 
ATOM     77  F   UNL     1      -5.235 -23.316 -13.577  1.00  0.00    -0.206 F 
ATOM     78  C   UNL     1      -5.072 -22.619 -15.811  1.00  0.00     0.040 A 
ATOM     79  C   UNL     1      -6.041 -20.523 -16.493  1.00  0.00     0.040 A 
ATOM     80  F   UNL     1      -7.114 -19.155 -14.919  1.00  0.00    -0.206 F 
ATOM     81  C   UNL     1      -5.343 -21.687 -16.811  1.00  0.00     0.006 A 
ENDBRANCH  60  74
BRANCH  61  82
ATOM     82  C   UNL     1      -9.156 -19.418  -4.789  1.00  0.00     0.057 A 
ATOM     83  C   UNL     1      -9.828 -20.381  -4.027  1.00  0.00     0.134 A 
ATOM     84  C   UNL     1      -8.958 -18.161  -4.205  1.00  0.00     0.134 A 
ATOM     85  F   UNL     1     -10.065 -21.599  -4.536  1.00  0.00    -0.206 F 
ATOM     86  C   UNL     1     -10.313 -20.098  -2.749  1.00  0.00     0.040 A 
ATOM     87  C   UNL     1      -9.410 -17.873  -2.916  1.00  0.00     0.040 A 
ATOM     88  F   UNL     1      -8.312 -17.196  -4.876  1.00  0.00    -0.206 F 
ATOM     89  C   UNL     1     -10.101 -18.840  -2.189  1.00  0.00     0.006 A 
ENDBRANCH  61  82
BRANCH  73  90
ATOM     90  C   UNL     1     -12.528 -20.816 -10.717  1.00  0.00     0.057 A 
ATOM     91  C   UNL     1     -13.403 -19.723 -10.739  1.00  0.00     0.134 A 
ATOM     92  C   UNL     1     -13.052 -22.072 -11.052  1.00  0.00     0.134 A 
ATOM     93  F   UNL     1     -12.968 -18.496 -10.416  1.00  0.00    -0.206 F 
ATOM     94  C   UNL     1     -14.754 -19.878 -11.055  1.00  0.00     0.040 A 
ATOM     95  C   UNL     1     -14.393 -22.234 -11.400  1.00  0.00     0.040 A 
ATOM     96  F   UNL     1     -12.266 -23.159 -11.061  1.00  0.00    -0.206 F 
ATOM     97  C   UNL     1     -15.251 -21.135 -11.395  1.00  0.00     0.006 A 
ENDBRANCH  73  90
ENDBRANCH  47  48
ENDBRANCH  39  42
ENDBRANCH  37  38
ENDBRANCH  36  37
ENDBRANCH  35  36
ENDBRANCH  34  35
ENDBRANCH   1  34
TORSDOF 18
