REMARK SMILES C[NH+]1CCC(C(=O)N2C[C@@H](C(=O)NCCCCCCNC(=O)c3ccc(-c4c5nc(c(-c6c(F)cccc6F)c6ccc([nH]6)c(-c6c(F)cccc6F)c6nc(c(-c7c(F)cccc7F)c7ccc4[nH]7)C=C6)C=C5)cc3)[C@H](c3ccc4c(c3)OCO4)C2)CC1
REMARK SMILES IDX 16 1 15 2 14 3 13 4 11 5 12 6 10 8 8 9 9 10 87 11 77 12 6 13
REMARK SMILES IDX 7 14 5 15 1 16 2 17 3 18 89 19 4 21 88 22 78 23 79 24 83 25
REMARK SMILES IDX 80 26 82 27 81 28 84 29 86 30 85 31 17 32 18 33 19 34 20 35
REMARK SMILES IDX 21 36 22 38 23 39 24 40 76 41 25 42 75 43 26 44 27 45 28 46
REMARK SMILES IDX 69 47 29 48 74 49 68 50 70 51 30 52 73 53 67 54 66 55 31 57
REMARK SMILES IDX 57 58 40 59 56 60 41 61 44 62 55 63 71 64 42 65 43 66 54 68
REMARK SMILES IDX 72 69 45 70 32 71 33 72 38 73 34 74 35 75 37 76 39 77 36 78
REMARK SMILES IDX 58 79 59 80 64 81 60 82 61 83 63 84 65 85 62 86 46 87 47 88
REMARK SMILES IDX 52 89 48 90 49 91 51 92 53 93 50 94
REMARK H PARENT 13 7 2 20 20 37 70 56 44 67
REMARK Flexibility Score: inf
ROOT
ATOM      1  C   UNL     1       0.287  -0.007   8.383  1.00  0.00     0.002 C 
ENDROOT
BRANCH   1   2
ATOM      2  C   UNL     1       0.258   0.594   6.972  1.00  0.00     0.021 C 
BRANCH   2   3
ATOM      3  C   UNL     1       1.619   0.732   6.293  1.00  0.00     0.116 C 
BRANCH   3   4
ATOM      4  N   UNL     1       2.279  -0.545   6.078  1.00  0.00    -0.356 N 
ATOM      5  C   UNL     1       3.022  -0.980   5.020  1.00  0.00     0.225 C 
ATOM      6  O   UNL     1       3.592  -2.068   5.118  1.00  0.00    -0.275 OA
ATOM      7  H   UNL     1       2.172  -1.196   6.808  1.00  0.00     0.163 HD
BRANCH   5   8
ATOM      8  C   UNL     1       3.131  -0.134   3.772  1.00  0.00     0.107 C 
ATOM      9  N   UNL     1       3.629  -0.074   1.521  1.00  0.00    -0.341 N 
ATOM     10  C   UNL     1       3.190  -1.008   2.535  1.00  0.00     0.133 C 
ATOM     11  C   UNL     1       4.602   0.844   2.109  1.00  0.00     0.128 C 
ATOM     12  C   UNL     1       4.459   0.650   3.640  1.00  0.00     0.053 C 
BRANCH   9  13
ATOM     13  C   UNL     1       3.282   0.038   0.200  1.00  0.00     0.226 C 
ATOM     14  O   UNL     1       4.093   0.507  -0.609  1.00  0.00    -0.275 OA
BRANCH  13  15
ATOM     15  C   UNL     1       1.819  -0.098  -0.241  1.00  0.00     0.090 C 
ATOM     16  C   UNL     1      -2.478   0.035  -0.243  1.00  0.00     0.332 C 
ATOM     17  N   UNL     1      -1.069  -0.031   0.137  1.00  0.00    -0.337 N 
ATOM     18  C   UNL     1      -0.364   1.188  -0.276  1.00  0.00     0.262 C 
ATOM     19  C   UNL     1      -0.426  -1.225  -0.432  1.00  0.00     0.262 C 
ATOM     20  H   UNL     1      -1.017  -0.100   1.154  1.00  0.00     0.347 HD
ATOM     21  C   UNL     1       1.079   1.167   0.221  1.00  0.00     0.075 C 
ATOM     22  C   UNL     1       1.003  -1.339   0.108  1.00  0.00     0.075 C 
ENDBRANCH  13  15
ENDBRANCH   9  13
BRANCH  12  23
ATOM     23  C   UNL     1       4.450   1.877   4.529  1.00  0.00    -0.038 A 
ATOM     24  C   UNL     1       3.820   3.088   4.159  1.00  0.00     0.008 A 
ATOM     25  C   UNL     1       4.946   1.738   5.840  1.00  0.00     0.054 A 
ATOM     26  C   UNL     1       3.645   4.125   5.086  1.00  0.00     0.051 A 
ATOM     27  C   UNL     1       4.720   2.755   6.739  1.00  0.00     0.166 A 
ATOM     28  C   UNL     1       4.077   3.913   6.376  1.00  0.00     0.165 A 
ATOM     29  O   UNL     1       4.999   2.712   8.070  1.00  0.00    -0.454 OA
ATOM     30  O   UNL     1       3.878   4.745   7.433  1.00  0.00    -0.454 OA
ATOM     31  C   UNL     1       4.320   3.901   8.517  1.00  0.00     0.468 C 
ENDBRANCH  12  23
ENDBRANCH   5   8
ENDBRANCH   3   4
ENDBRANCH   2   3
ENDBRANCH   1   2
BRANCH   1  32
ATOM     32  C   UNL     1       1.204   0.689   9.394  1.00  0.00     0.002 C 
BRANCH  32  33
ATOM     33  C   UNL     1       0.977   2.191   9.571  1.00  0.00     0.021 C 
BRANCH  33  34
ATOM     34  C   UNL     1      -0.415   2.592  10.044  1.00  0.00     0.116 C 
BRANCH  34  35
ATOM     35  N   UNL     1      -0.672   2.191  11.418  1.00  0.00    -0.352 N 
ATOM     36  C   UNL     1      -1.003   2.949  12.512  1.00  0.00     0.251 C 
ATOM     37  H   UNL     1      -0.596   1.224  11.589  1.00  0.00     0.163 HD
ATOM     38  O   UNL     1      -1.000   2.432  13.632  1.00  0.00    -0.269 OA
BRANCH  36  39
ATOM     39  C   UNL     1      -1.341   4.385  12.376  1.00  0.00     0.039 A 
ATOM     40  C   UNL     1      -0.891   5.280  13.352  1.00  0.00     0.014 A 
ATOM     41  C   UNL     1      -2.124   4.856  11.318  1.00  0.00     0.014 A 
ATOM     42  C   UNL     1      -1.172   6.645  13.235  1.00  0.00     0.010 A 
ATOM     43  C   UNL     1      -2.330   6.225  11.156  1.00  0.00     0.010 A 
ATOM     44  C   UNL     1      -1.866   7.135  12.117  1.00  0.00    -0.014 A 
BRANCH  44  45
ATOM     45  C   UNL     1      -2.128   8.589  11.944  1.00  0.00     0.031 A 
ATOM     46  C   UNL     1      -3.544   9.103  11.895  1.00  0.00     0.074 A 
ATOM     47  C   UNL     1      -1.098   9.441  11.761  1.00  0.00     0.049 A 
ATOM     48  N   UNL     1      -3.976  10.318  11.664  1.00  0.00    -0.248 NA
ATOM     49  C   UNL     1      -4.618   8.117  12.102  1.00  0.00     0.031 C 
ATOM     50  C   UNL     1       0.317   9.066  11.731  1.00  0.00     0.029 A 
ATOM     51  N   UNL     1      -1.084  10.797  11.547  1.00  0.00    -0.354 N 
ATOM     52  C   UNL     1      -5.363  10.235  11.672  1.00  0.00     0.074 A 
ATOM     53  C   UNL     1      -5.704   8.847  11.889  1.00  0.00     0.031 C 
ATOM     54  C   UNL     1       1.060  10.165  11.524  1.00  0.00     0.029 A 
ATOM     55  C   UNL     1       0.177  11.316  11.369  1.00  0.00     0.049 A 
ATOM     56  H   UNL     1      -1.901  11.347  11.523  1.00  0.00     0.167 HD
ATOM     57  C   UNL     1      -6.271  11.230  11.532  1.00  0.00     0.037 A 
ATOM     58  C   UNL     1       0.576  12.573  11.097  1.00  0.00     0.037 A 
ATOM     59  C   UNL     1      -5.932  12.619  11.369  1.00  0.00     0.049 A 
ATOM     60  C   UNL     1      -0.456  13.662  10.971  1.00  0.00     0.074 A 
ATOM     61  C   UNL     1      -6.782  13.710  11.311  1.00  0.00     0.029 A 
ATOM     62  N   UNL     1      -4.643  13.108  11.237  1.00  0.00    -0.354 N 
ATOM     63  N   UNL     1      -1.761  13.579  11.067  1.00  0.00    -0.248 NA
ATOM     64  C   UNL     1       0.040  15.020  10.705  1.00  0.00     0.031 C 
ATOM     65  C   UNL     1      -6.010  14.855  11.096  1.00  0.00     0.029 A 
ATOM     66  C   UNL     1      -4.676  14.483  11.072  1.00  0.00     0.049 A 
ATOM     67  H   UNL     1      -3.825  12.560  11.258  1.00  0.00     0.167 HD
ATOM     68  C   UNL     1      -2.236  14.875  10.906  1.00  0.00     0.074 A 
ATOM     69  C   UNL     1      -1.081  15.726  10.722  1.00  0.00     0.031 C 
ATOM     70  C   UNL     1      -3.516  15.319  10.907  1.00  0.00     0.037 A 
BRANCH  57  71
ATOM     71  C   UNL     1      -7.726  10.864  11.559  1.00  0.00     0.057 A 
ATOM     72  C   UNL     1      -8.371  10.477  12.740  1.00  0.00     0.134 A 
ATOM     73  C   UNL     1      -8.509  10.978  10.402  1.00  0.00     0.134 A 
ATOM     74  F   UNL     1      -7.678  10.340  13.880  1.00  0.00    -0.206 F 
ATOM     75  C   UNL     1      -9.740  10.204  12.768  1.00  0.00     0.040 A 
ATOM     76  C   UNL     1      -9.883  10.732  10.423  1.00  0.00     0.040 A 
ATOM     77  F   UNL     1      -7.955  11.351   9.239  1.00  0.00    -0.206 F 
ATOM     78  C   UNL     1     -10.502  10.342  11.609  1.00  0.00     0.006 A 
ENDBRANCH  57  71
BRANCH  58  79
ATOM     79  C   UNL     1       2.019  12.883  10.923  1.00  0.00     0.057 A 
ATOM     80  C   UNL     1       2.708  13.678  11.847  1.00  0.00     0.134 A 
ATOM     81  C   UNL     1       2.733  12.426   9.809  1.00  0.00     0.134 A 
ATOM     82  F   UNL     1       2.074  14.163  12.925  1.00  0.00    -0.206 F 
ATOM     83  C   UNL     1       4.044  14.035  11.654  1.00  0.00     0.040 A 
ATOM     84  C   UNL     1       4.077  12.751   9.618  1.00  0.00     0.040 A 
ATOM     85  F   UNL     1       2.135  11.654   8.890  1.00  0.00    -0.206 F 
ATOM     86  C   UNL     1       4.733  13.568  10.537  1.00  0.00     0.006 A 
ENDBRANCH  58  79
BRANCH  70  87
ATOM     87  C   UNL     1      -3.734  16.795  10.746  1.00  0.00     0.057 A 
ATOM     88  C   UNL     1      -3.532  17.444   9.522  1.00  0.00     0.134 A 
ATOM     89  C   UNL     1      -4.194  17.567  11.821  1.00  0.00     0.134 A 
ATOM     90  F   UNL     1      -3.081  16.764   8.457  1.00  0.00    -0.206 F 
ATOM     91  C   UNL     1      -3.756  18.814   9.379  1.00  0.00     0.040 A 
ATOM     92  C   UNL     1      -4.449  18.932  11.682  1.00  0.00     0.040 A 
ATOM     93  F   UNL     1      -4.418  17.004  13.018  1.00  0.00    -0.206 F 
ATOM     94  C   UNL     1      -4.224  19.560  10.460  1.00  0.00     0.006 A 
ENDBRANCH  70  87
ENDBRANCH  44  45
ENDBRANCH  36  39
ENDBRANCH  34  35
ENDBRANCH  33  34
ENDBRANCH  32  33
ENDBRANCH   1  32
TORSDOF 16
