REMARK SMILES O=C(C[C@]1(C(=O)NC2CCCCC2)CC(c2ccc([N+](=O)[O-])cc2)=NO1)NCCCCCCNC(=O)c1ccc(-c2c3nc(c(-c4c(F)cccc4F)c4ccc([nH]4)c(-c4c(F)cccc4F)c4nc(c(-c5c(F)cccc5F)c5ccc2[nH]5)C=C4)C=C3)cc1
REMARK SMILES IDX 30 1 29 2 28 3 27 4 1 5 2 6 3 8 4 9 14 10 26 11 15 12 25 13
REMARK SMILES IDX 5 14 6 15 7 16 8 18 9 19 13 20 10 21 12 22 11 23 16 24 17 25
REMARK SMILES IDX 24 26 18 27 23 28 19 29 20 30 21 31 22 32 31 33 32 34 33 35
REMARK SMILES IDX 34 36 35 37 36 39 37 40 38 41 90 42 39 43 89 44 40 45 41 46
REMARK SMILES IDX 42 47 83 48 43 49 88 50 82 51 84 52 44 53 87 54 81 55 80 56
REMARK SMILES IDX 45 58 71 59 54 60 70 61 55 62 58 63 69 64 85 65 56 66 57 67
REMARK SMILES IDX 68 69 86 70 59 71 46 72 47 73 52 74 48 75 49 76 51 77 53 78
REMARK SMILES IDX 50 79 72 80 73 81 78 82 74 83 75 84 77 85 79 86 76 87 60 88
REMARK SMILES IDX 61 89 66 90 62 91 63 92 65 93 67 94 64 95
REMARK H PARENT 27 7 7 17 34 38 84 57 58 68
REMARK Flexibility Score: inf
ROOT
ATOM      1  C   UNL     1       1.348   3.409  -1.873  1.00  0.00     0.002 C 
ENDROOT
BRANCH   1   2
ATOM      2  C   UNL     1       1.763   3.240  -3.341  1.00  0.00     0.021 C 
BRANCH   2   3
ATOM      3  C   UNL     1       3.184   2.716  -3.555  1.00  0.00     0.116 C 
BRANCH   3   4
ATOM      4  N   UNL     1       3.365   1.431  -2.914  1.00  0.00    -0.356 N 
ATOM      5  O   UNL     1       4.598   0.506  -4.600  1.00  0.00    -0.275 OA
ATOM      6  C   UNL     1       4.011   0.390  -3.529  1.00  0.00     0.224 C 
ATOM      7  H   UNL     1       3.011   1.300  -2.005  1.00  0.00     0.163 HD
BRANCH   6   8
ATOM      8  C   UNL     1       3.829  -0.957  -2.872  1.00  0.00     0.162 C 
BRANCH   8   9
ATOM      9  C   UNL     1       4.119  -1.098  -1.378  1.00  0.00     0.229 C 
ATOM     10  C   UNL     1       5.218  -0.168  -0.853  1.00  0.00     0.123 C 
ATOM     11  O   UNL     1       4.778  -2.395  -1.232  1.00  0.00    -0.378 OA
ATOM     12  C   UNL     1       6.401  -0.946  -1.300  1.00  0.00     0.092 C 
ATOM     13  N   UNL     1       6.167  -2.201  -1.511  1.00  0.00    -0.089 NA
BRANCH   9  14
ATOM     14  C   UNL     1       2.944  -1.146  -0.355  1.00  0.00     0.268 C 
ATOM     15  O   UNL     1       3.163  -0.836   0.830  1.00  0.00    -0.270 OA
ATOM     16  N   UNL     1       1.656  -1.522  -0.551  1.00  0.00    -0.350 N 
ATOM     17  H   UNL     1       1.205  -1.677   0.311  1.00  0.00     0.163 HD
BRANCH  16  18
ATOM     18  C   UNL     1       0.734  -1.764  -1.669  1.00  0.00     0.082 C 
ATOM     19  C   UNL     1       0.446  -0.467  -2.437  1.00  0.00     0.025 C 
ATOM     20  C   UNL     1       1.061  -3.025  -2.472  1.00  0.00     0.025 C 
ATOM     21  C   UNL     1      -0.074  -0.614  -3.861  1.00  0.00     0.002 C 
ATOM     22  C   UNL     1       0.328  -3.083  -3.808  1.00  0.00     0.002 C 
ATOM     23  C   UNL     1       0.508  -1.803  -4.609  1.00  0.00     0.000 C 
ENDBRANCH  16  18
ENDBRANCH   9  14
BRANCH  12  24
ATOM     24  C   UNL     1       7.694  -0.277  -1.498  1.00  0.00    -0.000 A 
ATOM     25  C   UNL     1       8.469  -0.593  -2.618  1.00  0.00     0.017 A 
ATOM     26  C   UNL     1       8.112   0.716  -0.603  1.00  0.00     0.017 A 
ATOM     27  C   UNL     1       9.661   0.099  -2.857  1.00  0.00     0.086 A 
ATOM     28  C   UNL     1       9.309   1.400  -0.828  1.00  0.00     0.086 A 
ATOM     29  C   UNL     1      10.077   1.093  -1.960  1.00  0.00     0.269 A 
BRANCH  29  30
ATOM     30  N   UNL     1      11.325   1.828  -2.208  1.00  0.00     0.062 N 
ATOM     31  O   UNL     1      11.965   1.550  -3.232  1.00  0.00    -0.258 OA
ATOM     32  O   UNL     1      11.659   2.689  -1.381  1.00  0.00    -0.258 OA
ENDBRANCH  29  30
ENDBRANCH  12  24
ENDBRANCH   8   9
ENDBRANCH   6   8
ENDBRANCH   3   4
ENDBRANCH   2   3
ENDBRANCH   1   2
BRANCH   1  33
ATOM     33  C   UNL     1       2.291   4.259  -1.019  1.00  0.00     0.002 C 
BRANCH  33  34
ATOM     34  C   UNL     1       2.578   5.656  -1.570  1.00  0.00     0.021 C 
BRANCH  34  35
ATOM     35  C   UNL     1       1.342   6.514  -1.811  1.00  0.00     0.116 C 
BRANCH  35  36
ATOM     36  N   UNL     1       0.647   6.847  -0.579  1.00  0.00    -0.352 N 
ATOM     37  C   UNL     1       0.241   8.077  -0.122  1.00  0.00     0.251 C 
ATOM     38  H   UNL     1       0.438   6.086   0.009  1.00  0.00     0.163 HD
ATOM     39  O   UNL     1      -0.194   8.200   1.019  1.00  0.00    -0.269 OA
BRANCH  37  40
ATOM     40  C   UNL     1       0.358   9.262  -0.999  1.00  0.00     0.039 A 
ATOM     41  C   UNL     1       0.906  10.436  -0.476  1.00  0.00     0.014 A 
ATOM     42  C   UNL     1      -0.062   9.215  -2.331  1.00  0.00     0.014 A 
ATOM     43  C   UNL     1       1.093  11.543  -1.308  1.00  0.00     0.010 A 
ATOM     44  C   UNL     1       0.189  10.293  -3.175  1.00  0.00     0.010 A 
ATOM     45  C   UNL     1       0.768  11.468  -2.672  1.00  0.00    -0.014 A 
BRANCH  45  46
ATOM     46  C   UNL     1       1.030  12.606  -3.589  1.00  0.00     0.031 A 
ATOM     47  C   UNL     1      -0.112  13.315  -4.261  1.00  0.00     0.074 A 
ATOM     48  C   UNL     1       2.300  12.957  -3.872  1.00  0.00     0.049 A 
ATOM     49  N   UNL     1      -0.082  14.279  -5.146  1.00  0.00    -0.248 NA
ATOM     50  C   UNL     1      -1.468  12.864  -3.911  1.00  0.00     0.031 C 
ATOM     51  C   UNL     1       3.497  12.316  -3.324  1.00  0.00     0.029 A 
ATOM     52  N   UNL     1       2.794  13.931  -4.702  1.00  0.00    -0.354 N 
ATOM     53  C   UNL     1      -1.407  14.536  -5.471  1.00  0.00     0.074 A 
ATOM     54  C   UNL     1      -2.215  13.595  -4.725  1.00  0.00     0.031 C 
ATOM     55  C   UNL     1       4.586  12.928  -3.817  1.00  0.00     0.029 A 
ATOM     56  C   UNL     1       4.166  13.977  -4.741  1.00  0.00     0.049 A 
ATOM     57  H   UNL     1       2.219  14.540  -5.221  1.00  0.00     0.167 HD
ATOM     58  C   UNL     1      -1.909  15.485  -6.298  1.00  0.00     0.037 A 
ATOM     59  C   UNL     1       4.994  14.772  -5.446  1.00  0.00     0.037 A 
ATOM     60  C   UNL     1      -1.107  16.438  -7.018  1.00  0.00     0.049 A 
ATOM     61  C   UNL     1       4.414  15.818  -6.356  1.00  0.00     0.074 A 
ATOM     62  C   UNL     1      -1.525  17.478  -7.830  1.00  0.00     0.029 A 
ATOM     63  N   UNL     1       0.280  16.466  -7.014  1.00  0.00    -0.354 N 
ATOM     64  N   UNL     1       3.156  16.094  -6.602  1.00  0.00    -0.248 NA
ATOM     65  C   UNL     1       5.369  16.668  -7.082  1.00  0.00     0.031 C 
ATOM     66  C   UNL     1      -0.390  18.111  -8.349  1.00  0.00     0.029 A 
ATOM     67  C   UNL     1       0.734  17.493  -7.826  1.00  0.00     0.049 A 
ATOM     68  H   UNL     1       0.856  15.848  -6.510  1.00  0.00     0.167 HD
ATOM     69  C   UNL     1       3.167  17.163  -7.488  1.00  0.00     0.074 A 
ATOM     70  C   UNL     1       4.557  17.494  -7.727  1.00  0.00     0.031 C 
ATOM     71  C   UNL     1       2.120  17.814  -8.051  1.00  0.00     0.037 A 
BRANCH  58  72
ATOM     72  C   UNL     1      -3.399  15.537  -6.463  1.00  0.00     0.057 A 
ATOM     73  C   UNL     1      -4.242  15.973  -5.432  1.00  0.00     0.134 A 
ATOM     74  C   UNL     1      -3.998  15.171  -7.676  1.00  0.00     0.134 A 
ATOM     75  F   UNL     1      -3.734  16.325  -4.242  1.00  0.00    -0.206 F 
ATOM     76  C   UNL     1      -5.628  16.015  -5.591  1.00  0.00     0.040 A 
ATOM     77  C   UNL     1      -5.381  15.236  -7.855  1.00  0.00     0.040 A 
ATOM     78  F   UNL     1      -3.249  14.750  -8.706  1.00  0.00    -0.206 F 
ATOM     79  C   UNL     1      -6.201  15.652  -6.808  1.00  0.00     0.006 A 
ENDBRANCH  58  72
BRANCH  59  80
ATOM     80  C   UNL     1       6.463  14.625  -5.299  1.00  0.00     0.057 A 
ATOM     81  C   UNL     1       7.220  15.595  -4.631  1.00  0.00     0.134 A 
ATOM     82  C   UNL     1       7.144  13.518  -5.818  1.00  0.00     0.134 A 
ATOM     83  F   UNL     1       6.624  16.686  -4.128  1.00  0.00    -0.206 F 
ATOM     84  C   UNL     1       8.604  15.477  -4.497  1.00  0.00     0.040 A 
ATOM     85  C   UNL     1       8.525  13.376  -5.671  1.00  0.00     0.040 A 
ATOM     86  F   UNL     1       6.474  12.552  -6.462  1.00  0.00    -0.206 F 
ATOM     87  C   UNL     1       9.259  14.361  -5.014  1.00  0.00     0.006 A 
ENDBRANCH  59  80
BRANCH  71  88
ATOM     88  C   UNL     1       2.435  18.969  -8.955  1.00  0.00     0.057 A 
ATOM     89  C   UNL     1       2.959  18.780 -10.239  1.00  0.00     0.134 A 
ATOM     90  C   UNL     1       2.174  20.283  -8.548  1.00  0.00     0.134 A 
ATOM     91  F   UNL     1       3.244  17.546 -10.683  1.00  0.00    -0.206 F 
ATOM     92  C   UNL     1       3.231  19.860 -11.081  1.00  0.00     0.040 A 
ATOM     93  C   UNL     1       2.418  21.369  -9.389  1.00  0.00     0.040 A 
ATOM     94  F   UNL     1       1.665  20.532  -7.332  1.00  0.00    -0.206 F 
ATOM     95  C   UNL     1       2.954  21.159 -10.658  1.00  0.00     0.006 A 
ENDBRANCH  71  88
ENDBRANCH  45  46
ENDBRANCH  37  40
ENDBRANCH  35  36
ENDBRANCH  34  35
ENDBRANCH  33  34
ENDBRANCH   1  33
TORSDOF 18
