REMARK SMILES O=C1C[C@@H](C(=O)NCCCCCCNC(=O)c2ccc(-c3c4nc(c(-c5c(F)cccc5F)c5ccc([nH]5)c(-c5c(F)cccc5F)c5nc(c(-c6c(F)cccc6F)c6ccc3[nH]6)C=C5)C=C4)cc2)C2(CC[NH+](Cc3c[nH]nc3-c3ccc(Cl)cc3)CC2)N1
REMARK SMILES IDX 10 1 9 2 8 3 7 4 5 5 6 6 4 8 1 9 2 10 3 11 90 12 71 13 72 15
REMARK SMILES IDX 89 16 73 17 88 18 74 19 75 21 76 22 77 23 80 24 78 25 79 26
REMARK SMILES IDX 81 28 82 29 87 30 83 31 86 32 84 33 85 34 11 35 12 36 13 37
REMARK SMILES IDX 14 38 15 39 16 41 17 42 18 43 70 44 19 45 69 46 20 47 21 48
REMARK SMILES IDX 22 49 63 50 23 51 68 52 62 53 64 54 24 55 67 56 61 57 60 58
REMARK SMILES IDX 25 60 51 61 34 62 50 63 35 64 38 65 49 66 65 67 36 68 37 69
REMARK SMILES IDX 48 71 66 72 39 73 26 74 27 75 32 76 28 77 29 78 31 79 33 80
REMARK SMILES IDX 30 81 52 82 53 83 58 84 54 85 55 86 57 87 59 88 56 89 40 90
REMARK SMILES IDX 41 91 46 92 42 93 43 94 45 95 47 96 44 97
REMARK H PARENT 7 7 90 14 74 20 78 27 14 40 64 59 38 70
REMARK Flexibility Score: inf
ROOT
ATOM      1  C   UNL     1       1.192   4.437  -2.040  1.00  0.00     0.002 C 
ENDROOT
BRANCH   1   2
ATOM      2  C   UNL     1       1.677   3.406  -1.022  1.00  0.00     0.021 C 
BRANCH   2   3
ATOM      3  C   UNL     1       1.645   1.961  -1.527  1.00  0.00     0.116 C 
BRANCH   3   4
ATOM      4  N   UNL     1       2.649   1.681  -2.538  1.00  0.00    -0.356 N 
ATOM      5  C   UNL     1       3.730   0.859  -2.574  1.00  0.00     0.226 C 
ATOM      6  O   UNL     1       4.408   0.894  -3.607  1.00  0.00    -0.275 OA
ATOM      7  H   UNL     1       2.518   2.191  -3.370  1.00  0.00     0.163 HD
BRANCH   5   8
ATOM      8  C   UNL     1       4.169  -0.070  -1.436  1.00  0.00     0.114 C 
ATOM      9  O   UNL     1       1.595  -1.152   0.796  1.00  0.00    -0.275 OA
ATOM     10  C   UNL     1       2.571  -0.701   0.229  1.00  0.00     0.221 C 
ATOM     11  C   UNL     1       3.108  -1.129  -1.109  1.00  0.00     0.116 C 
ATOM     12  N   UNL     1       3.355   0.327   0.705  1.00  0.00    -0.349 N 
ATOM     13  C   UNL     1       4.560   0.562  -0.080  1.00  0.00     0.063 C 
ATOM     14  H   UNL     1       3.123   0.854   1.502  1.00  0.00     0.164 HD
ATOM     15  C   UNL     1       4.877   2.063  -0.166  1.00  0.00     0.091 C 
ATOM     16  C   UNL     1       5.680  -0.250   0.634  1.00  0.00     0.091 C 
ATOM     17  C   UNL     1       6.345   2.385  -0.381  1.00  0.00     0.264 C 
ATOM     18  C   UNL     1       7.095   0.327   0.570  1.00  0.00     0.264 C 
ATOM     19  N   UNL     1       7.188   1.775   0.623  1.00  0.00    -0.331 N 
ATOM     20  H   UNL     1       8.156   1.967   0.367  1.00  0.00     0.348 HD
BRANCH  19  21
ATOM     21  C   UNL     1       7.276   2.450   1.927  1.00  0.00     0.303 C 
BRANCH  21  22
ATOM     22  C   UNL     1       6.030   2.450   2.760  1.00  0.00     0.052 A 
ATOM     23  C   UNL     1       5.553   1.405   3.531  1.00  0.00     0.115 A 
ATOM     24  C   UNL     1       5.131   3.534   3.075  1.00  0.00     0.101 A 
ATOM     25  N   UNL     1       4.388   1.823   4.091  1.00  0.00    -0.285 N 
ATOM     26  N   UNL     1       4.104   3.100   3.827  1.00  0.00    -0.175 NA
ATOM     27  H   UNL     1       3.811   1.241   4.637  1.00  0.00     0.189 HD
BRANCH  24  28
ATOM     28  C   UNL     1       5.212   4.960   2.754  1.00  0.00     0.003 A 
ATOM     29  C   UNL     1       5.211   5.886   3.809  1.00  0.00     0.012 A 
ATOM     30  C   UNL     1       5.250   5.441   1.442  1.00  0.00     0.012 A 
ATOM     31  C   UNL     1       5.286   7.259   3.559  1.00  0.00     0.021 A 
ATOM     32  C   UNL     1       5.333   6.816   1.187  1.00  0.00     0.021 A 
ATOM     33  C   UNL     1       5.357   7.718   2.248  1.00  0.00     0.041 A 
ATOM     34  Cl  UNL     1       5.463   9.405   1.934  1.00  0.00    -0.084 Cl
ENDBRANCH  24  28
ENDBRANCH  21  22
ENDBRANCH  19  21
ENDBRANCH   5   8
ENDBRANCH   3   4
ENDBRANCH   2   3
ENDBRANCH   1   2
BRANCH   1  35
ATOM     35  C   UNL     1      -0.216   4.173  -2.575  1.00  0.00     0.002 C 
BRANCH  35  36
ATOM     36  C   UNL     1      -1.281   3.967  -1.494  1.00  0.00     0.021 C 
BRANCH  36  37
ATOM     37  C   UNL     1      -1.402   5.121  -0.507  1.00  0.00     0.116 C 
BRANCH  37  38
ATOM     38  N   UNL     1      -1.760   6.360  -1.178  1.00  0.00    -0.352 N 
ATOM     39  C   UNL     1      -2.858   7.157  -0.992  1.00  0.00     0.251 C 
ATOM     40  H   UNL     1      -1.124   6.668  -1.863  1.00  0.00     0.163 HD
ATOM     41  O   UNL     1      -3.142   8.022  -1.814  1.00  0.00    -0.269 OA
BRANCH  39  42
ATOM     42  C   UNL     1      -3.703   6.964   0.202  1.00  0.00     0.039 A 
ATOM     43  C   UNL     1      -5.091   6.990   0.059  1.00  0.00     0.014 A 
ATOM     44  C   UNL     1      -3.124   6.772   1.461  1.00  0.00     0.014 A 
ATOM     45  C   UNL     1      -5.901   6.783   1.176  1.00  0.00     0.010 A 
ATOM     46  C   UNL     1      -3.931   6.483   2.555  1.00  0.00     0.010 A 
ATOM     47  C   UNL     1      -5.327   6.502   2.427  1.00  0.00    -0.014 A 
BRANCH  47  48
ATOM     48  C   UNL     1      -6.178   6.234   3.612  1.00  0.00     0.031 A 
ATOM     49  C   UNL     1      -6.133   7.152   4.801  1.00  0.00     0.074 A 
ATOM     50  C   UNL     1      -6.949   5.130   3.639  1.00  0.00     0.049 A 
ATOM     51  N   UNL     1      -6.774   7.064   5.939  1.00  0.00    -0.248 NA
ATOM     52  C   UNL     1      -5.223   8.304   4.713  1.00  0.00     0.031 C 
ATOM     53  C   UNL     1      -7.029   4.130   2.572  1.00  0.00     0.029 A 
ATOM     54  N   UNL     1      -7.800   4.657   4.604  1.00  0.00    -0.354 N 
ATOM     55  C   UNL     1      -6.334   8.136   6.704  1.00  0.00     0.074 A 
ATOM     56  C   UNL     1      -5.328   8.825   5.926  1.00  0.00     0.031 C 
ATOM     57  C   UNL     1      -7.896   3.173   2.934  1.00  0.00     0.029 A 
ATOM     58  C   UNL     1      -8.402   3.469   4.271  1.00  0.00     0.049 A 
ATOM     59  H   UNL     1      -7.965   5.125   5.455  1.00  0.00     0.167 HD
ATOM     60  C   UNL     1      -6.745   8.522   7.935  1.00  0.00     0.037 A 
ATOM     61  C   UNL     1      -9.257   2.697   4.968  1.00  0.00     0.037 A 
ATOM     62  C   UNL     1      -7.757   7.837   8.697  1.00  0.00     0.049 A 
ATOM     63  C   UNL     1      -9.707   3.147   6.329  1.00  0.00     0.074 A 
ATOM     64  C   UNL     1      -8.302   8.190   9.919  1.00  0.00     0.029 A 
ATOM     65  N   UNL     1      -8.364   6.649   8.316  1.00  0.00    -0.354 N 
ATOM     66  N   UNL     1      -9.354   4.214   7.005  1.00  0.00    -0.248 NA
ATOM     67  C   UNL     1     -10.682   2.294   7.019  1.00  0.00     0.031 C 
ATOM     68  C   UNL     1      -9.191   7.181  10.308  1.00  0.00     0.029 A 
ATOM     69  C   UNL     1      -9.252   6.235   9.297  1.00  0.00     0.049 A 
ATOM     70  H   UNL     1      -8.191   6.171   7.473  1.00  0.00     0.167 HD
ATOM     71  C   UNL     1     -10.078   4.173   8.189  1.00  0.00     0.074 A 
ATOM     72  C   UNL     1     -10.903   2.984   8.130  1.00  0.00     0.031 C 
ATOM     73  C   UNL     1     -10.062   5.043   9.230  1.00  0.00     0.037 A 
BRANCH  60  74
ATOM     74  C   UNL     1      -6.084   9.732   8.536  1.00  0.00     0.057 A 
ATOM     75  C   UNL     1      -6.253  11.018   8.004  1.00  0.00     0.134 A 
ATOM     76  C   UNL     1      -5.269   9.608   9.669  1.00  0.00     0.134 A 
ATOM     77  F   UNL     1      -7.013  11.209   6.914  1.00  0.00    -0.206 F 
ATOM     78  C   UNL     1      -5.603  12.127   8.548  1.00  0.00     0.040 A 
ATOM     79  C   UNL     1      -4.642  10.716  10.243  1.00  0.00     0.040 A 
ATOM     80  F   UNL     1      -5.068   8.410  10.238  1.00  0.00    -0.206 F 
ATOM     81  C   UNL     1      -4.798  11.978   9.675  1.00  0.00     0.006 A 
ENDBRANCH  60  74
BRANCH  61  82
ATOM     82  C   UNL     1      -9.745   1.427   4.375  1.00  0.00     0.057 A 
ATOM     83  C   UNL     1     -11.071   1.283   3.951  1.00  0.00     0.134 A 
ATOM     84  C   UNL     1      -8.888   0.334   4.193  1.00  0.00     0.134 A 
ATOM     85  F   UNL     1     -11.944   2.288   4.113  1.00  0.00    -0.206 F 
ATOM     86  C   UNL     1     -11.530   0.096   3.378  1.00  0.00     0.040 A 
ATOM     87  C   UNL     1      -9.326  -0.848   3.596  1.00  0.00     0.040 A 
ATOM     88  F   UNL     1      -7.603   0.412   4.569  1.00  0.00    -0.206 F 
ATOM     89  C   UNL     1     -10.654  -0.971   3.192  1.00  0.00     0.006 A 
ENDBRANCH  61  82
BRANCH  73  90
ATOM     90  C   UNL     1     -10.983   4.755  10.381  1.00  0.00     0.057 A 
ATOM     91  C   UNL     1     -10.766   3.684  11.258  1.00  0.00     0.134 A 
ATOM     92  C   UNL     1     -12.084   5.584  10.636  1.00  0.00     0.134 A 
ATOM     93  F   UNL     1      -9.738   2.844  11.064  1.00  0.00    -0.206 F 
ATOM     94  C   UNL     1     -11.625   3.433  12.330  1.00  0.00     0.040 A 
ATOM     95  C   UNL     1     -12.930   5.362  11.723  1.00  0.00     0.040 A 
ATOM     96  F   UNL     1     -12.345   6.634   9.842  1.00  0.00    -0.206 F 
ATOM     97  C   UNL     1     -12.707   4.279  12.569  1.00  0.00     0.006 A 
ENDBRANCH  73  90
ENDBRANCH  47  48
ENDBRANCH  39  42
ENDBRANCH  37  38
ENDBRANCH  36  37
ENDBRANCH  35  36
ENDBRANCH   1  35
TORSDOF 16
