REMARK SMILES Cc1ccc(OCCC(=O)N2C[C@H](O)C[C@@H]2C(=O)NCCCCCCNC(=O)c2ccc(-c3c4nc(c(-c5c(F)cccc5F)c5ccc([nH]5)c(-c5c(F)cccc5F)c5nc(c(-c6c(F)cccc6F)c6ccc3[nH]6)C=C5)C=C4)cc2)cc1
REMARK SMILES IDX 21 1 20 2 19 3 17 4 18 5 16 7 11 8 12 9 13 10 15 11 9 12
REMARK SMILES IDX 10 13 8 14 7 15 6 16 5 17 1 18 2 19 3 20 84 21 4 22 83 23
REMARK SMILES IDX 14 24 22 26 23 27 24 28 25 29 26 30 27 31 28 33 29 34 30 35
REMARK SMILES IDX 82 36 31 37 81 38 32 39 33 40 34 41 75 42 35 43 80 44 74 45
REMARK SMILES IDX 76 46 36 47 79 48 73 49 72 50 37 52 63 53 46 54 62 55 47 56
REMARK SMILES IDX 50 57 61 58 77 59 48 60 49 61 60 63 78 64 51 65 38 66 39 67
REMARK SMILES IDX 44 68 40 69 41 70 43 71 45 72 42 73 64 74 65 75 70 76 66 77
REMARK SMILES IDX 67 78 69 79 71 80 68 81 52 82 53 83 58 84 54 85 55 86 57 87
REMARK SMILES IDX 59 88 56 89
REMARK H PARENT 19 6 14 25 26 32 76 51 50 62
REMARK Flexibility Score: inf
ROOT
ATOM      1  C   UNL     1      -3.707  -0.552   4.218  1.00  0.00     0.021 C 
ENDROOT
BRANCH   1   2
ATOM      2  C   UNL     1      -2.873   0.731   4.236  1.00  0.00     0.116 C 
BRANCH   2   3
ATOM      3  N   UNL     1      -1.513   0.553   4.704  1.00  0.00    -0.354 N 
ATOM      4  C   UNL     1      -0.380   1.115   4.166  1.00  0.00     0.242 C 
ATOM      5  O   UNL     1       0.501   1.444   4.968  1.00  0.00    -0.273 OA
ATOM      6  H   UNL     1      -1.388  -0.029   5.487  1.00  0.00     0.163 HD
BRANCH   4   7
ATOM      7  C   UNL     1      -0.072   1.061   2.641  1.00  0.00     0.177 C 
ATOM      8  N   UNL     1      -1.191   0.822   1.734  1.00  0.00    -0.328 N 
ATOM      9  C   UNL     1      -1.326  -0.601   1.444  1.00  0.00     0.152 C 
ATOM     10  C   UNL     1      -0.115  -1.280   2.084  1.00  0.00     0.136 C 
ATOM     11  C   UNL     1       0.851  -0.138   2.387  1.00  0.00     0.069 C 
BRANCH   8  12
ATOM     12  C   UNL     1      -1.879   1.853   1.123  1.00  0.00     0.226 C 
ATOM     13  O   UNL     1      -1.504   3.024   1.197  1.00  0.00    -0.275 OA
BRANCH  12  14
ATOM     14  C   UNL     1      -3.219   1.517   0.481  1.00  0.00     0.141 C 
BRANCH  14  15
ATOM     15  C   UNL     1      -3.314   1.766  -1.020  1.00  0.00     0.239 C 
BRANCH  15  16
ATOM     16  O   UNL     1      -2.800   0.687  -1.813  1.00  0.00    -0.493 OA
BRANCH  16  17
ATOM     17  C   UNL     1      -1.440   0.595  -1.920  1.00  0.00     0.119 A 
ATOM     18  C   UNL     1       2.757  -0.152  -1.416  1.00  0.00     0.044 C 
ATOM     19  C   UNL     1       1.309   0.116  -1.693  1.00  0.00    -0.051 A 
ATOM     20  C   UNL     1       0.435  -0.935  -1.990  1.00  0.00     0.007 A 
ATOM     21  C   UNL     1       0.810   1.420  -1.640  1.00  0.00     0.007 A 
ATOM     22  C   UNL     1      -0.935  -0.692  -2.120  1.00  0.00     0.046 A 
ATOM     23  C   UNL     1      -0.557   1.660  -1.765  1.00  0.00     0.046 A 
ENDBRANCH  16  17
ENDBRANCH  15  16
ENDBRANCH  14  15
ENDBRANCH  12  14
ENDBRANCH   8  12
BRANCH  10  24
ATOM     24  O   UNL     1      -0.479  -1.972   3.275  1.00  0.00    -0.391 OA
ATOM     25  H   UNL     1      -0.880  -1.348   3.901  1.00  0.00     0.211 HD
ENDBRANCH  10  24
ENDBRANCH   4   7
ENDBRANCH   2   3
ENDBRANCH   1   2
BRANCH   1  26
ATOM     26  C   UNL     1      -4.605  -0.766   5.443  1.00  0.00     0.002 C 
BRANCH  26  27
ATOM     27  C   UNL     1      -5.448   0.438   5.896  1.00  0.00     0.002 C 
BRANCH  27  28
ATOM     28  C   UNL     1      -6.164   1.215   4.787  1.00  0.00     0.021 C 
BRANCH  28  29
ATOM     29  C   UNL     1      -7.382   0.499   4.229  1.00  0.00     0.116 C 
BRANCH  29  30
ATOM     30  N   UNL     1      -8.610   0.794   4.956  1.00  0.00    -0.352 N 
ATOM     31  C   UNL     1      -9.849   0.180   4.855  1.00  0.00     0.251 C 
ATOM     32  H   UNL     1      -8.553   1.530   5.608  1.00  0.00     0.163 HD
ATOM     33  O   UNL     1     -10.782   0.530   5.546  1.00  0.00    -0.269 OA
BRANCH  31  34
ATOM     34  C   UNL     1      -9.964  -1.006   3.974  1.00  0.00     0.039 A 
ATOM     35  C   UNL     1     -10.422  -2.194   4.552  1.00  0.00     0.014 A 
ATOM     36  C   UNL     1      -9.393  -1.001   2.703  1.00  0.00     0.014 A 
ATOM     37  C   UNL     1     -10.072  -3.405   3.967  1.00  0.00     0.010 A 
ATOM     38  C   UNL     1      -8.974  -2.201   2.165  1.00  0.00     0.010 A 
ATOM     39  C   UNL     1      -9.247  -3.394   2.842  1.00  0.00    -0.014 A 
BRANCH  39  40
ATOM     40  C   UNL     1      -8.543  -4.583   2.381  1.00  0.00     0.031 A 
ATOM     41  C   UNL     1      -9.067  -5.356   1.243  1.00  0.00     0.074 A 
ATOM     42  C   UNL     1      -7.403  -4.962   2.999  1.00  0.00     0.049 A 
ATOM     43  N   UNL     1      -8.832  -6.608   1.039  1.00  0.00    -0.248 NA
ATOM     44  C   UNL     1      -9.973  -4.772   0.266  1.00  0.00     0.031 C 
ATOM     45  C   UNL     1      -6.456  -5.987   2.570  1.00  0.00     0.029 A 
ATOM     46  N   UNL     1      -7.003  -4.638   4.303  1.00  0.00    -0.354 N 
ATOM     47  C   UNL     1      -9.309  -6.927  -0.214  1.00  0.00     0.074 A 
ATOM     48  C   UNL     1     -10.090  -5.777  -0.606  1.00  0.00     0.031 C 
ATOM     49  C   UNL     1      -5.784  -6.427   3.645  1.00  0.00     0.029 A 
ATOM     50  C   UNL     1      -6.380  -5.798   4.811  1.00  0.00     0.049 A 
ATOM     51  H   UNL     1      -7.129  -3.779   4.767  1.00  0.00     0.167 HD
ATOM     52  C   UNL     1      -8.860  -8.067  -0.818  1.00  0.00     0.037 A 
ATOM     53  C   UNL     1      -6.887  -6.464   5.887  1.00  0.00     0.037 A 
ATOM     54  C   UNL     1      -8.058  -8.868   0.112  1.00  0.00     0.049 A 
ATOM     55  C   UNL     1      -7.227  -7.909   5.607  1.00  0.00     0.074 A 
ATOM     56  C   UNL     1      -6.691  -9.019   0.288  1.00  0.00     0.029 A 
ATOM     57  N   UNL     1      -8.660  -9.427   1.235  1.00  0.00    -0.354 N 
ATOM     58  N   UNL     1      -7.422  -8.395   4.413  1.00  0.00    -0.248 NA
ATOM     59  C   UNL     1      -7.402  -8.912   6.655  1.00  0.00     0.031 C 
ATOM     60  C   UNL     1      -6.472  -9.621   1.552  1.00  0.00     0.029 A 
ATOM     61  C   UNL     1      -7.705  -9.856   2.136  1.00  0.00     0.049 A 
ATOM     62  H   UNL     1      -9.632  -9.506   1.369  1.00  0.00     0.167 HD
ATOM     63  C   UNL     1      -7.769  -9.720   4.509  1.00  0.00     0.074 A 
ATOM     64  C   UNL     1      -7.714 -10.001   5.931  1.00  0.00     0.031 C 
ATOM     65  C   UNL     1      -8.087 -10.462   3.406  1.00  0.00     0.037 A 
BRANCH  52  66
ATOM     66  C   UNL     1      -8.872  -8.296  -2.323  1.00  0.00     0.057 A 
ATOM     67  C   UNL     1      -7.922  -9.148  -2.928  1.00  0.00     0.134 A 
ATOM     68  C   UNL     1      -9.716  -7.653  -3.245  1.00  0.00     0.134 A 
ATOM     69  F   UNL     1      -7.120  -9.939  -2.204  1.00  0.00    -0.206 F 
ATOM     70  C   UNL     1      -7.742  -9.238  -4.317  1.00  0.00     0.040 A 
ATOM     71  C   UNL     1      -9.519  -7.696  -4.635  1.00  0.00     0.040 A 
ATOM     72  F   UNL     1     -10.818  -7.004  -2.863  1.00  0.00    -0.206 F 
ATOM     73  C   UNL     1      -8.514  -8.477  -5.177  1.00  0.00     0.006 A 
ENDBRANCH  52  66
BRANCH  53  74
ATOM     74  C   UNL     1      -7.620  -5.589   6.840  1.00  0.00     0.057 A 
ATOM     75  C   UNL     1      -6.919  -4.555   7.487  1.00  0.00     0.134 A 
ATOM     76  C   UNL     1      -9.015  -5.517   6.855  1.00  0.00     0.134 A 
ATOM     77  F   UNL     1      -5.576  -4.561   7.509  1.00  0.00    -0.206 F 
ATOM     78  C   UNL     1      -7.571  -3.443   8.026  1.00  0.00     0.040 A 
ATOM     79  C   UNL     1      -9.680  -4.414   7.405  1.00  0.00     0.040 A 
ATOM     80  F   UNL     1      -9.755  -6.452   6.242  1.00  0.00    -0.206 F 
ATOM     81  C   UNL     1      -8.957  -3.356   7.957  1.00  0.00     0.006 A 
ENDBRANCH  53  74
BRANCH  65  82
ATOM     82  C   UNL     1      -8.697 -11.847   3.400  1.00  0.00     0.057 A 
ATOM     83  C   UNL     1      -9.482 -12.377   4.435  1.00  0.00     0.134 A 
ATOM     84  C   UNL     1      -8.617 -12.659   2.244  1.00  0.00     0.134 A 
ATOM     85  F   UNL     1      -9.753 -11.677   5.544  1.00  0.00    -0.206 F 
ATOM     86  C   UNL     1     -10.085 -13.641   4.355  1.00  0.00     0.040 A 
ATOM     87  C   UNL     1      -9.262 -13.895   2.131  1.00  0.00     0.040 A 
ATOM     88  F   UNL     1      -7.929 -12.277   1.158  1.00  0.00    -0.206 F 
ATOM     89  C   UNL     1      -9.987 -14.400   3.196  1.00  0.00     0.006 A 
ENDBRANCH  65  82
ENDBRANCH  39  40
ENDBRANCH  31  34
ENDBRANCH  29  30
ENDBRANCH  28  29
ENDBRANCH  27  28
ENDBRANCH  26  27
ENDBRANCH   1  26
TORSDOF 19
