REMARK SMILES C/C(=C\C(=O)NCCCCCCNC(=O)c1ccc(-c2c3nc(c(-c4c(F)cccc4F)c4ccc([nH]4)c(-c4c(F)cccc4F)c4nc(c(-c5c(F)cccc5F)c5ccc2[nH]5)C=C4)C=C3)cc1)CSc1ccc(N)c(C)c1
REMARK SMILES IDX 8 1 7 2 6 3 4 4 5 5 3 7 1 8 2 9 70 10 71 11 72 12 73 13
REMARK SMILES IDX 79 14 74 15 77 16 75 17 78 18 76 19 9 22 10 23 11 24 12 25
REMARK SMILES IDX 13 26 14 27 15 29 16 30 17 31 69 32 18 33 68 34 19 35 20 36
REMARK SMILES IDX 21 37 62 38 22 39 67 40 61 41 63 42 23 43 66 44 60 45 59 46
REMARK SMILES IDX 24 48 50 49 33 50 49 51 34 52 37 53 48 54 64 55 35 56 36 57
REMARK SMILES IDX 47 59 65 60 38 61 25 62 26 63 31 64 27 65 28 66 30 67 32 68
REMARK SMILES IDX 29 69 51 70 52 71 57 72 53 73 54 74 56 75 58 76 55 77 39 78
REMARK SMILES IDX 40 79 45 80 41 81 42 82 44 83 46 84 43 85
REMARK H PARENT 6 6 76 20 76 21 13 28 63 47 37 58
REMARK Flexibility Score: inf
ROOT
ATOM      1  C   UNL     1       0.078   0.217   2.338  1.00  0.00     0.021 C 
ENDROOT
BRANCH   1   2
ATOM      2  C   UNL     1       0.799  -1.017   1.789  1.00  0.00     0.116 C 
BRANCH   2   3
ATOM      3  N   UNL     1      -0.136  -1.941   1.201  1.00  0.00    -0.353 N 
ATOM      4  C   UNL     1      -0.518  -2.208  -0.061  1.00  0.00     0.243 C 
ATOM      5  O   UNL     1      -1.340  -3.120  -0.205  1.00  0.00    -0.270 OA
ATOM      6  H   UNL     1      -0.597  -2.499   1.868  1.00  0.00     0.163 HD
BRANCH   4   7
ATOM      7  C   UNL     1      -0.026  -1.557  -1.309  1.00  0.00     0.071 C 
ATOM      8  C   UNL     1       1.230   0.641  -0.948  1.00  0.00     0.040 C 
ATOM      9  C   UNL     1       0.625  -0.461  -1.761  1.00  0.00    -0.058 C 
BRANCH   9  10
ATOM     10  C   UNL     1       0.768  -0.293  -3.268  1.00  0.00     0.105 C 
BRANCH  10  11
ATOM     11  S   UNL     1       0.021   1.243  -3.932  1.00  0.00    -0.122 SA
BRANCH  11  12
ATOM     12  C   UNL     1      -1.631   1.265  -3.254  1.00  0.00     0.008 A 
ATOM     13  C   UNL     1      -2.185   2.505  -2.929  1.00  0.00     0.017 A 
ATOM     14  C   UNL     1      -2.406   0.121  -3.059  1.00  0.00     0.020 A 
ATOM     15  C   UNL     1      -3.487   2.594  -2.426  1.00  0.00     0.027 A 
ATOM     16  C   UNL     1      -3.698   0.195  -2.502  1.00  0.00    -0.027 A 
ATOM     17  C   UNL     1      -4.270   1.451  -2.244  1.00  0.00     0.034 A 
ATOM     18  C   UNL     1      -4.439  -1.085  -2.225  1.00  0.00     0.046 C 
BRANCH  17  19
ATOM     19  N   UNL     1      -5.540   1.581  -1.697  1.00  0.00    -0.399 N 
ATOM     20  H   UNL     1      -5.914   2.476  -1.527  1.00  0.00     0.156 HD
ATOM     21  H   UNL     1      -6.067   0.778  -1.478  1.00  0.00     0.156 HD
ENDBRANCH  17  19
ENDBRANCH  11  12
ENDBRANCH  10  11
ENDBRANCH   9  10
ENDBRANCH   4   7
ENDBRANCH   2   3
ENDBRANCH   1   2
BRANCH   1  22
ATOM     22  C   UNL     1      -0.182   0.155   3.847  1.00  0.00     0.002 C 
BRANCH  22  23
ATOM     23  C   UNL     1       1.085   0.129   4.713  1.00  0.00     0.002 C 
BRANCH  23  24
ATOM     24  C   UNL     1       2.068   1.277   4.466  1.00  0.00     0.021 C 
BRANCH  24  25
ATOM     25  C   UNL     1       1.490   2.667   4.718  1.00  0.00     0.116 C 
BRANCH  25  26
ATOM     26  N   UNL     1       1.094   2.835   6.108  1.00  0.00    -0.352 N 
ATOM     27  C   UNL     1       1.590   3.689   7.058  1.00  0.00     0.251 C 
ATOM     28  H   UNL     1       0.363   2.250   6.411  1.00  0.00     0.163 HD
ATOM     29  O   UNL     1       1.329   3.510   8.247  1.00  0.00    -0.269 OA
BRANCH  27  30
ATOM     30  C   UNL     1       2.439   4.829   6.658  1.00  0.00     0.039 A 
ATOM     31  C   UNL     1       3.570   5.136   7.418  1.00  0.00     0.014 A 
ATOM     32  C   UNL     1       2.095   5.619   5.557  1.00  0.00     0.014 A 
ATOM     33  C   UNL     1       4.383   6.209   7.046  1.00  0.00     0.010 A 
ATOM     34  C   UNL     1       2.942   6.643   5.146  1.00  0.00     0.010 A 
ATOM     35  C   UNL     1       4.088   6.955   5.893  1.00  0.00    -0.014 A 
BRANCH  35  36
ATOM     36  C   UNL     1       4.956   8.077   5.459  1.00  0.00     0.031 A 
ATOM     37  C   UNL     1       4.422   9.482   5.449  1.00  0.00     0.074 A 
ATOM     38  C   UNL     1       6.202   7.821   5.015  1.00  0.00     0.049 A 
ATOM     39  N   UNL     1       4.997  10.583   5.036  1.00  0.00    -0.248 NA
ATOM     40  C   UNL     1       3.048   9.671   5.943  1.00  0.00     0.031 C 
ATOM     41  C   UNL     1       6.816   6.495   4.936  1.00  0.00     0.029 A 
ATOM     42  N   UNL     1       7.170   8.666   4.536  1.00  0.00    -0.354 N 
ATOM     43  C   UNL     1       4.053  11.588   5.206  1.00  0.00     0.074 A 
ATOM     44  C   UNL     1       2.851  10.960   5.709  1.00  0.00     0.031 C 
ATOM     45  C   UNL     1       8.065   6.618   4.458  1.00  0.00     0.029 A 
ATOM     46  C   UNL     1       8.325   8.023   4.162  1.00  0.00     0.049 A 
ATOM     47  H   UNL     1       7.049   9.640   4.466  1.00  0.00     0.167 HD
ATOM     48  C   UNL     1       4.184  12.918   4.987  1.00  0.00     0.037 A 
ATOM     49  C   UNL     1       9.463   8.512   3.635  1.00  0.00     0.037 A 
ATOM     50  C   UNL     1       5.391  13.542   4.510  1.00  0.00     0.049 A 
ATOM     51  C   UNL     1       9.582   9.992   3.394  1.00  0.00     0.074 A 
ATOM     52  C   UNL     1       5.645  14.887   4.308  1.00  0.00     0.029 A 
ATOM     53  N   UNL     1       6.546  12.858   4.159  1.00  0.00    -0.354 N 
ATOM     54  N   UNL     1       8.704  10.939   3.620  1.00  0.00    -0.248 NA
ATOM     55  C   UNL     1      10.851  10.470   2.830  1.00  0.00     0.031 C 
ATOM     56  C   UNL     1       6.940  15.014   3.795  1.00  0.00     0.029 A 
ATOM     57  C   UNL     1       7.509  13.753   3.723  1.00  0.00     0.049 A 
ATOM     58  H   UNL     1       6.663  11.883   4.212  1.00  0.00     0.167 HD
ATOM     59  C   UNL     1       9.323  12.127   3.253  1.00  0.00     0.074 A 
ATOM     60  C   UNL     1      10.656  11.781   2.804  1.00  0.00     0.031 C 
ATOM     61  C   UNL     1       8.834  13.390   3.286  1.00  0.00     0.037 A 
BRANCH  48  62
ATOM     62  C   UNL     1       2.992  13.787   5.266  1.00  0.00     0.057 A 
ATOM     63  C   UNL     1       2.543  14.028   6.571  1.00  0.00     0.134 A 
ATOM     64  C   UNL     1       2.303  14.416   4.221  1.00  0.00     0.134 A 
ATOM     65  F   UNL     1       3.151  13.447   7.617  1.00  0.00    -0.206 F 
ATOM     66  C   UNL     1       1.435  14.838   6.826  1.00  0.00     0.040 A 
ATOM     67  C   UNL     1       1.211  15.251   4.465  1.00  0.00     0.040 A 
ATOM     68  F   UNL     1       2.683  14.234   2.947  1.00  0.00    -0.206 F 
ATOM     69  C   UNL     1       0.770  15.458   5.770  1.00  0.00     0.006 A 
ENDBRANCH  48  62
BRANCH  49  70
ATOM     70  C   UNL     1      10.590   7.599   3.321  1.00  0.00     0.057 A 
ATOM     71  C   UNL     1      11.770   7.627   4.073  1.00  0.00     0.134 A 
ATOM     72  C   UNL     1      10.520   6.684   2.264  1.00  0.00     0.134 A 
ATOM     73  F   UNL     1      11.903   8.494   5.087  1.00  0.00    -0.206 F 
ATOM     74  C   UNL     1      12.848   6.793   3.774  1.00  0.00     0.040 A 
ATOM     75  C   UNL     1      11.581   5.826   1.969  1.00  0.00     0.040 A 
ATOM     76  F   UNL     1       9.413   6.602   1.511  1.00  0.00    -0.206 F 
ATOM     77  C   UNL     1      12.753   5.885   2.721  1.00  0.00     0.006 A 
ENDBRANCH  49  70
BRANCH  61  78
ATOM     78  C   UNL     1       9.755  14.493   2.856  1.00  0.00     0.057 A 
ATOM     79  C   UNL     1      10.100  14.688   1.512  1.00  0.00     0.134 A 
ATOM     80  C   UNL     1      10.273  15.395   3.795  1.00  0.00     0.134 A 
ATOM     81  F   UNL     1       9.648  13.851   0.566  1.00  0.00    -0.206 F 
ATOM     82  C   UNL     1      10.946  15.726   1.121  1.00  0.00     0.040 A 
ATOM     83  C   UNL     1      11.097  16.453   3.412  1.00  0.00     0.040 A 
ATOM     84  F   UNL     1       9.974  15.269   5.097  1.00  0.00    -0.206 F 
ATOM     85  C   UNL     1      11.441  16.617   2.072  1.00  0.00     0.006 A 
ENDBRANCH  61  78
ENDBRANCH  35  36
ENDBRANCH  27  30
ENDBRANCH  25  26
ENDBRANCH  24  25
ENDBRANCH  23  24
ENDBRANCH  22  23
ENDBRANCH   1  22
TORSDOF 17
