REMARK SMILES COc1ccc(N2C(=O)S[C@H](CC(=O)Nc3ccc(O)c(C(=O)NCCCCCCNC(=O)c4ccc(-c5c6nc(c(-c7c(F)cccc7F)c7ccc([nH]7)c(-c7c(F)cccc7F)c7nc(c(-c8c(F)cccc8F)c8ccc5[nH]8)C=C7)C=C6)cc4)c3)C2=O)c(OC)c1
REMARK SMILES IDX 26 1 25 2 24 3 22 4 23 5 21 7 16 8 17 9 88 10 18 11 19 12
REMARK SMILES IDX 15 13 13 14 14 15 12 17 11 18 7 19 8 20 89 21 9 22 10 23
REMARK SMILES IDX 90 24 6 25 3 26 4 27 94 28 5 29 91 30 2 31 1 32 92 33 93 34
REMARK SMILES IDX 20 35 27 37 28 38 29 39 30 40 31 41 32 42 33 44 34 45 35 46
REMARK SMILES IDX 87 47 36 48 86 49 37 50 38 51 39 52 80 53 40 54 85 55 79 56
REMARK SMILES IDX 81 57 41 58 84 59 78 60 77 61 42 63 68 64 51 65 67 66 52 67
REMARK SMILES IDX 55 68 66 69 82 70 53 71 54 72 65 74 83 75 56 76 43 77 44 78
REMARK SMILES IDX 49 79 45 80 46 81 48 82 50 83 47 84 69 85 70 86 75 87 71 88
REMARK SMILES IDX 72 89 74 90 76 91 73 92 57 93 58 94 63 95 59 96 60 97 62 98
REMARK SMILES IDX 64 99 61 100
REMARK H PARENT 24 6 15 16 20 36 31 43 81 62 55 73
REMARK Flexibility Score: inf
ROOT
ATOM      1  C   UNL     1      -0.637  -9.705  -1.327  1.00  0.00     0.021 C 
ENDROOT
BRANCH   1   2
ATOM      2  C   UNL     1       0.652  -8.898  -1.381  1.00  0.00     0.116 C 
BRANCH   2   3
ATOM      3  N   UNL     1       1.551  -9.196  -0.285  1.00  0.00    -0.352 N 
ATOM      4  C   UNL     1       2.909  -9.377  -0.179  1.00  0.00     0.255 C 
ATOM      5  O   UNL     1       3.373  -9.416   0.965  1.00  0.00    -0.269 OA
ATOM      6  H   UNL     1       1.085  -9.290   0.577  1.00  0.00     0.163 HD
BRANCH   4   7
ATOM      7  C   UNL     1       3.868  -9.463  -1.323  1.00  0.00     0.083 A 
ATOM      8  C   UNL     1       4.384  -9.630  -3.700  1.00  0.00     0.042 A 
ATOM      9  C   UNL     1       5.740  -9.451  -3.444  1.00  0.00     0.030 A 
ATOM     10  C   UNL     1       3.493  -9.787  -2.631  1.00  0.00     0.043 A 
ATOM     11  C   UNL     1       6.162  -9.225  -2.133  1.00  0.00     0.049 A 
ATOM     12  C   UNL     1       5.229  -9.184  -1.093  1.00  0.00     0.128 A 
BRANCH   8  13
ATOM     13  N   UNL     1       3.934  -9.647  -5.029  1.00  0.00    -0.326 N 
ATOM     14  C   UNL     1       2.880  -9.003  -5.630  1.00  0.00     0.226 C 
ATOM     15  O   UNL     1       2.353  -9.571  -6.595  1.00  0.00    -0.275 OA
ATOM     16  H   UNL     1       4.464 -10.216  -5.633  1.00  0.00     0.169 HD
BRANCH  14  17
ATOM     17  C   UNL     1       2.507  -7.526  -5.359  1.00  0.00     0.125 C 
BRANCH  17  18
ATOM     18  C   UNL     1       2.499  -7.034  -3.938  1.00  0.00     0.156 C 
ATOM     19  N   UNL     1       2.093  -5.324  -2.343  1.00  0.00    -0.236 N 
ATOM     20  C   UNL     1       3.325  -5.810  -1.969  1.00  0.00     0.293 C 
ATOM     21  C   UNL     1       1.532  -5.939  -3.456  1.00  0.00     0.248 C 
ATOM     22  O   UNL     1       3.782  -5.946  -0.850  1.00  0.00    -0.261 OA
ATOM     23  S   UNL     1       4.113  -6.409  -3.397  1.00  0.00    -0.050 SA
ATOM     24  O   UNL     1       0.424  -5.741  -3.938  1.00  0.00    -0.273 OA
BRANCH  19  25
ATOM     25  C   UNL     1       1.561  -4.238  -1.606  1.00  0.00     0.095 A 
ATOM     26  C   UNL     1       0.729  -2.067  -0.040  1.00  0.00     0.122 A 
ATOM     27  C   UNL     1      -0.173  -3.080  -0.382  1.00  0.00     0.049 A 
ATOM     28  C   UNL     1       2.055  -2.141  -0.451  1.00  0.00     0.095 A 
ATOM     29  C   UNL     1       0.231  -4.153  -1.193  1.00  0.00     0.034 A 
ATOM     30  C   UNL     1       2.459  -3.208  -1.241  1.00  0.00     0.146 A 
BRANCH  26  31
ATOM     31  O   UNL     1       0.245  -1.017   0.695  1.00  0.00    -0.497 OA
ATOM     32  C   UNL     1       0.680   0.248   0.189  1.00  0.00     0.278 C 
ENDBRANCH  26  31
BRANCH  30  33
ATOM     33  O   UNL     1       3.690  -3.197  -1.858  1.00  0.00    -0.494 OA
ATOM     34  C   UNL     1       4.794  -2.977  -0.985  1.00  0.00     0.278 C 
ENDBRANCH  30  33
ENDBRANCH  19  25
ENDBRANCH  17  18
ENDBRANCH  14  17
ENDBRANCH   8  13
BRANCH  12  35
ATOM     35  O   UNL     1       5.736  -8.840   0.134  1.00  0.00    -0.507 OA
ATOM     36  H   UNL     1       6.652  -8.665   0.230  1.00  0.00     0.293 HD
ENDBRANCH  12  35
ENDBRANCH   4   7
ENDBRANCH   2   3
ENDBRANCH   1   2
BRANCH   1  37
ATOM     37  C   UNL     1      -1.812  -8.949  -0.710  1.00  0.00     0.002 C 
BRANCH  37  38
ATOM     38  C   UNL     1      -2.207  -7.653  -1.430  1.00  0.00     0.002 C 
BRANCH  38  39
ATOM     39  C   UNL     1      -2.465  -7.767  -2.933  1.00  0.00     0.021 C 
BRANCH  39  40
ATOM     40  C   UNL     1      -3.483  -8.828  -3.333  1.00  0.00     0.116 C 
BRANCH  40  41
ATOM     41  N   UNL     1      -4.758  -8.664  -2.652  1.00  0.00    -0.352 N 
ATOM     42  C   UNL     1      -6.028  -8.671  -3.169  1.00  0.00     0.251 C 
ATOM     43  H   UNL     1      -4.701  -8.529  -1.679  1.00  0.00     0.163 HD
ATOM     44  O   UNL     1      -6.986  -8.366  -2.466  1.00  0.00    -0.269 OA
BRANCH  42  45
ATOM     45  C   UNL     1      -6.233  -9.023  -4.588  1.00  0.00     0.039 A 
ATOM     46  C   UNL     1      -7.065  -8.219  -5.369  1.00  0.00     0.014 A 
ATOM     47  C   UNL     1      -5.590 -10.131  -5.147  1.00  0.00     0.014 A 
ATOM     48  C   UNL     1      -7.200  -8.487  -6.731  1.00  0.00     0.010 A 
ATOM     49  C   UNL     1      -5.662 -10.348  -6.518  1.00  0.00     0.010 A 
ATOM     50  C   UNL     1      -6.468  -9.529  -7.323  1.00  0.00    -0.014 A 
BRANCH  50  51
ATOM     51  C   UNL     1      -6.525  -9.778  -8.785  1.00  0.00     0.031 A 
ATOM     52  C   UNL     1      -7.059 -11.083  -9.306  1.00  0.00     0.074 A 
ATOM     53  C   UNL     1      -6.025  -8.861  -9.636  1.00  0.00     0.049 A 
ATOM     54  N   UNL     1      -7.106 -11.524 -10.537  1.00  0.00    -0.248 NA
ATOM     55  C   UNL     1      -7.582 -12.029  -8.308  1.00  0.00     0.031 C 
ATOM     56  C   UNL     1      -5.437  -7.578  -9.248  1.00  0.00     0.029 A 
ATOM     57  N   UNL     1      -5.916  -8.876 -11.004  1.00  0.00    -0.354 N 
ATOM     58  C   UNL     1      -7.647 -12.802 -10.458  1.00  0.00     0.074 A 
ATOM     59  C   UNL     1      -7.859 -13.086  -9.056  1.00  0.00     0.031 C 
ATOM     60  C   UNL     1      -5.046  -6.922 -10.352  1.00  0.00     0.029 A 
ATOM     61  C   UNL     1      -5.312  -7.755 -11.520  1.00  0.00     0.049 A 
ATOM     62  H   UNL     1      -6.239  -9.620 -11.562  1.00  0.00     0.167 HD
ATOM     63  C   UNL     1      -7.957 -13.652 -11.466  1.00  0.00     0.037 A 
ATOM     64  C   UNL     1      -4.995  -7.441 -12.790  1.00  0.00     0.037 A 
ATOM     65  C   UNL     1      -7.758 -13.354 -12.860  1.00  0.00     0.049 A 
ATOM     66  C   UNL     1      -5.334  -8.409 -13.890  1.00  0.00     0.074 A 
ATOM     67  C   UNL     1      -8.095 -14.122 -13.961  1.00  0.00     0.029 A 
ATOM     68  N   UNL     1      -7.161 -12.200 -13.345  1.00  0.00    -0.354 N 
ATOM     69  N   UNL     1      -5.912  -9.584 -13.809  1.00  0.00    -0.248 NA
ATOM     70  C   UNL     1      -4.982  -8.007 -15.259  1.00  0.00     0.031 C 
ATOM     71  C   UNL     1      -7.650 -13.459 -15.108  1.00  0.00     0.029 A 
ATOM     72  C   UNL     1      -7.094 -12.248 -14.728  1.00  0.00     0.049 A 
ATOM     73  H   UNL     1      -6.833 -11.457 -12.789  1.00  0.00     0.167 HD
ATOM     74  C   UNL     1      -6.022 -10.045 -15.115  1.00  0.00     0.074 A 
ATOM     75  C   UNL     1      -5.462  -9.018 -15.969  1.00  0.00     0.031 C 
ATOM     76  C   UNL     1      -6.542 -11.213 -15.566  1.00  0.00     0.037 A 
BRANCH  63  77
ATOM     77  C   UNL     1      -8.538 -14.986 -11.095  1.00  0.00     0.057 A 
ATOM     78  C   UNL     1      -9.820 -15.109 -10.542  1.00  0.00     0.134 A 
ATOM     79  C   UNL     1      -7.819 -16.166 -11.321  1.00  0.00     0.134 A 
ATOM     80  F   UNL     1     -10.560 -14.019 -10.289  1.00  0.00    -0.206 F 
ATOM     81  C   UNL     1     -10.353 -16.354 -10.201  1.00  0.00     0.040 A 
ATOM     82  C   UNL     1      -8.353 -17.419 -11.014  1.00  0.00     0.040 A 
ATOM     83  F   UNL     1      -6.588 -16.124 -11.854  1.00  0.00    -0.206 F 
ATOM     84  C   UNL     1      -9.621 -17.514 -10.445  1.00  0.00     0.006 A 
ENDBRANCH  63  77
BRANCH  64  85
ATOM     85  C   UNL     1      -4.329  -6.149 -13.093  1.00  0.00     0.057 A 
ATOM     86  C   UNL     1      -4.996  -5.137 -13.794  1.00  0.00     0.134 A 
ATOM     87  C   UNL     1      -3.010  -5.894 -12.697  1.00  0.00     0.134 A 
ATOM     88  F   UNL     1      -6.255  -5.326 -14.216  1.00  0.00    -0.206 F 
ATOM     89  C   UNL     1      -4.370  -3.930 -14.110  1.00  0.00     0.040 A 
ATOM     90  C   UNL     1      -2.381  -4.681 -12.980  1.00  0.00     0.040 A 
ATOM     91  F   UNL     1      -2.317  -6.818 -12.014  1.00  0.00    -0.206 F 
ATOM     92  C   UNL     1      -3.060  -3.697 -13.697  1.00  0.00     0.006 A 
ENDBRANCH  64  85
BRANCH  76  93
ATOM     93  C   UNL     1      -6.574 -11.427 -17.052  1.00  0.00     0.057 A 
ATOM     94  C   UNL     1      -5.411 -11.668 -17.794  1.00  0.00     0.134 A 
ATOM     95  C   UNL     1      -7.794 -11.438 -17.740  1.00  0.00     0.134 A 
ATOM     96  F   UNL     1      -4.209 -11.659 -17.198  1.00  0.00    -0.206 F 
ATOM     97  C   UNL     1      -5.459 -11.892 -19.171  1.00  0.00     0.040 A 
ATOM     98  C   UNL     1      -7.858 -11.691 -19.111  1.00  0.00     0.040 A 
ATOM     99  F   UNL     1      -8.947 -11.224 -17.088  1.00  0.00    -0.206 F 
ATOM    100  C   UNL     1      -6.687 -11.912 -19.832  1.00  0.00     0.006 A 
ENDBRANCH  76  93
ENDBRANCH  50  51
ENDBRANCH  42  45
ENDBRANCH  40  41
ENDBRANCH  39  40
ENDBRANCH  38  39
ENDBRANCH  37  38
ENDBRANCH   1  37
TORSDOF 20
