REMARK SMILES O=C(NCCCCCCNC(=O)[C@H]1CSC2(CCCCC2)[NH2+]1)c1ccc(-c2c3nc(c(-c4c(F)cccc4F)c4ccc([nH]4)c(-c4c(F)cccc4F)c4nc(c(-c5c(F)cccc5F)c5ccc2[nH]5)C=C4)C=C3)cc1
REMARK SMILES IDX 5 1 4 2 3 3 1 4 2 5 23 7 24 8 76 9 25 10 75 11 26 12 27 13
REMARK SMILES IDX 28 14 69 15 29 16 74 17 68 18 70 19 30 20 73 21 67 22 66 23
REMARK SMILES IDX 31 25 57 26 40 27 56 28 41 29 44 30 55 31 71 32 42 33 43 34
REMARK SMILES IDX 54 36 72 37 45 38 32 39 33 40 38 41 34 42 35 43 37 44 39 45
REMARK SMILES IDX 36 46 58 47 59 48 64 49 60 50 61 51 63 52 65 53 62 54 46 55
REMARK SMILES IDX 47 56 52 57 48 58 49 59 51 60 53 61 50 62 6 63 7 64 8 65
REMARK SMILES IDX 9 66 10 67 11 68 12 70 13 71 14 72 22 73 15 74 16 75 17 78
REMARK SMILES IDX 21 79 18 80 20 81 19 82
REMARK H PARENT 3 6 70 24 44 35 10 69 22 76 22 77
REMARK Flexibility Score: inf
ROOT
ATOM      1  C   UNL     1       8.663   6.713  -2.735  1.00  0.00     0.021 C 
ENDROOT
BRANCH   1   2
ATOM      2  C   UNL     1       9.491   6.575  -1.464  1.00  0.00     0.116 C 
BRANCH   2   3
ATOM      3  N   UNL     1      10.233   7.788  -1.159  1.00  0.00    -0.352 N 
ATOM      4  O   UNL     1      10.758   9.634   0.036  1.00  0.00    -0.269 OA
ATOM      5  C   UNL     1      10.226   8.530  -0.002  1.00  0.00     0.251 C 
ATOM      6  H   UNL     1      10.819   8.122  -1.876  1.00  0.00     0.163 HD
BRANCH   5   7
ATOM      7  C   UNL     1       9.553   7.989   1.198  1.00  0.00     0.039 A 
ATOM      8  C   UNL     1       9.759   6.662   1.580  1.00  0.00     0.014 A 
ATOM      9  C   UNL     1       8.705   8.814   1.943  1.00  0.00     0.014 A 
ATOM     10  C   UNL     1       9.016   6.123   2.621  1.00  0.00     0.010 A 
ATOM     11  C   UNL     1       8.026   8.292   3.048  1.00  0.00     0.010 A 
ATOM     12  C   UNL     1       8.157   6.935   3.380  1.00  0.00    -0.014 A 
BRANCH  12  13
ATOM     13  C   UNL     1       7.477   6.345   4.560  1.00  0.00     0.031 A 
ATOM     14  C   UNL     1       5.983   6.199   4.616  1.00  0.00     0.074 A 
ATOM     15  C   UNL     1       8.242   5.885   5.570  1.00  0.00     0.049 A 
ATOM     16  N   UNL     1       5.247   5.650   5.550  1.00  0.00    -0.248 NA
ATOM     17  C   UNL     1       5.213   6.743   3.488  1.00  0.00     0.031 C 
ATOM     18  C   UNL     1       9.703   5.994   5.633  1.00  0.00     0.029 A 
ATOM     19  N   UNL     1       7.910   5.214   6.717  1.00  0.00    -0.354 N 
ATOM     20  C   UNL     1       3.930   5.786   5.128  1.00  0.00     0.074 A 
ATOM     21  C   UNL     1       3.965   6.499   3.868  1.00  0.00     0.031 C 
ATOM     22  C   UNL     1      10.143   5.362   6.730  1.00  0.00     0.029 A 
ATOM     23  C   UNL     1       8.998   4.858   7.476  1.00  0.00     0.049 A 
ATOM     24  H   UNL     1       6.982   5.007   6.972  1.00  0.00     0.167 HD
ATOM     25  C   UNL     1       2.800   5.347   5.732  1.00  0.00     0.037 A 
ATOM     26  C   UNL     1       9.067   4.206   8.650  1.00  0.00     0.037 A 
ATOM     27  C   UNL     1       2.772   4.637   6.987  1.00  0.00     0.049 A 
ATOM     28  C   UNL     1       7.799   3.737   9.298  1.00  0.00     0.074 A 
ATOM     29  C   UNL     1       1.677   4.149   7.679  1.00  0.00     0.029 A 
ATOM     30  N   UNL     1       3.893   4.312   7.736  1.00  0.00    -0.354 N 
ATOM     31  N   UNL     1       6.564   3.857   8.874  1.00  0.00    -0.248 NA
ATOM     32  C   UNL     1       7.932   3.044  10.585  1.00  0.00     0.031 C 
ATOM     33  C   UNL     1       2.133   3.557   8.863  1.00  0.00     0.029 A 
ATOM     34  C   UNL     1       3.515   3.639   8.888  1.00  0.00     0.049 A 
ATOM     35  H   UNL     1       4.821   4.527   7.487  1.00  0.00     0.167 HD
ATOM     36  C   UNL     1       5.773   3.250   9.838  1.00  0.00     0.074 A 
ATOM     37  C   UNL     1       6.671   2.735  10.852  1.00  0.00     0.031 C 
ATOM     38  C   UNL     1       4.424   3.138   9.887  1.00  0.00     0.037 A 
BRANCH  25  39
ATOM     39  C   UNL     1       1.492   5.624   5.049  1.00  0.00     0.057 A 
ATOM     40  C   UNL     1       1.103   4.929   3.897  1.00  0.00     0.134 A 
ATOM     41  C   UNL     1       0.588   6.554   5.578  1.00  0.00     0.134 A 
ATOM     42  F   UNL     1       1.926   4.033   3.332  1.00  0.00    -0.206 F 
ATOM     43  C   UNL     1      -0.133   5.159   3.288  1.00  0.00     0.040 A 
ATOM     44  C   UNL     1      -0.659   6.777   4.991  1.00  0.00     0.040 A 
ATOM     45  F   UNL     1       0.896   7.250   6.683  1.00  0.00    -0.206 F 
ATOM     46  C   UNL     1      -1.021   6.080   3.840  1.00  0.00     0.006 A 
ENDBRANCH  25  39
BRANCH  26  47
ATOM     47  C   UNL     1      10.387   3.971   9.287  1.00  0.00     0.057 A 
ATOM     48  C   UNL     1      10.929   2.686   9.387  1.00  0.00     0.134 A 
ATOM     49  C   UNL     1      11.141   5.033   9.802  1.00  0.00     0.134 A 
ATOM     50  F   UNL     1      10.247   1.627   8.924  1.00  0.00    -0.206 F 
ATOM     51  C   UNL     1      12.166   2.461   9.992  1.00  0.00     0.040 A 
ATOM     52  C   UNL     1      12.391   4.826  10.384  1.00  0.00     0.040 A 
ATOM     53  F   UNL     1      10.681   6.290   9.726  1.00  0.00    -0.206 F 
ATOM     54  C   UNL     1      12.903   3.535  10.488  1.00  0.00     0.006 A 
ENDBRANCH  26  47
BRANCH  38  55
ATOM     55  C   UNL     1       3.850   2.417  11.069  1.00  0.00     0.057 A 
ATOM     56  C   UNL     1       3.834   2.994  12.346  1.00  0.00     0.134 A 
ATOM     57  C   UNL     1       3.308   1.134  10.929  1.00  0.00     0.134 A 
ATOM     58  F   UNL     1       4.354   4.214  12.547  1.00  0.00    -0.206 F 
ATOM     59  C   UNL     1       3.324   2.307  13.448  1.00  0.00     0.040 A 
ATOM     60  C   UNL     1       2.772   0.448  12.020  1.00  0.00     0.040 A 
ATOM     61  F   UNL     1       3.288   0.528   9.732  1.00  0.00    -0.206 F 
ATOM     62  C   UNL     1       2.787   1.031  13.285  1.00  0.00     0.006 A 
ENDBRANCH  38  55
ENDBRANCH  12  13
ENDBRANCH   5   7
ENDBRANCH   2   3
ENDBRANCH   1   2
BRANCH   1  63
ATOM     63  C   UNL     1       9.490   6.786  -4.017  1.00  0.00     0.002 C 
BRANCH  63  64
ATOM     64  C   UNL     1      10.400   5.578  -4.264  1.00  0.00     0.002 C 
BRANCH  64  65
ATOM     65  C   UNL     1       9.698   4.213  -4.214  1.00  0.00     0.021 C 
BRANCH  65  66
ATOM     66  C   UNL     1       8.621   4.033  -5.288  1.00  0.00     0.116 C 
BRANCH  66  67
ATOM     67  N   UNL     1       9.242   3.946  -6.593  1.00  0.00    -0.351 N 
ATOM     68  C   UNL     1       9.509   2.877  -7.398  1.00  0.00     0.279 C 
ATOM     69  H   UNL     1       9.522   4.813  -6.966  1.00  0.00     0.163 HD
ATOM     70  O   UNL     1      10.154   3.117  -8.421  1.00  0.00    -0.268 OA
BRANCH  68  71
ATOM     71  C   UNL     1       8.910   1.485  -7.095  1.00  0.00     0.283 C 
ATOM     72  C   UNL     1       9.301   0.459  -8.154  1.00  0.00     0.151 C 
ATOM     73  N   UNL     1       9.270   0.941  -5.766  1.00  0.00    -0.322 N 
ATOM     74  S   UNL     1      10.878  -0.197  -7.568  1.00  0.00    -0.089 SA
ATOM     75  C   UNL     1      10.472   0.098  -5.817  1.00  0.00     0.143 C 
ATOM     76  H   UNL     1       8.491   0.381  -5.419  1.00  0.00     0.348 HD
ATOM     77  H   UNL     1       9.466   1.728  -5.148  1.00  0.00     0.348 HD
ATOM     78  C   UNL     1      11.637   0.783  -5.072  1.00  0.00     0.081 C 
ATOM     79  C   UNL     1      10.113  -1.238  -5.132  1.00  0.00     0.081 C 
ATOM     80  C   UNL     1      12.838  -0.132  -4.830  1.00  0.00     0.007 C 
ATOM     81  C   UNL     1      11.321  -2.150  -4.903  1.00  0.00     0.007 C 
ATOM     82  C   UNL     1      12.426  -1.429  -4.139  1.00  0.00     0.001 C 
ENDBRANCH  68  71
ENDBRANCH  66  67
ENDBRANCH  65  66
ENDBRANCH  64  65
ENDBRANCH  63  64
ENDBRANCH   1  63
TORSDOF 13
