REMARK SMILES O=C(NCCCCCCNC(=O)c1sccc1NC(=O)c1ccc(Br)nc1)c1ccc(-c2c3nc(c(-c4c(F)cccc4F)c4ccc([nH]4)c(-c4c(F)cccc4F)c4nc(c(-c5c(F)cccc5F)c5ccc2[nH]5)C=C4)C=C3)cc1
REMARK SMILES IDX 6 1 5 2 4 3 3 4 1 5 2 6 28 8 29 9 81 10 30 11 80 12 31 13
REMARK SMILES IDX 32 14 33 15 74 16 34 17 79 18 73 19 75 20 35 21 78 22 72 23
REMARK SMILES IDX 71 24 36 26 62 27 45 28 61 29 46 30 49 31 60 32 76 33 47 34
REMARK SMILES IDX 48 35 59 37 77 38 50 39 37 40 38 41 43 42 39 43 40 44 42 45
REMARK SMILES IDX 44 46 41 47 63 48 64 49 69 50 65 51 66 52 68 53 70 54 67 55
REMARK SMILES IDX 51 56 52 57 57 58 53 59 54 60 56 61 58 62 55 63 7 64 8 65
REMARK SMILES IDX 9 66 10 67 11 68 12 70 13 71 14 72 17 73 15 74 16 75 18 76
REMARK SMILES IDX 19 77 20 79 21 80 22 81 27 82 23 83 26 84 24 85 25 86
REMARK H PARENT 3 7 75 25 49 36 10 69 18 78
REMARK Flexibility Score: inf
ROOT
ATOM      1  C   UNL     1       4.176  -0.741  -3.920  1.00  0.00     0.002 C 
ENDROOT
BRANCH   1   2
ATOM      2  C   UNL     1       4.627  -1.162  -2.522  1.00  0.00     0.021 C 
BRANCH   2   3
ATOM      3  C   UNL     1       4.372  -0.142  -1.420  1.00  0.00     0.116 C 
BRANCH   3   4
ATOM      4  N   UNL     1       2.959   0.104  -1.192  1.00  0.00    -0.352 N 
ATOM      5  O   UNL     1       1.036   0.196  -0.013  1.00  0.00    -0.269 OA
ATOM      6  C   UNL     1       2.259   0.095  -0.009  1.00  0.00     0.251 C 
ATOM      7  H   UNL     1       2.428   0.306  -1.996  1.00  0.00     0.163 HD
BRANCH   6   8
ATOM      8  C   UNL     1       2.981  -0.064   1.273  1.00  0.00     0.039 A 
ATOM      9  C   UNL     1       4.143   0.665   1.535  1.00  0.00     0.014 A 
ATOM     10  C   UNL     1       2.479  -0.951   2.230  1.00  0.00     0.014 A 
ATOM     11  C   UNL     1       4.871   0.413   2.693  1.00  0.00     0.010 A 
ATOM     12  C   UNL     1       3.170  -1.145   3.429  1.00  0.00     0.010 A 
ATOM     13  C   UNL     1       4.386  -0.483   3.659  1.00  0.00    -0.014 A 
BRANCH  13  14
ATOM     14  C   UNL     1       5.135  -0.659   4.929  1.00  0.00     0.031 A 
ATOM     15  C   UNL     1       5.782  -1.969   5.278  1.00  0.00     0.074 A 
ATOM     16  C   UNL     1       5.250   0.395   5.759  1.00  0.00     0.049 A 
ATOM     17  N   UNL     1       6.487  -2.282   6.337  1.00  0.00    -0.248 NA
ATOM     18  C   UNL     1       5.616  -3.074   4.321  1.00  0.00     0.031 C 
ATOM     19  C   UNL     1       4.653   1.714   5.532  1.00  0.00     0.029 A 
ATOM     20  N   UNL     1       5.917   0.533   6.949  1.00  0.00    -0.354 N 
ATOM     21  C   UNL     1       6.839  -3.616   6.181  1.00  0.00     0.074 A 
ATOM     22  C   UNL     1       6.247  -4.064   4.938  1.00  0.00     0.031 C 
ATOM     23  C   UNL     1       5.015   2.537   6.526  1.00  0.00     0.029 A 
ATOM     24  C   UNL     1       5.820   1.792   7.487  1.00  0.00     0.049 A 
ATOM     25  H   UNL     1       6.416  -0.200   7.376  1.00  0.00     0.167 HD
ATOM     26  C   UNL     1       7.594  -4.392   6.997  1.00  0.00     0.037 A 
ATOM     27  C   UNL     1       6.313   2.292   8.635  1.00  0.00     0.037 A 
ATOM     28  C   UNL     1       8.186  -3.941   8.230  1.00  0.00     0.049 A 
ATOM     29  C   UNL     1       7.122   1.402   9.531  1.00  0.00     0.074 A 
ATOM     30  C   UNL     1       8.984  -4.647   9.114  1.00  0.00     0.029 A 
ATOM     31  N   UNL     1       8.043  -2.665   8.755  1.00  0.00    -0.354 N 
ATOM     32  N   UNL     1       7.468   0.150   9.355  1.00  0.00    -0.248 NA
ATOM     33  C   UNL     1       7.606   1.992  10.785  1.00  0.00     0.031 C 
ATOM     34  C   UNL     1       9.294  -3.810  10.192  1.00  0.00     0.029 A 
ATOM     35  C   UNL     1       8.724  -2.569   9.959  1.00  0.00     0.049 A 
ATOM     36  H   UNL     1       7.534  -1.935   8.335  1.00  0.00     0.167 HD
ATOM     37  C   UNL     1       8.221  -0.194  10.469  1.00  0.00     0.074 A 
ATOM     38  C   UNL     1       8.300   0.988  11.302  1.00  0.00     0.031 C 
ATOM     39  C   UNL     1       8.792  -1.384  10.775  1.00  0.00     0.037 A 
BRANCH  26  40
ATOM     40  C   UNL     1       7.817  -5.819   6.587  1.00  0.00     0.057 A 
ATOM     41  C   UNL     1       8.677  -6.157   5.534  1.00  0.00     0.134 A 
ATOM     42  C   UNL     1       7.207  -6.869   7.285  1.00  0.00     0.134 A 
ATOM     43  F   UNL     1       9.285  -5.199   4.818  1.00  0.00    -0.206 F 
ATOM     44  C   UNL     1       8.908  -7.488   5.178  1.00  0.00     0.040 A 
ATOM     45  C   UNL     1       7.447  -8.204   6.953  1.00  0.00     0.040 A 
ATOM     46  F   UNL     1       6.378  -6.615   8.309  1.00  0.00    -0.206 F 
ATOM     47  C   UNL     1       8.297  -8.516   5.894  1.00  0.00     0.006 A 
ENDBRANCH  26  40
BRANCH  27  48
ATOM     48  C   UNL     1       6.046   3.704   8.999  1.00  0.00     0.057 A 
ATOM     49  C   UNL     1       7.069   4.660   8.989  1.00  0.00     0.134 A 
ATOM     50  C   UNL     1       4.762   4.134   9.355  1.00  0.00     0.134 A 
ATOM     51  F   UNL     1       8.322   4.304   8.672  1.00  0.00    -0.206 F 
ATOM     52  C   UNL     1       6.827   5.990   9.335  1.00  0.00     0.040 A 
ATOM     53  C   UNL     1       4.501   5.466   9.677  1.00  0.00     0.040 A 
ATOM     54  F   UNL     1       3.739   3.267   9.375  1.00  0.00    -0.206 F 
ATOM     55  C   UNL     1       5.537   6.397   9.674  1.00  0.00     0.006 A 
ENDBRANCH  27  48
BRANCH  39  56
ATOM     56  C   UNL     1       9.570  -1.452  12.055  1.00  0.00     0.057 A 
ATOM     57  C   UNL     1       8.934  -1.475  13.303  1.00  0.00     0.134 A 
ATOM     58  C   UNL     1      10.969  -1.509  12.038  1.00  0.00     0.134 A 
ATOM     59  F   UNL     1       7.597  -1.406  13.386  1.00  0.00    -0.206 F 
ATOM     60  C   UNL     1       9.664  -1.529  14.491  1.00  0.00     0.040 A 
ATOM     61  C   UNL     1      11.709  -1.587  13.218  1.00  0.00     0.040 A 
ATOM     62  F   UNL     1      11.637  -1.495  10.874  1.00  0.00    -0.206 F 
ATOM     63  C   UNL     1      11.056  -1.590  14.449  1.00  0.00     0.006 A 
ENDBRANCH  39  56
ENDBRANCH  13  14
ENDBRANCH   6   8
ENDBRANCH   3   4
ENDBRANCH   2   3
ENDBRANCH   1   2
BRANCH   1  64
ATOM     64  C   UNL     1       4.720   0.601  -4.419  1.00  0.00     0.002 C 
BRANCH  64  65
ATOM     65  C   UNL     1       6.243   0.772  -4.372  1.00  0.00     0.021 C 
BRANCH  65  66
ATOM     66  C   UNL     1       7.055  -0.326  -5.057  1.00  0.00     0.116 C 
BRANCH  66  67
ATOM     67  N   UNL     1       6.700  -0.475  -6.455  1.00  0.00    -0.351 N 
ATOM     68  C   UNL     1       7.492  -0.431  -7.576  1.00  0.00     0.263 C 
ATOM     69  H   UNL     1       5.744  -0.631  -6.628  1.00  0.00     0.163 HD
ATOM     70  O   UNL     1       6.911  -0.365  -8.662  1.00  0.00    -0.268 OA
BRANCH  68  71
ATOM     71  C   UNL     1       8.934  -0.493  -7.446  1.00  0.00     0.115 A 
ATOM     72  S   UNL     1       9.844   0.689  -8.294  1.00  0.00    -0.137 S 
ATOM     73  C   UNL     1       9.745  -1.396  -6.766  1.00  0.00     0.065 A 
ATOM     74  C   UNL     1      11.318  -0.009  -7.816  1.00  0.00     0.068 A 
ATOM     75  C   UNL     1      11.125  -1.129  -7.039  1.00  0.00     0.038 A 
BRANCH  73  76
ATOM     76  N   UNL     1       9.205  -2.428  -6.000  1.00  0.00    -0.320 N 
ATOM     77  C   UNL     1       9.774  -3.311  -5.113  1.00  0.00     0.257 C 
ATOM     78  H   UNL     1       8.235  -2.548  -6.117  1.00  0.00     0.170 HD
ATOM     79  O   UNL     1       9.100  -4.225  -4.641  1.00  0.00    -0.269 OA
BRANCH  77  80
ATOM     80  C   UNL     1      11.162  -3.178  -4.664  1.00  0.00     0.058 A 
ATOM     81  C   UNL     1      11.648  -2.025  -4.046  1.00  0.00     0.018 A 
ATOM     82  C   UNL     1      12.021  -4.252  -4.839  1.00  0.00     0.126 A 
ATOM     83  C   UNL     1      13.000  -1.963  -3.708  1.00  0.00     0.037 A 
ATOM     84  N   UNL     1      13.337  -4.213  -4.520  1.00  0.00    -0.249 NA
ATOM     85  C   UNL     1      13.801  -3.067  -3.973  1.00  0.00     0.106 A 
ATOM     86  Br  UNL     1      15.654  -2.968  -3.586  1.00  0.00    -0.029 Br
ENDBRANCH  77  80
ENDBRANCH  73  76
ENDBRANCH  68  71
ENDBRANCH  66  67
ENDBRANCH  65  66
ENDBRANCH  64  65
ENDBRANCH   1  64
TORSDOF 15
