REMARK SMILES CCC[C@H](Oc1ccccc1C)C(=O)NCCCCCCNC(=O)c1ccc(-c2c3nc(c(-c4c(F)cccc4F)c4ccc([nH]4)c(-c4c(F)cccc4F)c4nc(c(-c5c(F)cccc5F)c5ccc2[nH]5)C=C4)C=C3)cc1
REMARK SMILES IDX 18 1 17 2 16 3 15 4 13 5 14 6 4 8 3 9 2 10 1 11 5 12 6 13
REMARK SMILES IDX 7 14 11 15 8 16 10 17 12 18 9 19 19 20 20 21 21 22 22 23
REMARK SMILES IDX 23 24 24 26 25 27 26 28 78 29 27 30 77 31 28 32 29 33 30 34
REMARK SMILES IDX 71 35 31 36 76 37 70 38 72 39 32 40 75 41 69 42 68 43 33 45
REMARK SMILES IDX 59 46 42 47 58 48 43 49 46 50 57 51 73 52 44 53 45 54 56 56
REMARK SMILES IDX 74 57 47 58 34 59 35 60 40 61 36 62 37 63 39 64 41 65 38 66
REMARK SMILES IDX 60 67 61 68 66 69 62 70 63 71 65 72 67 73 64 74 48 75 49 76
REMARK SMILES IDX 54 77 50 78 51 79 53 80 55 81 52 82
REMARK H PARENT 15 7 22 25 72 44 46 55
REMARK Flexibility Score: inf
ROOT
ATOM      1  C   UNL     1       0.987   2.432   7.208  1.00  0.00     0.002 C 
ENDROOT
BRANCH   1   2
ATOM      2  C   UNL     1       0.762   1.416   6.081  1.00  0.00     0.021 C 
BRANCH   2   3
ATOM      3  C   UNL     1       0.078   1.936   4.817  1.00  0.00     0.116 C 
BRANCH   3   4
ATOM      4  N   UNL     1       0.831   2.971   4.138  1.00  0.00    -0.353 N 
ATOM      5  C   UNL     1       1.053   3.146   2.800  1.00  0.00     0.261 C 
ATOM      6  O   UNL     1       1.599   4.197   2.449  1.00  0.00    -0.271 OA
ATOM      7  H   UNL     1       1.241   3.647   4.725  1.00  0.00     0.163 HD
BRANCH   5   8
ATOM      8  C   UNL     1       0.608   2.102   1.754  1.00  0.00     0.261 C 
BRANCH   8   9
ATOM      9  C   UNL     1      -0.927   2.069   1.622  1.00  0.00     0.055 C 
BRANCH   9  10
ATOM     10  C   UNL     1      -1.503   3.164   0.720  1.00  0.00     0.001 C 
ATOM     11  C   UNL     1      -1.248   2.917  -0.760  1.00  0.00     0.004 C 
ENDBRANCH   9  10
ENDBRANCH   8   9
BRANCH   8  12
ATOM     12  O   UNL     1       1.131   0.831   2.158  1.00  0.00    -0.480 OA
BRANCH  12  13
ATOM     13  C   UNL     1       1.220  -0.186   1.244  1.00  0.00     0.123 A 
ATOM     14  C   UNL     1       1.023  -0.051  -0.133  1.00  0.00     0.047 A 
ATOM     15  C   UNL     1       1.536  -1.452   1.772  1.00  0.00    -0.009 A 
ATOM     16  C   UNL     1       1.096  -1.162  -0.977  1.00  0.00     0.004 A 
ATOM     17  C   UNL     1       1.605  -2.562   0.915  1.00  0.00     0.007 A 
ATOM     18  C   UNL     1       1.795  -1.633   3.242  1.00  0.00     0.048 C 
ATOM     19  C   UNL     1       1.379  -2.418  -0.453  1.00  0.00     0.001 A 
ENDBRANCH  12  13
ENDBRANCH   8  12
ENDBRANCH   5   8
ENDBRANCH   3   4
ENDBRANCH   2   3
ENDBRANCH   1   2
BRANCH   1  20
ATOM     20  C   UNL     1      -0.214   3.287   7.643  1.00  0.00     0.002 C 
BRANCH  20  21
ATOM     21  C   UNL     1      -1.531   2.552   7.901  1.00  0.00     0.021 C 
BRANCH  21  22
ATOM     22  C   UNL     1      -1.503   1.561   9.057  1.00  0.00     0.116 C 
BRANCH  22  23
ATOM     23  N   UNL     1      -2.086   2.062  10.296  1.00  0.00    -0.352 N 
ATOM     24  C   UNL     1      -2.141   1.455  11.541  1.00  0.00     0.251 C 
ATOM     25  H   UNL     1      -2.497   2.955  10.241  1.00  0.00     0.163 HD
ATOM     26  O   UNL     1      -2.672   2.020  12.483  1.00  0.00    -0.269 OA
BRANCH  24  27
ATOM     27  C   UNL     1      -1.421   0.172  11.749  1.00  0.00     0.039 A 
ATOM     28  C   UNL     1      -0.535   0.100  12.829  1.00  0.00     0.014 A 
ATOM     29  C   UNL     1      -1.434  -0.830  10.781  1.00  0.00     0.014 A 
ATOM     30  C   UNL     1       0.513  -0.815  12.785  1.00  0.00     0.010 A 
ATOM     31  C   UNL     1      -0.348  -1.680  10.690  1.00  0.00     0.010 A 
ATOM     32  C   UNL     1       0.667  -1.611  11.649  1.00  0.00    -0.014 A 
BRANCH  32  33
ATOM     33  C   UNL     1       1.943  -2.230  11.306  1.00  0.00     0.031 A 
ATOM     34  C   UNL     1       2.171  -3.675  11.488  1.00  0.00     0.074 A 
ATOM     35  C   UNL     1       2.932  -1.456  10.805  1.00  0.00     0.049 A 
ATOM     36  N   UNL     1       3.320  -4.194  11.773  1.00  0.00    -0.248 NA
ATOM     37  C   UNL     1       1.097  -4.655  11.394  1.00  0.00     0.031 C 
ATOM     38  C   UNL     1       4.191  -1.897  10.213  1.00  0.00     0.029 A 
ATOM     39  N   UNL     1       3.068  -0.067  10.927  1.00  0.00    -0.354 N 
ATOM     40  C   UNL     1       3.201  -5.559  11.656  1.00  0.00     0.074 A 
ATOM     41  C   UNL     1       1.785  -5.799  11.476  1.00  0.00     0.031 C 
ATOM     42  C   UNL     1       5.069  -0.882  10.261  1.00  0.00     0.029 A 
ATOM     43  C   UNL     1       4.449   0.196  11.013  1.00  0.00     0.049 A 
ATOM     44  H   UNL     1       2.341   0.596  10.949  1.00  0.00     0.167 HD
ATOM     45  C   UNL     1       4.319  -6.340  11.586  1.00  0.00     0.037 A 
ATOM     46  C   UNL     1       4.993   0.798  12.109  1.00  0.00     0.037 A 
ATOM     47  C   UNL     1       5.537  -5.540  11.652  1.00  0.00     0.049 A 
ATOM     48  C   UNL     1       6.041  -0.031  12.812  1.00  0.00     0.074 A 
ATOM     49  C   UNL     1       6.351  -5.018  10.659  1.00  0.00     0.029 A 
ATOM     50  N   UNL     1       5.902  -4.908  12.835  1.00  0.00    -0.354 N 
ATOM     51  N   UNL     1       6.184  -1.315  12.645  1.00  0.00    -0.248 NA
ATOM     52  C   UNL     1       6.961   0.511  13.810  1.00  0.00     0.031 C 
ATOM     53  C   UNL     1       7.173  -4.025  11.239  1.00  0.00     0.029 A 
ATOM     54  C   UNL     1       6.872  -3.954  12.588  1.00  0.00     0.049 A 
ATOM     55  H   UNL     1       5.524  -5.110  13.721  1.00  0.00     0.167 HD
ATOM     56  C   UNL     1       7.121  -1.783  13.529  1.00  0.00     0.074 A 
ATOM     57  C   UNL     1       7.607  -0.598  14.208  1.00  0.00     0.031 C 
ATOM     58  C   UNL     1       7.392  -3.114  13.654  1.00  0.00     0.037 A 
BRANCH  45  59
ATOM     59  C   UNL     1       4.284  -7.777  11.123  1.00  0.00     0.057 A 
ATOM     60  C   UNL     1       5.316  -8.316  10.330  1.00  0.00     0.134 A 
ATOM     61  C   UNL     1       3.227  -8.665  11.382  1.00  0.00     0.134 A 
ATOM     62  F   UNL     1       6.450  -7.644  10.093  1.00  0.00    -0.206 F 
ATOM     63  C   UNL     1       5.236  -9.578   9.728  1.00  0.00     0.040 A 
ATOM     64  C   UNL     1       3.107  -9.910  10.745  1.00  0.00     0.040 A 
ATOM     65  F   UNL     1       2.283  -8.376  12.288  1.00  0.00    -0.206 F 
ATOM     66  C   UNL     1       4.107 -10.363   9.897  1.00  0.00     0.006 A 
ENDBRANCH  45  59
BRANCH  46  67
ATOM     67  C   UNL     1       4.068   1.724  12.812  1.00  0.00     0.057 A 
ATOM     68  C   UNL     1       3.634   2.887  12.155  1.00  0.00     0.134 A 
ATOM     69  C   UNL     1       3.359   1.331  13.950  1.00  0.00     0.134 A 
ATOM     70  F   UNL     1       4.271   3.318  11.054  1.00  0.00    -0.206 F 
ATOM     71  C   UNL     1       2.484   3.574  12.553  1.00  0.00     0.040 A 
ATOM     72  C   UNL     1       2.212   2.016  14.365  1.00  0.00     0.040 A 
ATOM     73  F   UNL     1       3.699   0.219  14.618  1.00  0.00    -0.206 F 
ATOM     74  C   UNL     1       1.752   3.119  13.646  1.00  0.00     0.006 A 
ENDBRANCH  46  67
BRANCH  58  75
ATOM     75  C   UNL     1       8.234  -3.724  14.738  1.00  0.00     0.057 A 
ATOM     76  C   UNL     1       8.285  -3.239  16.053  1.00  0.00     0.134 A 
ATOM     77  C   UNL     1       8.925  -4.933  14.511  1.00  0.00     0.134 A 
ATOM     78  F   UNL     1       7.585  -2.158  16.426  1.00  0.00    -0.206 F 
ATOM     79  C   UNL     1       9.021  -3.877  17.059  1.00  0.00     0.040 A 
ATOM     80  C   UNL     1       9.624  -5.604  15.518  1.00  0.00     0.040 A 
ATOM     81  F   UNL     1       8.932  -5.519  13.304  1.00  0.00    -0.206 F 
ATOM     82  C   UNL     1       9.686  -5.069  16.796  1.00  0.00     0.006 A 
ENDBRANCH  58  75
ENDBRANCH  32  33
ENDBRANCH  24  27
ENDBRANCH  22  23
ENDBRANCH  21  22
ENDBRANCH  20  21
ENDBRANCH   1  20
TORSDOF 17
