REMARK SMILES C[C@H]1CN(C(=O)N2CC[NH+]([C@@H](C)C(=O)NCCCCCCNC(=O)c3ccc(-c4c5nc(c(-c6c(F)cccc6F)c6ccc([nH]6)c(-c6c(F)cccc6F)c6nc(c(-c7c(F)cccc7F)c7ccc4[nH]7)C=C6)C=C5)cc3)CC2)C[C@@H]1C
REMARK SMILES IDX 19 1 18 2 17 3 16 4 15 5 13 6 14 7 11 9 12 10 10 11 1 12
REMARK SMILES IDX 2 13 3 14 82 15 4 16 81 17 83 18 5 19 6 20 7 21 8 22 80 23
REMARK SMILES IDX 9 24 79 25 20 27 21 28 22 29 23 30 24 32 25 33 26 34 78 35
REMARK SMILES IDX 27 36 77 37 28 38 29 39 30 40 71 41 31 42 76 43 70 44 72 45
REMARK SMILES IDX 32 46 75 47 69 48 68 49 33 51 59 52 42 53 58 54 43 55 46 56
REMARK SMILES IDX 57 57 73 58 44 59 45 60 56 62 74 63 47 64 34 65 35 66 40 67
REMARK SMILES IDX 36 68 37 69 39 70 41 71 38 72 60 73 61 74 66 75 62 76 63 77
REMARK SMILES IDX 65 78 67 79 64 80 48 81 49 82 54 83 50 84 51 85 53 86 55 87
REMARK SMILES IDX 52 88
REMARK H PARENT 15 8 10 26 22 31 72 50 46 61
REMARK Flexibility Score: inf
ROOT
ATOM      1  C   UNL     1       5.486   8.462  -4.587  1.00  0.00     0.002 C 
ENDROOT
BRANCH   1   2
ATOM      2  C   UNL     1       5.016   7.239  -5.380  1.00  0.00     0.002 C 
BRANCH   2   3
ATOM      3  C   UNL     1       3.796   6.528  -4.796  1.00  0.00     0.021 C 
BRANCH   3   4
ATOM      4  C   UNL     1       2.491   7.331  -4.889  1.00  0.00     0.116 C 
BRANCH   4   5
ATOM      5  N   UNL     1       1.692   6.885  -6.013  1.00  0.00    -0.351 N 
ATOM      6  C   UNL     1       0.506   6.218  -6.098  1.00  0.00     0.278 C 
ATOM      7  O   UNL     1       0.181   5.848  -7.234  1.00  0.00    -0.268 OA
ATOM      8  H   UNL     1       2.083   7.107  -6.889  1.00  0.00     0.163 HD
BRANCH   6   9
ATOM      9  C   UNL     1      -0.436   5.947  -4.891  1.00  0.00     0.271 C 
ATOM     10  C   UNL     1      -0.783   7.198  -4.087  1.00  0.00     0.086 C 
BRANCH   9  11
ATOM     11  N   UNL     1      -0.141   4.675  -4.189  1.00  0.00    -0.322 N 
ATOM     12  C   UNL     1      -0.926   0.548   1.467  1.00  0.00     0.010 C 
ATOM     13  C   UNL     1       0.419   0.947   0.861  1.00  0.00     0.010 C 
ATOM     14  C   UNL     1       0.250   2.077  -0.154  1.00  0.00     0.125 C 
ATOM     15  C   UNL     1       1.368   1.561   1.909  1.00  0.00     0.010 C 
ATOM     16  N   UNL     1       0.473   3.304   0.597  1.00  0.00    -0.324 N 
ATOM     17  C   UNL     1       0.937   3.032   1.945  1.00  0.00     0.125 C 
ATOM     18  C   UNL     1       2.834   1.433   1.483  1.00  0.00     0.010 C 
ATOM     19  C   UNL     1       0.568   4.560   0.045  1.00  0.00     0.320 C 
ATOM     20  O   UNL     1       0.999   5.537   0.651  1.00  0.00    -0.248 OA
ATOM     21  N   UNL     1       0.301   4.595  -1.303  1.00  0.00    -0.313 N 
ATOM     22  C   UNL     1       1.319   5.136  -2.176  1.00  0.00     0.183 C 
ATOM     23  C   UNL     1      -1.068   4.703  -1.793  1.00  0.00     0.183 C 
ATOM     24  C   UNL     1       1.176   4.512  -3.569  1.00  0.00     0.284 C 
ATOM     25  C   UNL     1      -1.198   4.221  -3.257  1.00  0.00     0.284 C 
ATOM     26  H   UNL     1      -0.122   4.058  -5.001  1.00  0.00     0.348 HD
ENDBRANCH   9  11
ENDBRANCH   6   9
ENDBRANCH   4   5
ENDBRANCH   3   4
ENDBRANCH   2   3
ENDBRANCH   1   2
BRANCH   1  27
ATOM     27  C   UNL     1       5.819   8.210  -3.112  1.00  0.00     0.021 C 
BRANCH  27  28
ATOM     28  C   UNL     1       6.830   7.096  -2.850  1.00  0.00     0.116 C 
BRANCH  28  29
ATOM     29  N   UNL     1       8.095   7.333  -3.524  1.00  0.00    -0.352 N 
ATOM     30  C   UNL     1       9.359   7.470  -3.011  1.00  0.00     0.251 C 
ATOM     31  H   UNL     1       8.035   7.407  -4.504  1.00  0.00     0.163 HD
ATOM     32  O   UNL     1      10.268   7.873  -3.729  1.00  0.00    -0.269 OA
BRANCH  30  33
ATOM     33  C   UNL     1       9.637   7.141  -1.596  1.00  0.00     0.039 A 
ATOM     34  C   UNL     1      10.478   7.986  -0.866  1.00  0.00     0.014 A 
ATOM     35  C   UNL     1       9.126   5.982  -1.005  1.00  0.00     0.014 A 
ATOM     36  C   UNL     1      10.771   7.691   0.467  1.00  0.00     0.010 A 
ATOM     37  C   UNL     1       9.367   5.723   0.343  1.00  0.00     0.010 A 
ATOM     38  C   UNL     1      10.202   6.568   1.089  1.00  0.00    -0.014 A 
BRANCH  38  39
ATOM     39  C   UNL     1      10.489   6.263   2.513  1.00  0.00     0.031 A 
ATOM     40  C   UNL     1      11.271   5.032   2.882  1.00  0.00     0.074 A 
ATOM     41  C   UNL     1      10.020   7.079   3.476  1.00  0.00     0.049 A 
ATOM     42  N   UNL     1      11.608   4.591   4.069  1.00  0.00    -0.248 NA
ATOM     43  C   UNL     1      11.713   4.170   1.775  1.00  0.00     0.031 C 
ATOM     44  C   UNL     1       9.212   8.278   3.248  1.00  0.00     0.029 A 
ATOM     45  N   UNL     1      10.155   7.022   4.840  1.00  0.00    -0.354 N 
ATOM     46  C   UNL     1      12.294   3.404   3.850  1.00  0.00     0.074 A 
ATOM     47  C   UNL     1      12.278   3.162   2.424  1.00  0.00     0.031 C 
ATOM     48  C   UNL     1       8.949   8.860   4.429  1.00  0.00     0.029 A 
ATOM     49  C   UNL     1       9.544   8.062   5.497  1.00  0.00     0.049 A 
ATOM     50  H   UNL     1      10.644   6.305   5.304  1.00  0.00     0.167 HD
ATOM     51  C   UNL     1      12.907   2.600   4.753  1.00  0.00     0.037 A 
ATOM     52  C   UNL     1       9.477   8.342   6.811  1.00  0.00     0.037 A 
ATOM     53  C   UNL     1      12.940   2.851   6.170  1.00  0.00     0.049 A 
ATOM     54  C   UNL     1      10.165   7.435   7.792  1.00  0.00     0.074 A 
ATOM     55  C   UNL     1      13.566   2.118   7.163  1.00  0.00     0.029 A 
ATOM     56  N   UNL     1      12.321   3.923   6.795  1.00  0.00    -0.354 N 
ATOM     57  N   UNL     1      10.860   6.346   7.566  1.00  0.00    -0.248 NA
ATOM     58  C   UNL     1      10.068   7.802   9.212  1.00  0.00     0.031 C 
ATOM     59  C   UNL     1      13.300   2.729   8.393  1.00  0.00     0.029 A 
ATOM     60  C   UNL     1      12.542   3.865   8.161  1.00  0.00     0.049 A 
ATOM     61  H   UNL     1      11.802   4.622   6.336  1.00  0.00     0.167 HD
ATOM     62  C   UNL     1      11.306   5.916   8.808  1.00  0.00     0.074 A 
ATOM     63  C   UNL     1      10.816   6.869   9.782  1.00  0.00     0.031 C 
ATOM     64  C   UNL     1      12.055   4.828   9.115  1.00  0.00     0.037 A 
BRANCH  51  65
ATOM     65  C   UNL     1      13.602   1.378   4.228  1.00  0.00     0.057 A 
ATOM     66  C   UNL     1      14.791   1.469   3.491  1.00  0.00     0.134 A 
ATOM     67  C   UNL     1      13.098   0.097   4.483  1.00  0.00     0.134 A 
ATOM     68  F   UNL     1      15.320   2.667   3.201  1.00  0.00    -0.206 F 
ATOM     69  C   UNL     1      15.440   0.332   3.006  1.00  0.00     0.040 A 
ATOM     70  C   UNL     1      13.752  -1.049   4.025  1.00  0.00     0.040 A 
ATOM     71  F   UNL     1      11.967  -0.063   5.187  1.00  0.00    -0.206 F 
ATOM     72  C   UNL     1      14.922  -0.932   3.279  1.00  0.00     0.006 A 
ENDBRANCH  51  65
BRANCH  52  73
ATOM     73  C   UNL     1       8.763   9.557   7.279  1.00  0.00     0.057 A 
ATOM     74  C   UNL     1       9.467  10.648   7.801  1.00  0.00     0.134 A 
ATOM     75  C   UNL     1       7.368   9.652   7.230  1.00  0.00     0.134 A 
ATOM     76  F   UNL     1      10.805  10.608   7.891  1.00  0.00    -0.206 F 
ATOM     77  C   UNL     1       8.809  11.782   8.279  1.00  0.00     0.040 A 
ATOM     78  C   UNL     1       6.698  10.789   7.682  1.00  0.00     0.040 A 
ATOM     79  F   UNL     1       6.638   8.642   6.735  1.00  0.00    -0.206 F 
ATOM     80  C   UNL     1       7.419  11.856   8.216  1.00  0.00     0.006 A 
ENDBRANCH  52  73
BRANCH  64  81
ATOM     81  C   UNL     1      12.418   4.637  10.557  1.00  0.00     0.057 A 
ATOM     82  C   UNL     1      11.477   4.225  11.509  1.00  0.00     0.134 A 
ATOM     83  C   UNL     1      13.732   4.848  10.994  1.00  0.00     0.134 A 
ATOM     84  F   UNL     1      10.199   4.019  11.156  1.00  0.00    -0.206 F 
ATOM     85  C   UNL     1      11.824   4.055  12.850  1.00  0.00     0.040 A 
ATOM     86  C   UNL     1      14.096   4.658  12.328  1.00  0.00     0.040 A 
ATOM     87  F   UNL     1      14.684   5.236  10.132  1.00  0.00    -0.206 F 
ATOM     88  C   UNL     1      13.138   4.267  13.261  1.00  0.00     0.006 A 
ENDBRANCH  64  81
ENDBRANCH  38  39
ENDBRANCH  30  33
ENDBRANCH  28  29
ENDBRANCH  27  28
ENDBRANCH   1  27
TORSDOF 14
