REMARK SMILES Nc1ccc(-c2cc(O)ccc2Cl)c(C(=O)NCCCCCCNC(=O)c2ccc(-c3c4nc(c(-c5c(F)cccc5F)c5ccc([nH]5)c(-c5c(F)cccc5F)c5nc(c(-c6c(F)cccc6F)c6ccc3[nH]6)C=C5)C=C4)cc2)n1
REMARK SMILES IDX 20 1 19 2 18 3 17 4 15 5 16 6 14 8 2 9 3 10 81 11 4 12 5 13
REMARK SMILES IDX 1 14 6 17 7 18 12 19 8 20 11 21 13 22 10 23 9 24 21 26 22 27
REMARK SMILES IDX 23 28 24 29 25 30 26 32 27 33 28 34 80 35 29 36 79 37 30 38
REMARK SMILES IDX 31 39 32 40 73 41 33 42 78 43 72 44 74 45 34 46 77 47 71 48
REMARK SMILES IDX 70 49 35 51 61 52 44 53 60 54 45 55 48 56 59 57 75 58 46 59
REMARK SMILES IDX 47 60 58 62 76 63 49 64 36 65 37 66 42 67 38 68 39 69 41 70
REMARK SMILES IDX 43 71 40 72 62 73 63 74 68 75 64 76 65 77 67 78 69 79 66 80
REMARK SMILES IDX 50 81 51 82 56 83 52 84 53 85 55 86 57 87 54 88
REMARK H PARENT 17 7 1 15 1 16 9 25 24 31 74 50 48 61
REMARK Flexibility Score: inf
ROOT
ATOM      1  C   UNL     1      -5.782   3.640   1.717  1.00  0.00     0.002 C 
ENDROOT
BRANCH   1   2
ATOM      2  C   UNL     1      -4.831   2.535   2.191  1.00  0.00     0.021 C 
BRANCH   2   3
ATOM      3  C   UNL     1      -3.935   1.873   1.151  1.00  0.00     0.116 C 
BRANCH   3   4
ATOM      4  N   UNL     1      -2.949   2.710   0.522  1.00  0.00    -0.351 N 
ATOM      5  C   UNL     1      -1.768   2.369  -0.110  1.00  0.00     0.270 C 
ATOM      6  O   UNL     1      -1.164   3.290  -0.668  1.00  0.00    -0.267 OA
ATOM      7  H   UNL     1      -3.147   3.674   0.545  1.00  0.00     0.163 HD
BRANCH   5   8
ATOM      8  C   UNL     1      -1.141   0.988  -0.088  1.00  0.00     0.138 A 
ATOM      9  C   UNL     1       0.948  -0.044   0.158  1.00  0.00     0.124 A 
ATOM     10  C   UNL     1       0.406  -1.289  -0.081  1.00  0.00     0.047 A 
ATOM     11  N   UNL     1       0.200   1.066   0.194  1.00  0.00    -0.225 NA
ATOM     12  C   UNL     1      -0.952  -1.379  -0.361  1.00  0.00     0.015 A 
ATOM     13  C   UNL     1      -1.769  -0.231  -0.398  1.00  0.00     0.015 A 
BRANCH   9  14
ATOM     14  N   UNL     1       2.296   0.097   0.419  1.00  0.00    -0.384 N 
ATOM     15  H   UNL     1       2.886  -0.691   0.403  1.00  0.00     0.158 HD
ATOM     16  H   UNL     1       2.668   0.986   0.620  1.00  0.00     0.158 HD
ENDBRANCH   9  14
BRANCH  13  17
ATOM     17  C   UNL     1      -3.176  -0.437  -0.776  1.00  0.00     0.006 A 
ATOM     18  C   UNL     1      -4.009  -1.164   0.109  1.00  0.00     0.056 A 
ATOM     19  C   UNL     1      -3.736   0.021  -1.983  1.00  0.00     0.049 A 
ATOM     20  C   UNL     1      -5.357  -1.353  -0.176  1.00  0.00     0.116 A 
ATOM     21  C   UNL     1      -5.088  -0.202  -2.271  1.00  0.00     0.025 A 
ATOM     22  Cl  UNL     1      -2.793   0.849  -3.170  1.00  0.00    -0.084 Cl
ATOM     23  C   UNL     1      -5.900  -0.883  -1.364  1.00  0.00     0.048 A 
BRANCH  20  24
ATOM     24  O   UNL     1      -6.194  -1.955   0.714  1.00  0.00    -0.508 OA
ATOM     25  H   UNL     1      -5.858  -2.282   1.525  1.00  0.00     0.293 HD
ENDBRANCH  20  24
ENDBRANCH  13  17
ENDBRANCH   5   8
ENDBRANCH   3   4
ENDBRANCH   2   3
ENDBRANCH   1   2
BRANCH   1  26
ATOM     26  C   UNL     1      -6.627   3.398   0.461  1.00  0.00     0.002 C 
BRANCH  26  27
ATOM     27  C   UNL     1      -7.403   2.085   0.354  1.00  0.00     0.021 C 
BRANCH  27  28
ATOM     28  C   UNL     1      -8.349   1.725   1.493  1.00  0.00     0.116 C 
BRANCH  28  29
ATOM     29  N   UNL     1      -9.460   2.648   1.635  1.00  0.00    -0.352 N 
ATOM     30  C   UNL     1     -10.814   2.431   1.639  1.00  0.00     0.251 C 
ATOM     31  H   UNL     1      -9.196   3.590   1.747  1.00  0.00     0.163 HD
ATOM     32  O   UNL     1     -11.570   3.407   1.678  1.00  0.00    -0.269 OA
BRANCH  30  33
ATOM     33  C   UNL     1     -11.406   1.071   1.572  1.00  0.00     0.039 A 
ATOM     34  C   UNL     1     -12.582   0.898   0.830  1.00  0.00     0.014 A 
ATOM     35  C   UNL     1     -10.875  -0.020   2.266  1.00  0.00     0.014 A 
ATOM     36  C   UNL     1     -13.187  -0.360   0.740  1.00  0.00     0.010 A 
ATOM     37  C   UNL     1     -11.441  -1.291   2.122  1.00  0.00     0.010 A 
ATOM     38  C   UNL     1     -12.606  -1.476   1.362  1.00  0.00    -0.014 A 
BRANCH  38  39
ATOM     39  C   UNL     1     -13.211  -2.830   1.231  1.00  0.00     0.031 A 
ATOM     40  C   UNL     1     -13.771  -3.539   2.435  1.00  0.00     0.074 A 
ATOM     41  C   UNL     1     -13.219  -3.448   0.033  1.00  0.00     0.049 A 
ATOM     42  N   UNL     1     -14.284  -4.741   2.524  1.00  0.00    -0.248 NA
ATOM     43  C   UNL     1     -13.730  -2.809   3.711  1.00  0.00     0.031 C 
ATOM     44  C   UNL     1     -12.680  -2.893  -1.209  1.00  0.00     0.029 A 
ATOM     45  N   UNL     1     -13.692  -4.684  -0.334  1.00  0.00    -0.354 N 
ATOM     46  C   UNL     1     -14.612  -4.917   3.863  1.00  0.00     0.074 A 
ATOM     47  C   UNL     1     -14.200  -3.715   4.557  1.00  0.00     0.031 C 
ATOM     48  C   UNL     1     -12.868  -3.775  -2.204  1.00  0.00     0.029 A 
ATOM     49  C   UNL     1     -13.509  -4.972  -1.665  1.00  0.00     0.049 A 
ATOM     50  H   UNL     1     -14.122  -5.306   0.297  1.00  0.00     0.167 HD
ATOM     51  C   UNL     1     -15.218  -5.972   4.458  1.00  0.00     0.037 A 
ATOM     52  C   UNL     1     -13.816  -6.076  -2.374  1.00  0.00     0.037 A 
ATOM     53  C   UNL     1     -15.658  -7.157   3.768  1.00  0.00     0.049 A 
ATOM     54  C   UNL     1     -14.484  -7.235  -1.689  1.00  0.00     0.074 A 
ATOM     55  C   UNL     1     -16.335  -8.252   4.279  1.00  0.00     0.029 A 
ATOM     56  N   UNL     1     -15.463  -7.404   2.418  1.00  0.00    -0.354 N 
ATOM     57  N   UNL     1     -14.838  -7.362  -0.434  1.00  0.00    -0.248 NA
ATOM     58  C   UNL     1     -14.799  -8.405  -2.522  1.00  0.00     0.031 C 
ATOM     59  C   UNL     1     -16.517  -9.177   3.246  1.00  0.00     0.029 A 
ATOM     60  C   UNL     1     -15.989  -8.641   2.083  1.00  0.00     0.049 A 
ATOM     61  H   UNL     1     -15.018  -6.790   1.790  1.00  0.00     0.167 HD
ATOM     62  C   UNL     1     -15.438  -8.610  -0.331  1.00  0.00     0.074 A 
ATOM     63  C   UNL     1     -15.413  -9.197  -1.655  1.00  0.00     0.031 C 
ATOM     64  C   UNL     1     -15.963  -9.214   0.762  1.00  0.00     0.037 A 
BRANCH  51  65
ATOM     65  C   UNL     1     -15.448  -5.892   5.940  1.00  0.00     0.057 A 
ATOM     66  C   UNL     1     -16.412  -5.039   6.492  1.00  0.00     0.134 A 
ATOM     67  C   UNL     1     -14.725  -6.706   6.821  1.00  0.00     0.134 A 
ATOM     68  F   UNL     1     -17.132  -4.226   5.704  1.00  0.00    -0.206 F 
ATOM     69  C   UNL     1     -16.631  -4.979   7.870  1.00  0.00     0.040 A 
ATOM     70  C   UNL     1     -14.952  -6.674   8.198  1.00  0.00     0.040 A 
ATOM     71  F   UNL     1     -13.793  -7.553   6.358  1.00  0.00    -0.206 F 
ATOM     72  C   UNL     1     -15.904  -5.803   8.726  1.00  0.00     0.006 A 
ENDBRANCH  51  65
BRANCH  52  73
ATOM     73  C   UNL     1     -13.511  -6.133  -3.825  1.00  0.00     0.057 A 
ATOM     74  C   UNL     1     -14.534  -6.088  -4.779  1.00  0.00     0.134 A 
ATOM     75  C   UNL     1     -12.196  -6.245  -4.292  1.00  0.00     0.134 A 
ATOM     76  F   UNL     1     -15.815  -6.004  -4.391  1.00  0.00    -0.206 F 
ATOM     77  C   UNL     1     -14.262  -6.167  -6.146  1.00  0.00     0.040 A 
ATOM     78  C   UNL     1     -11.908  -6.301  -5.657  1.00  0.00     0.040 A 
ATOM     79  F   UNL     1     -11.171  -6.289  -3.428  1.00  0.00    -0.206 F 
ATOM     80  C   UNL     1     -12.945  -6.269  -6.588  1.00  0.00     0.006 A 
ENDBRANCH  52  73
BRANCH  64  81
ATOM     81  C   UNL     1     -16.579 -10.569   0.569  1.00  0.00     0.057 A 
ATOM     82  C   UNL     1     -15.798 -11.712   0.362  1.00  0.00     0.134 A 
ATOM     83  C   UNL     1     -17.969 -10.735   0.626  1.00  0.00     0.134 A 
ATOM     84  F   UNL     1     -14.462 -11.618   0.284  1.00  0.00    -0.206 F 
ATOM     85  C   UNL     1     -16.379 -12.971   0.199  1.00  0.00     0.040 A 
ATOM     86  C   UNL     1     -18.560 -11.991   0.488  1.00  0.00     0.040 A 
ATOM     87  F   UNL     1     -18.774  -9.681   0.829  1.00  0.00    -0.206 F 
ATOM     88  C   UNL     1     -17.764 -13.114   0.268  1.00  0.00     0.006 A 
ENDBRANCH  64  81
ENDBRANCH  38  39
ENDBRANCH  30  33
ENDBRANCH  28  29
ENDBRANCH  27  28
ENDBRANCH  26  27
ENDBRANCH   1  26
TORSDOF 16
