REMARK SMILES Cc1ccccc1-c1c(Cl)ccc2c1C=C(C(=O)NCCCCCCNC(=O)c1ccc(-c3c4nc(c(-c5c(F)cccc5F)c5ccc([nH]5)c(-c5c(F)cccc5F)c5nc(c(-c6c(F)cccc6F)c6ccc3[nH]6)C=C5)C=C4)cc1)[C@@H](C(F)(F)F)O2
REMARK SMILES IDX 23 1 22 2 21 3 20 4 19 5 17 6 18 7 16 9 8 10 9 11 14 12
REMARK SMILES IDX 10 13 11 14 13 15 15 16 12 17 88 18 83 19 7 20 1 21 2 22
REMARK SMILES IDX 3 23 4 24 6 25 5 26 84 27 85 28 86 29 87 30 24 31 25 32
REMARK SMILES IDX 26 33 27 34 28 36 29 37 30 38 82 39 31 40 81 41 32 42 33 43
REMARK SMILES IDX 34 44 75 45 35 46 80 47 74 48 76 49 36 50 79 51 73 52 72 53
REMARK SMILES IDX 37 55 63 56 46 57 62 58 47 59 50 60 61 61 77 62 48 63 49 64
REMARK SMILES IDX 60 66 78 67 51 68 38 69 39 70 44 71 40 72 41 73 43 74 45 75
REMARK SMILES IDX 42 76 64 77 65 78 70 79 66 80 67 81 69 82 71 83 68 84 52 85
REMARK SMILES IDX 53 86 58 87 54 88 55 89 57 90 59 91 56 92
REMARK H PARENT 19 8 26 35 76 54 50 65
REMARK Flexibility Score: inf
ROOT
ATOM      1  C   UNL     1       7.197  -1.926   0.089  1.00  0.00     0.002 C 
ENDROOT
BRANCH   1   2
ATOM      2  C   UNL     1       7.462  -1.651  -1.400  1.00  0.00     0.002 C 
BRANCH   2   3
ATOM      3  C   UNL     1       6.250  -1.442  -2.321  1.00  0.00     0.021 C 
BRANCH   3   4
ATOM      4  C   UNL     1       5.225  -0.397  -1.880  1.00  0.00     0.116 C 
BRANCH   4   5
ATOM      5  N   UNL     1       5.771   0.938  -1.823  1.00  0.00    -0.352 N 
ATOM      6  C   UNL     1       5.201   2.142  -2.080  1.00  0.00     0.251 C 
ATOM      7  O   UNL     1       5.901   3.142  -1.924  1.00  0.00    -0.270 OA
ATOM      8  H   UNL     1       6.716   0.982  -1.551  1.00  0.00     0.163 HD
BRANCH   6   9
ATOM      9  C   UNL     1       3.785   2.256  -2.593  1.00  0.00     0.067 C 
ATOM     10  C   UNL     1       1.229   2.403   0.127  1.00  0.00     0.012 A 
ATOM     11  C   UNL     1       0.903   3.385   1.098  1.00  0.00     0.049 A 
ATOM     12  C   UNL     1       2.156   2.772  -0.884  1.00  0.00     0.027 A 
ATOM     13  Cl  UNL     1      -0.100   3.026   2.469  1.00  0.00    -0.084 Cl
ATOM     14  C   UNL     1       1.381   4.697   1.007  1.00  0.00     0.025 A 
ATOM     15  C   UNL     1       2.536   4.124  -1.019  1.00  0.00     0.128 A 
ATOM     16  C   UNL     1       2.834   1.784  -1.760  1.00  0.00     0.026 C 
ATOM     17  C   UNL     1       2.163   5.075  -0.076  1.00  0.00     0.049 A 
ATOM     18  O   UNL     1       3.287   4.606  -2.063  1.00  0.00    -0.475 OA
ATOM     19  C   UNL     1       3.564   3.667  -3.129  1.00  0.00     0.314 C 
BRANCH  10  20
ATOM     20  C   UNL     1       0.486   1.114   0.095  1.00  0.00    -0.013 A 
ATOM     21  C   UNL     1       2.468  -0.380   0.748  1.00  0.00     0.045 C 
ATOM     22  C   UNL     1       1.031  -0.153   0.383  1.00  0.00    -0.043 A 
ATOM     23  C   UNL     1       0.209  -1.298   0.305  1.00  0.00     0.004 A 
ATOM     24  C   UNL     1      -1.143  -1.202  -0.015  1.00  0.00     0.000 A 
ATOM     25  C   UNL     1      -0.889   1.177  -0.239  1.00  0.00     0.009 A 
ATOM     26  C   UNL     1      -1.697   0.040  -0.281  1.00  0.00     0.001 A 
ENDBRANCH  10  20
BRANCH  19  27
ATOM     27  C   UNL     1       2.495   3.714  -4.232  1.00  0.00     0.429 C 
ATOM     28  F   UNL     1       2.419   4.942  -4.797  1.00  0.00    -0.167 F 
ATOM     29  F   UNL     1       2.791   2.842  -5.230  1.00  0.00    -0.167 F 
ATOM     30  F   UNL     1       1.258   3.398  -3.786  1.00  0.00    -0.167 F 
ENDBRANCH  19  27
ENDBRANCH   6   9
ENDBRANCH   4   5
ENDBRANCH   3   4
ENDBRANCH   2   3
ENDBRANCH   1   2
BRANCH   1  31
ATOM     31  C   UNL     1       6.145  -2.985   0.432  1.00  0.00     0.021 C 
BRANCH  31  32
ATOM     32  C   UNL     1       6.451  -4.389  -0.083  1.00  0.00     0.116 C 
BRANCH  32  33
ATOM     33  N   UNL     1       6.795  -5.355   0.951  1.00  0.00    -0.352 N 
ATOM     34  C   UNL     1       7.188  -6.684   0.802  1.00  0.00     0.251 C 
ATOM     35  H   UNL     1       6.743  -5.026   1.877  1.00  0.00     0.163 HD
ATOM     36  O   UNL     1       7.489  -7.355   1.776  1.00  0.00    -0.269 OA
BRANCH  34  37
ATOM     37  C   UNL     1       7.365  -7.226  -0.567  1.00  0.00     0.039 A 
ATOM     38  C   UNL     1       8.586  -7.832  -0.876  1.00  0.00     0.014 A 
ATOM     39  C   UNL     1       6.453  -6.932  -1.576  1.00  0.00     0.014 A 
ATOM     40  C   UNL     1       9.005  -7.877  -2.206  1.00  0.00     0.010 A 
ATOM     41  C   UNL     1       6.900  -6.890  -2.885  1.00  0.00     0.010 A 
ATOM     42  C   UNL     1       8.206  -7.284  -3.187  1.00  0.00    -0.014 A 
BRANCH  42  43
ATOM     43  C   UNL     1       8.733  -6.878  -4.486  1.00  0.00     0.031 A 
ATOM     44  C   UNL     1       8.388  -7.596  -5.727  1.00  0.00     0.074 A 
ATOM     45  C   UNL     1       9.541  -5.797  -4.578  1.00  0.00     0.049 A 
ATOM     46  N   UNL     1       9.173  -7.653  -6.752  1.00  0.00    -0.248 NA
ATOM     47  C   UNL     1       7.136  -8.322  -5.908  1.00  0.00     0.031 C 
ATOM     48  C   UNL     1       9.976  -5.117  -5.796  1.00  0.00     0.029 A 
ATOM     49  N   UNL     1      10.322  -5.228  -3.567  1.00  0.00    -0.354 N 
ATOM     50  C   UNL     1       8.449  -8.171  -7.793  1.00  0.00     0.074 A 
ATOM     51  C   UNL     1       7.210  -8.635  -7.206  1.00  0.00     0.031 C 
ATOM     52  C   UNL     1      11.116  -4.460  -5.540  1.00  0.00     0.029 A 
ATOM     53  C   UNL     1      11.515  -4.790  -4.185  1.00  0.00     0.049 A 
ATOM     54  H   UNL     1      10.087  -5.149  -2.614  1.00  0.00     0.167 HD
ATOM     55  C   UNL     1       8.896  -8.049  -9.073  1.00  0.00     0.037 A 
ATOM     56  C   UNL     1      12.728  -5.285  -3.806  1.00  0.00     0.037 A 
ATOM     57  C   UNL     1      10.168  -7.346  -9.174  1.00  0.00     0.049 A 
ATOM     58  C   UNL     1      13.488  -6.006  -4.900  1.00  0.00     0.074 A 
ATOM     59  C   UNL     1      10.535  -6.050  -9.499  1.00  0.00     0.029 A 
ATOM     60  N   UNL     1      11.299  -7.933  -8.637  1.00  0.00    -0.354 N 
ATOM     61  N   UNL     1      13.052  -6.172  -6.118  1.00  0.00    -0.248 NA
ATOM     62  C   UNL     1      14.758  -6.699  -4.667  1.00  0.00     0.031 C 
ATOM     63  C   UNL     1      11.906  -5.872  -9.160  1.00  0.00     0.029 A 
ATOM     64  C   UNL     1      12.369  -7.059  -8.628  1.00  0.00     0.049 A 
ATOM     65  H   UNL     1      11.337  -8.858  -8.303  1.00  0.00     0.167 HD
ATOM     66  C   UNL     1      13.888  -7.031  -6.783  1.00  0.00     0.074 A 
ATOM     67  C   UNL     1      14.950  -7.323  -5.840  1.00  0.00     0.031 C 
ATOM     68  C   UNL     1      13.624  -7.491  -8.039  1.00  0.00     0.037 A 
BRANCH  55  69
ATOM     69  C   UNL     1       8.012  -8.388 -10.235  1.00  0.00     0.057 A 
ATOM     70  C   UNL     1       7.912  -7.547 -11.355  1.00  0.00     0.134 A 
ATOM     71  C   UNL     1       7.197  -9.533 -10.266  1.00  0.00     0.134 A 
ATOM     72  F   UNL     1       8.671  -6.451 -11.481  1.00  0.00    -0.206 F 
ATOM     73  C   UNL     1       6.999  -7.779 -12.389  1.00  0.00     0.040 A 
ATOM     74  C   UNL     1       6.244  -9.751 -11.268  1.00  0.00     0.040 A 
ATOM     75  F   UNL     1       7.295 -10.475  -9.315  1.00  0.00    -0.206 F 
ATOM     76  C   UNL     1       6.136  -8.864 -12.331  1.00  0.00     0.006 A 
ENDBRANCH  55  69
BRANCH  56  77
ATOM     77  C   UNL     1      12.772  -5.637  -2.362  1.00  0.00     0.057 A 
ATOM     78  C   UNL     1      12.564  -4.615  -1.417  1.00  0.00     0.134 A 
ATOM     79  C   UNL     1      12.628  -6.954  -1.923  1.00  0.00     0.134 A 
ATOM     80  F   UNL     1      12.686  -3.327  -1.776  1.00  0.00    -0.206 F 
ATOM     81  C   UNL     1      12.100  -4.889  -0.129  1.00  0.00     0.040 A 
ATOM     82  C   UNL     1      12.188  -7.241  -0.627  1.00  0.00     0.040 A 
ATOM     83  F   UNL     1      12.791  -7.981  -2.770  1.00  0.00    -0.206 F 
ATOM     84  C   UNL     1      11.879  -6.207   0.257  1.00  0.00     0.006 A 
ENDBRANCH  56  77
BRANCH  68  85
ATOM     85  C   UNL     1      14.539  -8.404  -8.804  1.00  0.00     0.057 A 
ATOM     86  C   UNL     1      15.925  -8.201  -8.869  1.00  0.00     0.134 A 
ATOM     87  C   UNL     1      14.038  -9.447  -9.607  1.00  0.00     0.134 A 
ATOM     88  F   UNL     1      16.507  -7.193  -8.201  1.00  0.00    -0.206 F 
ATOM     89  C   UNL     1      16.763  -9.011  -9.645  1.00  0.00     0.040 A 
ATOM     90  C   UNL     1      14.858 -10.232 -10.421  1.00  0.00     0.040 A 
ATOM     91  F   UNL     1      12.734  -9.760  -9.621  1.00  0.00    -0.206 F 
ATOM     92  C   UNL     1      16.229 -10.024 -10.434  1.00  0.00     0.006 A 
ENDBRANCH  68  85
ENDBRANCH  42  43
ENDBRANCH  34  37
ENDBRANCH  32  33
ENDBRANCH  31  32
ENDBRANCH   1  31
TORSDOF 15
