REMARK SMILES C[C@@H](O)[C@H](C)[N@@H+]1CCOC[C@@H]1C(=O)NCCCCCCNC(=O)c1ccc(-c2c3nc(c(-c4c(F)cccc4F)c4ccc([nH]4)c(-c4c(F)cccc4F)c4nc(c(-c5c(F)cccc5F)c5ccc2[nH]5)C=C4)C=C3)cc1
REMARK SMILES IDX 17 1 16 2 15 3 14 4 12 5 13 6 11 8 6 9 7 10 8 12 10 13 9 14
REMARK SMILES IDX 4 15 5 16 2 17 1 18 3 19 18 21 19 22 20 23 21 24 22 25 23 27
REMARK SMILES IDX 24 28 25 29 77 30 26 31 76 32 27 33 28 34 29 35 70 36 30 37
REMARK SMILES IDX 75 38 69 39 71 40 31 41 74 42 68 43 67 44 32 46 58 47 41 48
REMARK SMILES IDX 57 49 42 50 45 51 56 52 72 53 43 54 44 55 55 57 73 58 46 59
REMARK SMILES IDX 33 60 34 61 39 62 35 63 36 64 38 65 40 66 37 67 59 68 60 69
REMARK SMILES IDX 65 70 61 71 62 72 64 73 66 74 63 75 47 76 48 77 53 78 49 79
REMARK SMILES IDX 50 80 52 81 54 82 51 83
REMARK H PARENT 14 7 6 11 3 20 21 26 71 45 45 56
REMARK Flexibility Score: inf
ROOT
ATOM      1  C   UNL     1       2.265  -7.671  -2.134  1.00  0.00     0.002 C 
ENDROOT
BRANCH   1   2
ATOM      2  C   UNL     1       1.336  -7.274  -0.981  1.00  0.00     0.021 C 
BRANCH   2   3
ATOM      3  C   UNL     1       1.299  -5.772  -0.702  1.00  0.00     0.116 C 
BRANCH   3   4
ATOM      4  N   UNL     1       0.461  -5.093  -1.667  1.00  0.00    -0.351 N 
ATOM      5  C   UNL     1      -0.737  -4.459  -1.617  1.00  0.00     0.280 C 
ATOM      6  O   UNL     1      -1.182  -4.141  -2.730  1.00  0.00    -0.268 OA
ATOM      7  H   UNL     1       0.852  -5.090  -2.570  1.00  0.00     0.163 HD
BRANCH   5   8
ATOM      8  C   UNL     1      -1.523  -4.094  -0.331  1.00  0.00     0.300 C 
ATOM      9  N   UNL     1      -1.925  -2.654  -0.311  1.00  0.00    -0.317 N 
ATOM     10  C   UNL     1      -2.867  -2.435   0.812  1.00  0.00     0.292 C 
ATOM     11  H   UNL     1      -2.340  -2.548  -1.237  1.00  0.00     0.349 HD
ATOM     12  C   UNL     1      -2.310  -2.942   2.152  1.00  0.00     0.221 C 
ATOM     13  C   UNL     1      -1.055  -4.598   1.038  1.00  0.00     0.235 C 
ATOM     14  O   UNL     1      -2.014  -4.341   2.078  1.00  0.00    -0.369 OA
BRANCH   9  15
ATOM     15  C   UNL     1      -0.929  -1.560  -0.402  1.00  0.00     0.210 C 
ATOM     16  C   UNL     1       0.522  -1.916  -0.749  1.00  0.00     0.078 C 
BRANCH  15  17
ATOM     17  C   UNL     1      -1.430  -0.448  -1.394  1.00  0.00     0.169 C 
ATOM     18  C   UNL     1      -2.178  -0.967  -2.623  1.00  0.00     0.045 C 
BRANCH  17  19
ATOM     19  O   UNL     1      -2.278   0.474  -0.695  1.00  0.00    -0.387 OA
ATOM     20  H   UNL     1      -3.070   0.010  -0.380  1.00  0.00     0.211 HD
ENDBRANCH  17  19
ENDBRANCH  15  17
ENDBRANCH   9  15
ENDBRANCH   5   8
ENDBRANCH   3   4
ENDBRANCH   2   3
ENDBRANCH   1   2
BRANCH   1  21
ATOM     21  C   UNL     1       3.726  -7.229  -1.981  1.00  0.00     0.002 C 
BRANCH  21  22
ATOM     22  C   UNL     1       4.377  -7.561  -0.635  1.00  0.00     0.021 C 
BRANCH  22  23
ATOM     23  C   UNL     1       4.394  -9.044  -0.280  1.00  0.00     0.116 C 
BRANCH  23  24
ATOM     24  N   UNL     1       5.194  -9.817  -1.213  1.00  0.00    -0.352 N 
ATOM     25  C   UNL     1       6.197 -10.713  -0.967  1.00  0.00     0.251 C 
ATOM     26  H   UNL     1       4.982  -9.676  -2.164  1.00  0.00     0.163 HD
ATOM     27  O   UNL     1       6.891 -11.121  -1.903  1.00  0.00    -0.269 OA
BRANCH  25  28
ATOM     28  C   UNL     1       6.468 -11.194   0.405  1.00  0.00     0.039 A 
ATOM     29  C   UNL     1       7.797 -11.378   0.798  1.00  0.00     0.014 A 
ATOM     30  C   UNL     1       5.431 -11.529   1.281  1.00  0.00     0.014 A 
ATOM     31  C   UNL     1       8.086 -11.880   2.068  1.00  0.00     0.010 A 
ATOM     32  C   UNL     1       5.720 -11.965   2.573  1.00  0.00     0.010 A 
ATOM     33  C   UNL     1       7.050 -12.171   2.969  1.00  0.00    -0.014 A 
BRANCH  33  34
ATOM     34  C   UNL     1       7.349 -12.756   4.301  1.00  0.00     0.031 A 
ATOM     35  C   UNL     1       6.925 -14.166   4.615  1.00  0.00     0.074 A 
ATOM     36  C   UNL     1       7.994 -12.022   5.228  1.00  0.00     0.049 A 
ATOM     37  N   UNL     1       7.091 -14.855   5.716  1.00  0.00    -0.248 NA
ATOM     38  C   UNL     1       6.201 -14.892   3.559  1.00  0.00     0.031 C 
ATOM     39  C   UNL     1       8.426 -10.633   5.059  1.00  0.00     0.029 A 
ATOM     40  N   UNL     1       8.404 -12.347   6.496  1.00  0.00    -0.354 N 
ATOM     41  C   UNL     1       6.493 -16.088   5.485  1.00  0.00     0.074 A 
ATOM     42  C   UNL     1       5.904 -16.031   4.166  1.00  0.00     0.031 C 
ATOM     43  C   UNL     1       9.069 -10.236   6.170  1.00  0.00     0.029 A 
ATOM     44  C   UNL     1       9.073 -11.331   7.135  1.00  0.00     0.049 A 
ATOM     45  H   UNL     1       8.235 -13.224   6.909  1.00  0.00     0.167 HD
ATOM     46  C   UNL     1       6.463 -17.181   6.284  1.00  0.00     0.037 A 
ATOM     47  C   UNL     1       9.633 -11.295   8.358  1.00  0.00     0.037 A 
ATOM     48  C   UNL     1       7.067 -17.248   7.589  1.00  0.00     0.049 A 
ATOM     49  C   UNL     1       9.585 -12.523   9.226  1.00  0.00     0.074 A 
ATOM     50  C   UNL     1       7.104 -18.313   8.472  1.00  0.00     0.029 A 
ATOM     51  N   UNL     1       7.750 -16.203   8.193  1.00  0.00    -0.354 N 
ATOM     52  N   UNL     1       9.053 -13.694   8.975  1.00  0.00    -0.248 NA
ATOM     53  C   UNL     1      10.230 -12.425  10.543  1.00  0.00     0.031 C 
ATOM     54  C   UNL     1       7.791 -17.905   9.621  1.00  0.00     0.029 A 
ATOM     55  C   UNL     1       8.213 -16.598   9.437  1.00  0.00     0.049 A 
ATOM     56  H   UNL     1       7.885 -15.312   7.796  1.00  0.00     0.167 HD
ATOM     57  C   UNL     1       9.330 -14.482  10.085  1.00  0.00     0.074 A 
ATOM     58  C   UNL     1      10.090 -13.659  11.002  1.00  0.00     0.031 C 
ATOM     59  C   UNL     1       8.985 -15.771  10.326  1.00  0.00     0.037 A 
BRANCH  46  60
ATOM     60  C   UNL     1       5.770 -18.402   5.753  1.00  0.00     0.057 A 
ATOM     61  C   UNL     1       6.322 -19.164   4.714  1.00  0.00     0.134 A 
ATOM     62  C   UNL     1       4.556 -18.837   6.297  1.00  0.00     0.134 A 
ATOM     63  F   UNL     1       7.476 -18.793   4.139  1.00  0.00    -0.206 F 
ATOM     64  C   UNL     1       5.679 -20.299   4.219  1.00  0.00     0.040 A 
ATOM     65  C   UNL     1       3.916 -19.985   5.827  1.00  0.00     0.040 A 
ATOM     66  F   UNL     1       3.974 -18.157   7.297  1.00  0.00    -0.206 F 
ATOM     67  C   UNL     1       4.475 -20.716   4.781  1.00  0.00     0.006 A 
ENDBRANCH  46  60
BRANCH  47  68
ATOM     68  C   UNL     1      10.328 -10.071   8.830  1.00  0.00     0.057 A 
ATOM     69  C   UNL     1      11.719 -10.049   8.990  1.00  0.00     0.134 A 
ATOM     70  C   UNL     1       9.621  -8.912   9.171  1.00  0.00     0.134 A 
ATOM     71  F   UNL     1      12.449 -11.136   8.698  1.00  0.00    -0.206 F 
ATOM     72  C   UNL     1      12.380  -8.931   9.501  1.00  0.00     0.040 A 
ATOM     73  C   UNL     1      10.271  -7.778   9.659  1.00  0.00     0.040 A 
ATOM     74  F   UNL     1       8.288  -8.867   9.033  1.00  0.00    -0.206 F 
ATOM     75  C   UNL     1      11.654  -7.789   9.836  1.00  0.00     0.006 A 
ENDBRANCH  47  68
BRANCH  59  76
ATOM     76  C   UNL     1       9.473 -16.376  11.609  1.00  0.00     0.057 A 
ATOM     77  C   UNL     1       8.936 -16.015  12.851  1.00  0.00     0.134 A 
ATOM     78  C   UNL     1      10.488 -17.341  11.598  1.00  0.00     0.134 A 
ATOM     79  F   UNL     1       7.971 -15.086  12.930  1.00  0.00    -0.206 F 
ATOM     80  C   UNL     1       9.416 -16.566  14.040  1.00  0.00     0.040 A 
ATOM     81  C   UNL     1      10.958 -17.918  12.777  1.00  0.00     0.040 A 
ATOM     82  F   UNL     1      11.039 -17.738  10.440  1.00  0.00    -0.206 F 
ATOM     83  C   UNL     1      10.428 -17.524  14.004  1.00  0.00     0.006 A 
ENDBRANCH  59  76
ENDBRANCH  33  34
ENDBRANCH  25  28
ENDBRANCH  23  24
ENDBRANCH  22  23
ENDBRANCH  21  22
ENDBRANCH   1  21
TORSDOF 16
