REMARK SMILES CCC[C@@](C)(NC(=O)N1CCN(C)C(=O)C1(C)C)C(=O)NCCCCCCNC(=O)c1ccc(-c2c3nc(c(-c4c(F)cccc4F)c4ccc([nH]4)c(-c4c(F)cccc4F)c4nc(c(-c5c(F)cccc5F)c5ccc2[nH]5)C=C4)C=C3)cc1
REMARK SMILES IDX 24 1 23 2 22 3 21 4 19 5 20 6 4 8 5 9 3 10 2 11 1 12 6 13
REMARK SMILES IDX 7 14 8 16 9 17 10 18 16 19 11 20 14 21 17 22 18 23 12 24
REMARK SMILES IDX 15 25 13 26 25 27 26 28 27 29 28 30 29 31 30 33 31 34 32 35
REMARK SMILES IDX 84 36 33 37 83 38 34 39 35 40 36 41 77 42 37 43 82 44 76 45
REMARK SMILES IDX 78 46 38 47 81 48 75 49 74 50 39 52 65 53 48 54 64 55 49 56
REMARK SMILES IDX 52 57 63 58 79 59 50 60 51 61 62 63 80 64 53 65 40 66 41 67
REMARK SMILES IDX 46 68 42 69 43 70 45 71 47 72 44 73 66 74 67 75 72 76 68 77
REMARK SMILES IDX 69 78 71 79 73 80 70 81 54 82 55 83 60 84 56 85 57 86 59 87
REMARK SMILES IDX 61 88 58 89
REMARK H PARENT 21 7 6 15 28 32 78 51 52 62
REMARK Flexibility Score: inf
ROOT
ATOM      1  C   UNL     1      -0.717  -0.704  -6.903  1.00  0.00     0.002 C 
ENDROOT
BRANCH   1   2
ATOM      2  C   UNL     1      -1.555   0.207  -5.978  1.00  0.00     0.021 C 
BRANCH   2   3
ATOM      3  C   UNL     1      -1.880  -0.059  -4.461  1.00  0.00     0.116 C 
BRANCH   3   4
ATOM      4  N   UNL     1      -0.813  -0.325  -3.443  1.00  0.00    -0.354 N 
ATOM      5  C   UNL     1      -0.575   0.295  -2.215  1.00  0.00     0.245 C 
ATOM      6  O   UNL     1      -1.296  -0.135  -1.300  1.00  0.00    -0.272 OA
ATOM      7  H   UNL     1      -0.185  -1.047  -3.676  1.00  0.00     0.163 HD
BRANCH   5   8
ATOM      8  C   UNL     1       0.438   1.602  -1.918  1.00  0.00     0.117 C 
ATOM      9  C   UNL     1      -0.617   2.748  -2.003  1.00  0.00     0.045 C 
BRANCH   8  10
ATOM     10  C   UNL     1       1.033   1.599  -0.461  1.00  0.00     0.038 C 
BRANCH  10  11
ATOM     11  C   UNL     1       0.210   1.269   0.785  1.00  0.00    -0.000 C 
ATOM     12  C   UNL     1       0.594  -0.080   1.383  1.00  0.00     0.004 C 
ENDBRANCH  10  11
ENDBRANCH   8  10
BRANCH   8  13
ATOM     13  N   UNL     1       1.673   2.179  -2.705  1.00  0.00    -0.324 N 
ATOM     14  C   UNL     1       2.964   1.778  -3.030  1.00  0.00     0.319 C 
ATOM     15  H   UNL     1       1.477   3.072  -3.068  1.00  0.00     0.166 HD
ATOM     16  O   UNL     1       3.894   2.547  -2.793  1.00  0.00    -0.249 OA
BRANCH  14  17
ATOM     17  N   UNL     1       3.133   0.655  -3.831  1.00  0.00    -0.309 N 
ATOM     18  C   UNL     1       4.390   0.165  -4.323  1.00  0.00     0.144 C 
ATOM     19  C   UNL     1       1.997  -0.172  -4.101  1.00  0.00     0.118 C 
ATOM     20  C   UNL     1       4.724  -1.088  -3.525  1.00  0.00     0.140 C 
ATOM     21  C   UNL     1       2.275  -1.002  -2.755  1.00  0.00     0.247 C 
ATOM     22  C   UNL     1       1.205   0.893  -4.901  1.00  0.00     0.045 C 
ATOM     23  C   UNL     1       1.852  -1.458  -4.970  1.00  0.00     0.045 C 
ATOM     24  N   UNL     1       3.557  -1.686  -2.837  1.00  0.00    -0.342 N 
ATOM     25  O   UNL     1       1.433  -1.359  -1.937  1.00  0.00    -0.272 OA
ATOM     26  C   UNL     1       3.609  -3.113  -2.570  1.00  0.00     0.146 C 
ENDBRANCH  14  17
ENDBRANCH   8  13
ENDBRANCH   5   8
ENDBRANCH   3   4
ENDBRANCH   2   3
ENDBRANCH   1   2
BRANCH   1  27
ATOM     27  C   UNL     1      -1.131  -2.155  -7.098  1.00  0.00     0.002 C 
BRANCH  27  28
ATOM     28  C   UNL     1      -2.089  -2.312  -8.266  1.00  0.00     0.021 C 
BRANCH  28  29
ATOM     29  C   UNL     1      -1.478  -1.957  -9.618  1.00  0.00     0.116 C 
BRANCH  29  30
ATOM     30  N   UNL     1      -0.528  -2.948 -10.104  1.00  0.00    -0.352 N 
ATOM     31  C   UNL     1      -0.413  -3.402 -11.413  1.00  0.00     0.251 C 
ATOM     32  H   UNL     1       0.092  -3.332  -9.443  1.00  0.00     0.163 HD
ATOM     33  O   UNL     1       0.311  -4.287 -11.743  1.00  0.00    -0.269 OA
BRANCH  31  34
ATOM     34  C   UNL     1      -1.274  -2.688 -12.385  1.00  0.00     0.039 A 
ATOM     35  C   UNL     1      -2.443  -3.304 -12.833  1.00  0.00     0.014 A 
ATOM     36  C   UNL     1      -1.036  -1.326 -12.584  1.00  0.00     0.014 A 
ATOM     37  C   UNL     1      -3.416  -2.524 -13.457  1.00  0.00     0.010 A 
ATOM     38  C   UNL     1      -2.041  -0.543 -13.129  1.00  0.00     0.010 A 
ATOM     39  C   UNL     1      -3.235  -1.135 -13.578  1.00  0.00    -0.014 A 
BRANCH  39  40
ATOM     40  C   UNL     1      -4.263  -0.276 -14.210  1.00  0.00     0.031 A 
ATOM     41  C   UNL     1      -3.918   0.449 -15.480  1.00  0.00     0.074 A 
ATOM     42  C   UNL     1      -5.459  -0.095 -13.617  1.00  0.00     0.049 A 
ATOM     43  N   UNL     1      -4.628   1.308 -16.162  1.00  0.00    -0.248 NA
ATOM     44  C   UNL     1      -2.576   0.204 -16.036  1.00  0.00     0.031 C 
ATOM     45  C   UNL     1      -5.881  -0.697 -12.350  1.00  0.00     0.029 A 
ATOM     46  N   UNL     1      -6.539   0.659 -14.000  1.00  0.00    -0.354 N 
ATOM     47  C   UNL     1      -3.812   1.718 -17.208  1.00  0.00     0.074 A 
ATOM     48  C   UNL     1      -2.532   1.072 -17.033  1.00  0.00     0.031 C 
ATOM     49  C   UNL     1      -7.138  -0.310 -12.076  1.00  0.00     0.029 A 
ATOM     50  C   UNL     1      -7.599   0.590 -13.128  1.00  0.00     0.049 A 
ATOM     51  H   UNL     1      -6.553   1.200 -14.823  1.00  0.00     0.167 HD
ATOM     52  C   UNL     1      -4.115   2.532 -18.245  1.00  0.00     0.037 A 
ATOM     53  C   UNL     1      -8.805   1.189 -13.179  1.00  0.00     0.037 A 
ATOM     54  C   UNL     1      -5.405   3.135 -18.434  1.00  0.00     0.049 A 
ATOM     55  C   UNL     1      -9.122   2.083 -14.348  1.00  0.00     0.074 A 
ATOM     56  C   UNL     1      -5.847   3.912 -19.488  1.00  0.00     0.029 A 
ATOM     57  N   UNL     1      -6.462   3.021 -17.544  1.00  0.00    -0.354 N 
ATOM     58  N   UNL     1      -8.370   2.396 -15.376  1.00  0.00    -0.248 NA
ATOM     59  C   UNL     1     -10.454   2.703 -14.367  1.00  0.00     0.031 C 
ATOM     60  C   UNL     1      -7.161   4.305 -19.215  1.00  0.00     0.029 A 
ATOM     61  C   UNL     1      -7.550   3.736 -18.012  1.00  0.00     0.049 A 
ATOM     62  H   UNL     1      -6.441   2.509 -16.703  1.00  0.00     0.167 HD
ATOM     63  C   UNL     1      -9.143   3.231 -16.173  1.00  0.00     0.074 A 
ATOM     64  C   UNL     1     -10.429   3.358 -15.519  1.00  0.00     0.031 C 
ATOM     65  C   UNL     1      -8.819   3.842 -17.339  1.00  0.00     0.037 A 
BRANCH  52  66
ATOM     66  C   UNL     1      -3.035   2.798 -19.252  1.00  0.00     0.057 A 
ATOM     67  C   UNL     1      -2.575   1.800 -20.123  1.00  0.00     0.134 A 
ATOM     68  C   UNL     1      -2.457   4.067 -19.363  1.00  0.00     0.134 A 
ATOM     69  F   UNL     1      -3.075   0.556 -20.056  1.00  0.00    -0.206 F 
ATOM     70  C   UNL     1      -1.560   2.048 -21.047  1.00  0.00     0.040 A 
ATOM     71  C   UNL     1      -1.460   4.335 -20.303  1.00  0.00     0.040 A 
ATOM     72  F   UNL     1      -2.849   5.068 -18.560  1.00  0.00    -0.206 F 
ATOM     73  C   UNL     1      -1.004   3.322 -21.144  1.00  0.00     0.006 A 
ENDBRANCH  52  66
BRANCH  53  74
ATOM     74  C   UNL     1      -9.809   0.948 -12.111  1.00  0.00     0.057 A 
ATOM     75  C   UNL     1     -10.976   0.217 -12.367  1.00  0.00     0.134 A 
ATOM     76  C   UNL     1      -9.639   1.452 -10.815  1.00  0.00     0.134 A 
ATOM     77  F   UNL     1     -11.206  -0.276 -13.593  1.00  0.00    -0.206 F 
ATOM     78  C   UNL     1     -11.945   0.013 -11.383  1.00  0.00     0.040 A 
ATOM     79  C   UNL     1     -10.588   1.235  -9.814  1.00  0.00     0.040 A 
ATOM     80  F   UNL     1      -8.541   2.155 -10.501  1.00  0.00    -0.206 F 
ATOM     81  C   UNL     1     -11.750   0.520 -10.100  1.00  0.00     0.006 A 
ENDBRANCH  53  74
BRANCH  65  82
ATOM     82  C   UNL     1      -9.875   4.687 -17.985  1.00  0.00     0.057 A 
ATOM     83  C   UNL     1     -10.235   5.937 -17.467  1.00  0.00     0.134 A 
ATOM     84  C   UNL     1     -10.498   4.270 -19.169  1.00  0.00     0.134 A 
ATOM     85  F   UNL     1      -9.683   6.386 -16.330  1.00  0.00    -0.206 F 
ATOM     86  C   UNL     1     -11.191   6.736 -18.094  1.00  0.00     0.040 A 
ATOM     87  C   UNL     1     -11.435   5.072 -19.820  1.00  0.00     0.040 A 
ATOM     88  F   UNL     1     -10.188   3.088 -19.722  1.00  0.00    -0.206 F 
ATOM     89  C   UNL     1     -11.788   6.307 -19.279  1.00  0.00     0.006 A 
ENDBRANCH  65  82
ENDBRANCH  39  40
ENDBRANCH  31  34
ENDBRANCH  29  30
ENDBRANCH  28  29
ENDBRANCH  27  28
ENDBRANCH   1  27
TORSDOF 17
