REMARK SMILES COc1cc2c(CC(=O)NCCCCCCNC(=O)c3ccc(-c4c5nc(c(-c6c(F)cccc6F)c6ccc([nH]6)c(-c6c(F)cccc6F)c6nc(c(-c7c(F)cccc7F)c7ccc4[nH]7)C=C6)C=C5)cc3)c(C)n(C(=O)c3ccc(Cl)cc3)c2cc1Cl
REMARK SMILES IDX 13 1 12 2 11 3 10 4 8 5 9 6 7 8 6 9 3 10 4 11 88 12 5 13
REMARK SMILES IDX 87 14 89 15 86 16 74 17 76 18 75 19 2 20 1 21 77 22 78 23
REMARK SMILES IDX 79 24 80 25 85 26 81 27 84 28 82 29 83 30 14 31 15 32 16 33
REMARK SMILES IDX 17 34 18 35 19 37 20 38 21 39 73 40 22 41 72 42 23 43 24 44
REMARK SMILES IDX 25 45 66 46 26 47 71 48 65 49 67 50 27 51 70 52 64 53 63 54
REMARK SMILES IDX 28 56 54 57 37 58 53 59 38 60 41 61 52 62 68 63 39 64 40 65
REMARK SMILES IDX 51 67 69 68 42 69 29 70 30 71 35 72 31 73 32 74 34 75 36 76
REMARK SMILES IDX 33 77 55 78 56 79 61 80 57 81 58 82 60 83 62 84 59 85 43 86
REMARK SMILES IDX 44 87 49 88 45 89 46 90 48 91 50 92 47 93
REMARK H PARENT 10 7 17 36 67 55 41 66
REMARK Flexibility Score: inf
ROOT
ATOM      1  C   UNL     1       0.710  -1.300   8.121  1.00  0.00     0.002 C 
ENDROOT
BRANCH   1   2
ATOM      2  C   UNL     1       0.625  -2.556   7.245  1.00  0.00     0.021 C 
BRANCH   2   3
ATOM      3  C   UNL     1      -0.757  -3.208   7.244  1.00  0.00     0.116 C 
BRANCH   3   4
ATOM      4  N   UNL     1      -1.696  -2.448   6.443  1.00  0.00    -0.356 N 
ATOM      5  C   UNL     1      -2.190  -2.737   5.203  1.00  0.00     0.224 C 
ATOM      6  O   UNL     1      -2.935  -1.916   4.664  1.00  0.00    -0.275 OA
ATOM      7  H   UNL     1      -2.021  -1.612   6.847  1.00  0.00     0.163 HD
BRANCH   5   8
ATOM      8  C   UNL     1      -1.876  -4.071   4.546  1.00  0.00     0.138 C 
BRANCH   8   9
ATOM      9  C   UNL     1      -0.438  -4.233   4.132  1.00  0.00    -0.009 A 
ATOM     10  C   UNL     1       0.940  -1.500   1.819  1.00  0.00     0.138 A 
ATOM     11  C   UNL     1       0.002  -2.133   2.647  1.00  0.00     0.058 A 
ATOM     12  C   UNL     1       2.174  -2.105   1.600  1.00  0.00     0.085 A 
ATOM     13  C   UNL     1       0.305  -3.356   3.290  1.00  0.00     0.008 A 
ATOM     14  C   UNL     1       2.474  -3.338   2.193  1.00  0.00     0.051 A 
ATOM     15  Cl  UNL     1       3.454  -1.373   0.696  1.00  0.00    -0.080 Cl
ATOM     16  C   UNL     1       1.567  -3.925   3.099  1.00  0.00     0.058 A 
ATOM     17  C   UNL     1       0.394  -5.303   4.444  1.00  0.00     0.028 A 
ATOM     18  N   UNL     1       1.681  -5.016   3.974  1.00  0.00    -0.280 N 
ATOM     19  C   UNL     1       0.041  -6.546   5.200  1.00  0.00     0.065 C 
BRANCH  10  20
ATOM     20  O   UNL     1       0.555  -0.265   1.366  1.00  0.00    -0.495 OA
ATOM     21  C   UNL     1       0.701  -0.063  -0.036  1.00  0.00     0.278 C 
ENDBRANCH  10  20
BRANCH  18  22
ATOM     22  C   UNL     1       2.883  -5.687   4.354  1.00  0.00     0.262 C 
ATOM     23  O   UNL     1       2.833  -6.576   5.193  1.00  0.00    -0.268 OA
BRANCH  22  24
ATOM     24  C   UNL     1       4.223  -5.370   3.825  1.00  0.00     0.040 A 
ATOM     25  C   UNL     1       4.861  -4.171   4.167  1.00  0.00     0.015 A 
ATOM     26  C   UNL     1       4.812  -6.268   2.928  1.00  0.00     0.015 A 
ATOM     27  C   UNL     1       6.062  -3.834   3.538  1.00  0.00     0.021 A 
ATOM     28  C   UNL     1       6.017  -5.928   2.311  1.00  0.00     0.021 A 
ATOM     29  C   UNL     1       6.626  -4.707   2.604  1.00  0.00     0.041 A 
ATOM     30  Cl  UNL     1       8.074  -4.262   1.789  1.00  0.00    -0.084 Cl
ENDBRANCH  22  24
ENDBRANCH  18  22
ENDBRANCH   8   9
ENDBRANCH   5   8
ENDBRANCH   3   4
ENDBRANCH   2   3
ENDBRANCH   1   2
BRANCH   1  31
ATOM     31  C   UNL     1       0.485  -1.540   9.618  1.00  0.00     0.002 C 
BRANCH  31  32
ATOM     32  C   UNL     1       1.416  -2.571  10.263  1.00  0.00     0.021 C 
BRANCH  32  33
ATOM     33  C   UNL     1       2.908  -2.272  10.094  1.00  0.00     0.116 C 
BRANCH  33  34
ATOM     34  N   UNL     1       3.299  -0.971  10.594  1.00  0.00    -0.352 N 
ATOM     35  C   UNL     1       3.588  -0.457  11.828  1.00  0.00     0.251 C 
ATOM     36  H   UNL     1       3.375  -0.298   9.879  1.00  0.00     0.163 HD
ATOM     37  O   UNL     1       3.950   0.722  11.853  1.00  0.00    -0.269 OA
BRANCH  35  38
ATOM     38  C   UNL     1       3.456  -1.190  13.118  1.00  0.00     0.039 A 
ATOM     39  C   UNL     1       3.133  -2.538  13.259  1.00  0.00     0.014 A 
ATOM     40  C   UNL     1       3.652  -0.428  14.287  1.00  0.00     0.014 A 
ATOM     41  C   UNL     1       2.927  -3.090  14.520  1.00  0.00     0.010 A 
ATOM     42  C   UNL     1       3.478  -0.982  15.553  1.00  0.00     0.010 A 
ATOM     43  C   UNL     1       3.075  -2.308  15.668  1.00  0.00    -0.014 A 
BRANCH  43  44
ATOM     44  C   UNL     1       2.871  -2.966  16.958  1.00  0.00     0.031 A 
ATOM     45  C   UNL     1       3.780  -4.110  17.242  1.00  0.00     0.074 A 
ATOM     46  C   UNL     1       1.986  -2.555  17.887  1.00  0.00     0.049 A 
ATOM     47  N   UNL     1       3.465  -5.352  17.420  1.00  0.00    -0.248 NA
ATOM     48  C   UNL     1       5.226  -3.850  17.255  1.00  0.00     0.031 C 
ATOM     49  C   UNL     1       1.229  -1.302  17.897  1.00  0.00     0.029 A 
ATOM     50  N   UNL     1       1.638  -3.144  19.074  1.00  0.00    -0.354 N 
ATOM     51  C   UNL     1       4.652  -6.005  17.750  1.00  0.00     0.074 A 
ATOM     52  C   UNL     1       5.715  -5.064  17.511  1.00  0.00     0.031 C 
ATOM     53  C   UNL     1       0.676  -1.127  19.116  1.00  0.00     0.029 A 
ATOM     54  C   UNL     1       0.913  -2.318  19.917  1.00  0.00     0.049 A 
ATOM     55  H   UNL     1       1.881  -4.070  19.306  1.00  0.00     0.167 HD
ATOM     56  C   UNL     1       4.642  -7.191  18.416  1.00  0.00     0.037 A 
ATOM     57  C   UNL     1       0.540  -2.560  21.195  1.00  0.00     0.037 A 
ATOM     58  C   UNL     1       3.344  -7.810  18.378  1.00  0.00     0.049 A 
ATOM     59  C   UNL     1       0.538  -4.019  21.429  1.00  0.00     0.074 A 
ATOM     60  C   UNL     1       2.591  -8.536  17.484  1.00  0.00     0.029 A 
ATOM     61  N   UNL     1       2.517  -7.433  19.398  1.00  0.00    -0.354 N 
ATOM     62  N   UNL     1      -0.321  -4.840  20.894  1.00  0.00    -0.248 NA
ATOM     63  C   UNL     1       1.683  -4.653  22.076  1.00  0.00     0.031 C 
ATOM     64  C   UNL     1       1.235  -8.413  17.914  1.00  0.00     0.029 A 
ATOM     65  C   UNL     1       1.206  -7.614  19.055  1.00  0.00     0.049 A 
ATOM     66  H   UNL     1       2.824  -7.080  20.265  1.00  0.00     0.167 HD
ATOM     67  C   UNL     1       0.376  -6.023  20.759  1.00  0.00     0.074 A 
ATOM     68  C   UNL     1       1.506  -5.912  21.668  1.00  0.00     0.031 C 
ATOM     69  C   UNL     1       0.166  -6.835  19.685  1.00  0.00     0.037 A 
BRANCH  56  70
ATOM     70  C   UNL     1       5.628  -7.582  19.501  1.00  0.00     0.057 A 
ATOM     71  C   UNL     1       6.398  -6.660  20.235  1.00  0.00     0.134 A 
ATOM     72  C   UNL     1       5.533  -8.868  20.073  1.00  0.00     0.134 A 
ATOM     73  F   UNL     1       6.537  -5.383  19.861  1.00  0.00    -0.206 F 
ATOM     74  C   UNL     1       6.986  -6.974  21.466  1.00  0.00     0.040 A 
ATOM     75  C   UNL     1       6.077  -9.177  21.327  1.00  0.00     0.040 A 
ATOM     76  F   UNL     1       4.831  -9.840  19.472  1.00  0.00    -0.206 F 
ATOM     77  C   UNL     1       6.795  -8.223  22.035  1.00  0.00     0.006 A 
ENDBRANCH  56  70
BRANCH  57  78
ATOM     78  C   UNL     1       0.303  -1.589  22.280  1.00  0.00     0.057 A 
ATOM     79  C   UNL     1       1.077  -0.419  22.380  1.00  0.00     0.134 A 
ATOM     80  C   UNL     1      -0.509  -1.892  23.379  1.00  0.00     0.134 A 
ATOM     81  F   UNL     1       1.945  -0.082  21.415  1.00  0.00    -0.206 F 
ATOM     82  C   UNL     1       1.050   0.400  23.511  1.00  0.00     0.040 A 
ATOM     83  C   UNL     1      -0.540  -1.085  24.523  1.00  0.00     0.040 A 
ATOM     84  F   UNL     1      -1.252  -3.008  23.391  1.00  0.00    -0.206 F 
ATOM     85  C   UNL     1       0.248   0.061  24.594  1.00  0.00     0.006 A 
ENDBRANCH  57  78
BRANCH  69  86
ATOM     86  C   UNL     1      -1.157  -6.722  18.998  1.00  0.00     0.057 A 
ATOM     87  C   UNL     1      -2.021  -7.821  19.028  1.00  0.00     0.134 A 
ATOM     88  C   UNL     1      -1.575  -5.594  18.282  1.00  0.00     0.134 A 
ATOM     89  F   UNL     1      -1.659  -8.950  19.657  1.00  0.00    -0.206 F 
ATOM     90  C   UNL     1      -3.263  -7.795  18.393  1.00  0.00     0.040 A 
ATOM     91  C   UNL     1      -2.830  -5.543  17.670  1.00  0.00     0.040 A 
ATOM     92  F   UNL     1      -0.773  -4.530  18.133  1.00  0.00    -0.206 F 
ATOM     93  C   UNL     1      -3.678  -6.646  17.724  1.00  0.00     0.006 A 
ENDBRANCH  69  86
ENDBRANCH  43  44
ENDBRANCH  35  38
ENDBRANCH  33  34
ENDBRANCH  32  33
ENDBRANCH  31  32
ENDBRANCH   1  31
TORSDOF 17
