REMARK SMILES C[C@@H](C(=O)NCCCCCCNC(=O)c1ccc(-c2c3nc(c(-c4c(F)cccc4F)c4ccc([nH]4)c(-c4c(F)cccc4F)c4nc(c(-c5c(F)cccc5F)c5ccc2[nH]5)C=C4)C=C3)cc1)c1cccn(C(F)F)c1=O
REMARK SMILES IDX 8 1 7 2 6 3 5 4 3 5 4 6 2 8 1 9 69 10 70 11 77 12 71 13
REMARK SMILES IDX 73 14 78 15 72 16 74 17 75 18 76 19 9 20 10 21 11 22 12 23
REMARK SMILES IDX 13 24 14 26 15 27 16 28 68 29 17 30 67 31 18 32 19 33 20 34
REMARK SMILES IDX 61 35 21 36 66 37 60 38 62 39 22 40 65 41 59 42 58 43 23 45
REMARK SMILES IDX 49 46 32 47 48 48 33 49 36 50 47 51 63 52 34 53 35 54 46 56
REMARK SMILES IDX 64 57 37 58 24 59 25 60 30 61 26 62 27 63 29 64 31 65 28 66
REMARK SMILES IDX 50 67 51 68 56 69 52 70 53 71 55 72 57 73 54 74 38 75 39 76
REMARK SMILES IDX 44 77 40 78 41 79 43 80 45 81 42 82
REMARK H PARENT 5 7 12 25 62 44 36 55
REMARK Flexibility Score: inf
ROOT
ATOM      1  C   UNL     1       4.978  -2.465   1.505  1.00  0.00     0.002 C 
ENDROOT
BRANCH   1   2
ATOM      2  C   UNL     1       4.254  -1.340   0.753  1.00  0.00     0.021 C 
BRANCH   2   3
ATOM      3  C   UNL     1       3.391  -1.817  -0.422  1.00  0.00     0.116 C 
BRANCH   3   4
ATOM      4  N   UNL     1       2.307  -2.650   0.059  1.00  0.00    -0.356 N 
ATOM      5  C   UNL     1       1.010  -2.314   0.321  1.00  0.00     0.227 C 
ATOM      6  O   UNL     1       0.406  -3.044   1.109  1.00  0.00    -0.274 OA
ATOM      7  H   UNL     1       2.540  -3.593   0.222  1.00  0.00     0.163 HD
BRANCH   5   8
ATOM      8  C   UNL     1       0.378  -1.077  -0.363  1.00  0.00     0.111 C 
ATOM      9  C   UNL     1       0.835   0.164   0.419  1.00  0.00     0.023 C 
BRANCH   8  10
ATOM     10  C   UNL     1      -1.143  -1.191  -0.513  1.00  0.00     0.030 A 
ATOM     11  C   UNL     1      -1.834  -2.350  -0.531  1.00  0.00     0.012 A 
ATOM     12  C   UNL     1      -1.953   0.078  -0.662  1.00  0.00     0.258 A 
ATOM     13  C   UNL     1      -3.273  -2.395  -0.519  1.00  0.00     0.019 A 
ATOM     14  N   UNL     1      -3.328  -0.042  -0.556  1.00  0.00    -0.258 N 
ATOM     15  O   UNL     1      -1.402   1.156  -0.870  1.00  0.00    -0.269 OA
ATOM     16  C   UNL     1      -3.971  -1.259  -0.494  1.00  0.00     0.095 A 
BRANCH  14  17
ATOM     17  C   UNL     1      -4.109   1.169  -0.567  1.00  0.00     0.451 C 
ATOM     18  F   UNL     1      -4.949   1.159  -1.637  1.00  0.00    -0.185 F 
ATOM     19  F   UNL     1      -4.904   1.207   0.537  1.00  0.00    -0.185 F 
ENDBRANCH  14  17
ENDBRANCH   8  10
ENDBRANCH   5   8
ENDBRANCH   3   4
ENDBRANCH   2   3
ENDBRANCH   1   2
BRANCH   1  20
ATOM     20  C   UNL     1       5.933  -3.300   0.650  1.00  0.00     0.002 C 
BRANCH  20  21
ATOM     21  C   UNL     1       6.984  -2.488  -0.107  1.00  0.00     0.021 C 
BRANCH  21  22
ATOM     22  C   UNL     1       7.881  -1.642   0.787  1.00  0.00     0.116 C 
BRANCH  22  23
ATOM     23  N   UNL     1       8.736  -2.461   1.634  1.00  0.00    -0.352 N 
ATOM     24  C   UNL     1      10.102  -2.416   1.764  1.00  0.00     0.251 C 
ATOM     25  H   UNL     1       8.275  -3.135   2.184  1.00  0.00     0.163 HD
ATOM     26  O   UNL     1      10.707  -3.297   2.365  1.00  0.00    -0.269 OA
BRANCH  24  27
ATOM     27  C   UNL     1      10.839  -1.293   1.153  1.00  0.00     0.039 A 
ATOM     28  C   UNL     1      11.956  -1.557   0.356  1.00  0.00     0.014 A 
ATOM     29  C   UNL     1      10.396   0.019   1.346  1.00  0.00     0.014 A 
ATOM     30  C   UNL     1      12.598  -0.503  -0.297  1.00  0.00     0.010 A 
ATOM     31  C   UNL     1      10.987   1.053   0.633  1.00  0.00     0.010 A 
ATOM     32  C   UNL     1      12.100   0.804  -0.187  1.00  0.00    -0.014 A 
BRANCH  32  33
ATOM     33  C   UNL     1      12.734   1.950  -0.883  1.00  0.00     0.031 A 
ATOM     34  C   UNL     1      13.319   3.071  -0.072  1.00  0.00     0.074 A 
ATOM     35  C   UNL     1      12.688   2.038  -2.226  1.00  0.00     0.049 A 
ATOM     36  N   UNL     1      13.759   4.238  -0.464  1.00  0.00    -0.248 NA
ATOM     37  C   UNL     1      13.376   2.863   1.384  1.00  0.00     0.031 C 
ATOM     38  C   UNL     1      12.120   1.031  -3.122  1.00  0.00     0.029 A 
ATOM     39  N   UNL     1      13.104   3.038  -3.068  1.00  0.00    -0.354 N 
ATOM     40  C   UNL     1      14.116   4.913   0.697  1.00  0.00     0.074 A 
ATOM     41  C   UNL     1      13.789   4.046   1.808  1.00  0.00     0.031 C 
ATOM     42  C   UNL     1      12.226   1.463  -4.389  1.00  0.00     0.029 A 
ATOM     43  C   UNL     1      12.825   2.795  -4.390  1.00  0.00     0.049 A 
ATOM     44  H   UNL     1      13.559   3.853  -2.754  1.00  0.00     0.167 HD
ATOM     45  C   UNL     1      14.680   6.137   0.824  1.00  0.00     0.037 A 
ATOM     46  C   UNL     1      13.009   3.568  -5.478  1.00  0.00     0.037 A 
ATOM     47  C   UNL     1      15.023   6.983  -0.289  1.00  0.00     0.049 A 
ATOM     48  C   UNL     1      13.629   4.928  -5.317  1.00  0.00     0.074 A 
ATOM     49  C   UNL     1      15.651   8.215  -0.274  1.00  0.00     0.029 A 
ATOM     50  N   UNL     1      14.759   6.682  -1.617  1.00  0.00    -0.354 N 
ATOM     51  N   UNL     1      14.012   5.537  -4.221  1.00  0.00    -0.248 NA
ATOM     52  C   UNL     1      13.848   5.709  -6.543  1.00  0.00     0.031 C 
ATOM     53  C   UNL     1      15.721   8.684  -1.589  1.00  0.00     0.029 A 
ATOM     54  C   UNL     1      15.192   7.716  -2.430  1.00  0.00     0.049 A 
ATOM     55  H   UNL     1      14.327   5.856  -1.935  1.00  0.00     0.167 HD
ATOM     56  C   UNL     1      14.550   6.752  -4.625  1.00  0.00     0.074 A 
ATOM     57  C   UNL     1      14.441   6.796  -6.069  1.00  0.00     0.031 C 
ATOM     58  C   UNL     1      15.093   7.737  -3.868  1.00  0.00     0.037 A 
BRANCH  45  59
ATOM     59  C   UNL     1      14.942   6.632   2.218  1.00  0.00     0.057 A 
ATOM     60  C   UNL     1      15.897   6.035   3.053  1.00  0.00     0.134 A 
ATOM     61  C   UNL     1      14.225   7.718   2.736  1.00  0.00     0.134 A 
ATOM     62  F   UNL     1      16.612   4.982   2.625  1.00  0.00    -0.206 F 
ATOM     63  C   UNL     1      16.096   6.469   4.365  1.00  0.00     0.040 A 
ATOM     64  C   UNL     1      14.439   8.183   4.034  1.00  0.00     0.040 A 
ATOM     65  F   UNL     1      13.301   8.343   1.990  1.00  0.00    -0.206 F 
ATOM     66  C   UNL     1      15.368   7.550   4.857  1.00  0.00     0.006 A 
ENDBRANCH  45  59
BRANCH  46  67
ATOM     67  C   UNL     1      12.617   3.057  -6.815  1.00  0.00     0.057 A 
ATOM     68  C   UNL     1      13.582   2.685  -7.757  1.00  0.00     0.134 A 
ATOM     69  C   UNL     1      11.272   2.901  -7.174  1.00  0.00     0.134 A 
ATOM     70  F   UNL     1      14.886   2.827  -7.477  1.00  0.00    -0.206 F 
ATOM     71  C   UNL     1      13.227   2.185  -9.011  1.00  0.00     0.040 A 
ATOM     72  C   UNL     1      10.902   2.380  -8.415  1.00  0.00     0.040 A 
ATOM     73  F   UNL     1      10.299   3.229  -6.312  1.00  0.00    -0.206 F 
ATOM     74  C   UNL     1      11.882   2.025  -9.339  1.00  0.00     0.006 A 
ENDBRANCH  46  67
BRANCH  58  75
ATOM     75  C   UNL     1      15.668   8.927  -4.580  1.00  0.00     0.057 A 
ATOM     76  C   UNL     1      14.859   9.904  -5.172  1.00  0.00     0.134 A 
ATOM     77  C   UNL     1      17.054   9.133  -4.601  1.00  0.00     0.134 A 
ATOM     78  F   UNL     1      13.526   9.761  -5.196  1.00  0.00    -0.206 F 
ATOM     79  C   UNL     1      15.410  11.041  -5.768  1.00  0.00     0.040 A 
ATOM     80  C   UNL     1      17.614  10.277  -5.170  1.00  0.00     0.040 A 
ATOM     81  F   UNL     1      17.884   8.238  -4.044  1.00  0.00    -0.206 F 
ATOM     82  C   UNL     1      16.791  11.235  -5.757  1.00  0.00     0.006 A 
ENDBRANCH  58  75
ENDBRANCH  32  33
ENDBRANCH  24  27
ENDBRANCH  22  23
ENDBRANCH  21  22
ENDBRANCH  20  21
ENDBRANCH   1  20
TORSDOF 15
