REMARK SMILES CCCCCCC(=O)N1C[C@@H](O)C[C@@H]1C(=O)NCCCCCCNC(=O)c1ccc(-c2c3nc(c(-c4c(F)cccc4F)c4ccc([nH]4)c(-c4c(F)cccc4F)c4nc(c(-c5c(F)cccc5F)c5ccc2[nH]5)C=C4)C=C3)cc1
REMARK SMILES IDX 18 1 17 2 15 3 16 4 14 6 9 7 10 8 11 9 13 10 7 11 8 12 6 13
REMARK SMILES IDX 5 14 4 15 3 16 2 17 1 18 12 19 19 21 20 22 21 23 22 24 23 25
REMARK SMILES IDX 24 26 25 27 26 29 27 30 28 31 80 32 29 33 79 34 30 35 31 36
REMARK SMILES IDX 32 37 73 38 33 39 78 40 72 41 74 42 34 43 77 44 71 45 70 46
REMARK SMILES IDX 35 48 61 49 44 50 60 51 45 52 48 53 59 54 75 55 46 56 47 57
REMARK SMILES IDX 58 59 76 60 49 61 36 62 37 63 42 64 38 65 39 66 41 67 43 68
REMARK SMILES IDX 40 69 62 70 63 71 68 72 64 73 65 74 67 75 69 76 66 77 50 78
REMARK SMILES IDX 51 79 56 80 52 81 53 82 55 83 57 84 54 85
REMARK H PARENT 17 5 12 20 24 28 74 47 48 58
REMARK Flexibility Score: inf
ROOT
ATOM      1  C   UNL     1       0.646  -5.197   1.143  1.00  0.00     0.116 C 
ENDROOT
BRANCH   1   2
ATOM      2  N   UNL     1       0.727  -6.386   1.956  1.00  0.00    -0.354 N 
ATOM      3  C   UNL     1       0.730  -6.522   3.316  1.00  0.00     0.242 C 
ATOM      4  O   UNL     1       0.710  -7.682   3.746  1.00  0.00    -0.273 OA
ATOM      5  H   UNL     1       0.789  -7.230   1.454  1.00  0.00     0.163 HD
BRANCH   3   6
ATOM      6  C   UNL     1       0.993  -5.345   4.296  1.00  0.00     0.177 C 
ATOM      7  N   UNL     1       0.570  -4.002   3.877  1.00  0.00    -0.328 N 
ATOM      8  C   UNL     1       1.708  -3.107   3.861  1.00  0.00     0.152 C 
ATOM      9  C   UNL     1       2.927  -4.014   3.747  1.00  0.00     0.136 C 
ATOM     10  C   UNL     1       2.507  -5.232   4.555  1.00  0.00     0.069 C 
BRANCH   7  11
ATOM     11  C   UNL     1      -0.754  -3.627   3.938  1.00  0.00     0.223 C 
ATOM     12  O   UNL     1      -1.530  -4.187   4.716  1.00  0.00    -0.275 OA
BRANCH  11  13
ATOM     13  C   UNL     1      -1.321  -2.728   2.830  1.00  0.00     0.100 C 
BRANCH  13  14
ATOM     14  C   UNL     1      -1.189  -1.209   2.826  1.00  0.00     0.010 C 
BRANCH  14  15
ATOM     15  C   UNL     1       0.112  -0.555   2.337  1.00  0.00     0.001 C 
BRANCH  15  16
ATOM     16  C   UNL     1       0.804  -1.179   1.114  1.00  0.00    -0.000 C 
BRANCH  16  17
ATOM     17  C   UNL     1       0.423  -0.599  -0.243  1.00  0.00    -0.003 C 
ATOM     18  C   UNL     1       1.058   0.760  -0.490  1.00  0.00     0.004 C 
ENDBRANCH  16  17
ENDBRANCH  15  16
ENDBRANCH  14  15
ENDBRANCH  13  14
ENDBRANCH  11  13
ENDBRANCH   7  11
BRANCH   9  19
ATOM     19  O   UNL     1       4.112  -3.414   4.234  1.00  0.00    -0.391 OA
ATOM     20  H   UNL     1       3.989  -3.160   5.162  1.00  0.00     0.211 HD
ENDBRANCH   9  19
ENDBRANCH   3   6
ENDBRANCH   1   2
BRANCH   1  21
ATOM     21  C   UNL     1       1.349  -5.304  -0.204  1.00  0.00     0.021 C 
BRANCH  21  22
ATOM     22  C   UNL     1       0.559  -6.036  -1.288  1.00  0.00     0.002 C 
BRANCH  22  23
ATOM     23  C   UNL     1      -0.842  -5.485  -1.586  1.00  0.00     0.002 C 
BRANCH  23  24
ATOM     24  C   UNL     1      -0.932  -3.983  -1.870  1.00  0.00     0.021 C 
BRANCH  24  25
ATOM     25  C   UNL     1      -0.046  -3.475  -3.003  1.00  0.00     0.116 C 
BRANCH  25  26
ATOM     26  N   UNL     1      -0.349  -4.108  -4.274  1.00  0.00    -0.352 N 
ATOM     27  C   UNL     1      -0.597  -3.536  -5.494  1.00  0.00     0.251 C 
ATOM     28  H   UNL     1      -0.381  -5.092  -4.257  1.00  0.00     0.163 HD
ATOM     29  O   UNL     1      -1.005  -4.229  -6.428  1.00  0.00    -0.269 OA
BRANCH  27  30
ATOM     30  C   UNL     1      -0.393  -2.086  -5.696  1.00  0.00     0.039 A 
ATOM     31  C   UNL     1      -1.356  -1.359  -6.403  1.00  0.00     0.014 A 
ATOM     32  C   UNL     1       0.757  -1.449  -5.222  1.00  0.00     0.014 A 
ATOM     33  C   UNL     1      -1.188   0.014  -6.596  1.00  0.00     0.010 A 
ATOM     34  C   UNL     1       0.891  -0.070  -5.357  1.00  0.00     0.010 A 
ATOM     35  C   UNL     1      -0.074   0.674  -6.055  1.00  0.00    -0.014 A 
BRANCH  35  36
ATOM     36  C   UNL     1       0.127   2.135  -6.231  1.00  0.00     0.031 A 
ATOM     37  C   UNL     1       1.307   2.635  -7.018  1.00  0.00     0.074 A 
ATOM     38  C   UNL     1      -0.700   3.008  -5.626  1.00  0.00     0.049 A 
ATOM     39  N   UNL     1       1.738   3.861  -7.179  1.00  0.00    -0.248 NA
ATOM     40  C   UNL     1       2.128   1.617  -7.692  1.00  0.00     0.031 C 
ATOM     41  C   UNL     1      -1.869   2.651  -4.822  1.00  0.00     0.029 A 
ATOM     42  N   UNL     1      -0.672   4.380  -5.580  1.00  0.00    -0.354 N 
ATOM     43  C   UNL     1       2.888   3.758  -7.952  1.00  0.00     0.074 A 
ATOM     44  C   UNL     1       3.115   2.349  -8.187  1.00  0.00     0.031 C 
ATOM     45  C   UNL     1      -2.450   3.773  -4.369  1.00  0.00     0.029 A 
ATOM     46  C   UNL     1      -1.672   4.926  -4.812  1.00  0.00     0.049 A 
ATOM     47  H   UNL     1       0.001   4.921  -6.053  1.00  0.00     0.167 HD
ATOM     48  C   UNL     1       3.673   4.749  -8.436  1.00  0.00     0.037 A 
ATOM     49  C   UNL     1      -1.921   6.209  -4.486  1.00  0.00     0.037 A 
ATOM     50  C   UNL     1       3.430   6.151  -8.218  1.00  0.00     0.049 A 
ATOM     51  C   UNL     1      -1.018   7.292  -5.014  1.00  0.00     0.074 A 
ATOM     52  C   UNL     1       4.142   7.234  -8.702  1.00  0.00     0.029 A 
ATOM     53  N   UNL     1       2.394   6.663  -7.452  1.00  0.00    -0.354 N 
ATOM     54  N   UNL     1       0.041   7.185  -5.779  1.00  0.00    -0.248 NA
ATOM     55  C   UNL     1      -1.347   8.674  -4.637  1.00  0.00     0.031 C 
ATOM     56  C   UNL     1       3.566   8.400  -8.189  1.00  0.00     0.029 A 
ATOM     57  C   UNL     1       2.459   8.046  -7.434  1.00  0.00     0.049 A 
ATOM     58  H   UNL     1       1.713   6.123  -6.989  1.00  0.00     0.167 HD
ATOM     59  C   UNL     1       0.477   8.484  -6.010  1.00  0.00     0.074 A 
ATOM     60  C   UNL     1      -0.430   9.362  -5.303  1.00  0.00     0.031 C 
ATOM     61  C   UNL     1       1.532   8.909  -6.748  1.00  0.00     0.037 A 
BRANCH  48  62
ATOM     62  C   UNL     1       4.874   4.352  -9.245  1.00  0.00     0.057 A 
ATOM     63  C   UNL     1       4.754   3.788 -10.523  1.00  0.00     0.134 A 
ATOM     64  C   UNL     1       6.169   4.567  -8.755  1.00  0.00     0.134 A 
ATOM     65  F   UNL     1       3.543   3.546 -11.048  1.00  0.00    -0.206 F 
ATOM     66  C   UNL     1       5.876   3.426 -11.270  1.00  0.00     0.040 A 
ATOM     67  C   UNL     1       7.298   4.238  -9.506  1.00  0.00     0.040 A 
ATOM     68  F   UNL     1       6.358   5.110  -7.543  1.00  0.00    -0.206 F 
ATOM     69  C   UNL     1       7.153   3.658 -10.765  1.00  0.00     0.006 A 
ENDBRANCH  48  62
BRANCH  49  70
ATOM     70  C   UNL     1      -3.083   6.547  -3.625  1.00  0.00     0.057 A 
ATOM     71  C   UNL     1      -4.188   7.234  -4.140  1.00  0.00     0.134 A 
ATOM     72  C   UNL     1      -3.114   6.203  -2.268  1.00  0.00     0.134 A 
ATOM     73  F   UNL     1      -4.209   7.607  -5.429  1.00  0.00    -0.206 F 
ATOM     74  C   UNL     1      -5.271   7.588  -3.335  1.00  0.00     0.040 A 
ATOM     75  C   UNL     1      -4.203   6.527  -1.456  1.00  0.00     0.040 A 
ATOM     76  F   UNL     1      -2.091   5.536  -1.713  1.00  0.00    -0.206 F 
ATOM     77  C   UNL     1      -5.283   7.229  -1.988  1.00  0.00     0.006 A 
ENDBRANCH  49  70
BRANCH  61  78
ATOM     78  C   UNL     1       1.730  10.390  -6.892  1.00  0.00     0.057 A 
ATOM     79  C   UNL     1       2.207  11.184  -5.843  1.00  0.00     0.134 A 
ATOM     80  C   UNL     1       1.505  11.014  -8.127  1.00  0.00     0.134 A 
ATOM     81  F   UNL     1       2.431  10.650  -4.633  1.00  0.00    -0.206 F 
ATOM     82  C   UNL     1       2.442  12.550  -6.013  1.00  0.00     0.040 A 
ATOM     83  C   UNL     1       1.762  12.372  -8.316  1.00  0.00     0.040 A 
ATOM     84  F   UNL     1       1.057  10.308  -9.175  1.00  0.00    -0.206 F 
ATOM     85  C   UNL     1       2.229  13.145  -7.256  1.00  0.00     0.006 A 
ENDBRANCH  61  78
ENDBRANCH  35  36
ENDBRANCH  27  30
ENDBRANCH  25  26
ENDBRANCH  24  25
ENDBRANCH  23  24
ENDBRANCH  22  23
ENDBRANCH  21  22
ENDBRANCH   1  21
TORSDOF 20
