REMARK SMILES Cc1cccc(OC2(C(=O)NCCCCCCNC(=O)c3ccc(-c4c5nc(c(-c6c(F)cccc6F)c6ccc([nH]6)c(-c6c(F)cccc6F)c6nc(c(-c7c(F)cccc7F)c7ccc4[nH]7)C=C6)C=C5)cc3)CCN(C(=O)c3cnc[nH]c3=O)CC2)c1
REMARK SMILES IDX 14 1 13 2 12 3 11 4 9 5 10 6 8 8 75 9 88 10 76 11 87 12
REMARK SMILES IDX 77 13 78 14 79 15 7 16 6 17 1 18 2 19 3 20 89 21 4 22 5 23
REMARK SMILES IDX 80 24 81 25 85 26 82 27 84 28 86 29 83 30 15 32 16 33 17 34
REMARK SMILES IDX 18 35 19 36 20 38 21 39 22 40 74 41 23 42 73 43 24 44 25 45
REMARK SMILES IDX 26 46 67 47 27 48 72 49 66 50 68 51 28 52 71 53 65 54 64 55
REMARK SMILES IDX 29 57 55 58 38 59 54 60 39 61 42 62 53 63 69 64 40 65 41 66
REMARK SMILES IDX 52 68 70 69 43 70 30 71 31 72 36 73 32 74 33 75 35 76 37 77
REMARK SMILES IDX 34 78 56 79 57 80 62 81 58 82 59 83 61 84 63 85 60 86 44 87
REMARK SMILES IDX 45 88 50 89 46 90 47 91 49 92 51 93 48 94
REMARK H PARENT 11 7 84 31 18 37 68 56 42 67
REMARK Flexibility Score: inf
ROOT
ATOM      1  C   UNL     1       1.257   6.709  -3.647  1.00  0.00     0.002 C 
ENDROOT
BRANCH   1   2
ATOM      2  C   UNL     1       1.100   6.333  -2.173  1.00  0.00     0.021 C 
BRANCH   2   3
ATOM      3  C   UNL     1      -0.317   6.408  -1.579  1.00  0.00     0.116 C 
BRANCH   3   4
ATOM      4  N   UNL     1      -1.151   5.263  -1.898  1.00  0.00    -0.353 N 
ATOM      5  C   UNL     1      -1.442   4.097  -1.248  1.00  0.00     0.264 C 
ATOM      6  O   UNL     1      -2.364   3.448  -1.761  1.00  0.00    -0.270 OA
ATOM      7  H   UNL     1      -1.604   5.345  -2.768  1.00  0.00     0.163 HD
BRANCH   5   8
ATOM      8  C   UNL     1      -0.738   3.605   0.066  1.00  0.00     0.190 C 
ATOM      9  C   UNL     1       0.769   3.896   0.058  1.00  0.00     0.080 C 
ATOM     10  C   UNL     1      -1.407   4.313   1.278  1.00  0.00     0.080 C 
ATOM     11  C   UNL     1       1.467   3.721   1.393  1.00  0.00     0.124 C 
ATOM     12  C   UNL     1      -0.647   4.009   2.578  1.00  0.00     0.124 C 
ATOM     13  N   UNL     1       0.734   4.444   2.410  1.00  0.00    -0.338 N 
ATOM     14  C   UNL     1       1.193   5.673   2.845  1.00  0.00     0.261 C 
ATOM     15  O   UNL     1       1.888   6.419   2.160  1.00  0.00    -0.269 OA
BRANCH   8  16
ATOM     16  O   UNL     1      -1.167   2.237   0.242  1.00  0.00    -0.477 OA
BRANCH  16  17
ATOM     17  C   UNL     1      -0.555   1.051   0.044  1.00  0.00     0.121 A 
ATOM     18  C   UNL     1       2.772  -0.784  -0.061  1.00  0.00     0.044 C 
ATOM     19  C   UNL     1       1.292  -0.535  -0.061  1.00  0.00    -0.047 A 
ATOM     20  C   UNL     1       0.394  -1.603  -0.025  1.00  0.00     0.003 A 
ATOM     21  C   UNL     1       0.801   0.782  -0.065  1.00  0.00     0.049 A 
ATOM     22  C   UNL     1      -0.973  -1.353   0.020  1.00  0.00     0.004 A 
ATOM     23  C   UNL     1      -1.438  -0.037   0.065  1.00  0.00     0.046 A 
ENDBRANCH  16  17
ENDBRANCH   8  16
BRANCH  14  24
ATOM     24  C   UNL     1       0.828   6.027   4.228  1.00  0.00     0.123 A 
ATOM     25  C   UNL     1       0.227   7.192   4.499  1.00  0.00     0.132 A 
ATOM     26  C   UNL     1       1.145   5.146   5.368  1.00  0.00     0.263 A 
ATOM     27  N   UNL     1      -0.159   7.608   5.752  1.00  0.00    -0.246 NA
ATOM     28  N   UNL     1       0.744   5.613   6.587  1.00  0.00    -0.312 N 
ATOM     29  O   UNL     1       1.734   4.077   5.257  1.00  0.00    -0.269 OA
ATOM     30  C   UNL     1       0.115   6.813   6.731  1.00  0.00     0.199 A 
ATOM     31  H   UNL     1       0.915   5.065   7.387  1.00  0.00     0.171 HD
ENDBRANCH  14  24
ENDBRANCH   5   8
ENDBRANCH   3   4
ENDBRANCH   2   3
ENDBRANCH   1   2
BRANCH   1  32
ATOM     32  C   UNL     1       0.656   8.047  -4.086  1.00  0.00     0.002 C 
BRANCH  32  33
ATOM     33  C   UNL     1       0.910   9.232  -3.158  1.00  0.00     0.021 C 
BRANCH  33  34
ATOM     34  C   UNL     1       2.343   9.737  -3.156  1.00  0.00     0.116 C 
BRANCH  34  35
ATOM     35  N   UNL     1       2.610  10.679  -4.230  1.00  0.00    -0.352 N 
ATOM     36  C   UNL     1       3.709  11.479  -4.495  1.00  0.00     0.251 C 
ATOM     37  H   UNL     1       1.880  10.763  -4.886  1.00  0.00     0.163 HD
ATOM     38  O   UNL     1       3.643  12.297  -5.387  1.00  0.00    -0.269 OA
BRANCH  36  39
ATOM     39  C   UNL     1       5.017  11.207  -3.833  1.00  0.00     0.039 A 
ATOM     40  C   UNL     1       6.163  11.381  -4.626  1.00  0.00     0.014 A 
ATOM     41  C   UNL     1       5.114  10.539  -2.621  1.00  0.00     0.014 A 
ATOM     42  C   UNL     1       7.303  10.632  -4.358  1.00  0.00     0.010 A 
ATOM     43  C   UNL     1       6.188   9.706  -2.417  1.00  0.00     0.010 A 
ATOM     44  C   UNL     1       7.242   9.699  -3.334  1.00  0.00    -0.014 A 
BRANCH  44  45
ATOM     45  C   UNL     1       8.194   8.622  -3.144  1.00  0.00     0.031 A 
ATOM     46  C   UNL     1       9.156   8.707  -2.035  1.00  0.00     0.074 A 
ATOM     47  C   UNL     1       8.010   7.479  -3.840  1.00  0.00     0.049 A 
ATOM     48  N   UNL     1      10.147   7.907  -1.867  1.00  0.00    -0.248 NA
ATOM     49  C   UNL     1       9.088   9.757  -1.027  1.00  0.00     0.031 C 
ATOM     50  C   UNL     1       8.534   6.152  -3.534  1.00  0.00     0.029 A 
ATOM     51  N   UNL     1       7.459   7.348  -5.122  1.00  0.00    -0.354 N 
ATOM     52  C   UNL     1      10.662   8.134  -0.611  1.00  0.00     0.074 A 
ATOM     53  C   UNL     1      10.020   9.346  -0.165  1.00  0.00     0.031 C 
ATOM     54  C   UNL     1       8.554   5.424  -4.662  1.00  0.00     0.029 A 
ATOM     55  C   UNL     1       8.209   6.327  -5.747  1.00  0.00     0.049 A 
ATOM     56  H   UNL     1       6.710   7.859  -5.505  1.00  0.00     0.167 HD
ATOM     57  C   UNL     1      11.466   7.179  -0.061  1.00  0.00     0.037 A 
ATOM     58  C   UNL     1       9.025   6.602  -6.807  1.00  0.00     0.037 A 
ATOM     59  C   UNL     1      11.771   6.142  -1.050  1.00  0.00     0.049 A 
ATOM     60  C   UNL     1      10.474   6.249  -6.560  1.00  0.00     0.074 A 
ATOM     61  C   UNL     1      11.249   4.880  -1.290  1.00  0.00     0.029 A 
ATOM     62  N   UNL     1      12.507   6.482  -2.180  1.00  0.00    -0.354 N 
ATOM     63  N   UNL     1      11.017   6.167  -5.376  1.00  0.00    -0.248 NA
ATOM     64  C   UNL     1      11.417   5.936  -7.628  1.00  0.00     0.031 C 
ATOM     65  C   UNL     1      11.638   4.484  -2.596  1.00  0.00     0.029 A 
ATOM     66  C   UNL     1      12.415   5.494  -3.139  1.00  0.00     0.049 A 
ATOM     67  H   UNL     1      13.022   7.315  -2.282  1.00  0.00     0.167 HD
ATOM     68  C   UNL     1      12.332   5.786  -5.496  1.00  0.00     0.074 A 
ATOM     69  C   UNL     1      12.527   5.646  -6.927  1.00  0.00     0.031 C 
ATOM     70  C   UNL     1      13.134   5.614  -4.400  1.00  0.00     0.037 A 
BRANCH  57  71
ATOM     71  C   UNL     1      11.743   7.030   1.422  1.00  0.00     0.057 A 
ATOM     72  C   UNL     1      12.088   5.773   1.963  1.00  0.00     0.134 A 
ATOM     73  C   UNL     1      11.624   8.046   2.387  1.00  0.00     0.134 A 
ATOM     74  F   UNL     1      12.340   4.713   1.183  1.00  0.00    -0.206 F 
ATOM     75  C   UNL     1      12.195   5.530   3.340  1.00  0.00     0.040 A 
ATOM     76  C   UNL     1      11.683   7.810   3.769  1.00  0.00     0.040 A 
ATOM     77  F   UNL     1      11.512   9.333   2.051  1.00  0.00    -0.206 F 
ATOM     78  C   UNL     1      11.957   6.543   4.253  1.00  0.00     0.006 A 
ENDBRANCH  57  71
BRANCH  58  79
ATOM     79  C   UNL     1       8.535   7.739  -7.633  1.00  0.00     0.057 A 
ATOM     80  C   UNL     1       7.301   7.595  -8.295  1.00  0.00     0.134 A 
ATOM     81  C   UNL     1       9.005   9.042  -7.444  1.00  0.00     0.134 A 
ATOM     82  F   UNL     1       6.793   6.371  -8.512  1.00  0.00    -0.206 F 
ATOM     83  C   UNL     1       6.507   8.696  -8.629  1.00  0.00     0.040 A 
ATOM     84  C   UNL     1       8.226  10.153  -7.793  1.00  0.00     0.040 A 
ATOM     85  F   UNL     1      10.164   9.264  -6.808  1.00  0.00    -0.206 F 
ATOM     86  C   UNL     1       6.955   9.981  -8.343  1.00  0.00     0.006 A 
ENDBRANCH  58  79
BRANCH  70  87
ATOM     87  C   UNL     1      14.646   5.459  -4.373  1.00  0.00     0.057 A 
ATOM     88  C   UNL     1      15.513   5.830  -5.409  1.00  0.00     0.134 A 
ATOM     89  C   UNL     1      15.302   5.051  -3.182  1.00  0.00     0.134 A 
ATOM     90  F   UNL     1      15.064   6.342  -6.561  1.00  0.00    -0.206 F 
ATOM     91  C   UNL     1      16.911   5.755  -5.292  1.00  0.00     0.040 A 
ATOM     92  C   UNL     1      16.692   5.032  -3.034  1.00  0.00     0.040 A 
ATOM     93  F   UNL     1      14.625   4.676  -2.087  1.00  0.00    -0.206 F 
ATOM     94  C   UNL     1      17.506   5.372  -4.098  1.00  0.00     0.006 A 
ENDBRANCH  70  87
ENDBRANCH  44  45
ENDBRANCH  36  39
ENDBRANCH  34  35
ENDBRANCH  33  34
ENDBRANCH  32  33
ENDBRANCH   1  32
TORSDOF 16
