REMARK SMILES CCOc1cc2c(cc1OCC)[C@@H](C(=O)NCCCCCCNC(=O)c1ccc(-c3c4nc(c(-c5c(F)cccc5F)c5ccc([nH]5)c(-c5c(F)cccc5F)c5nc(c(-c6c(F)cccc6F)c6ccc3[nH]6)C=C5)C=C4)cc1)[C@H](c1ccc(F)cc1Cl)N(C)C2=O
REMARK SMILES IDX 19 1 18 2 17 3 16 4 14 5 15 6 13 8 4 9 5 10 9 11 6 12 8 13
REMARK SMILES IDX 7 14 91 15 89 16 92 17 80 18 90 19 3 20 2 21 1 22 10 23
REMARK SMILES IDX 11 24 12 25 81 26 82 27 87 28 83 29 86 30 88 31 84 32 85 33
REMARK SMILES IDX 20 34 21 35 22 36 23 37 24 38 25 40 26 41 27 42 79 43 28 44
REMARK SMILES IDX 78 45 29 46 30 47 31 48 72 49 32 50 77 51 71 52 73 53 33 54
REMARK SMILES IDX 76 55 70 56 69 57 34 59 60 60 43 61 59 62 44 63 47 64 58 65
REMARK SMILES IDX 74 66 45 67 46 68 57 70 75 71 48 72 35 73 36 74 41 75 37 76
REMARK SMILES IDX 38 77 40 78 42 79 39 80 61 81 62 82 67 83 63 84 64 85 66 86
REMARK SMILES IDX 68 87 65 88 49 89 50 90 55 91 51 92 52 93 54 94 56 95 53 96
REMARK H PARENT 16 7 23 39 73 58 47 69
REMARK Flexibility Score: inf
ROOT
ATOM      1  C   UNL     1       8.118   0.283   2.568  1.00  0.00     0.002 C 
ENDROOT
BRANCH   1   2
ATOM      2  C   UNL     1       7.691   0.436   1.107  1.00  0.00     0.021 C 
BRANCH   2   3
ATOM      3  C   UNL     1       6.884   1.708   0.831  1.00  0.00     0.116 C 
BRANCH   3   4
ATOM      4  N   UNL     1       7.587   2.582  -0.093  1.00  0.00    -0.355 N 
ATOM      5  C   UNL     1       7.516   2.816  -1.423  1.00  0.00     0.230 C 
ATOM      6  O   UNL     1       8.394   3.570  -1.871  1.00  0.00    -0.274 OA
ATOM      7  H   UNL     1       8.273   3.130   0.352  1.00  0.00     0.163 HD
BRANCH   5   8
ATOM      8  C   UNL     1       6.508   2.230  -2.408  1.00  0.00     0.136 C 
ATOM      9  C   UNL     1       2.336   1.838  -1.424  1.00  0.00     0.161 A 
ATOM     10  C   UNL     1       3.201   0.738  -1.341  1.00  0.00     0.064 A 
ATOM     11  C   UNL     1       2.825   3.089  -1.826  1.00  0.00     0.161 A 
ATOM     12  C   UNL     1       4.560   0.882  -1.602  1.00  0.00     0.048 A 
ATOM     13  C   UNL     1       4.200   3.223  -2.075  1.00  0.00     0.056 A 
ATOM     14  C   UNL     1       5.069   2.127  -1.976  1.00  0.00    -0.016 A 
ATOM     15  C   UNL     1       5.478  -0.280  -1.435  1.00  0.00     0.254 C 
ATOM     16  N   UNL     1       6.704  -0.201  -2.094  1.00  0.00    -0.333 N 
ATOM     17  O   UNL     1       5.149  -1.205  -0.696  1.00  0.00    -0.269 OA
ATOM     18  C   UNL     1       6.966   0.879  -3.047  1.00  0.00     0.134 C 
ATOM     19  C   UNL     1       7.708  -1.241  -1.929  1.00  0.00     0.147 C 
BRANCH   9  20
ATOM     20  O   UNL     1       1.003   1.607  -1.217  1.00  0.00    -0.490 OA
BRANCH  20  21
ATOM     21  C   UNL     1       0.683   1.357   0.159  1.00  0.00     0.226 C 
ATOM     22  C   UNL     1       0.666  -0.130   0.476  1.00  0.00     0.049 C 
ENDBRANCH  20  21
ENDBRANCH   9  20
BRANCH  11  23
ATOM     23  O   UNL     1       2.152   4.255  -2.059  1.00  0.00    -0.490 OA
BRANCH  23  24
ATOM     24  C   UNL     1       0.738   4.327  -1.921  1.00  0.00     0.226 C 
ATOM     25  C   UNL     1       0.016   3.788  -3.144  1.00  0.00     0.049 C 
ENDBRANCH  23  24
ENDBRANCH  11  23
BRANCH  18  26
ATOM     26  C   UNL     1       6.338   0.680  -4.459  1.00  0.00    -0.005 A 
ATOM     27  C   UNL     1       6.595   1.717  -5.395  1.00  0.00     0.010 A 
ATOM     28  C   UNL     1       5.507  -0.375  -4.909  1.00  0.00     0.049 A 
ATOM     29  C   UNL     1       5.967   1.768  -6.642  1.00  0.00     0.040 A 
ATOM     30  C   UNL     1       4.880  -0.316  -6.163  1.00  0.00     0.060 A 
ATOM     31  Cl  UNL     1       5.177  -1.847  -4.068  1.00  0.00    -0.084 Cl
ATOM     32  C   UNL     1       5.096   0.759  -7.005  1.00  0.00     0.124 A 
ATOM     33  F   UNL     1       4.470   0.811  -8.187  1.00  0.00    -0.207 F 
ENDBRANCH  18  26
ENDBRANCH   5   8
ENDBRANCH   3   4
ENDBRANCH   2   3
ENDBRANCH   1   2
BRANCH   1  34
ATOM     34  C   UNL     1       6.959   0.100   3.553  1.00  0.00     0.002 C 
BRANCH  34  35
ATOM     35  C   UNL     1       6.072  -1.125   3.307  1.00  0.00     0.021 C 
BRANCH  35  36
ATOM     36  C   UNL     1       6.811  -2.460   3.275  1.00  0.00     0.116 C 
BRANCH  36  37
ATOM     37  N   UNL     1       7.549  -2.699   4.508  1.00  0.00    -0.352 N 
ATOM     38  C   UNL     1       7.370  -3.659   5.470  1.00  0.00     0.251 C 
ATOM     39  H   UNL     1       8.292  -2.075   4.676  1.00  0.00     0.163 HD
ATOM     40  O   UNL     1       7.921  -3.548   6.561  1.00  0.00    -0.269 OA
BRANCH  38  41
ATOM     41  C   UNL     1       6.514  -4.832   5.197  1.00  0.00     0.039 A 
ATOM     42  C   UNL     1       5.649  -5.291   6.195  1.00  0.00     0.014 A 
ATOM     43  C   UNL     1       6.597  -5.506   3.976  1.00  0.00     0.014 A 
ATOM     44  C   UNL     1       4.830  -6.395   5.948  1.00  0.00     0.010 A 
ATOM     45  C   UNL     1       5.730  -6.559   3.705  1.00  0.00     0.010 A 
ATOM     46  C   UNL     1       4.846  -7.021   4.692  1.00  0.00    -0.014 A 
BRANCH  46  47
ATOM     47  C   UNL     1       3.959  -8.172   4.390  1.00  0.00     0.031 A 
ATOM     48  C   UNL     1       4.554  -9.519   4.081  1.00  0.00     0.074 A 
ATOM     49  C   UNL     1       2.626  -7.990   4.324  1.00  0.00     0.049 A 
ATOM     50  N   UNL     1       3.957 -10.621   3.705  1.00  0.00    -0.248 NA
ATOM     51  C   UNL     1       6.017  -9.634   4.184  1.00  0.00     0.031 C 
ATOM     52  C   UNL     1       1.933  -6.723   4.562  1.00  0.00     0.029 A 
ATOM     53  N   UNL     1       1.617  -8.869   4.019  1.00  0.00    -0.354 N 
ATOM     54  C   UNL     1       4.971 -11.551   3.509  1.00  0.00     0.074 A 
ATOM     55  C   UNL     1       6.223 -10.871   3.758  1.00  0.00     0.031 C 
ATOM     56  C   UNL     1       0.612  -6.910   4.413  1.00  0.00     0.029 A 
ATOM     57  C   UNL     1       0.368  -8.297   4.026  1.00  0.00     0.049 A 
ATOM     58  H   UNL     1       1.774  -9.819   3.816  1.00  0.00     0.167 HD
ATOM     59  C   UNL     1       4.866 -12.859   3.174  1.00  0.00     0.037 A 
ATOM     60  C   UNL     1      -0.835  -8.828   3.740  1.00  0.00     0.037 A 
ATOM     61  C   UNL     1       3.616 -13.536   2.947  1.00  0.00     0.049 A 
ATOM     62  C   UNL     1      -0.924 -10.279   3.355  1.00  0.00     0.074 A 
ATOM     63  C   UNL     1       3.399 -14.871   2.656  1.00  0.00     0.029 A 
ATOM     64  N   UNL     1       2.370 -12.926   2.983  1.00  0.00    -0.354 N 
ATOM     65  N   UNL     1       0.036 -11.164   3.236  1.00  0.00    -0.248 NA
ATOM     66  C   UNL     1      -2.265 -10.808   3.070  1.00  0.00     0.031 C 
ATOM     67  C   UNL     1       2.026 -15.060   2.468  1.00  0.00     0.029 A 
ATOM     68  C   UNL     1       1.382 -13.854   2.698  1.00  0.00     0.049 A 
ATOM     69  H   UNL     1       2.212 -11.975   3.182  1.00  0.00     0.167 HD
ATOM     70  C   UNL     1      -0.586 -12.358   2.897  1.00  0.00     0.074 A 
ATOM     71  C   UNL     1      -2.007 -12.087   2.839  1.00  0.00     0.031 C 
ATOM     72  C   UNL     1      -0.030 -13.572   2.659  1.00  0.00     0.037 A 
BRANCH  59  73
ATOM     73  C   UNL     1       6.139 -13.643   3.031  1.00  0.00     0.057 A 
ATOM     74  C   UNL     1       6.941 -13.960   4.135  1.00  0.00     0.134 A 
ATOM     75  C   UNL     1       6.552 -14.115   1.778  1.00  0.00     0.134 A 
ATOM     76  F   UNL     1       6.610 -13.530   5.362  1.00  0.00    -0.206 F 
ATOM     77  C   UNL     1       8.122 -14.692   3.995  1.00  0.00     0.040 A 
ATOM     78  C   UNL     1       7.714 -14.874   1.630  1.00  0.00     0.040 A 
ATOM     79  F   UNL     1       5.828 -13.856   0.679  1.00  0.00    -0.206 F 
ATOM     80  C   UNL     1       8.507 -15.158   2.740  1.00  0.00     0.006 A 
ENDBRANCH  59  73
BRANCH  60  81
ATOM     81  C   UNL     1      -2.058  -7.989   3.825  1.00  0.00     0.057 A 
ATOM     82  C   UNL     1      -3.014  -8.206   4.823  1.00  0.00     0.134 A 
ATOM     83  C   UNL     1      -2.306  -6.959   2.909  1.00  0.00     0.134 A 
ATOM     84  F   UNL     1      -2.843  -9.189   5.720  1.00  0.00    -0.206 F 
ATOM     85  C   UNL     1      -4.183  -7.447   4.896  1.00  0.00     0.040 A 
ATOM     86  C   UNL     1      -3.457  -6.174   2.986  1.00  0.00     0.040 A 
ATOM     87  F   UNL     1      -1.425  -6.694   1.933  1.00  0.00    -0.206 F 
ATOM     88  C   UNL     1      -4.404  -6.423   3.977  1.00  0.00     0.006 A 
ENDBRANCH  60  81
BRANCH  72  89
ATOM     89  C   UNL     1      -0.962 -14.711   2.363  1.00  0.00     0.057 A 
ATOM     90  C   UNL     1      -1.653 -14.811   1.149  1.00  0.00     0.134 A 
ATOM     91  C   UNL     1      -1.131 -15.747   3.291  1.00  0.00     0.134 A 
ATOM     92  F   UNL     1      -1.544 -13.846   0.223  1.00  0.00    -0.206 F 
ATOM     93  C   UNL     1      -2.496 -15.890   0.877  1.00  0.00     0.040 A 
ATOM     94  C   UNL     1      -1.948 -16.844   3.019  1.00  0.00     0.040 A 
ATOM     95  F   UNL     1      -0.491 -15.717   4.470  1.00  0.00    -0.206 F 
ATOM     96  C   UNL     1      -2.639 -16.915   1.811  1.00  0.00     0.006 A 
ENDBRANCH  72  89
ENDBRANCH  46  47
ENDBRANCH  38  41
ENDBRANCH  36  37
ENDBRANCH  35  36
ENDBRANCH  34  35
ENDBRANCH   1  34
TORSDOF 18
