REMARK SMILES O=C(NCCCCCCNC(=O)c1nccnc1C(=O)Nc1ccc2c(c1)OCO2)c1ccc(-c2c3nc(c(-c4c(F)cccc4F)c4ccc([nH]4)c(-c4c(F)cccc4F)c4nc(c(-c5c(F)cccc5F)c5ccc2[nH]5)C=C4)C=C3)cc1
REMARK SMILES IDX 6 1 5 2 4 3 3 4 1 5 2 6 31 8 32 9 84 10 33 11 83 12 34 13
REMARK SMILES IDX 35 14 36 15 77 16 37 17 82 18 76 19 78 20 38 21 81 22 75 23
REMARK SMILES IDX 74 24 39 26 65 27 48 28 64 29 49 30 52 31 63 32 79 33 50 34
REMARK SMILES IDX 51 35 62 37 80 38 53 39 40 40 41 41 46 42 42 43 43 44 45 45
REMARK SMILES IDX 47 46 44 47 66 48 67 49 72 50 68 51 69 52 71 53 73 54 70 55
REMARK SMILES IDX 54 56 55 57 60 58 56 59 57 60 59 61 61 62 58 63 7 64 8 65
REMARK SMILES IDX 9 66 10 67 11 68 12 70 13 71 14 72 18 73 15 74 17 75 16 76
REMARK SMILES IDX 19 77 20 78 21 79 22 81 23 82 27 83 24 84 26 85 25 86 28 87
REMARK SMILES IDX 30 88 29 89
REMARK H PARENT 3 7 78 25 52 36 10 69 21 80
REMARK Flexibility Score: inf
ROOT
ATOM      1  C   UNL     1       4.359  -2.162  -3.277  1.00  0.00     0.002 C 
ENDROOT
BRANCH   1   2
ATOM      2  C   UNL     1       4.386  -2.467  -1.775  1.00  0.00     0.021 C 
BRANCH   2   3
ATOM      3  C   UNL     1       4.192  -1.268  -0.855  1.00  0.00     0.116 C 
BRANCH   3   4
ATOM      4  N   UNL     1       2.862  -0.695  -0.914  1.00  0.00    -0.352 N 
ATOM      5  O   UNL     1       1.069   0.411  -0.088  1.00  0.00    -0.269 OA
ATOM      6  C   UNL     1       2.245   0.087   0.036  1.00  0.00     0.251 C 
ATOM      7  H   UNL     1       2.340  -0.886  -1.727  1.00  0.00     0.163 HD
BRANCH   6   8
ATOM      8  C   UNL     1       3.001   0.504   1.241  1.00  0.00     0.039 A 
ATOM      9  C   UNL     1       4.258   1.104   1.134  1.00  0.00     0.014 A 
ATOM     10  C   UNL     1       2.429   0.297   2.500  1.00  0.00     0.014 A 
ATOM     11  C   UNL     1       4.986   1.402   2.285  1.00  0.00     0.010 A 
ATOM     12  C   UNL     1       3.141   0.637   3.655  1.00  0.00     0.010 A 
ATOM     13  C   UNL     1       4.436   1.166   3.555  1.00  0.00    -0.014 A 
BRANCH  13  14
ATOM     14  C   UNL     1       5.224   1.503   4.766  1.00  0.00     0.031 A 
ATOM     15  C   UNL     1       5.833   0.424   5.613  1.00  0.00     0.074 A 
ATOM     16  C   UNL     1       5.424   2.796   5.079  1.00  0.00     0.049 A 
ATOM     17  N   UNL     1       6.599   0.540   6.669  1.00  0.00    -0.248 NA
ATOM     18  C   UNL     1       5.546  -0.967   5.229  1.00  0.00     0.031 C 
ATOM     19  C   UNL     1       4.879   3.936   4.340  1.00  0.00     0.029 A 
ATOM     20  N   UNL     1       6.159   3.368   6.085  1.00  0.00    -0.354 N 
ATOM     21  C   UNL     1       6.870  -0.756   7.087  1.00  0.00     0.074 A 
ATOM     22  C   UNL     1       6.180  -1.645   6.176  1.00  0.00     0.031 C 
ATOM     23  C   UNL     1       5.336   5.072   4.891  1.00  0.00     0.029 A 
ATOM     24  C   UNL     1       6.183   4.739   6.033  1.00  0.00     0.049 A 
ATOM     25  H   UNL     1       6.624   2.845   6.778  1.00  0.00     0.167 HD
ATOM     26  C   UNL     1       7.628  -1.167   8.131  1.00  0.00     0.037 A 
ATOM     27  C   UNL     1       6.823   5.629   6.812  1.00  0.00     0.037 A 
ATOM     28  C   UNL     1       8.337  -0.291   9.025  1.00  0.00     0.049 A 
ATOM     29  C   UNL     1       7.667   5.147   7.953  1.00  0.00     0.074 A 
ATOM     30  C   UNL     1       9.158  -0.624  10.090  1.00  0.00     0.029 A 
ATOM     31  N   UNL     1       8.312   1.092   8.958  1.00  0.00    -0.354 N 
ATOM     32  N   UNL     1       7.928   3.918   8.322  1.00  0.00    -0.248 NA
ATOM     33  C   UNL     1       8.299   6.178   8.789  1.00  0.00     0.031 C 
ATOM     34  C   UNL     1       9.616   0.562  10.678  1.00  0.00     0.029 A 
ATOM     35  C   UNL     1       9.092   1.629   9.968  1.00  0.00     0.049 A 
ATOM     36  H   UNL     1       7.812   1.616   8.290  1.00  0.00     0.167 HD
ATOM     37  C   UNL     1       8.753   4.025   9.432  1.00  0.00     0.074 A 
ATOM     38  C   UNL     1       8.964   5.439   9.667  1.00  0.00     0.031 C 
ATOM     39  C   UNL     1       9.284   3.037  10.192  1.00  0.00     0.037 A 
BRANCH  26  40
ATOM     40  C   UNL     1       7.721  -2.641   8.370  1.00  0.00     0.057 A 
ATOM     41  C   UNL     1       8.592  -3.449   7.630  1.00  0.00     0.134 A 
ATOM     42  C   UNL     1       6.960  -3.251   9.373  1.00  0.00     0.134 A 
ATOM     43  F   UNL     1       9.337  -2.923   6.646  1.00  0.00    -0.206 F 
ATOM     44  C   UNL     1       8.696  -4.820   7.875  1.00  0.00     0.040 A 
ATOM     45  C   UNL     1       7.063  -4.618   9.635  1.00  0.00     0.040 A 
ATOM     46  F   UNL     1       6.108  -2.528  10.116  1.00  0.00    -0.206 F 
ATOM     47  C   UNL     1       7.933  -5.406   8.883  1.00  0.00     0.006 A 
ENDBRANCH  26  40
BRANCH  27  48
ATOM     48  C   UNL     1       6.709   7.073   6.512  1.00  0.00     0.057 A 
ATOM     49  C   UNL     1       7.745   7.753   5.864  1.00  0.00     0.134 A 
ATOM     50  C   UNL     1       5.558   7.797   6.841  1.00  0.00     0.134 A 
ATOM     51  F   UNL     1       8.876   7.109   5.540  1.00  0.00    -0.206 F 
ATOM     52  C   UNL     1       7.641   9.108   5.551  1.00  0.00     0.040 A 
ATOM     53  C   UNL     1       5.436   9.150   6.523  1.00  0.00     0.040 A 
ATOM     54  F   UNL     1       4.535   7.194   7.463  1.00  0.00    -0.206 F 
ATOM     55  C   UNL     1       6.481   9.809   5.877  1.00  0.00     0.006 A 
ENDBRANCH  27  48
BRANCH  39  56
ATOM     56  C   UNL     1      10.136   3.458  11.347  1.00  0.00     0.057 A 
ATOM     57  C   UNL     1       9.565   3.868  12.557  1.00  0.00     0.134 A 
ATOM     58  C   UNL     1      11.532   3.437  11.255  1.00  0.00     0.134 A 
ATOM     59  F   UNL     1       8.232   3.920  12.697  1.00  0.00    -0.206 F 
ATOM     60  C   UNL     1      10.357   4.255  13.638  1.00  0.00     0.040 A 
ATOM     61  C   UNL     1      12.335   3.813  12.333  1.00  0.00     0.040 A 
ATOM     62  F   UNL     1      12.135   3.055  10.120  1.00  0.00    -0.206 F 
ATOM     63  C   UNL     1      11.747   4.225  13.528  1.00  0.00     0.006 A 
ENDBRANCH  39  56
ENDBRANCH  13  14
ENDBRANCH   6   8
ENDBRANCH   3   4
ENDBRANCH   2   3
ENDBRANCH   1   2
BRANCH   1  64
ATOM     64  C   UNL     1       5.325  -1.081  -3.784  1.00  0.00     0.002 C 
BRANCH  64  65
ATOM     65  C   UNL     1       6.764  -1.146  -3.264  1.00  0.00     0.021 C 
BRANCH  65  66
ATOM     66  C   UNL     1       7.481  -2.469  -3.506  1.00  0.00     0.116 C 
BRANCH  66  67
ATOM     67  N   UNL     1       8.299  -2.462  -4.697  1.00  0.00    -0.351 N 
ATOM     68  C   UNL     1       8.663  -3.650  -5.298  1.00  0.00     0.272 C 
ATOM     69  H   UNL     1       8.597  -1.606  -5.081  1.00  0.00     0.163 HD
ATOM     70  O   UNL     1       8.092  -4.723  -5.139  1.00  0.00    -0.267 OA
BRANCH  68  71
ATOM     71  C   UNL     1       9.909  -3.590  -6.091  1.00  0.00     0.159 A 
ATOM     72  N   UNL     1      11.033  -4.011  -5.444  1.00  0.00    -0.247 NA
ATOM     73  C   UNL     1       9.936  -3.131  -7.398  1.00  0.00     0.159 A 
ATOM     74  C   UNL     1      12.169  -3.951  -6.169  1.00  0.00     0.132 A 
ATOM     75  N   UNL     1      11.077  -3.082  -8.138  1.00  0.00    -0.247 NA
ATOM     76  C   UNL     1      12.191  -3.492  -7.480  1.00  0.00     0.132 A 
BRANCH  73  77
ATOM     77  C   UNL     1       8.675  -2.684  -8.013  1.00  0.00     0.276 C 
ATOM     78  O   UNL     1       8.323  -1.523  -7.853  1.00  0.00    -0.267 OA
ATOM     79  N   UNL     1       7.953  -3.728  -8.558  1.00  0.00    -0.320 N 
ATOM     80  H   UNL     1       8.404  -4.323  -9.200  1.00  0.00     0.170 HD
BRANCH  79  81
ATOM     81  C   UNL     1       6.600  -3.986  -8.243  1.00  0.00     0.045 A 
ATOM     82  C   UNL     1       5.792  -3.069  -7.540  1.00  0.00     0.030 A 
ATOM     83  C   UNL     1       6.139  -5.287  -8.476  1.00  0.00     0.076 A 
ATOM     84  C   UNL     1       4.568  -3.465  -6.993  1.00  0.00     0.053 A 
ATOM     85  C   UNL     1       4.944  -5.657  -7.897  1.00  0.00     0.167 A 
ATOM     86  C   UNL     1       4.188  -4.776  -7.161  1.00  0.00     0.165 A 
ATOM     87  O   UNL     1       4.406  -6.907  -7.920  1.00  0.00    -0.454 OA
ATOM     88  O   UNL     1       3.087  -5.362  -6.620  1.00  0.00    -0.454 OA
ATOM     89  C   UNL     1       3.293  -6.733  -7.018  1.00  0.00     0.468 C 
ENDBRANCH  79  81
ENDBRANCH  73  77
ENDBRANCH  68  71
ENDBRANCH  66  67
ENDBRANCH  65  66
ENDBRANCH  64  65
ENDBRANCH   1  64
TORSDOF 15
