REMARK SMILES Cc1noc(C)c1C[NH2+][C@H](C)[C@H](C)C(=O)NCCCCCCNC(=O)c1ccc(-c2c3nc(c(-c4c(F)cccc4F)c4ccc([nH]4)c(-c4c(F)cccc4F)c4nc(c(-c5c(F)cccc5F)c5ccc2[nH]5)C=C4)C=C3)cc1
REMARK SMILES IDX 18 1 17 2 16 3 14 4 15 5 12 7 13 8 10 9 11 10 9 11 8 14 7 15
REMARK SMILES IDX 1 16 2 17 3 18 4 19 5 20 6 21 19 22 20 23 21 24 22 25 23 26
REMARK SMILES IDX 24 27 25 29 26 30 27 31 79 32 28 33 78 34 29 35 30 36 31 37
REMARK SMILES IDX 72 38 32 39 77 40 71 41 73 42 33 43 76 44 70 45 69 46 34 48
REMARK SMILES IDX 60 49 43 50 59 51 44 52 47 53 58 54 74 55 45 56 46 57 57 59
REMARK SMILES IDX 75 60 48 61 35 62 36 63 41 64 37 65 38 66 40 67 42 68 39 69
REMARK SMILES IDX 61 70 62 71 67 72 63 73 64 74 66 75 68 76 65 77 49 78 50 79
REMARK SMILES IDX 55 80 51 81 52 82 54 83 56 84 53 85
REMARK H PARENT 16 6 9 12 9 13 23 28 73 47 47 58
REMARK Flexibility Score: inf
ROOT
ATOM      1  C   UNL     1      -1.896   7.230   1.092  1.00  0.00     0.021 C 
ENDROOT
BRANCH   1   2
ATOM      2  C   UNL     1      -2.511   6.620  -0.165  1.00  0.00     0.116 C 
BRANCH   2   3
ATOM      3  N   UNL     1      -1.890   7.129  -1.372  1.00  0.00    -0.356 N 
ATOM      4  C   UNL     1      -1.400   6.487  -2.465  1.00  0.00     0.228 C 
ATOM      5  O   UNL     1      -0.938   7.180  -3.375  1.00  0.00    -0.275 OA
ATOM      6  H   UNL     1      -1.809   8.110  -1.405  1.00  0.00     0.163 HD
BRANCH   4   7
ATOM      7  C   UNL     1      -1.420   4.963  -2.592  1.00  0.00     0.133 C 
ATOM      8  C   UNL     1      -0.530   4.359  -1.495  1.00  0.00     0.024 C 
BRANCH   7   9
ATOM      9  C   UNL     1      -2.866   4.392  -2.693  1.00  0.00     0.191 C 
ATOM     10  C   UNL     1      -3.733   5.236  -3.650  1.00  0.00     0.076 C 
BRANCH   9  11
ATOM     11  N   UNL     1      -3.048   3.000  -3.146  1.00  0.00    -0.339 N 
ATOM     12  H   UNL     1      -3.936   2.672  -2.765  1.00  0.00     0.346 HD
ATOM     13  H   UNL     1      -2.992   3.057  -4.163  1.00  0.00     0.346 HD
BRANCH  11  14
ATOM     14  C   UNL     1      -2.040   2.023  -2.786  1.00  0.00     0.303 C 
BRANCH  14  15
ATOM     15  C   UNL     1      -2.558   0.682  -3.156  1.00  0.00     0.071 A 
ATOM     16  C   UNL     1      -4.218   0.223  -1.197  1.00  0.00     0.071 C 
ATOM     17  C   UNL     1      -3.506  -0.111  -2.452  1.00  0.00     0.090 A 
ATOM     18  N   UNL     1      -3.723  -1.280  -3.066  1.00  0.00    -0.085 NA
ATOM     19  O   UNL     1      -2.926  -1.265  -4.194  1.00  0.00    -0.361 OA
ATOM     20  C   UNL     1      -2.235  -0.096  -4.248  1.00  0.00     0.142 A 
ATOM     21  C   UNL     1      -1.333   0.080  -5.402  1.00  0.00     0.091 C 
ENDBRANCH  14  15
ENDBRANCH  11  14
ENDBRANCH   9  11
ENDBRANCH   7   9
ENDBRANCH   4   7
ENDBRANCH   2   3
ENDBRANCH   1   2
BRANCH   1  22
ATOM     22  C   UNL     1      -2.146   8.732   1.267  1.00  0.00     0.002 C 
BRANCH  22  23
ATOM     23  C   UNL     1      -3.616   9.161   1.268  1.00  0.00     0.002 C 
BRANCH  23  24
ATOM     24  C   UNL     1      -4.520   8.436   2.269  1.00  0.00     0.021 C 
BRANCH  24  25
ATOM     25  C   UNL     1      -4.058   8.485   3.723  1.00  0.00     0.116 C 
BRANCH  25  26
ATOM     26  N   UNL     1      -3.967   9.838   4.237  1.00  0.00    -0.352 N 
ATOM     27  C   UNL     1      -4.339  10.335   5.459  1.00  0.00     0.251 C 
ATOM     28  H   UNL     1      -3.581  10.498   3.616  1.00  0.00     0.163 HD
ATOM     29  O   UNL     1      -4.301  11.548   5.659  1.00  0.00    -0.269 OA
BRANCH  27  30
ATOM     30  C   UNL     1      -4.804   9.433   6.537  1.00  0.00     0.039 A 
ATOM     31  C   UNL     1      -5.881   9.845   7.327  1.00  0.00     0.014 A 
ATOM     32  C   UNL     1      -4.161   8.222   6.814  1.00  0.00     0.014 A 
ATOM     33  C   UNL     1      -6.327   9.038   8.376  1.00  0.00     0.010 A 
ATOM     34  C   UNL     1      -4.645   7.388   7.822  1.00  0.00     0.010 A 
ATOM     35  C   UNL     1      -5.718   7.799   8.626  1.00  0.00    -0.014 A 
BRANCH  35  36
ATOM     36  C   UNL     1      -6.166   6.954   9.761  1.00  0.00     0.031 A 
ATOM     37  C   UNL     1      -5.262   6.737  10.944  1.00  0.00     0.074 A 
ATOM     38  C   UNL     1      -7.375   6.364   9.721  1.00  0.00     0.049 A 
ATOM     39  N   UNL     1      -5.473   6.037  12.030  1.00  0.00    -0.248 NA
ATOM     40  C   UNL     1      -3.935   7.370  10.887  1.00  0.00     0.031 C 
ATOM     41  C   UNL     1      -8.325   6.453   8.611  1.00  0.00     0.029 A 
ATOM     42  N   UNL     1      -8.012   5.571  10.642  1.00  0.00    -0.354 N 
ATOM     43  C   UNL     1      -4.304   6.133  12.775  1.00  0.00     0.074 A 
ATOM     44  C   UNL     1      -3.370   6.917  11.996  1.00  0.00     0.031 C 
ATOM     45  C   UNL     1      -9.434   5.765   8.927  1.00  0.00     0.029 A 
ATOM     46  C   UNL     1      -9.267   5.175  10.252  1.00  0.00     0.049 A 
ATOM     47  H   UNL     1      -7.607   5.311  11.501  1.00  0.00     0.167 HD
ATOM     48  C   UNL     1      -4.039   5.635  14.006  1.00  0.00     0.037 A 
ATOM     49  C   UNL     1     -10.184   4.430  10.897  1.00  0.00     0.037 A 
ATOM     50  C   UNL     1      -4.979   4.885  14.797  1.00  0.00     0.049 A 
ATOM     51  C   UNL     1      -9.886   3.929  12.282  1.00  0.00     0.074 A 
ATOM     52  C   UNL     1      -4.824   4.379  16.076  1.00  0.00     0.029 A 
ATOM     53  N   UNL     1      -6.257   4.542  14.384  1.00  0.00    -0.354 N 
ATOM     54  N   UNL     1      -8.799   4.079  12.999  1.00  0.00    -0.248 NA
ATOM     55  C   UNL     1     -10.950   3.170  12.954  1.00  0.00     0.031 C 
ATOM     56  C   UNL     1      -6.001   3.709  16.428  1.00  0.00     0.029 A 
ATOM     57  C   UNL     1      -6.901   3.828  15.381  1.00  0.00     0.049 A 
ATOM     58  H   UNL     1      -6.650   4.772  13.511  1.00  0.00     0.167 HD
ATOM     59  C   UNL     1      -9.058   3.461  14.216  1.00  0.00     0.074 A 
ATOM     60  C   UNL     1     -10.409   2.945  14.143  1.00  0.00     0.031 C 
ATOM     61  C   UNL     1      -8.250   3.333  15.296  1.00  0.00     0.037 A 
BRANCH  48  62
ATOM     62  C   UNL     1      -2.676   5.896  14.574  1.00  0.00     0.057 A 
ATOM     63  C   UNL     1      -2.294   7.171  15.014  1.00  0.00     0.134 A 
ATOM     64  C   UNL     1      -1.739   4.863  14.697  1.00  0.00     0.134 A 
ATOM     65  F   UNL     1      -3.139   8.207  14.909  1.00  0.00    -0.206 F 
ATOM     66  C   UNL     1      -1.020   7.414  15.530  1.00  0.00     0.040 A 
ATOM     67  C   UNL     1      -0.471   5.088  15.235  1.00  0.00     0.040 A 
ATOM     68  F   UNL     1      -2.042   3.618  14.299  1.00  0.00    -0.206 F 
ATOM     69  C   UNL     1      -0.106   6.369  15.646  1.00  0.00     0.006 A 
ENDBRANCH  48  62
BRANCH  49  70
ATOM     70  C   UNL     1     -11.496   4.157  10.262  1.00  0.00     0.057 A 
ATOM     71  C   UNL     1     -12.659   4.793  10.712  1.00  0.00     0.134 A 
ATOM     72  C   UNL     1     -11.620   3.257   9.198  1.00  0.00     0.134 A 
ATOM     73  F   UNL     1     -12.603   5.653  11.739  1.00  0.00    -0.206 F 
ATOM     74  C   UNL     1     -13.904   4.529  10.140  1.00  0.00     0.040 A 
ATOM     75  C   UNL     1     -12.856   2.998   8.603  1.00  0.00     0.040 A 
ATOM     76  F   UNL     1     -10.541   2.623   8.717  1.00  0.00    -0.206 F 
ATOM     77  C   UNL     1     -14.004   3.631   9.079  1.00  0.00     0.006 A 
ENDBRANCH  49  70
BRANCH  61  78
ATOM     78  C   UNL     1      -8.822   2.642  16.497  1.00  0.00     0.057 A 
ATOM     79  C   UNL     1      -9.013   1.255  16.530  1.00  0.00     0.134 A 
ATOM     80  C   UNL     1      -9.169   3.372  17.640  1.00  0.00     0.134 A 
ATOM     81  F   UNL     1      -8.713   0.502  15.461  1.00  0.00    -0.206 F 
ATOM     82  C   UNL     1      -9.552   0.621  17.650  1.00  0.00     0.040 A 
ATOM     83  C   UNL     1      -9.688   2.747  18.774  1.00  0.00     0.040 A 
ATOM     84  F   UNL     1      -9.004   4.703  17.674  1.00  0.00    -0.206 F 
ATOM     85  C   UNL     1      -9.888   1.368  18.778  1.00  0.00     0.006 A 
ENDBRANCH  61  78
ENDBRANCH  35  36
ENDBRANCH  27  30
ENDBRANCH  25  26
ENDBRANCH  24  25
ENDBRANCH  23  24
ENDBRANCH  22  23
ENDBRANCH   1  22
TORSDOF 17
