REMARK SMILES CC(C)[C@H](C)N(C)C(=O)N1CC[C@@H](C(=O)NCCCCCCNC(=O)c2ccc(-c3c4nc(c(-c5c(F)cccc5F)c5ccc([nH]5)c(-c5c(F)cccc5F)c5nc(c(-c6c(F)cccc6F)c6ccc3[nH]6)C=C5)C=C4)cc2)[C@@H]1C
REMARK SMILES IDX 18 1 17 2 16 3 14 4 15 5 13 7 10 8 11 9 80 10 12 11 81 12
REMARK SMILES IDX 8 13 9 14 6 15 7 16 4 17 5 18 2 19 1 20 3 21 19 22 20 23
REMARK SMILES IDX 21 24 22 25 23 26 24 27 25 29 26 30 27 31 79 32 28 33 78 34
REMARK SMILES IDX 29 35 30 36 31 37 72 38 32 39 77 40 71 41 73 42 33 43 76 44
REMARK SMILES IDX 70 45 69 46 34 48 60 49 43 50 59 51 44 52 47 53 58 54 74 55
REMARK SMILES IDX 45 56 46 57 57 59 75 60 48 61 35 62 36 63 41 64 37 65 38 66
REMARK SMILES IDX 40 67 42 68 39 69 61 70 62 71 67 72 63 73 64 74 66 75 68 76
REMARK SMILES IDX 65 77 49 78 50 79 55 80 51 81 52 82 54 83 56 84 53 85
REMARK H PARENT 16 6 23 28 73 47 47 58
REMARK Flexibility Score: inf
ROOT
ATOM      1  C   UNL     1      -2.370  -6.067  -2.378  1.00  0.00     0.021 C 
ENDROOT
BRANCH   1   2
ATOM      2  C   UNL     1      -1.752  -5.914  -3.767  1.00  0.00     0.116 C 
BRANCH   2   3
ATOM      3  N   UNL     1      -2.743  -6.111  -4.807  1.00  0.00    -0.356 N 
ATOM      4  C   UNL     1      -3.210  -5.276  -5.773  1.00  0.00     0.225 C 
ATOM      5  O   UNL     1      -4.106  -5.709  -6.504  1.00  0.00    -0.275 OA
ATOM      6  H   UNL     1      -3.150  -7.008  -4.815  1.00  0.00     0.163 HD
BRANCH   4   7
ATOM      7  C   UNL     1      -2.674  -3.869  -5.989  1.00  0.00     0.102 C 
ATOM      8  N   UNL     1      -1.525  -2.335  -4.555  1.00  0.00    -0.321 N 
ATOM      9  C   UNL     1      -0.711  -2.520  -5.746  1.00  0.00     0.122 C 
ATOM     10  C   UNL     1      -2.852  -2.931  -4.774  1.00  0.00     0.096 C 
ATOM     11  C   UNL     1      -1.189  -3.825  -6.348  1.00  0.00     0.037 C 
ATOM     12  C   UNL     1      -3.885  -1.844  -5.083  1.00  0.00     0.032 C 
BRANCH   8  13
ATOM     13  C   UNL     1      -1.061  -1.456  -3.602  1.00  0.00     0.320 C 
ATOM     14  O   UNL     1      -0.183  -0.649  -3.928  1.00  0.00    -0.248 OA
BRANCH  13  15
ATOM     15  N   UNL     1      -1.501  -1.531  -2.288  1.00  0.00    -0.325 N 
ATOM     16  C   UNL     1      -2.466  -2.478  -1.774  1.00  0.00     0.149 C 
BRANCH  15  17
ATOM     17  C   UNL     1      -0.878  -0.632  -1.275  1.00  0.00     0.086 C 
ATOM     18  C   UNL     1       0.636  -0.897  -1.145  1.00  0.00     0.031 C 
BRANCH  17  19
ATOM     19  C   UNL     1      -1.333   0.846  -1.450  1.00  0.00     0.005 C 
ATOM     20  C   UNL     1      -2.836   0.964  -1.140  1.00  0.00     0.009 C 
ATOM     21  C   UNL     1      -0.578   1.821  -0.541  1.00  0.00     0.009 C 
ENDBRANCH  17  19
ENDBRANCH  15  17
ENDBRANCH  13  15
ENDBRANCH   8  13
ENDBRANCH   4   7
ENDBRANCH   2   3
ENDBRANCH   1   2
BRANCH   1  22
ATOM     22  C   UNL     1      -2.570  -7.509  -1.911  1.00  0.00     0.002 C 
BRANCH  22  23
ATOM     23  C   UNL     1      -1.287  -8.336  -1.778  1.00  0.00     0.002 C 
BRANCH  23  24
ATOM     24  C   UNL     1      -0.148  -7.680  -0.990  1.00  0.00     0.021 C 
BRANCH  24  25
ATOM     25  C   UNL     1      -0.504  -7.215   0.419  1.00  0.00     0.116 C 
BRANCH  25  26
ATOM     26  N   UNL     1      -0.922  -8.311   1.275  1.00  0.00    -0.352 N 
ATOM     27  C   UNL     1      -0.439  -8.701   2.496  1.00  0.00     0.251 C 
ATOM     28  H   UNL     1      -1.663  -8.856   0.924  1.00  0.00     0.163 HD
ATOM     29  O   UNL     1      -0.811  -9.766   2.989  1.00  0.00    -0.269 OA
BRANCH  27  30
ATOM     30  C   UNL     1       0.535  -7.862   3.226  1.00  0.00     0.039 A 
ATOM     31  C   UNL     1       1.616  -8.485   3.858  1.00  0.00     0.014 A 
ATOM     32  C   UNL     1       0.365  -6.478   3.338  1.00  0.00     0.014 A 
ATOM     33  C   UNL     1       2.543  -7.720   4.570  1.00  0.00     0.010 A 
ATOM     34  C   UNL     1       1.324  -5.709   3.994  1.00  0.00     0.010 A 
ATOM     35  C   UNL     1       2.413  -6.324   4.631  1.00  0.00    -0.014 A 
BRANCH  35  36
ATOM     36  C   UNL     1       3.386  -5.499   5.391  1.00  0.00     0.031 A 
ATOM     37  C   UNL     1       2.946  -4.760   6.625  1.00  0.00     0.074 A 
ATOM     38  C   UNL     1       4.653  -5.379   4.950  1.00  0.00     0.049 A 
ATOM     39  N   UNL     1       3.629  -3.950   7.394  1.00  0.00    -0.248 NA
ATOM     40  C   UNL     1       1.544  -4.935   7.034  1.00  0.00     0.031 C 
ATOM     41  C   UNL     1       5.195  -6.012   3.748  1.00  0.00     0.029 A 
ATOM     42  N   UNL     1       5.713  -4.675   5.463  1.00  0.00    -0.354 N 
ATOM     43  C   UNL     1       2.738  -3.507   8.363  1.00  0.00     0.074 A 
ATOM     44  C   UNL     1       1.453  -4.099   8.057  1.00  0.00     0.031 C 
ATOM     45  C   UNL     1       6.492  -5.685   3.627  1.00  0.00     0.029 A 
ATOM     46  C   UNL     1       6.865  -4.798   4.725  1.00  0.00     0.049 A 
ATOM     47  H   UNL     1       5.654  -4.132   6.283  1.00  0.00     0.167 HD
ATOM     48  C   UNL     1       2.972  -2.700   9.425  1.00  0.00     0.037 A 
ATOM     49  C   UNL     1       8.083  -4.257   4.913  1.00  0.00     0.037 A 
ATOM     50  C   UNL     1       4.256  -2.136   9.747  1.00  0.00     0.049 A 
ATOM     51  C   UNL     1       8.322  -3.376   6.108  1.00  0.00     0.074 A 
ATOM     52  C   UNL     1       4.605  -1.343  10.827  1.00  0.00     0.029 A 
ATOM     53  N   UNL     1       5.405  -2.311   8.991  1.00  0.00    -0.354 N 
ATOM     54  N   UNL     1       7.483  -3.009   7.046  1.00  0.00    -0.248 NA
ATOM     55  C   UNL     1       9.683  -2.846   6.277  1.00  0.00     0.031 C 
ATOM     56  C   UNL     1       5.960  -1.013  10.708  1.00  0.00     0.029 A 
ATOM     57  C   UNL     1       6.463  -1.634   9.576  1.00  0.00     0.049 A 
ATOM     58  H   UNL     1       5.461  -2.838   8.162  1.00  0.00     0.167 HD
ATOM     59  C   UNL     1       8.220  -2.233   7.932  1.00  0.00     0.074 A 
ATOM     60  C   UNL     1       9.575  -2.191   7.424  1.00  0.00     0.031 C 
ATOM     61  C   UNL     1       7.810  -1.615   9.067  1.00  0.00     0.037 A 
BRANCH  48  62
ATOM     62  C   UNL     1       1.807  -2.382  10.318  1.00  0.00     0.057 A 
ATOM     63  C   UNL     1       1.242  -3.346  11.164  1.00  0.00     0.134 A 
ATOM     64  C   UNL     1       1.257  -1.095  10.347  1.00  0.00     0.134 A 
ATOM     65  F   UNL     1       1.714  -4.602  11.174  1.00  0.00    -0.206 F 
ATOM     66  C   UNL     1       0.152  -3.049  11.984  1.00  0.00     0.040 A 
ATOM     67  C   UNL     1       0.184  -0.779  11.183  1.00  0.00     0.040 A 
ATOM     68  F   UNL     1       1.753  -0.123   9.567  1.00  0.00    -0.206 F 
ATOM     69  C   UNL     1      -0.376  -1.760  11.999  1.00  0.00     0.006 A 
ENDBRANCH  48  62
BRANCH  49  70
ATOM     70  C   UNL     1       9.184  -4.565   3.968  1.00  0.00     0.057 A 
ATOM     71  C   UNL     1      10.246  -5.394   4.347  1.00  0.00     0.134 A 
ATOM     72  C   UNL     1       9.206  -4.038   2.672  1.00  0.00     0.134 A 
ATOM     73  F   UNL     1      10.289  -5.914   5.582  1.00  0.00    -0.206 F 
ATOM     74  C   UNL     1      11.300  -5.676   3.477  1.00  0.00     0.040 A 
ATOM     75  C   UNL     1      10.242  -4.329   1.783  1.00  0.00     0.040 A 
ATOM     76  F   UNL     1       8.213  -3.243   2.247  1.00  0.00    -0.206 F 
ATOM     77  C   UNL     1      11.297  -5.145   2.188  1.00  0.00     0.006 A 
ENDBRANCH  49  70
BRANCH  61  78
ATOM     78  C   UNL     1       8.850  -0.882   9.861  1.00  0.00     0.057 A 
ATOM     79  C   UNL     1       9.385   0.340   9.435  1.00  0.00     0.134 A 
ATOM     80  C   UNL     1       9.299  -1.395  11.085  1.00  0.00     0.134 A 
ATOM     81  F   UNL     1       9.006   0.877   8.265  1.00  0.00    -0.206 F 
ATOM     82  C   UNL     1      10.347   1.015  10.187  1.00  0.00     0.040 A 
ATOM     83  C   UNL     1      10.242  -0.717  11.858  1.00  0.00     0.040 A 
ATOM     84  F   UNL     1       8.821  -2.557  11.554  1.00  0.00    -0.206 F 
ATOM     85  C   UNL     1      10.774   0.489  11.406  1.00  0.00     0.006 A 
ENDBRANCH  61  78
ENDBRANCH  35  36
ENDBRANCH  27  30
ENDBRANCH  25  26
ENDBRANCH  24  25
ENDBRANCH  23  24
ENDBRANCH  22  23
ENDBRANCH   1  22
TORSDOF 17
