REMARK SMILES Cc1ccc(S(=O)(=O)N2c3ccc(C(=O)NCCCCCCNC(=O)c4ccc(-c5c6nc(c(-c7c(F)cccc7F)c7ccc([nH]7)c(-c7c(F)cccc7F)c7nc(c(-c8c(F)cccc8F)c8ccc5[nH]8)C=C7)C=C6)cc4)cc3C[C@H]2C)cc1
REMARK SMILES IDX 19 1 18 2 17 3 16 4 14 5 15 6 13 8 9 9 10 10 83 11 11 12
REMARK SMILES IDX 81 13 82 14 84 15 12 16 80 17 6 18 7 19 8 20 5 21 1 22 2 23
REMARK SMILES IDX 3 24 86 25 4 26 85 27 20 28 21 29 22 30 23 31 24 32 25 34
REMARK SMILES IDX 26 35 27 36 79 37 28 38 78 39 29 40 30 41 31 42 72 43 32 44
REMARK SMILES IDX 77 45 71 46 73 47 33 48 76 49 70 50 69 51 34 53 60 54 43 55
REMARK SMILES IDX 59 56 44 57 47 58 58 59 74 60 45 61 46 62 57 64 75 65 48 66
REMARK SMILES IDX 35 67 36 68 41 69 37 70 38 71 40 72 42 73 39 74 61 75 62 76
REMARK SMILES IDX 67 77 63 78 64 79 66 80 68 81 65 82 49 83 50 84 55 85 51 86
REMARK SMILES IDX 52 87 54 88 56 89 53 90
REMARK H PARENT 16 7 23 33 73 52 47 63
REMARK Flexibility Score: inf
ROOT
ATOM      1  C   UNL     1     -12.718   1.443   2.856  1.00  0.00     0.002 C 
ENDROOT
BRANCH   1   2
ATOM      2  C   UNL     1     -11.218   1.694   3.030  1.00  0.00     0.021 C 
BRANCH   2   3
ATOM      3  C   UNL     1     -10.303   1.356   1.859  1.00  0.00     0.116 C 
BRANCH   3   4
ATOM      4  N   UNL     1     -10.550   2.093   0.639  1.00  0.00    -0.352 N 
ATOM      5  C   UNL     1      -9.666   2.426  -0.366  1.00  0.00     0.251 C 
ATOM      6  O   UNL     1     -10.075   3.062  -1.334  1.00  0.00    -0.269 OA
ATOM      7  H   UNL     1     -11.476   2.400   0.509  1.00  0.00     0.163 HD
BRANCH   5   8
ATOM      8  C   UNL     1      -8.214   2.093  -0.269  1.00  0.00     0.040 A 
ATOM      9  N   UNL     1      -4.038   1.656   0.211  1.00  0.00    -0.263 N 
ATOM     10  C   UNL     1      -5.481   1.652   0.070  1.00  0.00     0.055 A 
ATOM     11  C   UNL     1      -3.611   3.007  -0.342  1.00  0.00     0.101 C 
ATOM     12  C   UNL     1      -6.372   0.697   0.524  1.00  0.00     0.028 A 
ATOM     13  C   UNL     1      -5.939   2.779  -0.607  1.00  0.00    -0.021 A 
ATOM     14  C   UNL     1      -4.798   3.560  -1.159  1.00  0.00     0.063 C 
ATOM     15  C   UNL     1      -3.308   3.935   0.842  1.00  0.00     0.032 C 
ATOM     16  C   UNL     1      -7.739   0.897   0.299  1.00  0.00     0.016 A 
ATOM     17  C   UNL     1      -7.296   3.023  -0.776  1.00  0.00     0.019 A 
BRANCH   9  18
ATOM     18  S   UNL     1      -3.319   0.255  -0.490  1.00  0.00     0.264 S 
ATOM     19  O   UNL     1      -3.421   0.382  -1.924  1.00  0.00    -0.201 OA
ATOM     20  O   UNL     1      -3.874  -0.906   0.195  1.00  0.00    -0.201 OA
BRANCH  18  21
ATOM     21  C   UNL     1      -1.574   0.200  -0.118  1.00  0.00     0.088 A 
ATOM     22  C   UNL     1       2.712  -0.176   0.124  1.00  0.00     0.044 C 
ATOM     23  C   UNL     1       1.218  -0.051   0.097  1.00  0.00    -0.051 A 
ATOM     24  C   UNL     1       0.426  -1.181  -0.126  1.00  0.00     0.005 A 
ATOM     25  C   UNL     1       0.595   1.187   0.289  1.00  0.00     0.005 A 
ATOM     26  C   UNL     1      -0.959  -1.056  -0.236  1.00  0.00     0.022 A 
ATOM     27  C   UNL     1      -0.797   1.312   0.191  1.00  0.00     0.022 A 
ENDBRANCH  18  21
ENDBRANCH   9  18
ENDBRANCH   5   8
ENDBRANCH   3   4
ENDBRANCH   2   3
ENDBRANCH   1   2
BRANCH   1  28
ATOM     28  C   UNL     1     -13.168   0.093   2.282  1.00  0.00     0.002 C 
BRANCH  28  29
ATOM     29  C   UNL     1     -12.523  -1.171   2.848  1.00  0.00     0.021 C 
BRANCH  29  30
ATOM     30  C   UNL     1     -12.750  -1.419   4.330  1.00  0.00     0.116 C 
BRANCH  30  31
ATOM     31  N   UNL     1     -13.949  -2.180   4.641  1.00  0.00    -0.352 N 
ATOM     32  C   UNL     1     -14.448  -2.585   5.865  1.00  0.00     0.251 C 
ATOM     33  H   UNL     1     -14.488  -2.448   3.862  1.00  0.00     0.163 HD
ATOM     34  O   UNL     1     -15.444  -3.305   5.898  1.00  0.00    -0.269 OA
BRANCH  32  35
ATOM     35  C   UNL     1     -13.898  -2.037   7.134  1.00  0.00     0.039 A 
ATOM     36  C   UNL     1     -14.807  -1.750   8.163  1.00  0.00     0.014 A 
ATOM     37  C   UNL     1     -12.578  -1.614   7.252  1.00  0.00     0.014 A 
ATOM     38  C   UNL     1     -14.471  -0.819   9.142  1.00  0.00     0.010 A 
ATOM     39  C   UNL     1     -12.273  -0.616   8.150  1.00  0.00     0.010 A 
ATOM     40  C   UNL     1     -13.247  -0.167   9.043  1.00  0.00    -0.014 A 
BRANCH  40  41
ATOM     41  C   UNL     1     -12.921   1.059   9.754  1.00  0.00     0.031 A 
ATOM     42  C   UNL     1     -12.023   1.021  10.920  1.00  0.00     0.074 A 
ATOM     43  C   UNL     1     -13.342   2.234   9.238  1.00  0.00     0.049 A 
ATOM     44  N   UNL     1     -11.921   1.963  11.792  1.00  0.00    -0.248 NA
ATOM     45  C   UNL     1     -11.185  -0.132  11.220  1.00  0.00     0.031 C 
ATOM     46  C   UNL     1     -12.882   3.576   9.579  1.00  0.00     0.029 A 
ATOM     47  N   UNL     1     -14.459   2.446   8.418  1.00  0.00    -0.354 N 
ATOM     48  C   UNL     1     -10.843   1.680  12.600  1.00  0.00     0.074 A 
ATOM     49  C   UNL     1     -10.466   0.332  12.245  1.00  0.00     0.031 C 
ATOM     50  C   UNL     1     -13.833   4.459   9.235  1.00  0.00     0.029 A 
ATOM     51  C   UNL     1     -14.992   3.692   8.810  1.00  0.00     0.049 A 
ATOM     52  H   UNL     1     -14.800   1.848   7.714  1.00  0.00     0.167 HD
ATOM     53  C   UNL     1     -10.328   2.677  13.378  1.00  0.00     0.037 A 
ATOM     54  C   UNL     1     -16.230   3.779   9.378  1.00  0.00     0.037 A 
ATOM     55  C   UNL     1     -11.164   3.877  13.295  1.00  0.00     0.049 A 
ATOM     56  C   UNL     1     -16.218   4.365  10.771  1.00  0.00     0.074 A 
ATOM     57  C   UNL     1     -11.067   5.039  12.546  1.00  0.00     0.029 A 
ATOM     58  N   UNL     1     -12.455   3.848  13.810  1.00  0.00    -0.354 N 
ATOM     59  N   UNL     1     -15.166   4.391  11.542  1.00  0.00    -0.248 NA
ATOM     60  C   UNL     1     -17.390   4.962  11.404  1.00  0.00     0.031 C 
ATOM     61  C   UNL     1     -12.332   5.679  12.563  1.00  0.00     0.029 A 
ATOM     62  C   UNL     1     -13.188   4.921  13.344  1.00  0.00     0.049 A 
ATOM     63  H   UNL     1     -12.799   3.158  14.423  1.00  0.00     0.167 HD
ATOM     64  C   UNL     1     -15.489   4.976  12.740  1.00  0.00     0.074 A 
ATOM     65  C   UNL     1     -16.889   5.333  12.596  1.00  0.00     0.031 C 
ATOM     66  C   UNL     1     -14.575   5.110  13.747  1.00  0.00     0.037 A 
BRANCH  53  67
ATOM     67  C   UNL     1      -8.935   2.674  13.980  1.00  0.00     0.057 A 
ATOM     68  C   UNL     1      -8.270   3.888  14.258  1.00  0.00     0.134 A 
ATOM     69  C   UNL     1      -8.162   1.532  14.251  1.00  0.00     0.134 A 
ATOM     70  F   UNL     1      -8.891   5.071  14.162  1.00  0.00    -0.206 F 
ATOM     71  C   UNL     1      -6.926   3.957  14.651  1.00  0.00     0.040 A 
ATOM     72  C   UNL     1      -6.803   1.585  14.598  1.00  0.00     0.040 A 
ATOM     73  F   UNL     1      -8.692   0.306  14.263  1.00  0.00    -0.206 F 
ATOM     74  C   UNL     1      -6.173   2.803  14.786  1.00  0.00     0.006 A 
ENDBRANCH  53  67
BRANCH  54  75
ATOM     75  C   UNL     1     -17.170   2.736   8.888  1.00  0.00     0.057 A 
ATOM     76  C   UNL     1     -17.540   2.757   7.531  1.00  0.00     0.134 A 
ATOM     77  C   UNL     1     -17.369   1.540   9.583  1.00  0.00     0.134 A 
ATOM     78  F   UNL     1     -17.375   3.875   6.806  1.00  0.00    -0.206 F 
ATOM     79  C   UNL     1     -17.968   1.606   6.863  1.00  0.00     0.040 A 
ATOM     80  C   UNL     1     -17.813   0.384   8.927  1.00  0.00     0.040 A 
ATOM     81  F   UNL     1     -17.023   1.433  10.874  1.00  0.00    -0.206 F 
ATOM     82  C   UNL     1     -18.070   0.405   7.556  1.00  0.00     0.006 A 
ENDBRANCH  54  75
BRANCH  66  83
ATOM     83  C   UNL     1     -14.862   5.508  15.178  1.00  0.00     0.057 A 
ATOM     84  C   UNL     1     -16.090   5.315  15.826  1.00  0.00     0.134 A 
ATOM     85  C   UNL     1     -13.818   5.972  16.015  1.00  0.00     0.134 A 
ATOM     86  F   UNL     1     -17.142   4.775  15.196  1.00  0.00    -0.206 F 
ATOM     87  C   UNL     1     -16.282   5.612  17.184  1.00  0.00     0.040 A 
ATOM     88  C   UNL     1     -13.983   6.215  17.381  1.00  0.00     0.040 A 
ATOM     89  F   UNL     1     -12.579   6.185  15.549  1.00  0.00    -0.206 F 
ATOM     90  C   UNL     1     -15.225   6.049  17.970  1.00  0.00     0.006 A 
ENDBRANCH  66  83
ENDBRANCH  40  41
ENDBRANCH  32  35
ENDBRANCH  30  31
ENDBRANCH  29  30
ENDBRANCH  28  29
ENDBRANCH   1  28
TORSDOF 15
