REMARK SMILES CCOc1cc2nccc(Nc3ccc(C(=O)NCCCCCCNC(=O)c4ccc(-c5c6nc(c(-c7c(F)cccc7F)c7ccc([nH]7)c(-c7c(F)cccc7F)c7nc(c(-c8c(F)cccc8F)c8ccc5[nH]8)C=C7)C=C6)cc4)cc3)c2cc1OCC
REMARK SMILES IDX 20 1 19 2 18 3 16 4 17 5 15 7 12 8 13 9 83 10 14 11 82 12
REMARK SMILES IDX 11 13 10 15 4 16 5 17 86 18 6 19 85 20 7 21 84 22 8 23 9 24
REMARK SMILES IDX 3 25 2 26 1 27 87 28 88 29 89 30 21 31 22 32 23 33 24 34
REMARK SMILES IDX 25 35 26 36 27 38 28 39 29 40 81 41 30 42 80 43 31 44 32 45
REMARK SMILES IDX 33 46 74 47 34 48 79 49 73 50 75 51 35 52 78 53 72 54 71 55
REMARK SMILES IDX 36 57 62 58 45 59 61 60 46 61 49 62 60 63 76 64 47 65 48 66
REMARK SMILES IDX 59 68 77 69 50 70 37 71 38 72 43 73 39 74 40 75 42 76 44 77
REMARK SMILES IDX 41 78 63 79 64 80 69 81 65 82 66 83 68 84 70 85 67 86 51 87
REMARK SMILES IDX 52 88 57 89 53 90 54 91 56 92 58 93 55 94
REMARK H PARENT 18 6 11 14 25 37 75 56 49 67
REMARK Flexibility Score: inf
ROOT
ATOM      1  C   UNL     1      13.767   1.917  -3.684  1.00  0.00     0.021 C 
ENDROOT
BRANCH   1   2
ATOM      2  C   UNL     1      13.246   0.683  -4.423  1.00  0.00     0.116 C 
BRANCH   2   3
ATOM      3  N   UNL     1      13.621  -0.505  -3.684  1.00  0.00    -0.352 N 
ATOM      4  C   UNL     1      12.917  -1.315  -2.836  1.00  0.00     0.251 C 
ATOM      5  O   UNL     1      13.523  -2.227  -2.273  1.00  0.00    -0.269 OA
ATOM      6  H   UNL     1      14.556  -0.781  -3.818  1.00  0.00     0.163 HD
BRANCH   4   7
ATOM      7  C   UNL     1      11.447  -1.198  -2.655  1.00  0.00     0.039 A 
ATOM      8  C   UNL     1       8.636  -1.223  -2.537  1.00  0.00     0.038 A 
ATOM      9  C   UNL     1       9.366  -2.405  -2.379  1.00  0.00     0.027 A 
ATOM     10  C   UNL     1       9.324  -0.021  -2.697  1.00  0.00     0.027 A 
ATOM     11  C   UNL     1      10.756  -2.397  -2.449  1.00  0.00     0.016 A 
ATOM     12  C   UNL     1      10.723  -0.002  -2.698  1.00  0.00     0.016 A 
BRANCH   8  13
ATOM     13  N   UNL     1       7.242  -1.295  -2.552  1.00  0.00    -0.355 N 
ATOM     14  H   UNL     1       6.859  -1.773  -1.781  1.00  0.00     0.167 HD
BRANCH  13  15
ATOM     15  C   UNL     1       6.275  -0.813  -3.463  1.00  0.00     0.050 A 
ATOM     16  C   UNL     1       2.225  -0.700  -2.272  1.00  0.00     0.163 A 
ATOM     17  C   UNL     1       2.595  -0.398  -3.592  1.00  0.00     0.079 A 
ATOM     18  C   UNL     1       3.217  -0.944  -1.325  1.00  0.00     0.161 A 
ATOM     19  C   UNL     1       3.935  -0.382  -3.998  1.00  0.00     0.076 A 
ATOM     20  C   UNL     1       4.546  -0.961  -1.721  1.00  0.00     0.063 A 
ATOM     21  N   UNL     1       4.258  -0.086  -5.271  1.00  0.00    -0.256 NA
ATOM     22  C   UNL     1       4.925  -0.717  -3.050  1.00  0.00     0.028 A 
ATOM     23  C   UNL     1       5.566  -0.118  -5.623  1.00  0.00     0.114 A 
ATOM     24  C   UNL     1       6.598  -0.461  -4.768  1.00  0.00     0.047 A 
BRANCH  16  25
ATOM     25  O   UNL     1       0.924  -0.915  -1.916  1.00  0.00    -0.490 OA
BRANCH  25  26
ATOM     26  C   UNL     1       0.035   0.184  -2.119  1.00  0.00     0.226 C 
ATOM     27  C   UNL     1      -1.010   0.126  -1.010  1.00  0.00     0.049 C 
ENDBRANCH  25  26
ENDBRANCH  16  25
BRANCH  18  28
ATOM     28  O   UNL     1       3.056  -1.212   0.004  1.00  0.00    -0.490 OA
BRANCH  28  29
ATOM     29  C   UNL     1       2.121  -0.410   0.720  1.00  0.00     0.226 C 
ATOM     30  C   UNL     1       2.334   1.093   0.575  1.00  0.00     0.049 C 
ENDBRANCH  28  29
ENDBRANCH  18  28
ENDBRANCH  13  15
ENDBRANCH   8  13
ENDBRANCH   4   7
ENDBRANCH   2   3
ENDBRANCH   1   2
BRANCH   1  31
ATOM     31  C   UNL     1      15.263   2.155  -3.926  1.00  0.00     0.002 C 
BRANCH  31  32
ATOM     32  C   UNL     1      15.624   2.465  -5.384  1.00  0.00     0.002 C 
BRANCH  32  33
ATOM     33  C   UNL     1      14.871   3.653  -5.986  1.00  0.00     0.021 C 
BRANCH  33  34
ATOM     34  C   UNL     1      15.119   4.971  -5.261  1.00  0.00     0.116 C 
BRANCH  34  35
ATOM     35  N   UNL     1      16.513   5.376  -5.359  1.00  0.00    -0.352 N 
ATOM     36  C   UNL     1      17.047   6.528  -5.878  1.00  0.00     0.251 C 
ATOM     37  H   UNL     1      17.166   4.731  -5.001  1.00  0.00     0.163 HD
ATOM     38  O   UNL     1      18.246   6.603  -6.115  1.00  0.00    -0.269 OA
BRANCH  36  39
ATOM     39  C   UNL     1      16.162   7.676  -6.158  1.00  0.00     0.039 A 
ATOM     40  C   UNL     1      16.321   8.377  -7.356  1.00  0.00     0.014 A 
ATOM     41  C   UNL     1      15.187   8.065  -5.236  1.00  0.00     0.014 A 
ATOM     42  C   UNL     1      15.463   9.436  -7.652  1.00  0.00     0.010 A 
ATOM     43  C   UNL     1      14.284   9.069  -5.566  1.00  0.00     0.010 A 
ATOM     44  C   UNL     1      14.418   9.769  -6.774  1.00  0.00    -0.014 A 
BRANCH  44  45
ATOM     45  C   UNL     1      13.450  10.841  -7.110  1.00  0.00     0.031 A 
ATOM     46  C   UNL     1      13.355  12.074  -6.258  1.00  0.00     0.074 A 
ATOM     47  C   UNL     1      12.603  10.666  -8.142  1.00  0.00     0.049 A 
ATOM     48  N   UNL     1      12.537  13.090  -6.363  1.00  0.00    -0.248 NA
ATOM     49  C   UNL     1      14.279  12.161  -5.117  1.00  0.00     0.031 C 
ATOM     50  C   UNL     1      12.555   9.483  -9.003  1.00  0.00     0.029 A 
ATOM     51  N   UNL     1      11.610  11.476  -8.630  1.00  0.00    -0.354 N 
ATOM     52  C   UNL     1      12.837  13.928  -5.296  1.00  0.00     0.074 A 
ATOM     53  C   UNL     1      13.871  13.272  -4.524  1.00  0.00     0.031 C 
ATOM     54  C   UNL     1      11.596   9.652  -9.925  1.00  0.00     0.029 A 
ATOM     55  C   UNL     1      10.937  10.934  -9.698  1.00  0.00     0.049 A 
ATOM     56  H   UNL     1      11.400  12.360  -8.252  1.00  0.00     0.167 HD
ATOM     57  C   UNL     1      12.314  15.142  -5.000  1.00  0.00     0.037 A 
ATOM     58  C   UNL     1       9.899  11.412 -10.409  1.00  0.00     0.037 A 
ATOM     59  C   UNL     1      11.294  15.792  -5.781  1.00  0.00     0.049 A 
ATOM     60  C   UNL     1       9.335  12.762 -10.069  1.00  0.00     0.074 A 
ATOM     61  C   UNL     1      10.754  17.055  -5.614  1.00  0.00     0.029 A 
ATOM     62  N   UNL     1      10.650  15.223  -6.871  1.00  0.00    -0.354 N 
ATOM     63  N   UNL     1       9.690  13.587  -9.113  1.00  0.00    -0.248 NA
ATOM     64  C   UNL     1       8.235  13.251 -10.909  1.00  0.00     0.031 C 
ATOM     65  C   UNL     1       9.741  17.226  -6.565  1.00  0.00     0.029 A 
ATOM     66  C   UNL     1       9.691  16.094  -7.363  1.00  0.00     0.049 A 
ATOM     67  H   UNL     1      10.846  14.331  -7.240  1.00  0.00     0.167 HD
ATOM     68  C   UNL     1       8.870  14.700  -9.246  1.00  0.00     0.074 A 
ATOM     69  C   UNL     1       8.012  14.450 -10.387  1.00  0.00     0.031 C 
ATOM     70  C   UNL     1       8.832  15.826  -8.492  1.00  0.00     0.037 A 
BRANCH  57  71
ATOM     71  C   UNL     1      12.830  15.829  -3.767  1.00  0.00     0.057 A 
ATOM     72  C   UNL     1      14.146  16.303  -3.674  1.00  0.00     0.134 A 
ATOM     73  C   UNL     1      11.999  16.018  -2.655  1.00  0.00     0.134 A 
ATOM     74  F   UNL     1      15.000  16.147  -4.697  1.00  0.00    -0.206 F 
ATOM     75  C   UNL     1      14.630  16.898  -2.506  1.00  0.00     0.040 A 
ATOM     76  C   UNL     1      12.461  16.641  -1.494  1.00  0.00     0.040 A 
ATOM     77  F   UNL     1      10.725  15.598  -2.676  1.00  0.00    -0.206 F 
ATOM     78  C   UNL     1      13.784  17.071  -1.413  1.00  0.00     0.006 A 
ENDBRANCH  57  71
BRANCH  58  79
ATOM     79  C   UNL     1       9.349  10.605 -11.526  1.00  0.00     0.057 A 
ATOM     80  C   UNL     1       9.564  10.971 -12.858  1.00  0.00     0.134 A 
ATOM     81  C   UNL     1       8.636   9.423 -11.287  1.00  0.00     0.134 A 
ATOM     82  F   UNL     1      10.228  12.100 -13.149  1.00  0.00    -0.206 F 
ATOM     83  C   UNL     1       9.086  10.195 -13.915  1.00  0.00     0.040 A 
ATOM     84  C   UNL     1       8.172   8.626 -12.334  1.00  0.00     0.040 A 
ATOM     85  F   UNL     1       8.408   9.012 -10.031  1.00  0.00    -0.206 F 
ATOM     86  C   UNL     1       8.395   9.013 -13.653  1.00  0.00     0.006 A 
ENDBRANCH  58  79
BRANCH  70  87
ATOM     87  C   UNL     1       7.839  16.881  -8.884  1.00  0.00     0.057 A 
ATOM     88  C   UNL     1       6.462  16.710  -8.692  1.00  0.00     0.134 A 
ATOM     89  C   UNL     1       8.268  18.100  -9.426  1.00  0.00     0.134 A 
ATOM     90  F   UNL     1       5.983  15.561  -8.190  1.00  0.00    -0.206 F 
ATOM     91  C   UNL     1       5.546  17.703  -9.046  1.00  0.00     0.040 A 
ATOM     92  C   UNL     1       7.365  19.111  -9.756  1.00  0.00     0.040 A 
ATOM     93  F   UNL     1       9.574  18.334  -9.628  1.00  0.00    -0.206 F 
ATOM     94  C   UNL     1       5.999  18.911  -9.573  1.00  0.00     0.006 A 
ENDBRANCH  70  87
ENDBRANCH  44  45
ENDBRANCH  36  39
ENDBRANCH  34  35
ENDBRANCH  33  34
ENDBRANCH  32  33
ENDBRANCH  31  32
ENDBRANCH   1  31
TORSDOF 19
