REMARK SMILES CO[C@@H]1C[NH2+][C@@H](O[C@@H]2C[C@@H](C(=O)NCCCCCCNC(=O)c3ccc(-c4c5nc(c(-c6c(F)cccc6F)c6ccc([nH]6)c(-c6c(F)cccc6F)c6nc(c(-c7c(F)cccc7F)c7ccc4[nH]7)C=C6)C=C5)cc3)N(C(=O)OC(C)(C)C)C2)c2cc(Cl)ccc21
REMARK SMILES IDX 16 1 15 2 14 3 13 4 11 5 12 6 10 8 8 9 9 10 85 11 77 12 7 13
REMARK SMILES IDX 6 14 3 15 4 16 92 17 5 18 86 19 91 20 87 23 90 24 88 25
REMARK SMILES IDX 89 26 2 27 1 28 78 29 79 30 80 31 81 32 82 33 83 34 84 35
REMARK SMILES IDX 17 36 18 37 19 38 20 39 21 40 22 42 23 43 24 44 76 45 25 46
REMARK SMILES IDX 75 47 26 48 27 49 28 50 69 51 29 52 74 53 68 54 70 55 30 56
REMARK SMILES IDX 73 57 67 58 66 59 31 61 57 62 40 63 56 64 41 65 44 66 55 67
REMARK SMILES IDX 71 68 42 69 43 70 54 72 72 73 45 74 32 75 33 76 38 77 34 78
REMARK SMILES IDX 35 79 37 80 39 81 36 82 58 83 59 84 64 85 60 86 61 87 63 88
REMARK SMILES IDX 65 89 62 90 46 91 47 92 52 93 48 94 49 95 51 96 53 97 50 98
REMARK H PARENT 13 7 5 21 5 22 20 41 70 60 44 71
REMARK Flexibility Score: inf
ROOT
ATOM      1  C   UNL     1      -4.065   2.266  -2.390  1.00  0.00     0.002 C 
ENDROOT
BRANCH   1   2
ATOM      2  C   UNL     1      -2.733   2.394  -1.643  1.00  0.00     0.021 C 
BRANCH   2   3
ATOM      3  C   UNL     1      -1.482   2.390  -2.516  1.00  0.00     0.116 C 
BRANCH   3   4
ATOM      4  N   UNL     1      -1.056   3.668  -3.063  1.00  0.00    -0.354 N 
ATOM      5  C   UNL     1       0.225   4.043  -3.435  1.00  0.00     0.243 C 
ATOM      6  O   UNL     1       0.357   4.995  -4.206  1.00  0.00    -0.273 OA
ATOM      7  H   UNL     1      -1.760   4.346  -3.183  1.00  0.00     0.163 HD
BRANCH   5   8
ATOM      8  C   UNL     1       1.438   3.261  -2.868  1.00  0.00     0.180 C 
ATOM      9  C   UNL     1       3.805   3.343  -2.288  1.00  0.00     0.147 C 
ATOM     10  C   UNL     1       2.554   4.220  -2.413  1.00  0.00     0.069 C 
ATOM     11  C   UNL     1       3.572   2.207  -3.276  1.00  0.00     0.156 C 
ATOM     12  N   UNL     1       2.169   2.265  -3.657  1.00  0.00    -0.293 N 
BRANCH   9  13
ATOM     13  O   UNL     1       4.321   2.980  -1.015  1.00  0.00    -0.320 OA
BRANCH  13  14
ATOM     14  C   UNL     1       3.666   2.358   0.077  1.00  0.00     0.354 C 
ATOM     15  C   UNL     1       1.207   0.776  -0.207  1.00  0.00     0.203 C 
ATOM     16  C   UNL     1       2.619   0.157  -0.389  1.00  0.00     0.300 C 
ATOM     17  C   UNL     1       1.164   2.159   0.434  1.00  0.00    -0.002 A 
ATOM     18  N   UNL     1       3.762   0.911   0.102  1.00  0.00    -0.315 N 
ATOM     19  C   UNL     1       2.344   2.920   0.527  1.00  0.00     0.046 A 
ATOM     20  C   UNL     1      -0.053   2.763   0.795  1.00  0.00     0.009 A 
ATOM     21  H   UNL     1       4.569   0.649  -0.465  1.00  0.00     0.349 HD
ATOM     22  H   UNL     1       3.829   0.670   1.091  1.00  0.00     0.349 HD
ATOM     23  C   UNL     1       2.296   4.235   1.030  1.00  0.00     0.033 A 
ATOM     24  C   UNL     1      -0.099   4.090   1.234  1.00  0.00     0.021 A 
ATOM     25  C   UNL     1       1.078   4.818   1.360  1.00  0.00     0.041 A 
ATOM     26  Cl  UNL     1       1.029   6.456   1.881  1.00  0.00    -0.084 Cl
BRANCH  15  27
ATOM     27  O   UNL     1       0.185  -0.115   0.247  1.00  0.00    -0.371 OA
ATOM     28  C   UNL     1       0.351  -0.626   1.557  1.00  0.00     0.196 C 
ENDBRANCH  15  27
ENDBRANCH  13  14
ENDBRANCH   9  13
BRANCH  12  29
ATOM     29  C   UNL     1       1.636   1.210  -4.356  1.00  0.00     0.411 C 
ATOM     30  O   UNL     1       2.256   0.167  -4.552  1.00  0.00    -0.224 OA
BRANCH  29  31
ATOM     31  O   UNL     1       0.394   1.459  -4.823  1.00  0.00    -0.444 OA
BRANCH  31  32
ATOM     32  C   UNL     1      -0.354   0.441  -5.547  1.00  0.00     0.106 C 
ATOM     33  C   UNL     1       0.393  -0.146  -6.752  1.00  0.00     0.056 C 
ATOM     34  C   UNL     1      -0.762  -0.673  -4.572  1.00  0.00     0.056 C 
ATOM     35  C   UNL     1      -1.587   1.173  -6.106  1.00  0.00     0.056 C 
ENDBRANCH  31  32
ENDBRANCH  29  31
ENDBRANCH  12  29
ENDBRANCH   5   8
ENDBRANCH   3   4
ENDBRANCH   2   3
ENDBRANCH   1   2
BRANCH   1  36
ATOM     36  C   UNL     1      -4.240   1.041  -3.300  1.00  0.00     0.002 C 
BRANCH  36  37
ATOM     37  C   UNL     1      -3.998  -0.330  -2.670  1.00  0.00     0.021 C 
BRANCH  37  38
ATOM     38  C   UNL     1      -4.928  -0.684  -1.519  1.00  0.00     0.116 C 
BRANCH  38  39
ATOM     39  N   UNL     1      -6.331  -0.689  -1.911  1.00  0.00    -0.352 N 
ATOM     40  C   UNL     1      -7.236  -1.714  -2.047  1.00  0.00     0.251 C 
ATOM     41  H   UNL     1      -6.697   0.202  -2.116  1.00  0.00     0.163 HD
ATOM     42  O   UNL     1      -8.319  -1.496  -2.585  1.00  0.00    -0.269 OA
BRANCH  40  43
ATOM     43  C   UNL     1      -6.922  -3.080  -1.570  1.00  0.00     0.039 A 
ATOM     44  C   UNL     1      -6.198  -3.281  -0.398  1.00  0.00     0.014 A 
ATOM     45  C   UNL     1      -7.396  -4.189  -2.283  1.00  0.00     0.014 A 
ATOM     46  C   UNL     1      -5.780  -4.559  -0.052  1.00  0.00     0.010 A 
ATOM     47  C   UNL     1      -7.081  -5.487  -1.859  1.00  0.00     0.010 A 
ATOM     48  C   UNL     1      -6.231  -5.684  -0.762  1.00  0.00    -0.014 A 
BRANCH  48  49
ATOM     49  C   UNL     1      -5.810  -7.034  -0.295  1.00  0.00     0.031 A 
ATOM     50  C   UNL     1      -4.995  -7.948  -1.172  1.00  0.00     0.074 A 
ATOM     51  C   UNL     1      -6.084  -7.391   0.976  1.00  0.00     0.049 A 
ATOM     52  N   UNL     1      -4.471  -9.115  -0.883  1.00  0.00    -0.248 NA
ATOM     53  C   UNL     1      -4.741  -7.507  -2.551  1.00  0.00     0.031 C 
ATOM     54  C   UNL     1      -6.873  -6.598   1.923  1.00  0.00     0.029 A 
ATOM     55  N   UNL     1      -5.687  -8.479   1.712  1.00  0.00    -0.354 N 
ATOM     56  C   UNL     1      -3.841  -9.550  -2.043  1.00  0.00     0.074 A 
ATOM     57  C   UNL     1      -4.078  -8.541  -3.052  1.00  0.00     0.031 C 
ATOM     58  C   UNL     1      -6.817  -7.169   3.134  1.00  0.00     0.029 A 
ATOM     59  C   UNL     1      -6.059  -8.410   3.034  1.00  0.00     0.049 A 
ATOM     60  H   UNL     1      -5.184  -9.234   1.331  1.00  0.00     0.167 HD
ATOM     61  C   UNL     1      -3.120 -10.681  -2.246  1.00  0.00     0.037 A 
ATOM     62  C   UNL     1      -5.821  -9.253   4.055  1.00  0.00     0.037 A 
ATOM     63  C   UNL     1      -2.874 -11.680  -1.237  1.00  0.00     0.049 A 
ATOM     64  C   UNL     1      -5.041 -10.507   3.791  1.00  0.00     0.074 A 
ATOM     65  C   UNL     1      -2.166 -12.865  -1.347  1.00  0.00     0.029 A 
ATOM     66  N   UNL     1      -3.323 -11.606   0.073  1.00  0.00    -0.354 N 
ATOM     67  N   UNL     1      -4.460 -10.904   2.686  1.00  0.00    -0.248 NA
ATOM     68  C   UNL     1      -4.898 -11.438   4.918  1.00  0.00     0.031 C 
ATOM     69  C   UNL     1      -2.213 -13.523  -0.111  1.00  0.00     0.029 A 
ATOM     70  C   UNL     1      -2.914 -12.727   0.780  1.00  0.00     0.049 A 
ATOM     71  H   UNL     1      -3.854 -10.866   0.447  1.00  0.00     0.167 HD
ATOM     72  C   UNL     1      -3.875 -12.126   2.985  1.00  0.00     0.074 A 
ATOM     73  C   UNL     1      -4.140 -12.384   4.386  1.00  0.00     0.031 C 
ATOM     74  C   UNL     1      -3.191 -12.967   2.172  1.00  0.00     0.037 A 
BRANCH  61  75
ATOM     75  C   UNL     1      -2.555 -10.901  -3.620  1.00  0.00     0.057 A 
ATOM     76  C   UNL     1      -3.071 -11.898  -4.457  1.00  0.00     0.134 A 
ATOM     77  C   UNL     1      -1.482 -10.143  -4.108  1.00  0.00     0.134 A 
ATOM     78  F   UNL     1      -4.094 -12.665  -4.052  1.00  0.00    -0.206 F 
ATOM     79  C   UNL     1      -2.542 -12.133  -5.728  1.00  0.00     0.040 A 
ATOM     80  C   UNL     1      -0.960 -10.352  -5.387  1.00  0.00     0.040 A 
ATOM     81  F   UNL     1      -0.949  -9.162  -3.363  1.00  0.00    -0.206 F 
ATOM     82  C   UNL     1      -1.488 -11.354  -6.199  1.00  0.00     0.006 A 
ENDBRANCH  61  75
BRANCH  62  83
ATOM     83  C   UNL     1      -6.332  -8.952   5.417  1.00  0.00     0.057 A 
ATOM     84  C   UNL     1      -7.703  -8.954   5.699  1.00  0.00     0.134 A 
ATOM     85  C   UNL     1      -5.456  -8.688   6.477  1.00  0.00     0.134 A 
ATOM     86  F   UNL     1      -8.595  -9.194   4.727  1.00  0.00    -0.206 F 
ATOM     87  C   UNL     1      -8.186  -8.699   6.983  1.00  0.00     0.040 A 
ATOM     88  C   UNL     1      -5.924  -8.463   7.773  1.00  0.00     0.040 A 
ATOM     89  F   UNL     1      -4.130  -8.691   6.275  1.00  0.00    -0.206 F 
ATOM     90  C   UNL     1      -7.294  -8.464   8.027  1.00  0.00     0.006 A 
ENDBRANCH  62  83
BRANCH  74  91
ATOM     91  C   UNL     1      -2.668 -14.224   2.802  1.00  0.00     0.057 A 
ATOM     92  C   UNL     1      -1.300 -14.380   3.055  1.00  0.00     0.134 A 
ATOM     93  C   UNL     1      -3.522 -15.267   3.187  1.00  0.00     0.134 A 
ATOM     94  F   UNL     1      -0.429 -13.421   2.707  1.00  0.00    -0.206 F 
ATOM     95  C   UNL     1      -0.801 -15.522   3.682  1.00  0.00     0.040 A 
ATOM     96  C   UNL     1      -3.038 -16.402   3.839  1.00  0.00     0.040 A 
ATOM     97  F   UNL     1      -4.846 -15.170   2.990  1.00  0.00    -0.206 F 
ATOM     98  C   UNL     1      -1.673 -16.532   4.087  1.00  0.00     0.006 A 
ENDBRANCH  74  91
ENDBRANCH  48  49
ENDBRANCH  40  43
ENDBRANCH  38  39
ENDBRANCH  37  38
ENDBRANCH  36  37
ENDBRANCH   1  36
TORSDOF 19
