REMARK SMILES O=C(Cc1ccccc1)Nc1cccc(C(=O)Nc2ccccc2C(=O)NCCCCCCNC(=O)c2ccc(-c3c4nc(c(-c5c(F)cccc5F)c5ccc([nH]5)c(-c5c(F)cccc5F)c5nc(c(-c6c(F)cccc6F)c6ccc3[nH]6)C=C5)C=C4)cc2)c1
REMARK SMILES IDX 29 1 28 2 27 3 25 4 26 5 24 7 19 8 20 9 21 10 23 11 22 12
REMARK SMILES IDX 18 13 16 14 17 15 15 17 11 18 12 19 91 20 13 21 14 22 10 23
REMARK SMILES IDX 1 24 2 25 3 27 4 28 5 29 9 30 6 31 8 32 7 33 30 34 31 35
REMARK SMILES IDX 32 36 33 37 34 38 35 39 36 41 37 42 38 43 90 44 39 45 89 46
REMARK SMILES IDX 40 47 41 48 42 49 83 50 43 51 88 52 82 53 84 54 44 55 87 56
REMARK SMILES IDX 81 57 80 58 45 60 71 61 54 62 70 63 55 64 58 65 69 66 85 67
REMARK SMILES IDX 56 68 57 69 68 71 86 72 59 73 46 74 47 75 52 76 48 77 49 78
REMARK SMILES IDX 51 79 53 80 50 81 72 82 73 83 78 84 74 85 75 86 77 87 79 88
REMARK SMILES IDX 76 89 60 90 61 91 66 92 62 93 63 94 65 95 67 96 64 97
REMARK H PARENT 27 6 18 16 10 26 34 40 84 59 58 70
REMARK Flexibility Score: inf
ROOT
ATOM      1  C   UNL     1      -0.204  -4.556  -5.853  1.00  0.00     0.021 C 
ENDROOT
BRANCH   1   2
ATOM      2  C   UNL     1      -0.112  -3.532  -4.731  1.00  0.00     0.116 C 
BRANCH   2   3
ATOM      3  N   UNL     1       1.216  -3.352  -4.201  1.00  0.00    -0.352 N 
ATOM      4  C   UNL     1       1.730  -2.303  -3.483  1.00  0.00     0.253 C 
ATOM      5  O   UNL     1       2.921  -2.364  -3.166  1.00  0.00    -0.269 OA
ATOM      6  H   UNL     1       1.844  -4.088  -4.380  1.00  0.00     0.163 HD
BRANCH   4   7
ATOM      7  C   UNL     1       0.956  -1.059  -3.177  1.00  0.00     0.063 A 
ATOM      8  C   UNL     1      -0.403  -0.920  -2.809  1.00  0.00     0.054 A 
ATOM      9  C   UNL     1      -0.943   0.382  -2.741  1.00  0.00     0.027 A 
ATOM     10  C   UNL     1      -0.144   1.520  -2.881  1.00  0.00     0.002 A 
ATOM     11  C   UNL     1       1.747   0.110  -3.303  1.00  0.00     0.016 A 
ATOM     12  C   UNL     1       1.210   1.385  -3.134  1.00  0.00     0.001 A 
BRANCH   8  13
ATOM     13  N   UNL     1      -1.328  -1.920  -2.400  1.00  0.00    -0.321 N 
ATOM     14  C   UNL     1      -1.184  -3.064  -1.631  1.00  0.00     0.255 C 
ATOM     15  O   UNL     1      -2.112  -3.866  -1.546  1.00  0.00    -0.269 OA
ATOM     16  H   UNL     1      -2.245  -1.771  -2.725  1.00  0.00     0.170 HD
BRANCH  14  17
ATOM     17  C   UNL     1       0.063  -3.317  -0.888  1.00  0.00     0.042 A 
ATOM     18  C   UNL     1       2.074  -2.355  -0.033  1.00  0.00     0.041 A 
ATOM     19  C   UNL     1       2.688  -3.612  -0.096  1.00  0.00     0.026 A 
ATOM     20  C   UNL     1       0.725  -2.241  -0.312  1.00  0.00     0.040 A 
ATOM     21  C   UNL     1       1.950  -4.741  -0.461  1.00  0.00     0.003 A 
ATOM     22  C   UNL     1       0.631  -4.591  -0.880  1.00  0.00     0.014 A 
BRANCH  18  23
ATOM     23  N   UNL     1       2.877  -1.222   0.156  1.00  0.00    -0.326 N 
ATOM     24  O   UNL     1       1.293   0.449   0.575  1.00  0.00    -0.274 OA
ATOM     25  C   UNL     1       2.451   0.074   0.411  1.00  0.00     0.228 C 
ATOM     26  H   UNL     1       3.850  -1.361   0.103  1.00  0.00     0.169 HD
BRANCH  25  27
ATOM     27  C   UNL     1       3.605   1.049   0.521  1.00  0.00     0.135 C 
BRANCH  27  28
ATOM     28  C   UNL     1       4.296   1.021   1.866  1.00  0.00    -0.039 A 
ATOM     29  C   UNL     1       4.567  -0.176   2.552  1.00  0.00     0.004 A 
ATOM     30  C   UNL     1       4.735   2.224   2.433  1.00  0.00     0.004 A 
ATOM     31  C   UNL     1       5.239  -0.172   3.771  1.00  0.00     0.000 A 
ATOM     32  C   UNL     1       5.407   2.228   3.657  1.00  0.00     0.000 A 
ATOM     33  C   UNL     1       5.659   1.031   4.324  1.00  0.00     0.000 A 
ENDBRANCH  27  28
ENDBRANCH  25  27
ENDBRANCH  18  23
ENDBRANCH  14  17
ENDBRANCH   8  13
ENDBRANCH   4   7
ENDBRANCH   2   3
ENDBRANCH   1   2
BRANCH   1  34
ATOM     34  C   UNL     1       0.128  -6.005  -5.473  1.00  0.00     0.002 C 
BRANCH  34  35
ATOM     35  C   UNL     1      -0.537  -6.577  -4.218  1.00  0.00     0.002 C 
BRANCH  35  36
ATOM     36  C   UNL     1      -2.054  -6.432  -4.096  1.00  0.00     0.021 C 
BRANCH  36  37
ATOM     37  C   UNL     1      -2.868  -6.914  -5.288  1.00  0.00     0.116 C 
BRANCH  37  38
ATOM     38  N   UNL     1      -2.604  -8.298  -5.641  1.00  0.00    -0.352 N 
ATOM     39  C   UNL     1      -3.483  -9.299  -5.960  1.00  0.00     0.251 C 
ATOM     40  H   UNL     1      -1.653  -8.554  -5.654  1.00  0.00     0.163 HD
ATOM     41  O   UNL     1      -3.071 -10.447  -6.128  1.00  0.00    -0.269 OA
BRANCH  39  42
ATOM     42  C   UNL     1      -4.931  -9.018  -6.072  1.00  0.00     0.039 A 
ATOM     43  C   UNL     1      -5.833  -9.921  -5.503  1.00  0.00     0.014 A 
ATOM     44  C   UNL     1      -5.403  -7.884  -6.738  1.00  0.00     0.014 A 
ATOM     45  C   UNL     1      -7.203  -9.657  -5.550  1.00  0.00     0.010 A 
ATOM     46  C   UNL     1      -6.763  -7.583  -6.717  1.00  0.00     0.010 A 
ATOM     47  C   UNL     1      -7.677  -8.469  -6.128  1.00  0.00    -0.014 A 
BRANCH  47  48
ATOM     48  C   UNL     1      -9.125  -8.140  -6.129  1.00  0.00     0.031 A 
ATOM     49  C   UNL     1      -9.874  -8.020  -7.427  1.00  0.00     0.074 A 
ATOM     50  C   UNL     1      -9.752  -7.891  -4.962  1.00  0.00     0.049 A 
ATOM     51  N   UNL     1     -11.121  -7.681  -7.635  1.00  0.00    -0.248 NA
ATOM     52  C   UNL     1      -9.114  -8.292  -8.657  1.00  0.00     0.031 C 
ATOM     53  C   UNL     1      -9.125  -7.929  -3.640  1.00  0.00     0.029 A 
ATOM     54  N   UNL     1     -11.055  -7.547  -4.702  1.00  0.00    -0.354 N 
ATOM     55  C   UNL     1     -11.290  -7.685  -9.014  1.00  0.00     0.074 A 
ATOM     56  C   UNL     1     -10.004  -8.006  -9.595  1.00  0.00     0.031 C 
ATOM     57  C   UNL     1     -10.048  -7.644  -2.707  1.00  0.00     0.029 A 
ATOM     58  C   UNL     1     -11.320  -7.365  -3.366  1.00  0.00     0.049 A 
ATOM     59  H   UNL     1     -11.735  -7.441  -5.405  1.00  0.00     0.167 HD
ATOM     60  C   UNL     1     -12.418  -7.465  -9.730  1.00  0.00     0.037 A 
ATOM     61  C   UNL     1     -12.458  -7.005  -2.743  1.00  0.00     0.037 A 
ATOM     62  C   UNL     1     -13.700  -7.168  -9.146  1.00  0.00     0.049 A 
ATOM     63  C   UNL     1     -13.695  -6.756  -3.561  1.00  0.00     0.074 A 
ATOM     64  C   UNL     1     -14.915  -6.986  -9.783  1.00  0.00     0.029 A 
ATOM     65  N   UNL     1     -13.931  -7.006  -7.788  1.00  0.00    -0.354 N 
ATOM     66  N   UNL     1     -13.856  -6.830  -4.861  1.00  0.00    -0.248 NA
ATOM     67  C   UNL     1     -14.910  -6.378  -2.826  1.00  0.00     0.031 C 
ATOM     68  C   UNL     1     -15.872  -6.666  -8.814  1.00  0.00     0.029 A 
ATOM     69  C   UNL     1     -15.265  -6.702  -7.569  1.00  0.00     0.049 A 
ATOM     70  H   UNL     1     -13.248  -7.094  -7.085  1.00  0.00     0.167 HD
ATOM     71  C   UNL     1     -15.193  -6.539  -5.096  1.00  0.00     0.074 A 
ATOM     72  C   UNL     1     -15.802  -6.301  -3.803  1.00  0.00     0.031 C 
ATOM     73  C   UNL     1     -15.858  -6.475  -6.276  1.00  0.00     0.037 A 
BRANCH  60  74
ATOM     74  C   UNL     1     -12.315  -7.538 -11.227  1.00  0.00     0.057 A 
ATOM     75  C   UNL     1     -12.096  -8.750 -11.895  1.00  0.00     0.134 A 
ATOM     76  C   UNL     1     -12.471  -6.389 -12.012  1.00  0.00     0.134 A 
ATOM     77  F   UNL     1     -11.927  -9.887 -11.203  1.00  0.00    -0.206 F 
ATOM     78  C   UNL     1     -12.006  -8.812 -13.287  1.00  0.00     0.040 A 
ATOM     79  C   UNL     1     -12.413  -6.443 -13.406  1.00  0.00     0.040 A 
ATOM     80  F   UNL     1     -12.690  -5.196 -11.439  1.00  0.00    -0.206 F 
ATOM     81  C   UNL     1     -12.172  -7.656 -14.047  1.00  0.00     0.006 A 
ENDBRANCH  60  74
BRANCH  61  82
ATOM     82  C   UNL     1     -12.489  -6.879  -1.264  1.00  0.00     0.057 A 
ATOM     83  C   UNL     1     -13.207  -7.787  -0.476  1.00  0.00     0.134 A 
ATOM     84  C   UNL     1     -11.813  -5.846  -0.602  1.00  0.00     0.134 A 
ATOM     85  F   UNL     1     -13.890  -8.787  -1.052  1.00  0.00    -0.206 F 
ATOM     86  C   UNL     1     -13.269  -7.662   0.913  1.00  0.00     0.040 A 
ATOM     87  C   UNL     1     -11.844  -5.725   0.788  1.00  0.00     0.040 A 
ATOM     88  F   UNL     1     -11.102  -4.947  -1.298  1.00  0.00    -0.206 F 
ATOM     89  C   UNL     1     -12.581  -6.630   1.549  1.00  0.00     0.006 A 
ENDBRANCH  61  82
BRANCH  73  90
ATOM     90  C   UNL     1     -17.327  -6.173  -6.221  1.00  0.00     0.057 A 
ATOM     91  C   UNL     1     -17.811  -4.900  -5.895  1.00  0.00     0.134 A 
ATOM     92  C   UNL     1     -18.268  -7.161  -6.540  1.00  0.00     0.134 A 
ATOM     93  F   UNL     1     -16.963  -3.913  -5.568  1.00  0.00    -0.206 F 
ATOM     94  C   UNL     1     -19.180  -4.627  -5.863  1.00  0.00     0.040 A 
ATOM     95  C   UNL     1     -19.637  -6.892  -6.539  1.00  0.00     0.040 A 
ATOM     96  F   UNL     1     -17.872  -8.399  -6.871  1.00  0.00    -0.206 F 
ATOM     97  C   UNL     1     -20.097  -5.623  -6.194  1.00  0.00     0.006 A 
ENDBRANCH  73  90
ENDBRANCH  47  48
ENDBRANCH  39  42
ENDBRANCH  37  38
ENDBRANCH  36  37
ENDBRANCH  35  36
ENDBRANCH  34  35
ENDBRANCH   1  34
TORSDOF 18
