REMARK SMILES CC(=O)NS(=O)(=O)c1ccc(-c2ccn(C(F)F)c(=O)c2)cc1C(=O)NCCCCCCNC(=O)c1ccc(-c2c3nc(c(-c4c(F)cccc4F)c4ccc([nH]4)c(-c4c(F)cccc4F)c4nc(c(-c5c(F)cccc5F)c5ccc2[nH]5)C=C4)C=C3)cc1
REMARK SMILES IDX 29 1 28 2 27 3 26 4 24 5 25 6 23 8 8 9 9 10 10 11 22 12
REMARK SMILES IDX 11 13 5 14 6 15 7 16 4 17 1 18 2 19 3 20 12 22 13 23 21 24
REMARK SMILES IDX 14 25 19 26 15 27 20 28 16 29 17 30 18 31 30 32 31 33 32 34
REMARK SMILES IDX 33 35 34 36 35 38 36 39 37 40 89 41 38 42 88 43 39 44 40 45
REMARK SMILES IDX 41 46 82 47 42 48 87 49 81 50 83 51 43 52 86 53 80 54 79 55
REMARK SMILES IDX 44 57 70 58 53 59 69 60 54 61 57 62 68 63 84 64 55 65 56 66
REMARK SMILES IDX 67 68 85 69 58 70 45 71 46 72 51 73 47 74 48 75 50 76 52 77
REMARK SMILES IDX 49 78 71 79 72 80 77 81 73 82 74 83 76 84 78 85 75 86 59 87
REMARK SMILES IDX 60 88 65 89 61 90 62 91 64 92 66 93 63 94
REMARK H PARENT 26 7 4 21 33 37 83 56 57 67
REMARK Flexibility Score: inf
ROOT
ATOM      1  C   UNL     1      -0.289  -4.011   2.469  1.00  0.00     0.002 C 
ENDROOT
BRANCH   1   2
ATOM      2  C   UNL     1       0.728  -3.916   1.325  1.00  0.00     0.021 C 
BRANCH   2   3
ATOM      3  C   UNL     1       0.312  -3.075   0.111  1.00  0.00     0.116 C 
BRANCH   3   4
ATOM      4  N   UNL     1       0.168  -1.668   0.453  1.00  0.00    -0.352 N 
ATOM      5  C   UNL     1       0.699  -0.533  -0.094  1.00  0.00     0.252 C 
ATOM      6  O   UNL     1       0.331   0.567   0.316  1.00  0.00    -0.269 OA
ATOM      7  H   UNL     1      -0.423  -1.502   1.223  1.00  0.00     0.163 HD
BRANCH   5   8
ATOM      8  C   UNL     1       1.695  -0.546  -1.180  1.00  0.00     0.060 A 
ATOM      9  C   UNL     1       3.013  -0.992  -1.054  1.00  0.00     0.100 A 
ATOM     10  C   UNL     1       3.910  -0.852  -2.129  1.00  0.00     0.024 A 
ATOM     11  C   UNL     1       3.545  -0.137  -3.265  1.00  0.00     0.010 A 
ATOM     12  C   UNL     1       1.344   0.202  -2.324  1.00  0.00     0.024 A 
ATOM     13  C   UNL     1       2.280   0.451  -3.338  1.00  0.00    -0.017 A 
BRANCH   9  14
ATOM     14  S   UNL     1       3.748  -1.495   0.475  1.00  0.00     0.264 S 
ATOM     15  O   UNL     1       5.083  -0.933   0.508  1.00  0.00    -0.201 OA
ATOM     16  O   UNL     1       3.556  -2.922   0.562  1.00  0.00    -0.201 OA
BRANCH  14  17
ATOM     17  N   UNL     1       2.897  -0.782   1.694  1.00  0.00    -0.249 N 
ATOM     18  C   UNL     1       3.525   1.611   1.277  1.00  0.00     0.115 C 
ATOM     19  C   UNL     1       2.938   0.542   2.155  1.00  0.00     0.230 C 
ATOM     20  O   UNL     1       2.449   0.794   3.248  1.00  0.00    -0.274 OA
ATOM     21  H   UNL     1       2.268  -1.373   2.168  1.00  0.00     0.183 HD
ENDBRANCH  14  17
ENDBRANCH   9  14
BRANCH  13  22
ATOM     22  C   UNL     1       2.057   1.509  -4.339  1.00  0.00    -0.011 A 
ATOM     23  C   UNL     1       2.385   2.890  -4.032  1.00  0.00     0.027 A 
ATOM     24  C   UNL     1       1.630   1.195  -5.573  1.00  0.00     0.080 A 
ATOM     25  C   UNL     1       2.303   3.837  -4.971  1.00  0.00     0.095 A 
ATOM     26  C   UNL     1       1.509   2.249  -6.625  1.00  0.00     0.255 A 
ATOM     27  N   UNL     1       1.884   3.531  -6.250  1.00  0.00    -0.258 N 
ATOM     28  O   UNL     1       1.112   1.919  -7.738  1.00  0.00    -0.269 OA
BRANCH  27  29
ATOM     29  C   UNL     1       1.826   4.559  -7.258  1.00  0.00     0.451 C 
ATOM     30  F   UNL     1       2.628   4.257  -8.309  1.00  0.00    -0.185 F 
ATOM     31  F   UNL     1       0.563   4.717  -7.723  1.00  0.00    -0.185 F 
ENDBRANCH  27  29
ENDBRANCH  13  22
ENDBRANCH   5   8
ENDBRANCH   3   4
ENDBRANCH   2   3
ENDBRANCH   1   2
BRANCH   1  32
ATOM     32  C   UNL     1      -1.377  -5.072   2.310  1.00  0.00     0.002 C 
BRANCH  32  33
ATOM     33  C   UNL     1      -0.904  -6.516   2.099  1.00  0.00     0.021 C 
BRANCH  33  34
ATOM     34  C   UNL     1       0.229  -7.018   2.997  1.00  0.00     0.116 C 
BRANCH  34  35
ATOM     35  N   UNL     1      -0.090  -7.000   4.413  1.00  0.00    -0.352 N 
ATOM     36  C   UNL     1       0.309  -7.883   5.391  1.00  0.00     0.251 C 
ATOM     37  H   UNL     1      -0.666  -6.261   4.713  1.00  0.00     0.163 HD
ATOM     38  O   UNL     1      -0.083  -7.753   6.546  1.00  0.00    -0.269 OA
BRANCH  36  39
ATOM     39  C   UNL     1       1.175  -9.030   5.038  1.00  0.00     0.039 A 
ATOM     40  C   UNL     1       0.731 -10.318   5.352  1.00  0.00     0.014 A 
ATOM     41  C   UNL     1       2.401  -8.844   4.390  1.00  0.00     0.014 A 
ATOM     42  C   UNL     1       1.471 -11.428   4.938  1.00  0.00     0.010 A 
ATOM     43  C   UNL     1       3.132  -9.955   3.963  1.00  0.00     0.010 A 
ATOM     44  C   UNL     1       2.659 -11.252   4.211  1.00  0.00    -0.014 A 
BRANCH  44  45
ATOM     45  C   UNL     1       3.361 -12.418   3.625  1.00  0.00     0.031 A 
ATOM     46  C   UNL     1       4.586 -12.990   4.270  1.00  0.00     0.074 A 
ATOM     47  C   UNL     1       2.907 -12.934   2.468  1.00  0.00     0.049 A 
ATOM     48  N   UNL     1       5.345 -13.975   3.861  1.00  0.00    -0.248 NA
ATOM     49  C   UNL     1       5.018 -12.373   5.532  1.00  0.00     0.031 C 
ATOM     50  C   UNL     1       1.738 -12.456   1.728  1.00  0.00     0.029 A 
ATOM     51  N   UNL     1       3.385 -13.970   1.706  1.00  0.00    -0.354 N 
ATOM     52  C   UNL     1       6.354 -14.090   4.806  1.00  0.00     0.074 A 
ATOM     53  C   UNL     1       6.111 -13.074   5.810  1.00  0.00     0.031 C 
ATOM     54  C   UNL     1       1.589 -13.197   0.619  1.00  0.00     0.029 A 
ATOM     55  C   UNL     1       2.657 -14.190   0.564  1.00  0.00     0.049 A 
ATOM     56  H   UNL     1       4.174 -14.504   1.954  1.00  0.00     0.167 HD
ATOM     57  C   UNL     1       7.386 -14.966   4.835  1.00  0.00     0.037 A 
ATOM     58  C   UNL     1       2.835 -15.087  -0.423  1.00  0.00     0.037 A 
ATOM     59  C   UNL     1       7.621 -15.998   3.861  1.00  0.00     0.049 A 
ATOM     60  C   UNL     1       3.988 -16.041  -0.368  1.00  0.00     0.074 A 
ATOM     61  C   UNL     1       8.603 -16.975   3.855  1.00  0.00     0.029 A 
ATOM     62  N   UNL     1       6.868 -16.183   2.713  1.00  0.00    -0.354 N 
ATOM     63  N   UNL     1       4.912 -16.162   0.551  1.00  0.00    -0.248 NA
ATOM     64  C   UNL     1       4.126 -16.978  -1.492  1.00  0.00     0.031 C 
ATOM     65  C   UNL     1       8.450 -17.745   2.695  1.00  0.00     0.029 A 
ATOM     66  C   UNL     1       7.371 -17.246   1.983  1.00  0.00     0.049 A 
ATOM     67  H   UNL     1       6.089 -15.639   2.455  1.00  0.00     0.167 HD
ATOM     68  C   UNL     1       5.740 -17.188   0.122  1.00  0.00     0.074 A 
ATOM     69  C   UNL     1       5.210 -17.658  -1.142  1.00  0.00     0.031 C 
ATOM     70  C   UNL     1       6.839 -17.696   0.726  1.00  0.00     0.037 A 
BRANCH  57  71
ATOM     71  C   UNL     1       8.348 -14.840   5.971  1.00  0.00     0.057 A 
ATOM     72  C   UNL     1       8.128 -15.499   7.185  1.00  0.00     0.134 A 
ATOM     73  C   UNL     1       9.513 -14.076   5.841  1.00  0.00     0.134 A 
ATOM     74  F   UNL     1       7.023 -16.237   7.368  1.00  0.00    -0.206 F 
ATOM     75  C   UNL     1       9.037 -15.398   8.239  1.00  0.00     0.040 A 
ATOM     76  C   UNL     1      10.431 -13.971   6.887  1.00  0.00     0.040 A 
ATOM     77  F   UNL     1       9.771 -13.418   4.701  1.00  0.00    -0.206 F 
ATOM     78  C   UNL     1      10.194 -14.634   8.090  1.00  0.00     0.006 A 
ENDBRANCH  57  71
BRANCH  58  79
ATOM     79  C   UNL     1       1.891 -15.116  -1.560  1.00  0.00     0.057 A 
ATOM     80  C   UNL     1       0.795 -15.983  -1.559  1.00  0.00     0.134 A 
ATOM     81  C   UNL     1       2.062 -14.274  -2.662  1.00  0.00     0.134 A 
ATOM     82  F   UNL     1       0.594 -16.818  -0.530  1.00  0.00    -0.206 F 
ATOM     83  C   UNL     1      -0.106 -16.012  -2.624  1.00  0.00     0.040 A 
ATOM     84  C   UNL     1       1.168 -14.291  -3.732  1.00  0.00     0.040 A 
ATOM     85  F   UNL     1       3.101 -13.427  -2.712  1.00  0.00    -0.206 F 
ATOM     86  C   UNL     1       0.080 -15.162  -3.714  1.00  0.00     0.006 A 
ENDBRANCH  58  79
BRANCH  70  87
ATOM     87  C   UNL     1       7.537 -18.815   0.022  1.00  0.00     0.057 A 
ATOM     88  C   UNL     1       8.527 -18.561  -0.933  1.00  0.00     0.134 A 
ATOM     89  C   UNL     1       7.226 -20.149   0.307  1.00  0.00     0.134 A 
ATOM     90  F   UNL     1       8.854 -17.300  -1.254  1.00  0.00    -0.206 F 
ATOM     91  C   UNL     1       9.186 -19.602  -1.588  1.00  0.00     0.040 A 
ATOM     92  C   UNL     1       7.880 -21.198  -0.340  1.00  0.00     0.040 A 
ATOM     93  F   UNL     1       6.279 -20.450   1.207  1.00  0.00    -0.206 F 
ATOM     94  C   UNL     1       8.863 -20.925  -1.290  1.00  0.00     0.006 A 
ENDBRANCH  70  87
ENDBRANCH  44  45
ENDBRANCH  36  39
ENDBRANCH  34  35
ENDBRANCH  33  34
ENDBRANCH  32  33
ENDBRANCH   1  32
TORSDOF 17
