REMARK SMILES CSc1ccc(Cl)c(C(=O)N[C@@H](CO)C(=O)NCCCCCCNC(=O)c2ccc(-c3c4nc(c(-c5c(F)cccc5F)c5ccc([nH]5)c(-c5c(F)cccc5F)c5nc(c(-c6c(F)cccc6F)c6ccc3[nH]6)C=C5)C=C4)cc2)c1
REMARK SMILES IDX 20 1 19 2 18 3 17 4 15 5 16 6 12 8 11 9 9 10 10 11 8 13 3 14
REMARK SMILES IDX 4 15 81 16 5 17 6 18 7 19 2 20 1 21 13 22 14 23 21 25 22 26
REMARK SMILES IDX 23 27 24 28 25 29 26 31 27 32 28 33 80 34 29 35 79 36 30 37
REMARK SMILES IDX 31 38 32 39 73 40 33 41 78 42 72 43 74 44 34 45 77 46 71 47
REMARK SMILES IDX 70 48 35 50 61 51 44 52 60 53 45 54 48 55 59 56 75 57 46 58
REMARK SMILES IDX 47 59 58 61 76 62 49 63 36 64 37 65 42 66 38 67 39 68 41 69
REMARK SMILES IDX 43 70 40 71 62 72 63 73 68 74 64 75 65 76 67 77 69 78 66 79
REMARK SMILES IDX 50 80 51 81 56 82 52 83 53 84 55 85 57 86 54 87
REMARK H PARENT 17 7 11 12 14 24 24 30 74 49 48 60
REMARK Flexibility Score: inf
ROOT
ATOM      1  C   UNL     1      -1.680  11.923   3.659  1.00  0.00     0.002 C 
ENDROOT
BRANCH   1   2
ATOM      2  C   UNL     1      -0.941  11.207   2.522  1.00  0.00     0.021 C 
BRANCH   2   3
ATOM      3  C   UNL     1       0.334  10.473   2.930  1.00  0.00     0.116 C 
BRANCH   3   4
ATOM      4  N   UNL     1       0.063   9.442   3.910  1.00  0.00    -0.354 N 
ATOM      5  C   UNL     1       0.598   8.211   4.099  1.00  0.00     0.244 C 
ATOM      6  O   UNL     1       0.250   7.620   5.130  1.00  0.00    -0.273 OA
ATOM      7  H   UNL     1      -0.638   9.680   4.559  1.00  0.00     0.163 HD
BRANCH   5   8
ATOM      8  C   UNL     1       1.669   7.580   3.186  1.00  0.00     0.197 C 
BRANCH   8   9
ATOM      9  N   UNL     1       1.323   7.407   1.772  1.00  0.00    -0.338 N 
ATOM     10  C   UNL     1       1.331   6.347   0.904  1.00  0.00     0.253 C 
ATOM     11  O   UNL     1       1.090   6.630  -0.274  1.00  0.00    -0.269 OA
ATOM     12  H   UNL     1       1.015   8.242   1.351  1.00  0.00     0.164 HD
BRANCH  10  13
ATOM     13  C   UNL     1       1.489   4.902   1.254  1.00  0.00     0.059 A 
ATOM     14  C   UNL     1       0.735   2.629   0.619  1.00  0.00     0.008 A 
ATOM     15  C   UNL     1       1.486   2.099   1.661  1.00  0.00     0.016 A 
ATOM     16  C   UNL     1       0.705   4.025   0.461  1.00  0.00     0.030 A 
ATOM     17  C   UNL     1       2.300   2.933   2.424  1.00  0.00     0.022 A 
ATOM     18  C   UNL     1       2.363   4.313   2.171  1.00  0.00     0.053 A 
ATOM     19  Cl  UNL     1       3.720   5.092   2.891  1.00  0.00    -0.083 Cl
BRANCH  14  20
ATOM     20  S   UNL     1      -0.176   1.620  -0.543  1.00  0.00    -0.130 SA
ATOM     21  C   UNL     1       0.675   0.015  -0.427  1.00  0.00     0.091 C 
ENDBRANCH  14  20
ENDBRANCH  10  13
ENDBRANCH   8   9
BRANCH   8  22
ATOM     22  C   UNL     1       3.006   8.338   3.331  1.00  0.00     0.191 C 
BRANCH  22  23
ATOM     23  O   UNL     1       3.074   9.514   2.518  1.00  0.00    -0.394 OA
ATOM     24  H   UNL     1       3.002   9.265   1.583  1.00  0.00     0.210 HD
ENDBRANCH  22  23
ENDBRANCH   8  22
ENDBRANCH   5   8
ENDBRANCH   3   4
ENDBRANCH   2   3
ENDBRANCH   1   2
BRANCH   1  25
ATOM     25  C   UNL     1      -0.849  12.913   4.479  1.00  0.00     0.002 C 
BRANCH  25  26
ATOM     26  C   UNL     1      -0.113  13.982   3.672  1.00  0.00     0.021 C 
BRANCH  26  27
ATOM     27  C   UNL     1      -0.983  14.774   2.706  1.00  0.00     0.116 C 
BRANCH  27  28
ATOM     28  N   UNL     1      -2.017  15.546   3.376  1.00  0.00    -0.352 N 
ATOM     29  C   UNL     1      -2.387  16.847   3.144  1.00  0.00     0.251 C 
ATOM     30  H   UNL     1      -2.513  15.077   4.086  1.00  0.00     0.163 HD
ATOM     31  O   UNL     1      -3.195  17.415   3.870  1.00  0.00    -0.269 OA
BRANCH  29  32
ATOM     32  C   UNL     1      -1.768  17.570   2.015  1.00  0.00     0.039 A 
ATOM     33  C   UNL     1      -1.150  18.800   2.252  1.00  0.00     0.014 A 
ATOM     34  C   UNL     1      -1.752  16.998   0.739  1.00  0.00     0.014 A 
ATOM     35  C   UNL     1      -0.457  19.431   1.218  1.00  0.00     0.010 A 
ATOM     36  C   UNL     1      -1.006  17.595  -0.270  1.00  0.00     0.010 A 
ATOM     37  C   UNL     1      -0.352  18.817  -0.040  1.00  0.00    -0.014 A 
BRANCH  37  38
ATOM     38  C   UNL     1       0.421  19.432  -1.147  1.00  0.00     0.031 A 
ATOM     39  C   UNL     1      -0.293  19.865  -2.396  1.00  0.00     0.074 A 
ATOM     40  C   UNL     1       1.763  19.515  -1.069  1.00  0.00     0.049 A 
ATOM     41  N   UNL     1       0.203  20.282  -3.532  1.00  0.00    -0.248 NA
ATOM     42  C   UNL     1      -1.763  19.789  -2.372  1.00  0.00     0.031 C 
ATOM     43  C   UNL     1       2.574  19.098   0.076  1.00  0.00     0.029 A 
ATOM     44  N   UNL     1       2.684  19.959  -1.984  1.00  0.00    -0.354 N 
ATOM     45  C   UNL     1      -0.889  20.489  -4.364  1.00  0.00     0.074 A 
ATOM     46  C   UNL     1      -2.070  20.113  -3.619  1.00  0.00     0.031 C 
ATOM     47  C   UNL     1       3.870  19.314  -0.201  1.00  0.00     0.029 A 
ATOM     48  C   UNL     1       3.984  19.845  -1.556  1.00  0.00     0.049 A 
ATOM     49  H   UNL     1       2.436  20.326  -2.863  1.00  0.00     0.167 HD
ATOM     50  C   UNL     1      -0.906  20.968  -5.631  1.00  0.00     0.037 A 
ATOM     51  C   UNL     1       5.138  20.120  -2.193  1.00  0.00     0.037 A 
ATOM     52  C   UNL     1       0.268  21.374  -6.355  1.00  0.00     0.049 A 
ATOM     53  C   UNL     1       5.093  20.648  -3.601  1.00  0.00     0.074 A 
ATOM     54  C   UNL     1       0.351  21.928  -7.621  1.00  0.00     0.029 A 
ATOM     55  N   UNL     1       1.564  21.273  -5.875  1.00  0.00    -0.354 N 
ATOM     56  N   UNL     1       4.052  20.887  -4.361  1.00  0.00    -0.248 NA
ATOM     57  C   UNL     1       6.383  20.944  -4.241  1.00  0.00     0.031 C 
ATOM     58  C   UNL     1       1.702  22.130  -7.920  1.00  0.00     0.029 A 
ATOM     59  C   UNL     1       2.456  21.740  -6.825  1.00  0.00     0.049 A 
ATOM     60  H   UNL     1       1.814  20.921  -4.990  1.00  0.00     0.167 HD
ATOM     61  C   UNL     1       4.557  21.390  -5.553  1.00  0.00     0.074 A 
ATOM     62  C   UNL     1       5.998  21.426  -5.415  1.00  0.00     0.031 C 
ATOM     63  C   UNL     1       3.886  21.787  -6.661  1.00  0.00     0.037 A 
BRANCH  50  64
ATOM     64  C   UNL     1      -2.239  21.079  -6.309  1.00  0.00     0.057 A 
ATOM     65  C   UNL     1      -3.183  22.042  -5.928  1.00  0.00     0.134 A 
ATOM     66  C   UNL     1      -2.573  20.232  -7.373  1.00  0.00     0.134 A 
ATOM     67  F   UNL     1      -2.930  22.875  -4.907  1.00  0.00    -0.206 F 
ATOM     68  C   UNL     1      -4.422  22.141  -6.564  1.00  0.00     0.040 A 
ATOM     69  C   UNL     1      -3.798  20.339  -8.034  1.00  0.00     0.040 A 
ATOM     70  F   UNL     1      -1.713  19.291  -7.791  1.00  0.00    -0.206 F 
ATOM     71  C   UNL     1      -4.729  21.291  -7.625  1.00  0.00     0.006 A 
ENDBRANCH  50  64
BRANCH  51  72
ATOM     72  C   UNL     1       6.436  19.917  -1.503  1.00  0.00     0.057 A 
ATOM     73  C   UNL     1       7.215  21.008  -1.099  1.00  0.00     0.134 A 
ATOM     74  C   UNL     1       6.933  18.636  -1.236  1.00  0.00     0.134 A 
ATOM     75  F   UNL     1       6.800  22.259  -1.344  1.00  0.00    -0.206 F 
ATOM     76  C   UNL     1       8.449  20.833  -0.471  1.00  0.00     0.040 A 
ATOM     77  C   UNL     1       8.155  18.446  -0.588  1.00  0.00     0.040 A 
ATOM     78  F   UNL     1       6.232  17.549  -1.593  1.00  0.00    -0.206 F 
ATOM     79  C   UNL     1       8.920  19.548  -0.210  1.00  0.00     0.006 A 
ENDBRANCH  51  72
BRANCH  63  80
ATOM     80  C   UNL     1       4.695  22.339  -7.796  1.00  0.00     0.057 A 
ATOM     81  C   UNL     1       5.449  21.513  -8.637  1.00  0.00     0.134 A 
ATOM     82  C   UNL     1       4.665  23.709  -8.087  1.00  0.00     0.134 A 
ATOM     83  F   UNL     1       5.528  20.194  -8.402  1.00  0.00    -0.206 F 
ATOM     84  C   UNL     1       6.155  22.032  -9.723  1.00  0.00     0.040 A 
ATOM     85  C   UNL     1       5.348  24.236  -9.183  1.00  0.00     0.040 A 
ATOM     86  F   UNL     1       3.954  24.553  -7.323  1.00  0.00    -0.206 F 
ATOM     87  C   UNL     1       6.098  23.396 -10.004  1.00  0.00     0.006 A 
ENDBRANCH  63  80
ENDBRANCH  37  38
ENDBRANCH  29  32
ENDBRANCH  27  28
ENDBRANCH  26  27
ENDBRANCH  25  26
ENDBRANCH   1  25
TORSDOF 18
