REMARK SMILES C#CCC1(C(=O)NCCCCCCNC(=O)c2ccc(-c3c4nc(c(-c5c(F)cccc5F)c5ccc([nH]5)c(-c5c(F)cccc5F)c5nc(c(-c6c(F)cccc6F)c6ccc3[nH]6)C=C5)C=C4)cc2)CC[NH2+]CC1
REMARK SMILES IDX 10 1 9 2 8 3 7 4 5 5 6 6 4 8 71 9 75 10 72 11 74 12 73 13
REMARK SMILES IDX 3 16 2 17 1 18 11 19 12 20 13 21 14 22 15 23 16 25 17 26
REMARK SMILES IDX 18 27 70 28 19 29 69 30 20 31 21 32 22 33 63 34 23 35 68 36
REMARK SMILES IDX 62 37 64 38 24 39 67 40 61 41 60 42 25 44 51 45 34 46 50 47
REMARK SMILES IDX 35 48 38 49 49 50 65 51 36 52 37 53 48 55 66 56 39 57 26 58
REMARK SMILES IDX 27 59 32 60 28 61 29 62 31 63 33 64 30 65 52 66 53 67 58 68
REMARK SMILES IDX 54 69 55 70 57 71 59 72 56 73 40 74 41 75 46 76 42 77 43 78
REMARK SMILES IDX 45 79 47 80 44 81
REMARK H PARENT 7 7 73 14 73 15 14 24 64 43 38 54
REMARK Flexibility Score: inf
ROOT
ATOM      1  C   UNL     1      -6.443  -0.924  -4.840  1.00  0.00     0.002 C 
ENDROOT
BRANCH   1   2
ATOM      2  C   UNL     1      -5.211  -1.643  -4.287  1.00  0.00     0.021 C 
BRANCH   2   3
ATOM      3  C   UNL     1      -4.049  -0.705  -4.008  1.00  0.00     0.116 C 
BRANCH   3   4
ATOM      4  N   UNL     1      -4.347   0.151  -2.872  1.00  0.00    -0.356 N 
ATOM      5  C   UNL     1      -3.721   0.285  -1.671  1.00  0.00     0.227 C 
ATOM      6  O   UNL     1      -4.280   1.005  -0.840  1.00  0.00    -0.274 OA
ATOM      7  H   UNL     1      -5.134   0.730  -2.991  1.00  0.00     0.163 HD
BRANCH   5   8
ATOM      8  C   UNL     1      -2.381  -0.416  -1.387  1.00  0.00     0.071 C 
ATOM      9  C   UNL     1      -2.604  -1.950  -1.320  1.00  0.00     0.079 C 
ATOM     10  C   UNL     1      -1.368   0.011  -2.520  1.00  0.00     0.079 C 
ATOM     11  C   UNL     1      -1.339  -2.753  -1.585  1.00  0.00     0.261 C 
ATOM     12  C   UNL     1      -0.306  -1.029  -2.903  1.00  0.00     0.261 C 
ATOM     13  N   UNL     1      -0.792  -2.406  -2.893  1.00  0.00    -0.346 N 
ATOM     14  H   UNL     1      -1.521  -2.508  -3.599  1.00  0.00     0.346 HD
ATOM     15  H   UNL     1      -0.011  -3.029  -3.096  1.00  0.00     0.346 HD
BRANCH   8  16
ATOM     16  C   UNL     1      -1.898   0.056   0.036  1.00  0.00     0.106 C 
BRANCH  16  17
ATOM     17  C   UNL     1      -0.378   0.056   0.036  1.00  0.00    -0.106 C 
ATOM     18  C   UNL     1       0.926   0.056   0.036  1.00  0.00     0.004 C 
ENDBRANCH  16  17
ENDBRANCH   8  16
ENDBRANCH   5   8
ENDBRANCH   3   4
ENDBRANCH   2   3
ENDBRANCH   1   2
BRANCH   1  19
ATOM     19  C   UNL     1      -6.188  -0.111  -6.113  1.00  0.00     0.002 C 
BRANCH  19  20
ATOM     20  C   UNL     1      -5.501  -0.885  -7.241  1.00  0.00     0.021 C 
BRANCH  20  21
ATOM     21  C   UNL     1      -6.215  -2.170  -7.642  1.00  0.00     0.116 C 
BRANCH  21  22
ATOM     22  N   UNL     1      -7.564  -1.912  -8.118  1.00  0.00    -0.352 N 
ATOM     23  C   UNL     1      -8.130  -2.227  -9.326  1.00  0.00     0.251 C 
ATOM     24  H   UNL     1      -8.155  -1.446  -7.484  1.00  0.00     0.163 HD
ATOM     25  O   UNL     1      -9.214  -1.749  -9.650  1.00  0.00    -0.269 OA
BRANCH  23  26
ATOM     26  C   UNL     1      -7.412  -3.126 -10.250  1.00  0.00     0.039 A 
ATOM     27  C   UNL     1      -7.285  -2.755 -11.589  1.00  0.00     0.014 A 
ATOM     28  C   UNL     1      -6.843  -4.316  -9.786  1.00  0.00     0.014 A 
ATOM     29  C   UNL     1      -6.518  -3.541 -12.450  1.00  0.00     0.010 A 
ATOM     30  C   UNL     1      -6.021  -5.059 -10.626  1.00  0.00     0.010 A 
ATOM     31  C   UNL     1      -5.841  -4.672 -11.962  1.00  0.00    -0.014 A 
BRANCH  31  32
ATOM     32  C   UNL     1      -4.901  -5.431 -12.823  1.00  0.00     0.031 A 
ATOM     33  C   UNL     1      -5.175  -6.864 -13.173  1.00  0.00     0.074 A 
ATOM     34  C   UNL     1      -3.758  -4.840 -13.227  1.00  0.00     0.049 A 
ATOM     35  N   UNL     1      -4.433  -7.705 -13.849  1.00  0.00    -0.248 NA
ATOM     36  C   UNL     1      -6.438  -7.437 -12.682  1.00  0.00     0.031 C 
ATOM     37  C   UNL     1      -3.360  -3.466 -12.915  1.00  0.00     0.029 A 
ATOM     38  N   UNL     1      -2.716  -5.325 -13.975  1.00  0.00    -0.354 N 
ATOM     39  C   UNL     1      -5.134  -8.903 -13.861  1.00  0.00     0.074 A 
ATOM     40  C   UNL     1      -6.335  -8.697 -13.081  1.00  0.00     0.031 C 
ATOM     41  C   UNL     1      -2.172  -3.212 -13.484  1.00  0.00     0.029 A 
ATOM     42  C   UNL     1      -1.702  -4.416 -14.160  1.00  0.00     0.049 A 
ATOM     43  H   UNL     1      -2.696  -6.237 -14.345  1.00  0.00     0.167 HD
ATOM     44  C   UNL     1      -4.814 -10.063 -14.483  1.00  0.00     0.037 A 
ATOM     45  C   UNL     1      -0.517  -4.544 -14.787  1.00  0.00     0.037 A 
ATOM     46  C   UNL     1      -3.619 -10.259 -15.262  1.00  0.00     0.049 A 
ATOM     47  C   UNL     1      -0.167  -5.856 -15.431  1.00  0.00     0.074 A 
ATOM     48  C   UNL     1      -3.232 -11.380 -15.978  1.00  0.00     0.029 A 
ATOM     49  N   UNL     1      -2.612  -9.318 -15.419  1.00  0.00    -0.354 N 
ATOM     50  N   UNL     1      -0.873  -6.959 -15.497  1.00  0.00    -0.248 NA
ATOM     51  C   UNL     1       1.145  -5.943 -16.086  1.00  0.00     0.031 C 
ATOM     52  C   UNL     1      -1.966 -11.138 -16.518  1.00  0.00     0.029 A 
ATOM     53  C   UNL     1      -1.587  -9.846 -16.189  1.00  0.00     0.049 A 
ATOM     54  H   UNL     1      -2.623  -8.410 -15.040  1.00  0.00     0.167 HD
ATOM     55  C   UNL     1      -0.102  -7.861 -16.218  1.00  0.00     0.074 A 
ATOM     56  C   UNL     1       1.117  -7.170 -16.585  1.00  0.00     0.031 C 
ATOM     57  C   UNL     1      -0.378  -9.148 -16.545  1.00  0.00     0.037 A 
BRANCH  44  58
ATOM     58  C   UNL     1      -5.768 -11.213 -14.342  1.00  0.00     0.057 A 
ATOM     59  C   UNL     1      -7.030 -11.207 -14.952  1.00  0.00     0.134 A 
ATOM     60  C   UNL     1      -5.406 -12.360 -13.624  1.00  0.00     0.134 A 
ATOM     61  F   UNL     1      -7.444 -10.136 -15.646  1.00  0.00    -0.206 F 
ATOM     62  C   UNL     1      -7.905 -12.288 -14.833  1.00  0.00     0.040 A 
ATOM     63  C   UNL     1      -6.261 -13.459 -13.522  1.00  0.00     0.040 A 
ATOM     64  F   UNL     1      -4.210 -12.438 -13.021  1.00  0.00    -0.206 F 
ATOM     65  C   UNL     1      -7.518 -13.422 -14.122  1.00  0.00     0.006 A 
ENDBRANCH  44  58
BRANCH  45  66
ATOM     66  C   UNL     1       0.424  -3.396 -14.840  1.00  0.00     0.057 A 
ATOM     67  C   UNL     1       0.705  -2.747 -16.047  1.00  0.00     0.134 A 
ATOM     68  C   UNL     1       1.073  -2.928 -13.690  1.00  0.00     0.134 A 
ATOM     69  F   UNL     1       0.130  -3.161 -17.186  1.00  0.00    -0.206 F 
ATOM     70  C   UNL     1       1.610  -1.687 -16.114  1.00  0.00     0.040 A 
ATOM     71  C   UNL     1       1.959  -1.851 -13.738  1.00  0.00     0.040 A 
ATOM     72  F   UNL     1       0.843  -3.502 -12.500  1.00  0.00    -0.206 F 
ATOM     73  C   UNL     1       2.236  -1.232 -14.955  1.00  0.00     0.006 A 
ENDBRANCH  45  66
BRANCH  57  74
ATOM     74  C   UNL     1       0.647  -9.886 -17.356  1.00  0.00     0.057 A 
ATOM     75  C   UNL     1       1.870 -10.293 -16.807  1.00  0.00     0.134 A 
ATOM     76  C   UNL     1       0.391 -10.231 -18.689  1.00  0.00     0.134 A 
ATOM     77  F   UNL     1       2.184  -9.982 -15.540  1.00  0.00    -0.206 F 
ATOM     78  C   UNL     1       2.809 -10.999 -17.561  1.00  0.00     0.040 A 
ATOM     79  C   UNL     1       1.309 -10.962 -19.444  1.00  0.00     0.040 A 
ATOM     80  F   UNL     1      -0.764  -9.879 -19.274  1.00  0.00    -0.206 F 
ATOM     81  C   UNL     1       2.526 -11.342 -18.882  1.00  0.00     0.006 A 
ENDBRANCH  57  74
ENDBRANCH  31  32
ENDBRANCH  23  26
ENDBRANCH  21  22
ENDBRANCH  20  21
ENDBRANCH  19  20
ENDBRANCH   1  19
TORSDOF 15
