REMARK SMILES C[C@H](NC(=O)c1cc(S(=O)(=O)N(C)C)cs1)C(=O)NCCCCCCNC(=O)c1ccc(-c2c3nc(c(-c4c(F)cccc4F)c4ccc([nH]4)c(-c4c(F)cccc4F)c4nc(c(-c5c(F)cccc5F)c5ccc2[nH]5)C=C4)C=C3)cc1
REMARK SMILES IDX 21 1 20 2 19 3 17 4 18 5 2 7 1 8 3 9 4 10 5 12 6 13 7 14
REMARK SMILES IDX 16 15 8 16 15 17 9 18 10 19 11 20 12 21 13 22 14 23 22 24
REMARK SMILES IDX 23 25 24 26 25 27 26 28 27 29 28 31 29 32 30 33 82 34 31 35
REMARK SMILES IDX 81 36 32 37 33 38 34 39 75 40 35 41 80 42 74 43 76 44 36 45
REMARK SMILES IDX 79 46 73 47 72 48 37 50 63 51 46 52 62 53 47 54 50 55 61 56
REMARK SMILES IDX 77 57 48 58 49 59 60 61 78 62 51 63 38 64 39 65 44 66 40 67
REMARK SMILES IDX 41 68 43 69 45 70 42 71 64 72 65 73 70 74 66 75 67 76 69 77
REMARK SMILES IDX 71 78 68 79 52 80 53 81 58 82 54 83 55 84 57 85 59 86 56 87
REMARK H PARENT 19 6 3 11 26 30 76 49 50 60
REMARK Flexibility Score: inf
ROOT
ATOM      1  C   UNL     1      -1.825  -1.536   1.690  1.00  0.00     0.021 C 
ENDROOT
BRANCH   1   2
ATOM      2  C   UNL     1      -1.527  -1.950   0.250  1.00  0.00     0.116 C 
BRANCH   2   3
ATOM      3  N   UNL     1      -1.818  -0.873  -0.668  1.00  0.00    -0.354 N 
ATOM      4  C   UNL     1      -0.971  -0.070  -1.365  1.00  0.00     0.242 C 
ATOM      5  O   UNL     1      -1.474   0.807  -2.074  1.00  0.00    -0.273 OA
ATOM      6  H   UNL     1      -2.776  -0.694  -0.811  1.00  0.00     0.163 HD
BRANCH   4   7
ATOM      7  C   UNL     1       0.559  -0.300  -1.382  1.00  0.00     0.168 C 
ATOM      8  C   UNL     1       0.883  -1.489  -2.270  1.00  0.00     0.041 C 
BRANCH   7   9
ATOM      9  N   UNL     1       1.215  -0.145  -0.069  1.00  0.00    -0.340 N 
ATOM     10  C   UNL     1       1.739  -0.927   0.928  1.00  0.00     0.262 C 
ATOM     11  H   UNL     1       1.302   0.809   0.161  1.00  0.00     0.164 HD
ATOM     12  O   UNL     1       1.921  -0.355   2.005  1.00  0.00    -0.268 OA
BRANCH  10  13
ATOM     13  C   UNL     1       2.046  -2.329   0.732  1.00  0.00     0.093 A 
ATOM     14  C   UNL     1       2.715  -2.968  -0.291  1.00  0.00     0.047 A 
ATOM     15  S   UNL     1       1.630  -3.448   1.974  1.00  0.00    -0.137 S 
ATOM     16  C   UNL     1       2.638  -4.388  -0.180  1.00  0.00     0.094 A 
ATOM     17  C   UNL     1       2.083  -4.788   1.014  1.00  0.00     0.087 A 
BRANCH  16  18
ATOM     18  S   UNL     1       3.094  -5.498  -1.429  1.00  0.00     0.243 S 
ATOM     19  O   UNL     1       4.111  -6.327  -0.825  1.00  0.00    -0.207 OA
ATOM     20  O   UNL     1       1.817  -6.029  -1.854  1.00  0.00    -0.207 OA
BRANCH  18  21
ATOM     21  N   UNL     1       3.783  -4.639  -2.735  1.00  0.00    -0.204 NA
ATOM     22  C   UNL     1       5.157  -4.141  -2.494  1.00  0.00     0.124 C 
ATOM     23  C   UNL     1       3.695  -5.369  -4.021  1.00  0.00     0.124 C 
ENDBRANCH  18  21
ENDBRANCH  16  18
ENDBRANCH  10  13
ENDBRANCH   7   9
ENDBRANCH   4   7
ENDBRANCH   2   3
ENDBRANCH   1   2
BRANCH   1  24
ATOM     24  C   UNL     1      -3.302  -1.690   2.069  1.00  0.00     0.002 C 
BRANCH  24  25
ATOM     25  C   UNL     1      -3.824  -3.133   2.058  1.00  0.00     0.002 C 
BRANCH  25  26
ATOM     26  C   UNL     1      -3.048  -4.121   2.936  1.00  0.00     0.021 C 
BRANCH  26  27
ATOM     27  C   UNL     1      -2.976  -3.750   4.416  1.00  0.00     0.116 C 
BRANCH  27  28
ATOM     28  N   UNL     1      -4.295  -3.662   5.020  1.00  0.00    -0.352 N 
ATOM     29  C   UNL     1      -4.796  -4.271   6.141  1.00  0.00     0.251 C 
ATOM     30  H   UNL     1      -4.928  -3.072   4.551  1.00  0.00     0.163 HD
ATOM     31  O   UNL     1      -6.001  -4.219   6.375  1.00  0.00    -0.269 OA
BRANCH  29  32
ATOM     32  C   UNL     1      -3.904  -5.001   7.068  1.00  0.00     0.039 A 
ATOM     33  C   UNL     1      -4.348  -6.214   7.603  1.00  0.00     0.014 A 
ATOM     34  C   UNL     1      -2.667  -4.477   7.455  1.00  0.00     0.014 A 
ATOM     35  C   UNL     1      -3.536  -6.921   8.491  1.00  0.00     0.010 A 
ATOM     36  C   UNL     1      -1.833  -5.210   8.297  1.00  0.00     0.010 A 
ATOM     37  C   UNL     1      -2.262  -6.435   8.829  1.00  0.00    -0.014 A 
BRANCH  37  38
ATOM     38  C   UNL     1      -1.376  -7.207   9.734  1.00  0.00     0.031 A 
ATOM     39  C   UNL     1      -1.042  -6.687  11.104  1.00  0.00     0.074 A 
ATOM     40  C   UNL     1      -0.839  -8.363   9.303  1.00  0.00     0.049 A 
ATOM     41  N   UNL     1      -0.294  -7.228  12.032  1.00  0.00    -0.248 NA
ATOM     42  C   UNL     1      -1.603  -5.378  11.471  1.00  0.00     0.031 C 
ATOM     43  C   UNL     1      -1.043  -8.948   7.976  1.00  0.00     0.029 A 
ATOM     44  N   UNL     1      -0.012  -9.255   9.937  1.00  0.00    -0.354 N 
ATOM     45  C   UNL     1      -0.281  -6.321  13.084  1.00  0.00     0.074 A 
ATOM     46  C   UNL     1      -1.062  -5.177  12.664  1.00  0.00     0.031 C 
ATOM     47  C   UNL     1      -0.388 -10.117   7.907  1.00  0.00     0.029 A 
ATOM     48  C   UNL     1       0.300 -10.352   9.173  1.00  0.00     0.049 A 
ATOM     49  H   UNL     1       0.326  -9.121  10.852  1.00  0.00     0.167 HD
ATOM     50  C   UNL     1       0.313  -6.439  14.296  1.00  0.00     0.037 A 
ATOM     51  C   UNL     1       1.048 -11.432   9.465  1.00  0.00     0.037 A 
ATOM     52  C   UNL     1       1.062  -7.590  14.726  1.00  0.00     0.049 A 
ATOM     53  C   UNL     1       1.678 -11.548  10.823  1.00  0.00     0.074 A 
ATOM     54  C   UNL     1       1.628  -7.840  15.964  1.00  0.00     0.029 A 
ATOM     55  N   UNL     1       1.353  -8.684  13.925  1.00  0.00    -0.354 N 
ATOM     56  N   UNL     1       1.614 -10.721  11.837  1.00  0.00    -0.248 NA
ATOM     57  C   UNL     1       2.478 -12.754  11.077  1.00  0.00     0.031 C 
ATOM     58  C   UNL     1       2.292  -9.071  15.902  1.00  0.00     0.029 A 
ATOM     59  C   UNL     1       2.110  -9.602  14.636  1.00  0.00     0.049 A 
ATOM     60  H   UNL     1       1.065  -8.793  12.990  1.00  0.00     0.167 HD
ATOM     61  C   UNL     1       2.346 -11.314  12.857  1.00  0.00     0.074 A 
ATOM     62  C   UNL     1       2.833 -12.578  12.342  1.00  0.00     0.031 C 
ATOM     63  C   UNL     1       2.592 -10.853  14.108  1.00  0.00     0.037 A 
BRANCH  50  64
ATOM     64  C   UNL     1       0.173  -5.285  15.244  1.00  0.00     0.057 A 
ATOM     65  C   UNL     1      -1.040  -4.997  15.883  1.00  0.00     0.134 A 
ATOM     66  C   UNL     1       1.269  -4.464  15.537  1.00  0.00     0.134 A 
ATOM     67  F   UNL     1      -2.131  -5.739  15.637  1.00  0.00    -0.206 F 
ATOM     68  C   UNL     1      -1.166  -3.917  16.759  1.00  0.00     0.040 A 
ATOM     69  C   UNL     1       1.161  -3.394  16.428  1.00  0.00     0.040 A 
ATOM     70  F   UNL     1       2.460  -4.687  14.963  1.00  0.00    -0.206 F 
ATOM     71  C   UNL     1      -0.061  -3.114  17.037  1.00  0.00     0.006 A 
ENDBRANCH  50  64
BRANCH  51  72
ATOM     72  C   UNL     1       1.201 -12.516   8.465  1.00  0.00     0.057 A 
ATOM     73  C   UNL     1       0.536 -13.736   8.627  1.00  0.00     0.134 A 
ATOM     74  C   UNL     1       2.002 -12.359   7.329  1.00  0.00     0.134 A 
ATOM     75  F   UNL     1      -0.231 -13.948   9.707  1.00  0.00    -0.206 F 
ATOM     76  C   UNL     1       0.671 -14.770   7.700  1.00  0.00     0.040 A 
ATOM     77  C   UNL     1       2.131 -13.378   6.383  1.00  0.00     0.040 A 
ATOM     78  F   UNL     1       2.659 -11.210   7.116  1.00  0.00    -0.206 F 
ATOM     79  C   UNL     1       1.468 -14.590   6.571  1.00  0.00     0.006 A 
ENDBRANCH  51  72
BRANCH  63  80
ATOM     80  C   UNL     1       3.409 -11.733  15.005  1.00  0.00     0.057 A 
ATOM     81  C   UNL     1       4.791 -11.880  14.830  1.00  0.00     0.134 A 
ATOM     82  C   UNL     1       2.810 -12.431  16.060  1.00  0.00     0.134 A 
ATOM     83  F   UNL     1       5.420 -11.250  13.827  1.00  0.00    -0.206 F 
ATOM     84  C   UNL     1       5.544 -12.713  15.659  1.00  0.00     0.040 A 
ATOM     85  C   UNL     1       3.557 -13.249  16.909  1.00  0.00     0.040 A 
ATOM     86  F   UNL     1       1.491 -12.328  16.284  1.00  0.00    -0.206 F 
ATOM     87  C   UNL     1       4.927 -13.396  16.705  1.00  0.00     0.006 A 
ENDBRANCH  63  80
ENDBRANCH  37  38
ENDBRANCH  29  32
ENDBRANCH  27  28
ENDBRANCH  26  27
ENDBRANCH  25  26
ENDBRANCH  24  25
ENDBRANCH   1  24
TORSDOF 17
