REMARK SMILES Cc1ccccc1C(=O)Nc1ccc(N2CCCCC2)cc1C(=O)NCCCCCCNC(=O)c1ccc(-c2c3nc(c(-c4c(F)cccc4F)c4ccc([nH]4)c(-c4c(F)cccc4F)c4nc(c(-c5c(F)cccc5F)c5ccc2[nH]5)C=C4)C=C3)cc1
REMARK SMILES IDX 28 1 27 2 26 3 25 4 23 5 24 6 22 8 11 9 12 10 13 11 21 12
REMARK SMILES IDX 14 13 10 14 8 15 9 16 7 18 1 19 2 20 3 21 4 22 6 23 5 24
REMARK SMILES IDX 15 25 16 26 20 27 17 28 19 29 18 30 29 31 30 32 31 33 32 34
REMARK SMILES IDX 33 35 34 37 35 38 36 39 88 40 37 41 87 42 38 43 39 44 40 45
REMARK SMILES IDX 81 46 41 47 86 48 80 49 82 50 42 51 85 52 79 53 78 54 43 56
REMARK SMILES IDX 69 57 52 58 68 59 53 60 56 61 67 62 83 63 54 64 55 65 66 67
REMARK SMILES IDX 84 68 57 69 44 70 45 71 50 72 46 73 47 74 49 75 51 76 48 77
REMARK SMILES IDX 70 78 71 79 76 80 72 81 73 82 75 83 77 84 74 85 58 86 59 87
REMARK SMILES IDX 64 88 60 89 61 90 63 91 65 92 62 93
REMARK H PARENT 25 7 10 17 32 36 82 55 56 66
REMARK Flexibility Score: inf
ROOT
ATOM      1  C   UNL     1      -0.317  -2.939  -3.751  1.00  0.00     0.002 C 
ENDROOT
BRANCH   1   2
ATOM      2  C   UNL     1       0.571  -3.030  -2.507  1.00  0.00     0.021 C 
BRANCH   2   3
ATOM      3  C   UNL     1       1.784  -2.107  -2.420  1.00  0.00     0.116 C 
BRANCH   3   4
ATOM      4  N   UNL     1       1.526  -0.706  -2.682  1.00  0.00    -0.352 N 
ATOM      5  C   UNL     1       2.185   0.416  -2.226  1.00  0.00     0.253 C 
ATOM      6  O   UNL     1       1.854   1.512  -2.671  1.00  0.00    -0.269 OA
ATOM      7  H   UNL     1       0.762  -0.527  -3.277  1.00  0.00     0.163 HD
BRANCH   5   8
ATOM      8  C   UNL     1       3.276   0.326  -1.217  1.00  0.00     0.065 A 
ATOM      9  C   UNL     1       3.395   1.260  -0.173  1.00  0.00     0.054 A 
ATOM     10  C   UNL     1       4.531   1.225   0.647  1.00  0.00     0.029 A 
ATOM     11  C   UNL     1       5.429   0.166   0.562  1.00  0.00     0.028 A 
ATOM     12  C   UNL     1       4.277  -0.655  -1.367  1.00  0.00     0.042 A 
ATOM     13  C   UNL     1       5.285  -0.822  -0.413  1.00  0.00     0.038 A 
BRANCH   9  14
ATOM     14  N   UNL     1       2.459   2.229   0.218  1.00  0.00    -0.321 N 
ATOM     15  C   UNL     1       1.090   2.225   0.315  1.00  0.00     0.255 C 
ATOM     16  O   UNL     1       0.536   3.293   0.593  1.00  0.00    -0.269 OA
ATOM     17  H   UNL     1       2.867   3.087   0.476  1.00  0.00     0.170 HD
BRANCH  15  18
ATOM     18  C   UNL     1       0.238   1.006   0.236  1.00  0.00     0.043 A 
ATOM     19  C   UNL     1       1.674  -0.527   1.740  1.00  0.00     0.045 C 
ATOM     20  C   UNL     1       0.474  -0.220   0.893  1.00  0.00    -0.038 A 
ATOM     21  C   UNL     1      -0.492  -1.241   0.783  1.00  0.00     0.004 A 
ATOM     22  C   UNL     1      -1.697  -1.034   0.112  1.00  0.00     0.000 A 
ATOM     23  C   UNL     1      -0.992   1.201  -0.424  1.00  0.00     0.014 A 
ATOM     24  C   UNL     1      -1.954   0.194  -0.481  1.00  0.00     0.001 A 
ENDBRANCH  15  18
ENDBRANCH   9  14
BRANCH  13  25
ATOM     25  N   UNL     1       6.084  -1.956  -0.341  1.00  0.00    -0.372 N 
ATOM     26  C   UNL     1       5.753  -2.858   0.774  1.00  0.00     0.116 C 
ATOM     27  C   UNL     1       6.565  -2.608  -1.556  1.00  0.00     0.116 C 
ATOM     28  C   UNL     1       6.975  -3.691   1.146  1.00  0.00     0.021 C 
ATOM     29  C   UNL     1       7.817  -3.419  -1.215  1.00  0.00     0.021 C 
ATOM     30  C   UNL     1       7.559  -4.402  -0.072  1.00  0.00     0.004 C 
ENDBRANCH  13  25
ENDBRANCH   5   8
ENDBRANCH   3   4
ENDBRANCH   2   3
ENDBRANCH   1   2
BRANCH   1  31
ATOM     31  C   UNL     1       0.364  -2.964  -5.125  1.00  0.00     0.002 C 
BRANCH  31  32
ATOM     32  C   UNL     1       1.386  -4.072  -5.370  1.00  0.00     0.021 C 
BRANCH  32  33
ATOM     33  C   UNL     1       0.838  -5.491  -5.324  1.00  0.00     0.116 C 
BRANCH  33  34
ATOM     34  N   UNL     1       0.324  -5.984  -6.596  1.00  0.00    -0.352 N 
ATOM     35  C   UNL     1      -0.227  -7.223  -6.891  1.00  0.00     0.251 C 
ATOM     36  H   UNL     1       0.375  -5.352  -7.349  1.00  0.00     0.163 HD
ATOM     37  O   UNL     1      -0.638  -7.469  -8.015  1.00  0.00    -0.269 OA
BRANCH  35  38
ATOM     38  C   UNL     1      -0.448  -8.193  -5.789  1.00  0.00     0.039 A 
ATOM     39  C   UNL     1      -1.734  -8.720  -5.642  1.00  0.00     0.014 A 
ATOM     40  C   UNL     1       0.505  -8.372  -4.790  1.00  0.00     0.014 A 
ATOM     41  C   UNL     1      -2.144  -9.162  -4.389  1.00  0.00     0.010 A 
ATOM     42  C   UNL     1       0.075  -8.715  -3.523  1.00  0.00     0.010 A 
ATOM     43  C   UNL     1      -1.273  -9.022  -3.310  1.00  0.00    -0.014 A 
BRANCH  43  44
ATOM     44  C   UNL     1      -1.733  -9.013  -1.926  1.00  0.00     0.031 A 
ATOM     45  C   UNL     1      -1.451 -10.151  -1.028  1.00  0.00     0.074 A 
ATOM     46  C   UNL     1      -2.402  -7.933  -1.460  1.00  0.00     0.049 A 
ATOM     47  N   UNL     1      -2.117 -10.395   0.050  1.00  0.00    -0.248 NA
ATOM     48  C   UNL     1      -0.451 -11.172  -1.324  1.00  0.00     0.031 C 
ATOM     49  C   UNL     1      -2.708  -7.613  -0.069  1.00  0.00     0.029 A 
ATOM     50  N   UNL     1      -3.143  -7.002  -2.203  1.00  0.00    -0.354 N 
ATOM     51  C   UNL     1      -1.476 -11.408   0.723  1.00  0.00     0.074 A 
ATOM     52  C   UNL     1      -0.544 -11.944  -0.236  1.00  0.00     0.031 C 
ATOM     53  C   UNL     1      -3.751  -6.770  -0.036  1.00  0.00     0.029 A 
ATOM     54  C   UNL     1      -4.238  -6.628  -1.396  1.00  0.00     0.049 A 
ATOM     55  H   UNL     1      -2.939  -6.674  -3.109  1.00  0.00     0.167 HD
ATOM     56  C   UNL     1      -1.726 -11.569   2.053  1.00  0.00     0.037 A 
ATOM     57  C   UNL     1      -5.526  -6.854  -1.784  1.00  0.00     0.037 A 
ATOM     58  C   UNL     1      -2.912 -10.805   2.452  1.00  0.00     0.049 A 
ATOM     59  C   UNL     1      -6.308  -7.748  -0.852  1.00  0.00     0.074 A 
ATOM     60  C   UNL     1      -3.093  -9.630   3.162  1.00  0.00     0.029 A 
ATOM     61  N   UNL     1      -4.147 -11.118   1.887  1.00  0.00    -0.354 N 
ATOM     62  N   UNL     1      -5.761  -8.509   0.055  1.00  0.00    -0.248 NA
ATOM     63  C   UNL     1      -7.762  -7.885  -0.891  1.00  0.00     0.031 C 
ATOM     64  C   UNL     1      -4.426  -9.192   2.945  1.00  0.00     0.029 A 
ATOM     65  C   UNL     1      -5.066 -10.120   2.140  1.00  0.00     0.049 A 
ATOM     66  H   UNL     1      -4.338 -11.938   1.377  1.00  0.00     0.167 HD
ATOM     67  C   UNL     1      -6.731  -9.255   0.672  1.00  0.00     0.074 A 
ATOM     68  C   UNL     1      -7.970  -8.805   0.067  1.00  0.00     0.031 C 
ATOM     69  C   UNL     1      -6.423 -10.198   1.611  1.00  0.00     0.037 A 
BRANCH  56  70
ATOM     70  C   UNL     1      -0.795 -12.229   3.061  1.00  0.00     0.057 A 
ATOM     71  C   UNL     1      -1.115 -12.210   4.437  1.00  0.00     0.134 A 
ATOM     72  C   UNL     1       0.476 -12.776   2.788  1.00  0.00     0.134 A 
ATOM     73  F   UNL     1      -2.290 -11.740   4.878  1.00  0.00    -0.206 F 
ATOM     74  C   UNL     1      -0.236 -12.650   5.441  1.00  0.00     0.040 A 
ATOM     75  C   UNL     1       1.348 -13.254   3.779  1.00  0.00     0.040 A 
ATOM     76  F   UNL     1       0.987 -12.848   1.558  1.00  0.00    -0.206 F 
ATOM     77  C   UNL     1       1.003 -13.175   5.115  1.00  0.00     0.006 A 
ENDBRANCH  56  70
BRANCH  57  78
ATOM     78  C   UNL     1      -5.735  -6.760  -3.249  1.00  0.00     0.057 A 
ATOM     79  C   UNL     1      -5.667  -5.495  -3.854  1.00  0.00     0.134 A 
ATOM     80  C   UNL     1      -5.620  -7.875  -4.083  1.00  0.00     0.134 A 
ATOM     81  F   UNL     1      -5.774  -4.385  -3.107  1.00  0.00    -0.206 F 
ATOM     82  C   UNL     1      -5.390  -5.342  -5.215  1.00  0.00     0.040 A 
ATOM     83  C   UNL     1      -5.342  -7.734  -5.448  1.00  0.00     0.040 A 
ATOM     84  F   UNL     1      -5.653  -9.114  -3.572  1.00  0.00    -0.206 F 
ATOM     85  C   UNL     1      -5.190  -6.467  -6.009  1.00  0.00     0.006 A 
ENDBRANCH  57  78
BRANCH  69  86
ATOM     86  C   UNL     1      -7.378 -11.225   2.172  1.00  0.00     0.057 A 
ATOM     87  C   UNL     1      -8.477 -11.751   1.474  1.00  0.00     0.134 A 
ATOM     88  C   UNL     1      -7.122 -11.831   3.422  1.00  0.00     0.134 A 
ATOM     89  F   UNL     1      -8.771 -11.357   0.228  1.00  0.00    -0.206 F 
ATOM     90  C   UNL     1      -9.296 -12.758   2.005  1.00  0.00     0.040 A 
ATOM     91  C   UNL     1      -7.901 -12.872   3.939  1.00  0.00     0.040 A 
ATOM     92  F   UNL     1      -6.087 -11.453   4.188  1.00  0.00    -0.206 F 
ATOM     93  C   UNL     1      -9.005 -13.329   3.237  1.00  0.00     0.006 A 
ENDBRANCH  69  86
ENDBRANCH  43  44
ENDBRANCH  35  38
ENDBRANCH  33  34
ENDBRANCH  32  33
ENDBRANCH  31  32
ENDBRANCH   1  31
TORSDOF 16
