REMARK SMILES CC(C)C[C@H](NC(=O)[C@H]1CCCCC[C@H]1[NH3+])C(=O)NCCCCCCNC(=O)c1ccc(-c2c3nc(c(-c4c(F)cccc4F)c4ccc([nH]4)c(-c4c(F)cccc4F)c4nc(c(-c5c(F)cccc5F)c5ccc2[nH]5)C=C4)C=C3)cc1
REMARK SMILES IDX 21 1 20 2 19 3 17 4 18 5 5 7 4 8 2 9 1 10 3 11 6 12 7 13
REMARK SMILES IDX 8 15 9 16 10 17 11 18 12 19 15 21 14 22 13 23 16 25 22 29
REMARK SMILES IDX 23 30 24 31 25 32 26 33 27 34 28 36 29 37 30 38 82 39 31 40
REMARK SMILES IDX 81 41 32 42 33 43 34 44 75 45 35 46 80 47 74 48 76 49 36 50
REMARK SMILES IDX 79 51 73 52 72 53 37 55 63 56 46 57 62 58 47 59 50 60 61 61
REMARK SMILES IDX 77 62 48 63 49 64 60 66 78 67 51 68 38 69 39 70 44 71 40 72
REMARK SMILES IDX 41 73 43 74 45 75 42 76 64 77 65 78 70 79 66 80 67 81 69 82
REMARK SMILES IDX 71 83 68 84 52 85 53 86 58 87 54 88 55 89 57 90 59 91 56 92
REMARK H PARENT 19 6 6 14 16 26 16 27 16 28 26 35 76 54 50 65
REMARK Flexibility Score: 90.00
ROOT
ATOM      1  C   UNL     1       4.240  -1.138  -0.176  1.00  0.00     0.021 C 
ENDROOT
BRANCH   1   2
ATOM      2  C   UNL     1       2.775  -1.298  -0.557  1.00  0.00     0.116 C 
BRANCH   2   3
ATOM      3  N   UNL     1       1.956  -1.625   0.590  1.00  0.00    -0.354 N 
ATOM      4  C   UNL     1       0.737  -1.126   0.938  1.00  0.00     0.242 C 
ATOM      5  O   UNL     1       0.232  -1.515   1.994  1.00  0.00    -0.273 OA
ATOM      6  H   UNL     1       2.330  -2.300   1.202  1.00  0.00     0.163 HD
BRANCH   4   7
ATOM      7  C   UNL     1       0.021  -0.092   0.041  1.00  0.00     0.171 C 
BRANCH   7   8
ATOM      8  C   UNL     1      -0.338  -0.634  -1.345  1.00  0.00     0.038 C 
BRANCH   8   9
ATOM      9  C   UNL     1      -0.637  -2.122  -1.583  1.00  0.00    -0.015 C 
ATOM     10  C   UNL     1      -1.719  -2.713  -0.691  1.00  0.00     0.007 C 
ATOM     11  C   UNL     1      -1.034  -2.275  -3.060  1.00  0.00     0.007 C 
ENDBRANCH   8   9
ENDBRANCH   7   8
BRANCH   7  12
ATOM     12  N   UNL     1       0.842   1.149   0.083  1.00  0.00    -0.344 N 
ATOM     13  C   UNL     1       1.384   1.974  -0.857  1.00  0.00     0.229 C 
ATOM     14  H   UNL     1       1.040   1.441   1.002  1.00  0.00     0.164 HD
ATOM     15  O   UNL     1       2.411   2.577  -0.525  1.00  0.00    -0.275 OA
BRANCH  13  16
ATOM     16  C   UNL     1       0.735   2.213  -2.223  1.00  0.00     0.136 C 
BRANCH  16  17
ATOM     17  C   UNL     1      -0.188   3.441  -2.164  1.00  0.00     0.020 C 
BRANCH  17  18
ATOM     18  C   UNL     1       0.489   4.770  -1.855  1.00  0.00     0.001 C 
BRANCH  18  19
ATOM     19  C   UNL     1       1.130   5.479  -3.042  1.00  0.00     0.000 CG0
ATOM     20  G   UNL     1       1.747   4.613  -4.131  1.00  0.00     0.000 G0
ENDBRANCH  18  19
ENDBRANCH  17  18
ENDBRANCH  16  17
BRANCH  16  21
ATOM     21  C   UNL     1       1.734   2.177  -3.404  1.00  0.00     0.193 C 
BRANCH  21  22
ATOM     22  C   UNL     1       2.579   3.437  -3.632  1.00  0.00     0.066 C 
BRANCH  22  23
ATOM     23  C   UNL     1       1.747   4.613  -4.131  1.00  0.00     0.006 CG0
ATOM     24  G   UNL     1       1.130   5.479  -3.042  1.00  0.00     0.000 G0
ENDBRANCH  22  23
ENDBRANCH  21  22
BRANCH  21  25
ATOM     25  N   UNL     1       2.625   1.001  -3.331  1.00  0.00    -0.354 N 
ATOM     26  H   UNL     1       3.232   1.085  -2.515  1.00  0.00     0.344 HD
ATOM     27  H   UNL     1       3.195   0.953  -4.176  1.00  0.00     0.344 HD
ATOM     28  H   UNL     1       2.063   0.153  -3.251  1.00  0.00     0.344 HD
ENDBRANCH  21  25
ENDBRANCH  16  21
ENDBRANCH  13  16
ENDBRANCH   7  12
ENDBRANCH   4   7
ENDBRANCH   2   3
ENDBRANCH   1   2
BRANCH   1  29
ATOM     29  C   UNL     1       4.914  -2.451   0.225  1.00  0.00     0.002 C 
BRANCH  29  30
ATOM     30  C   UNL     1       4.833  -3.560  -0.830  1.00  0.00     0.002 C 
BRANCH  30  31
ATOM     31  C   UNL     1       5.356  -3.169  -2.215  1.00  0.00     0.021 C 
BRANCH  31  32
ATOM     32  C   UNL     1       6.788  -2.647  -2.222  1.00  0.00     0.116 C 
BRANCH  32  33
ATOM     33  N   UNL     1       7.729  -3.630  -1.710  1.00  0.00    -0.352 N 
ATOM     34  C   UNL     1       8.889  -4.098  -2.274  1.00  0.00     0.251 C 
ATOM     35  H   UNL     1       7.502  -4.014  -0.832  1.00  0.00     0.163 HD
ATOM     36  O   UNL     1       9.463  -5.069  -1.799  1.00  0.00    -0.269 OA
BRANCH  34  37
ATOM     37  C   UNL     1       9.430  -3.432  -3.476  1.00  0.00     0.039 A 
ATOM     38  C   UNL     1       9.866  -4.218  -4.544  1.00  0.00     0.014 A 
ATOM     39  C   UNL     1       9.502  -2.038  -3.549  1.00  0.00     0.014 A 
ATOM     40  C   UNL     1      10.322  -3.604  -5.711  1.00  0.00     0.010 A 
ATOM     41  C   UNL     1       9.884  -1.428  -4.739  1.00  0.00     0.010 A 
ATOM     42  C   UNL     1      10.302  -2.204  -5.831  1.00  0.00    -0.014 A 
BRANCH  42  43
ATOM     43  C   UNL     1      10.712  -1.534  -7.091  1.00  0.00     0.031 A 
ATOM     44  C   UNL     1      11.904  -0.617  -7.104  1.00  0.00     0.074 A 
ATOM     45  C   UNL     1       9.971  -1.700  -8.204  1.00  0.00     0.049 A 
ATOM     46  N   UNL     1      12.374   0.112  -8.084  1.00  0.00    -0.248 NA
ATOM     47  C   UNL     1      12.652  -0.479  -5.843  1.00  0.00     0.031 C 
ATOM     48  C   UNL     1       8.768  -2.530  -8.307  1.00  0.00     0.029 A 
ATOM     49  N   UNL     1      10.114  -1.169  -9.462  1.00  0.00    -0.354 N 
ATOM     50  C   UNL     1      13.454   0.807  -7.554  1.00  0.00     0.074 A 
ATOM     51  C   UNL     1      13.544   0.449  -6.156  1.00  0.00     0.031 C 
ATOM     52  C   UNL     1       8.298  -2.470  -9.563  1.00  0.00     0.029 A 
ATOM     53  C   UNL     1       9.135  -1.564 -10.343  1.00  0.00     0.049 A 
ATOM     54  H   UNL     1      10.848  -0.562  -9.710  1.00  0.00     0.167 HD
ATOM     55  C   UNL     1      14.302   1.655  -8.182  1.00  0.00     0.037 A 
ATOM     56  C   UNL     1       8.930  -1.224 -11.629  1.00  0.00     0.037 A 
ATOM     57  C   UNL     1      14.229   1.980  -9.582  1.00  0.00     0.049 A 
ATOM     58  C   UNL     1       9.885  -0.270 -12.296  1.00  0.00     0.074 A 
ATOM     59  C   UNL     1      15.093   2.762 -10.329  1.00  0.00     0.029 A 
ATOM     60  N   UNL     1      13.232   1.550 -10.444  1.00  0.00    -0.354 N 
ATOM     61  N   UNL     1      10.953   0.311 -11.805  1.00  0.00    -0.248 NA
ATOM     62  C   UNL     1       9.607   0.075 -13.697  1.00  0.00     0.031 C 
ATOM     63  C   UNL     1      14.586   2.855 -11.628  1.00  0.00     0.029 A 
ATOM     64  C   UNL     1      13.441   2.079 -11.706  1.00  0.00     0.049 A 
ATOM     65  H   UNL     1      12.487   0.956 -10.195  1.00  0.00     0.167 HD
ATOM     66  C   UNL     1      11.494   1.055 -12.846  1.00  0.00     0.074 A 
ATOM     67  C   UNL     1      10.643   0.843 -13.998  1.00  0.00     0.031 C 
ATOM     68  C   UNL     1      12.596   1.844 -12.849  1.00  0.00     0.037 A 
BRANCH  55  69
ATOM     69  C   UNL     1      15.386   2.298  -7.367  1.00  0.00     0.057 A 
ATOM     70  C   UNL     1      16.480   1.572  -6.878  1.00  0.00     0.134 A 
ATOM     71  C   UNL     1      15.367   3.678  -7.125  1.00  0.00     0.134 A 
ATOM     72  F   UNL     1      16.554   0.246  -7.065  1.00  0.00    -0.206 F 
ATOM     73  C   UNL     1      17.507   2.193  -6.165  1.00  0.00     0.040 A 
ATOM     74  C   UNL     1      16.403   4.314  -6.439  1.00  0.00     0.040 A 
ATOM     75  F   UNL     1      14.352   4.434  -7.571  1.00  0.00    -0.206 F 
ATOM     76  C   UNL     1      17.475   3.570  -5.953  1.00  0.00     0.006 A 
ENDBRANCH  55  69
BRANCH  56  77
ATOM     77  C   UNL     1       7.780  -1.786 -12.385  1.00  0.00     0.057 A 
ATOM     78  C   UNL     1       7.980  -2.654 -13.465  1.00  0.00     0.134 A 
ATOM     79  C   UNL     1       6.460  -1.435 -12.079  1.00  0.00     0.134 A 
ATOM     80  F   UNL     1       9.223  -3.014 -13.820  1.00  0.00    -0.206 F 
ATOM     81  C   UNL     1       6.915  -3.124 -14.235  1.00  0.00     0.040 A 
ATOM     82  C   UNL     1       5.382  -1.922 -12.821  1.00  0.00     0.040 A 
ATOM     83  F   UNL     1       6.197  -0.613 -11.052  1.00  0.00    -0.206 F 
ATOM     84  C   UNL     1       5.610  -2.759 -13.911  1.00  0.00     0.006 A 
ENDBRANCH  56  77
BRANCH  68  85
ATOM     85  C   UNL     1      12.976   2.495 -14.147  1.00  0.00     0.057 A 
ATOM     86  C   UNL     1      12.231   3.544 -14.699  1.00  0.00     0.134 A 
ATOM     87  C   UNL     1      14.132   2.094 -14.829  1.00  0.00     0.134 A 
ATOM     88  F   UNL     1      11.107   3.968 -14.103  1.00  0.00    -0.206 F 
ATOM     89  C   UNL     1      12.608   4.154 -15.897  1.00  0.00     0.040 A 
ATOM     90  C   UNL     1      14.537   2.716 -16.011  1.00  0.00     0.040 A 
ATOM     91  F   UNL     1      14.898   1.102 -14.349  1.00  0.00    -0.206 F 
ATOM     92  C   UNL     1      13.769   3.745 -16.551  1.00  0.00     0.006 A 
ENDBRANCH  68  85
ENDBRANCH  42  43
ENDBRANCH  34  37
ENDBRANCH  32  33
ENDBRANCH  31  32
ENDBRANCH  30  31
ENDBRANCH  29  30
ENDBRANCH   1  29
TORSDOF 18
