REMARK SMILES COc1cc(/C=C2/SC(=O)N(c3ccc(C)c(C)c3)C2=O)ccc1OCCC(=O)NCCCCCCNC(=O)c1ccc(-c2c3nc(c(-c4c(F)cccc4F)c4ccc([nH]4)c(-c4c(F)cccc4F)c4nc(c(-c5c(F)cccc5F)c5ccc2[nH]5)C=C4)C=C3)cc1
REMARK SMILES IDX 32 1 31 2 30 3 28 4 29 5 27 7 26 8 25 9 24 10 3 11 4 12 5 13
REMARK SMILES IDX 23 14 22 15 2 16 1 17 6 18 7 19 8 20 20 21 9 22 11 23 21 24
REMARK SMILES IDX 10 25 12 26 13 27 19 28 14 29 17 30 15 31 18 32 16 33 33 34
REMARK SMILES IDX 34 35 35 36 36 37 37 38 38 39 39 41 40 42 41 43 93 44 42 45
REMARK SMILES IDX 92 46 43 47 44 48 45 49 86 50 46 51 91 52 85 53 87 54 47 55
REMARK SMILES IDX 90 56 84 57 83 58 48 60 74 61 57 62 73 63 58 64 61 65 72 66
REMARK SMILES IDX 88 67 59 68 60 69 71 71 89 72 62 73 49 74 50 75 55 76 51 77
REMARK SMILES IDX 52 78 54 79 56 80 53 81 75 82 76 83 81 84 77 85 78 86 80 87
REMARK SMILES IDX 82 88 79 89 63 90 64 91 69 92 65 93 66 94 68 95 70 96 67 97
REMARK H PARENT 30 6 37 40 87 59 61 70
REMARK Flexibility Score: inf
ROOT
ATOM      1  C   UNL     1       2.446  -3.890   2.138  1.00  0.00     0.021 C 
ENDROOT
BRANCH   1   2
ATOM      2  C   UNL     1       1.603  -4.293   0.934  1.00  0.00     0.116 C 
BRANCH   2   3
ATOM      3  N   UNL     1       0.609  -3.301   0.567  1.00  0.00    -0.356 N 
ATOM      4  C   UNL     1       0.755  -2.179  -0.196  1.00  0.00     0.223 C 
ATOM      5  O   UNL     1      -0.256  -1.612  -0.611  1.00  0.00    -0.275 OA
ATOM      6  H   UNL     1      -0.297  -3.460   0.917  1.00  0.00     0.163 HD
BRANCH   4   7
ATOM      7  C   UNL     1       2.139  -1.713  -0.585  1.00  0.00     0.141 C 
BRANCH   7   8
ATOM      8  C   UNL     1       2.593  -0.381   0.003  1.00  0.00     0.239 C 
BRANCH   8   9
ATOM      9  O   UNL     1       2.932  -0.340   1.383  1.00  0.00    -0.489 OA
BRANCH   9  10
ATOM     10  C   UNL     1       2.032  -0.200   2.398  1.00  0.00     0.161 A 
ATOM     11  C   UNL     1       0.652   0.012   2.369  1.00  0.00     0.161 A 
ATOM     12  C   UNL     1      -0.126  -0.228   3.522  1.00  0.00     0.058 A 
ATOM     13  C   UNL     1       0.473  -0.567   4.735  1.00  0.00    -0.020 A 
ATOM     14  C   UNL     1       2.635  -0.396   3.648  1.00  0.00     0.051 A 
ATOM     15  C   UNL     1       1.872  -0.579   4.803  1.00  0.00     0.012 A 
BRANCH  11  16
ATOM     16  O   UNL     1      -0.069   0.323   1.255  1.00  0.00    -0.493 OA
ATOM     17  C   UNL     1       0.187   1.626   0.740  1.00  0.00     0.278 C 
ENDBRANCH  11  16
BRANCH  13  18
ATOM     18  C   UNL     1      -0.314  -1.041   5.890  1.00  0.00     0.029 C 
ATOM     19  C   UNL     1      -0.209  -0.505   7.112  1.00  0.00     0.083 C 
ATOM     20  S   UNL     1      -0.558  -1.293   8.591  1.00  0.00    -0.022 SA
ATOM     21  C   UNL     1       0.565   0.723   7.397  1.00  0.00     0.272 C 
ATOM     22  C   UNL     1       0.787  -0.438   9.382  1.00  0.00     0.298 C 
ATOM     23  N   UNL     1       1.347   0.478   8.515  1.00  0.00    -0.236 N 
ATOM     24  O   UNL     1       0.438   1.727   6.735  1.00  0.00    -0.268 OA
ATOM     25  O   UNL     1       1.073  -0.676  10.551  1.00  0.00    -0.260 OA
BRANCH  23  26
ATOM     26  C   UNL     1       2.601   1.141   8.716  1.00  0.00     0.053 A 
ATOM     27  C   UNL     1       3.019   2.184   7.877  1.00  0.00     0.027 A 
ATOM     28  C   UNL     1       3.527   0.687   9.669  1.00  0.00     0.030 A 
ATOM     29  C   UNL     1       4.279   2.769   8.001  1.00  0.00     0.006 A 
ATOM     30  C   UNL     1       4.821   1.245   9.785  1.00  0.00    -0.046 A 
ATOM     31  C   UNL     1       5.189   2.319   8.959  1.00  0.00    -0.048 A 
ATOM     32  C   UNL     1       5.773   0.662  10.794  1.00  0.00     0.044 C 
ATOM     33  C   UNL     1       6.520   3.013   9.030  1.00  0.00     0.044 C 
ENDBRANCH  23  26
ENDBRANCH  13  18
ENDBRANCH   9  10
ENDBRANCH   8   9
ENDBRANCH   7   8
ENDBRANCH   4   7
ENDBRANCH   2   3
ENDBRANCH   1   2
BRANCH   1  34
ATOM     34  C   UNL     1       1.624  -3.717   3.417  1.00  0.00     0.002 C 
BRANCH  34  35
ATOM     35  C   UNL     1       1.369  -4.989   4.220  1.00  0.00     0.002 C 
BRANCH  35  36
ATOM     36  C   UNL     1       2.618  -5.548   4.907  1.00  0.00     0.021 C 
BRANCH  36  37
ATOM     37  C   UNL     1       3.254  -4.624   5.946  1.00  0.00     0.116 C 
BRANCH  37  38
ATOM     38  N   UNL     1       2.467  -4.523   7.166  1.00  0.00    -0.352 N 
ATOM     39  C   UNL     1       2.827  -4.868   8.448  1.00  0.00     0.251 C 
ATOM     40  H   UNL     1       1.558  -4.160   7.060  1.00  0.00     0.163 HD
ATOM     41  O   UNL     1       1.999  -4.878   9.351  1.00  0.00    -0.269 OA
BRANCH  39  42
ATOM     42  C   UNL     1       4.225  -5.263   8.719  1.00  0.00     0.039 A 
ATOM     43  C   UNL     1       4.476  -6.496   9.324  1.00  0.00     0.014 A 
ATOM     44  C   UNL     1       5.282  -4.441   8.318  1.00  0.00     0.014 A 
ATOM     45  C   UNL     1       5.793  -6.941   9.458  1.00  0.00     0.010 A 
ATOM     46  C   UNL     1       6.589  -4.918   8.389  1.00  0.00     0.010 A 
ATOM     47  C   UNL     1       6.857  -6.176   8.953  1.00  0.00    -0.014 A 
BRANCH  47  48
ATOM     48  C   UNL     1       8.252  -6.687   8.984  1.00  0.00     0.031 A 
ATOM     49  C   UNL     1       9.306  -5.980   9.787  1.00  0.00     0.074 A 
ATOM     50  C   UNL     1       8.591  -7.749   8.227  1.00  0.00     0.049 A 
ATOM     51  N   UNL     1      10.583  -6.248   9.897  1.00  0.00    -0.248 NA
ATOM     52  C   UNL     1       8.872  -4.796  10.544  1.00  0.00     0.031 C 
ATOM     53  C   UNL     1       7.679  -8.487   7.351  1.00  0.00     0.029 A 
ATOM     54  N   UNL     1       9.798  -8.381   8.059  1.00  0.00    -0.354 N 
ATOM     55  C   UNL     1      11.105  -5.262  10.724  1.00  0.00     0.074 A 
ATOM     56  C   UNL     1      10.020  -4.357  11.037  1.00  0.00     0.031 C 
ATOM     57  C   UNL     1       8.355  -9.478   6.749  1.00  0.00     0.029 A 
ATOM     58  C   UNL     1       9.753  -9.426   7.169  1.00  0.00     0.049 A 
ATOM     59  H   UNL     1      10.618  -8.111   8.533  1.00  0.00     0.167 HD
ATOM     60  C   UNL     1      12.368  -5.134  11.199  1.00  0.00     0.037 A 
ATOM     61  C   UNL     1      10.727 -10.246   6.730  1.00  0.00     0.037 A 
ATOM     62  C   UNL     1      13.445  -6.040  10.892  1.00  0.00     0.049 A 
ATOM     63  C   UNL     1      12.122 -10.091   7.269  1.00  0.00     0.074 A 
ATOM     64  C   UNL     1      14.741  -6.036  11.378  1.00  0.00     0.029 A 
ATOM     65  N   UNL     1      13.354  -7.105  10.007  1.00  0.00    -0.354 N 
ATOM     66  N   UNL     1      12.584  -9.209   8.121  1.00  0.00    -0.248 NA
ATOM     67  C   UNL     1      13.127 -11.052   6.794  1.00  0.00     0.031 C 
ATOM     68  C   UNL     1      15.449  -7.064  10.745  1.00  0.00     0.029 A 
ATOM     69  C   UNL     1      14.580  -7.745   9.908  1.00  0.00     0.049 A 
ATOM     70  H   UNL     1      12.540  -7.367   9.520  1.00  0.00     0.167 HD
ATOM     71  C   UNL     1      13.926  -9.518   8.301  1.00  0.00     0.074 A 
ATOM     72  C   UNL     1      14.199 -10.680   7.480  1.00  0.00     0.031 C 
ATOM     73  C   UNL     1      14.846  -8.895   9.079  1.00  0.00     0.037 A 
BRANCH  60  74
ATOM     74  C   UNL     1      12.646  -3.958  12.093  1.00  0.00     0.057 A 
ATOM     75  C   UNL     1      12.083  -3.849  13.373  1.00  0.00     0.134 A 
ATOM     76  C   UNL     1      13.481  -2.918  11.668  1.00  0.00     0.134 A 
ATOM     77  F   UNL     1      11.265  -4.805  13.840  1.00  0.00    -0.206 F 
ATOM     78  C   UNL     1      12.302  -2.728  14.176  1.00  0.00     0.040 A 
ATOM     79  C   UNL     1      13.735  -1.808  12.475  1.00  0.00     0.040 A 
ATOM     80  F   UNL     1      14.062  -2.960  10.459  1.00  0.00    -0.206 F 
ATOM     81  C   UNL     1      13.134  -1.704  13.728  1.00  0.00     0.006 A 
ENDBRANCH  60  74
BRANCH  61  82
ATOM     82  C   UNL     1      10.401 -11.300   5.737  1.00  0.00     0.057 A 
ATOM     83  C   UNL     1      10.358 -12.650   6.099  1.00  0.00     0.134 A 
ATOM     84  C   UNL     1      10.092 -10.977   4.410  1.00  0.00     0.134 A 
ATOM     85  F   UNL     1      10.661 -13.023   7.351  1.00  0.00    -0.206 F 
ATOM     86  C   UNL     1      10.024 -13.644   5.177  1.00  0.00     0.040 A 
ATOM     87  C   UNL     1       9.733 -11.957   3.483  1.00  0.00     0.040 A 
ATOM     88  F   UNL     1      10.107  -9.699   4.002  1.00  0.00    -0.206 F 
ATOM     89  C   UNL     1       9.702 -13.296   3.866  1.00  0.00     0.006 A 
ENDBRANCH  61  82
BRANCH  73  90
ATOM     90  C   UNL     1      16.235  -9.468   9.096  1.00  0.00     0.057 A 
ATOM     91  C   UNL     1      17.098  -9.352   7.999  1.00  0.00     0.134 A 
ATOM     92  C   UNL     1      16.728 -10.108  10.240  1.00  0.00     0.134 A 
ATOM     93  F   UNL     1      16.684  -8.763   6.867  1.00  0.00    -0.206 F 
ATOM     94  C   UNL     1      18.394  -9.871   8.032  1.00  0.00     0.040 A 
ATOM     95  C   UNL     1      18.031 -10.606  10.295  1.00  0.00     0.040 A 
ATOM     96  F   UNL     1      15.957 -10.247  11.330  1.00  0.00    -0.206 F 
ATOM     97  C   UNL     1      18.866 -10.493   9.186  1.00  0.00     0.006 A 
ENDBRANCH  73  90
ENDBRANCH  47  48
ENDBRANCH  39  42
ENDBRANCH  37  38
ENDBRANCH  36  37
ENDBRANCH  35  36
ENDBRANCH  34  35
ENDBRANCH   1  34
TORSDOF 19
