REMARK SMILES CCc1ccsc1CNC(=O)N1[C@H]2CC[C@@H]1[C@H](C(=O)NCCCCCCNC(=O)c1ccc(-c3c4nc(c(-c5c(F)cccc5F)c5ccc([nH]5)c(-c5c(F)cccc5F)c5nc(c(-c6c(F)cccc6F)c6ccc3[nH]6)C=C5)C=C4)cc1)C2
REMARK SMILES IDX 22 1 21 2 20 3 18 4 19 5 17 7 12 8 13 9 16 10 14 11 84 12
REMARK SMILES IDX 15 13 10 14 9 15 11 17 8 18 7 19 3 20 4 21 5 22 6 23 2 24
REMARK SMILES IDX 1 25 23 26 24 27 25 28 26 29 27 30 28 31 29 33 30 34 31 35
REMARK SMILES IDX 83 36 32 37 82 38 33 39 34 40 35 41 76 42 36 43 81 44 75 45
REMARK SMILES IDX 77 46 37 47 80 48 74 49 73 50 38 52 64 53 47 54 63 55 48 56
REMARK SMILES IDX 51 57 62 58 78 59 49 60 50 61 61 63 79 64 52 65 39 66 40 67
REMARK SMILES IDX 45 68 41 69 42 70 44 71 46 72 43 73 65 74 66 75 71 76 67 77
REMARK SMILES IDX 68 78 70 79 72 80 69 81 53 82 54 83 59 84 55 85 56 86 58 87
REMARK SMILES IDX 60 88 57 89
REMARK H PARENT 20 6 9 16 27 32 77 51 51 62
REMARK Flexibility Score: inf
ROOT
ATOM      1  C   UNL     1      -4.641  10.345  -1.429  1.00  0.00     0.021 C 
ENDROOT
BRANCH   1   2
ATOM      2  C   UNL     1      -4.542   8.869  -1.808  1.00  0.00     0.116 C 
BRANCH   2   3
ATOM      3  N   UNL     1      -3.722   8.690  -2.982  1.00  0.00    -0.356 N 
ATOM      4  C   UNL     1      -2.546   8.059  -3.195  1.00  0.00     0.225 C 
ATOM      5  O   UNL     1      -2.047   8.222  -4.315  1.00  0.00    -0.275 OA
ATOM      6  H   UNL     1      -4.094   9.111  -3.790  1.00  0.00     0.163 HD
BRANCH   4   7
ATOM      7  C   UNL     1      -1.808   7.207  -2.179  1.00  0.00     0.103 C 
ATOM      8  N   UNL     1      -0.419   6.804  -0.439  1.00  0.00    -0.318 N 
ATOM      9  C   UNL     1      -1.723   6.512   0.119  1.00  0.00     0.088 C 
ATOM     10  C   UNL     1      -0.763   7.922  -1.301  1.00  0.00     0.099 C 
ATOM     11  C   UNL     1      -2.064   7.886   0.723  1.00  0.00     0.027 C 
ATOM     12  C   UNL     1      -2.534   6.279  -1.173  1.00  0.00     0.040 C 
ATOM     13  C   UNL     1      -1.401   8.865  -0.271  1.00  0.00     0.028 C 
BRANCH   8  14
ATOM     14  C   UNL     1       0.815   6.542   0.046  1.00  0.00     0.318 C 
ATOM     15  N   UNL     1       1.076   5.294   0.504  1.00  0.00    -0.333 N 
ATOM     16  H   UNL     1       1.853   5.211   1.103  1.00  0.00     0.165 HD
ATOM     17  O   UNL     1       1.721   7.373   0.034  1.00  0.00    -0.249 OA
BRANCH  15  18
ATOM     18  C   UNL     1       0.361   4.068   0.228  1.00  0.00     0.165 C 
BRANCH  18  19
ATOM     19  C   UNL     1       0.977   3.289  -0.905  1.00  0.00     0.027 A 
ATOM     20  C   UNL     1       1.105   1.905  -1.006  1.00  0.00    -0.033 A 
ATOM     21  C   UNL     1       1.660   1.536  -2.278  1.00  0.00     0.016 A 
ATOM     22  C   UNL     1       1.919   2.618  -3.086  1.00  0.00     0.065 A 
ATOM     23  S   UNL     1       1.485   4.083  -2.342  1.00  0.00    -0.147 S 
BRANCH  20  24
ATOM     24  C   UNL     1       0.664   0.946   0.074  1.00  0.00     0.033 C 
ATOM     25  C   UNL     1       1.088  -0.500  -0.118  1.00  0.00     0.009 C 
ENDBRANCH  20  24
ENDBRANCH  18  19
ENDBRANCH  15  18
ENDBRANCH   8  14
ENDBRANCH   4   7
ENDBRANCH   2   3
ENDBRANCH   1   2
BRANCH   1  26
ATOM     26  C   UNL     1      -5.898  11.034  -1.959  1.00  0.00     0.002 C 
BRANCH  26  27
ATOM     27  C   UNL     1      -7.219  10.490  -1.404  1.00  0.00     0.002 C 
BRANCH  27  28
ATOM     28  C   UNL     1      -7.310  10.400   0.122  1.00  0.00     0.021 C 
BRANCH  28  29
ATOM     29  C   UNL     1      -7.001  11.696   0.869  1.00  0.00     0.116 C 
BRANCH  29  30
ATOM     30  N   UNL     1      -7.873  12.783   0.460  1.00  0.00    -0.352 N 
ATOM     31  C   UNL     1      -8.724  13.554   1.207  1.00  0.00     0.251 C 
ATOM     32  H   UNL     1      -7.848  13.000  -0.500  1.00  0.00     0.163 HD
ATOM     33  O   UNL     1      -9.525  14.299   0.652  1.00  0.00    -0.269 OA
BRANCH  31  34
ATOM     34  C   UNL     1      -8.691  13.484   2.683  1.00  0.00     0.039 A 
ATOM     35  C   UNL     1      -9.901  13.427   3.379  1.00  0.00     0.014 A 
ATOM     36  C   UNL     1      -7.479  13.516   3.380  1.00  0.00     0.014 A 
ATOM     37  C   UNL     1      -9.897  13.357   4.773  1.00  0.00     0.010 A 
ATOM     38  C   UNL     1      -7.473  13.386   4.766  1.00  0.00     0.010 A 
ATOM     39  C   UNL     1      -8.682  13.314   5.475  1.00  0.00    -0.014 A 
BRANCH  39  40
ATOM     40  C   UNL     1      -8.659  13.212   6.954  1.00  0.00     0.031 A 
ATOM     41  C   UNL     1      -8.145  14.356   7.781  1.00  0.00     0.074 A 
ATOM     42  C   UNL     1      -9.051  12.069   7.548  1.00  0.00     0.049 A 
ATOM     43  N   UNL     1      -7.987  14.433   9.078  1.00  0.00    -0.248 NA
ATOM     44  C   UNL     1      -7.731  15.565   7.052  1.00  0.00     0.031 C 
ATOM     45  C   UNL     1      -9.532  10.874   6.852  1.00  0.00     0.029 A 
ATOM     46  N   UNL     1      -9.097  11.723   8.875  1.00  0.00    -0.354 N 
ATOM     47  C   UNL     1      -7.441  15.688   9.318  1.00  0.00     0.074 A 
ATOM     48  C   UNL     1      -7.255  16.321   8.030  1.00  0.00     0.031 C 
ATOM     49  C   UNL     1      -9.843   9.934   7.759  1.00  0.00     0.029 A 
ATOM     50  C   UNL     1      -9.556  10.447   9.095  1.00  0.00     0.049 A 
ATOM     51  H   UNL     1      -8.827  12.331   9.600  1.00  0.00     0.167 HD
ATOM     52  C   UNL     1      -7.142  16.267  10.505  1.00  0.00     0.037 A 
ATOM     53  C   UNL     1      -9.723   9.768  10.245  1.00  0.00     0.037 A 
ATOM     54  C   UNL     1      -7.356  15.648  11.786  1.00  0.00     0.049 A 
ATOM     55  C   UNL     1      -9.394  10.438  11.549  1.00  0.00     0.074 A 
ATOM     56  C   UNL     1      -7.136  16.174  13.047  1.00  0.00     0.029 A 
ATOM     57  N   UNL     1      -7.844  14.363  11.968  1.00  0.00    -0.354 N 
ATOM     58  N   UNL     1      -8.928  11.644  11.764  1.00  0.00    -0.248 NA
ATOM     59  C   UNL     1      -9.619   9.653  12.771  1.00  0.00     0.031 C 
ATOM     60  C   UNL     1      -7.464  15.196  13.992  1.00  0.00     0.029 A 
ATOM     61  C   UNL     1      -7.921  14.074  13.320  1.00  0.00     0.049 A 
ATOM     62  H   UNL     1      -8.099  13.748  11.243  1.00  0.00     0.167 HD
ATOM     63  C   UNL     1      -8.829  11.773  13.142  1.00  0.00     0.074 A 
ATOM     64  C   UNL     1      -9.292  10.526  13.714  1.00  0.00     0.031 C 
ATOM     65  C   UNL     1      -8.393  12.830  13.870  1.00  0.00     0.037 A 
BRANCH  52  66
ATOM     66  C   UNL     1      -6.555  17.647  10.469  1.00  0.00     0.057 A 
ATOM     67  C   UNL     1      -7.327  18.767  10.132  1.00  0.00     0.134 A 
ATOM     68  C   UNL     1      -5.211  17.863  10.799  1.00  0.00     0.134 A 
ATOM     69  F   UNL     1      -8.617  18.625   9.792  1.00  0.00    -0.206 F 
ATOM     70  C   UNL     1      -6.777  20.049  10.102  1.00  0.00     0.040 A 
ATOM     71  C   UNL     1      -4.657  19.144  10.796  1.00  0.00     0.040 A 
ATOM     72  F   UNL     1      -4.418  16.835  11.136  1.00  0.00    -0.206 F 
ATOM     73  C   UNL     1      -5.439  20.241  10.440  1.00  0.00     0.006 A 
ENDBRANCH  52  66
BRANCH  53  74
ATOM     74  C   UNL     1     -10.259   8.386  10.217  1.00  0.00     0.057 A 
ATOM     75  C   UNL     1     -11.561   8.111  10.649  1.00  0.00     0.134 A 
ATOM     76  C   UNL     1      -9.488   7.311   9.761  1.00  0.00     0.134 A 
ATOM     77  F   UNL     1     -12.340   9.100  11.113  1.00  0.00    -0.206 F 
ATOM     78  C   UNL     1     -12.074   6.814  10.644  1.00  0.00     0.040 A 
ATOM     79  C   UNL     1      -9.995   6.011   9.732  1.00  0.00     0.040 A 
ATOM     80  F   UNL     1      -8.235   7.511   9.327  1.00  0.00    -0.206 F 
ATOM     81  C   UNL     1     -11.290   5.759  10.180  1.00  0.00     0.006 A 
ENDBRANCH  53  74
BRANCH  65  82
ATOM     82  C   UNL     1      -8.427  12.692  15.362  1.00  0.00     0.057 A 
ATOM     83  C   UNL     1      -7.493  11.909  16.050  1.00  0.00     0.134 A 
ATOM     84  C   UNL     1      -9.383  13.379  16.119  1.00  0.00     0.134 A 
ATOM     85  F   UNL     1      -6.560  11.216  15.380  1.00  0.00    -0.206 F 
ATOM     86  C   UNL     1      -7.521  11.799  17.441  1.00  0.00     0.040 A 
ATOM     87  C   UNL     1      -9.408  13.294  17.511  1.00  0.00     0.040 A 
ATOM     88  F   UNL     1     -10.302  14.151  15.518  1.00  0.00    -0.206 F 
ATOM     89  C   UNL     1      -8.477  12.498  18.176  1.00  0.00     0.006 A 
ENDBRANCH  65  82
ENDBRANCH  39  40
ENDBRANCH  31  34
ENDBRANCH  29  30
ENDBRANCH  28  29
ENDBRANCH  27  28
ENDBRANCH  26  27
ENDBRANCH   1  26
TORSDOF 17
