REMARK SMILES Cc1ccccc1NC(=O)CSc1nc(C(=O)NCCCCCCNC(=O)c2ccc(-c3c4nc(c(-c5c(F)cccc5F)c5ccc([nH]5)c(-c5c(F)cccc5F)c5nc(c(-c6c(F)cccc6F)c6ccc3[nH]6)C=C5)C=C4)cc2)c2ccccc2n1
REMARK SMILES IDX 20 1 19 2 18 3 16 4 17 5 15 7 13 8 14 9 88 10 87 11 82 12
REMARK SMILES IDX 86 13 83 14 85 15 84 16 12 17 11 18 9 19 8 20 10 22 7 23
REMARK SMILES IDX 1 24 2 25 3 26 4 27 6 28 5 29 21 30 22 31 23 32 24 33 25 34
REMARK SMILES IDX 26 35 27 37 28 38 29 39 81 40 30 41 80 42 31 43 32 44 33 45
REMARK SMILES IDX 74 46 34 47 79 48 73 49 75 50 35 51 78 52 72 53 71 54 36 56
REMARK SMILES IDX 62 57 45 58 61 59 46 60 49 61 60 62 76 63 47 64 48 65 59 67
REMARK SMILES IDX 77 68 50 69 37 70 38 71 43 72 39 73 40 74 42 75 44 76 41 77
REMARK SMILES IDX 63 78 64 79 69 80 65 81 66 82 68 83 70 84 67 85 51 86 52 87
REMARK SMILES IDX 57 88 53 89 54 90 56 91 58 92 55 93
REMARK H PARENT 18 6 8 21 25 36 75 55 49 66
REMARK Flexibility Score: inf
ROOT
ATOM      1  C   UNL     1      -2.264   8.123  -7.806  1.00  0.00     0.021 C 
ENDROOT
BRANCH   1   2
ATOM      2  C   UNL     1      -1.480   7.286  -6.798  1.00  0.00     0.116 C 
BRANCH   2   3
ATOM      3  N   UNL     1      -1.288   7.862  -5.485  1.00  0.00    -0.351 N 
ATOM      4  C   UNL     1      -0.879   7.258  -4.306  1.00  0.00     0.270 C 
ATOM      5  O   UNL     1      -0.684   7.981  -3.329  1.00  0.00    -0.267 OA
ATOM      6  H   UNL     1      -1.477   8.826  -5.419  1.00  0.00     0.163 HD
BRANCH   4   7
ATOM      7  C   UNL     1      -0.759   5.764  -4.162  1.00  0.00     0.140 A 
ATOM      8  C   UNL     1      -1.518   3.961  -2.997  1.00  0.00     0.189 A 
ATOM      9  N   UNL     1      -1.472   5.285  -3.114  1.00  0.00    -0.217 NA
ATOM     10  N   UNL     1      -1.024   3.095  -3.889  1.00  0.00    -0.222 NA
ATOM     11  C   UNL     1      -0.309   3.587  -4.901  1.00  0.00     0.076 A 
ATOM     12  C   UNL     1      -0.047   4.950  -5.054  1.00  0.00     0.032 A 
ATOM     13  C   UNL     1       0.186   2.699  -5.849  1.00  0.00     0.029 A 
ATOM     14  C   UNL     1       0.869   5.362  -6.057  1.00  0.00     0.013 A 
ATOM     15  C   UNL     1       0.985   3.124  -6.912  1.00  0.00     0.002 A 
ATOM     16  C   UNL     1       1.356   4.457  -6.998  1.00  0.00     0.001 A 
BRANCH   8  17
ATOM     17  S   UNL     1      -2.394   3.265  -1.631  1.00  0.00    -0.076 SA
BRANCH  17  18
ATOM     18  C   UNL     1      -1.418   3.935  -0.253  1.00  0.00     0.178 C 
BRANCH  18  19
ATOM     19  C   UNL     1       0.052   3.578  -0.304  1.00  0.00     0.234 C 
ATOM     20  N   UNL     1       0.574   2.338  -0.098  1.00  0.00    -0.325 N 
ATOM     21  H   UNL     1       1.558   2.348  -0.112  1.00  0.00     0.169 HD
ATOM     22  O   UNL     1       0.883   4.472  -0.523  1.00  0.00    -0.274 OA
BRANCH  20  23
ATOM     23  C   UNL     1       0.067   1.042   0.131  1.00  0.00     0.044 A 
ATOM     24  C   UNL     1       2.441   0.030  -0.164  1.00  0.00     0.046 C 
ATOM     25  C   UNL     1       0.948  -0.063   0.034  1.00  0.00    -0.027 A 
ATOM     26  C   UNL     1       0.427  -1.373   0.091  1.00  0.00     0.005 A 
ATOM     27  C   UNL     1      -0.928  -1.601   0.297  1.00  0.00     0.000 A 
ATOM     28  C   UNL     1      -1.276   0.784   0.423  1.00  0.00     0.026 A 
ATOM     29  C   UNL     1      -1.774  -0.521   0.490  1.00  0.00     0.002 A 
ENDBRANCH  20  23
ENDBRANCH  18  19
ENDBRANCH  17  18
ENDBRANCH   8  17
ENDBRANCH   4   7
ENDBRANCH   2   3
ENDBRANCH   1   2
BRANCH   1  30
ATOM     30  C   UNL     1      -1.879   9.593  -8.030  1.00  0.00     0.002 C 
BRANCH  30  31
ATOM     31  C   UNL     1      -0.404  10.021  -8.024  1.00  0.00     0.002 C 
BRANCH  31  32
ATOM     32  C   UNL     1       0.584   9.250  -8.896  1.00  0.00     0.021 C 
BRANCH  32  33
ATOM     33  C   UNL     1       0.336   9.307 -10.397  1.00  0.00     0.116 C 
BRANCH  33  34
ATOM     34  N   UNL     1       1.112  10.324 -11.102  1.00  0.00    -0.352 N 
ATOM     35  C   UNL     1       1.148  10.580 -12.467  1.00  0.00     0.251 C 
ATOM     36  H   UNL     1       1.680  10.900 -10.541  1.00  0.00     0.163 HD
ATOM     37  O   UNL     1       1.788  11.510 -12.924  1.00  0.00    -0.269 OA
BRANCH  35  38
ATOM     38  C   UNL     1       0.280   9.762 -13.348  1.00  0.00     0.039 A 
ATOM     39  C   UNL     1      -0.709  10.422 -14.080  1.00  0.00     0.014 A 
ATOM     40  C   UNL     1       0.268   8.376 -13.219  1.00  0.00     0.014 A 
ATOM     41  C   UNL     1      -1.858   9.724 -14.439  1.00  0.00     0.010 A 
ATOM     42  C   UNL     1      -0.907   7.702 -13.492  1.00  0.00     0.010 A 
ATOM     43  C   UNL     1      -2.001   8.402 -14.018  1.00  0.00    -0.014 A 
BRANCH  43  44
ATOM     44  C   UNL     1      -3.300   7.739 -13.935  1.00  0.00     0.031 A 
ATOM     45  C   UNL     1      -3.675   6.678 -14.888  1.00  0.00     0.074 A 
ATOM     46  C   UNL     1      -4.147   8.066 -12.933  1.00  0.00     0.049 A 
ATOM     47  N   UNL     1      -4.882   6.272 -15.091  1.00  0.00    -0.248 NA
ATOM     48  C   UNL     1      -2.698   6.030 -15.749  1.00  0.00     0.031 C 
ATOM     49  C   UNL     1      -5.362   7.366 -12.527  1.00  0.00     0.029 A 
ATOM     50  N   UNL     1      -4.200   9.283 -12.238  1.00  0.00    -0.354 N 
ATOM     51  C   UNL     1      -4.830   5.154 -15.890  1.00  0.00     0.074 A 
ATOM     52  C   UNL     1      -3.457   5.101 -16.338  1.00  0.00     0.031 C 
ATOM     53  C   UNL     1      -6.184   8.243 -11.932  1.00  0.00     0.029 A 
ATOM     54  C   UNL     1      -5.577   9.556 -12.060  1.00  0.00     0.049 A 
ATOM     55  H   UNL     1      -3.439   9.831 -11.937  1.00  0.00     0.167 HD
ATOM     56  C   UNL     1      -5.934   4.354 -15.975  1.00  0.00     0.037 A 
ATOM     57  C   UNL     1      -6.154  10.639 -12.655  1.00  0.00     0.037 A 
ATOM     58  C   UNL     1      -7.107   5.001 -15.372  1.00  0.00     0.049 A 
ATOM     59  C   UNL     1      -7.260  10.314 -13.640  1.00  0.00     0.074 A 
ATOM     60  C   UNL     1      -7.810   4.865 -14.185  1.00  0.00     0.029 A 
ATOM     61  N   UNL     1      -7.574   6.170 -15.949  1.00  0.00    -0.354 N 
ATOM     62  N   UNL     1      -7.640   9.108 -13.960  1.00  0.00    -0.248 NA
ATOM     63  C   UNL     1      -7.955  11.340 -14.421  1.00  0.00     0.031 C 
ATOM     64  C   UNL     1      -8.695   5.978 -14.057  1.00  0.00     0.029 A 
ATOM     65  C   UNL     1      -8.529   6.786 -15.166  1.00  0.00     0.049 A 
ATOM     66  H   UNL     1      -7.261   6.520 -16.814  1.00  0.00     0.167 HD
ATOM     67  C   UNL     1      -8.545   9.175 -14.987  1.00  0.00     0.074 A 
ATOM     68  C   UNL     1      -8.715  10.593 -15.239  1.00  0.00     0.031 C 
ATOM     69  C   UNL     1      -9.057   8.069 -15.600  1.00  0.00     0.037 A 
BRANCH  56  70
ATOM     70  C   UNL     1      -5.920   2.897 -16.413  1.00  0.00     0.057 A 
ATOM     71  C   UNL     1      -6.945   2.017 -16.006  1.00  0.00     0.134 A 
ATOM     72  C   UNL     1      -4.908   2.270 -17.161  1.00  0.00     0.134 A 
ATOM     73  F   UNL     1      -8.041   2.453 -15.371  1.00  0.00    -0.206 F 
ATOM     74  C   UNL     1      -6.903   0.631 -16.224  1.00  0.00     0.040 A 
ATOM     75  C   UNL     1      -4.830   0.881 -17.351  1.00  0.00     0.040 A 
ATOM     76  F   UNL     1      -3.969   2.959 -17.810  1.00  0.00    -0.206 F 
ATOM     77  C   UNL     1      -5.824   0.051 -16.868  1.00  0.00     0.006 A 
ENDBRANCH  56  70
BRANCH  57  78
ATOM     78  C   UNL     1      -5.233  11.803 -12.756  1.00  0.00     0.057 A 
ATOM     79  C   UNL     1      -4.714  12.359 -11.572  1.00  0.00     0.134 A 
ATOM     80  C   UNL     1      -4.599  12.147 -13.951  1.00  0.00     0.134 A 
ATOM     81  F   UNL     1      -5.275  12.069 -10.387  1.00  0.00    -0.206 F 
ATOM     82  C   UNL     1      -3.548  13.127 -11.566  1.00  0.00     0.040 A 
ATOM     83  C   UNL     1      -3.441  12.933 -13.960  1.00  0.00     0.040 A 
ATOM     84  F   UNL     1      -5.015  11.637 -15.119  1.00  0.00    -0.206 F 
ATOM     85  C   UNL     1      -2.891  13.391 -12.763  1.00  0.00     0.006 A 
ENDBRANCH  57  78
BRANCH  69  86
ATOM     86  C   UNL     1     -10.082   8.133 -16.698  1.00  0.00     0.057 A 
ATOM     87  C   UNL     1     -11.205   8.971 -16.633  1.00  0.00     0.134 A 
ATOM     88  C   UNL     1     -10.033   7.268 -17.808  1.00  0.00     0.134 A 
ATOM     89  F   UNL     1     -11.396   9.789 -15.587  1.00  0.00    -0.206 F 
ATOM     90  C   UNL     1     -12.187   8.985 -17.631  1.00  0.00     0.040 A 
ATOM     91  C   UNL     1     -11.031   7.239 -18.787  1.00  0.00     0.040 A 
ATOM     92  F   UNL     1      -9.005   6.430 -18.003  1.00  0.00    -0.206 F 
ATOM     93  C   UNL     1     -12.108   8.109 -18.708  1.00  0.00     0.006 A 
ENDBRANCH  69  86
ENDBRANCH  43  44
ENDBRANCH  35  38
ENDBRANCH  33  34
ENDBRANCH  32  33
ENDBRANCH  31  32
ENDBRANCH  30  31
ENDBRANCH   1  30
TORSDOF 17
