REMARK SMILES CCn1cc(C(=O)NCCCCCCNC(=O)c2ccc(-c3c4nc(c(-c5c(F)cccc5F)c5ccc([nH]5)c(-c5c(F)cccc5F)c5nc(c(-c6c(F)cccc6F)c6ccc3[nH]6)C=C5)C=C4)cc2)c(=O)c2cc(F)c(NC3CCCCC3)cc21
REMARK SMILES IDX 11 1 10 2 9 3 8 4 6 5 7 6 5 8 3 9 4 10 87 11 74 12 86 13
REMARK SMILES IDX 72 14 75 15 78 16 73 17 76 18 77 19 2 20 1 21 79 22 80 24
REMARK SMILES IDX 81 25 85 26 82 27 84 28 83 29 12 30 13 31 14 32 15 33 16 34
REMARK SMILES IDX 17 36 18 37 19 38 71 39 20 40 70 41 21 42 22 43 23 44 64 45
REMARK SMILES IDX 24 46 69 47 63 48 65 49 25 50 68 51 62 52 61 53 26 55 52 56
REMARK SMILES IDX 35 57 51 58 36 59 39 60 50 61 66 62 37 63 38 64 49 66 67 67
REMARK SMILES IDX 40 68 27 69 28 70 33 71 29 72 30 73 32 74 34 75 31 76 53 77
REMARK SMILES IDX 54 78 59 79 55 80 56 81 58 82 60 83 57 84 41 85 42 86 47 87
REMARK SMILES IDX 43 88 44 89 46 90 48 91 45 92
REMARK H PARENT 8 7 79 23 15 35 65 54 39 65
REMARK Flexibility Score: inf
ROOT
ATOM      1  C   UNL     1       4.216   5.062  -4.812  1.00  0.00     0.002 C 
ENDROOT
BRANCH   1   2
ATOM      2  C   UNL     1       3.402   4.025  -4.024  1.00  0.00     0.021 C 
BRANCH   2   3
ATOM      3  C   UNL     1       2.179   3.523  -4.800  1.00  0.00     0.116 C 
BRANCH   3   4
ATOM      4  N   UNL     1       2.592   2.506  -5.750  1.00  0.00    -0.352 N 
ATOM      5  C   UNL     1       2.626   1.141  -5.723  1.00  0.00     0.256 C 
ATOM      6  O   UNL     1       3.220   0.598  -6.654  1.00  0.00    -0.269 OA
ATOM      7  H   UNL     1       2.920   2.882  -6.598  1.00  0.00     0.163 HD
BRANCH   5   8
ATOM      8  C   UNL     1       1.952   0.336  -4.664  1.00  0.00     0.104 A 
ATOM      9  N   UNL     1       1.031   0.150  -2.410  1.00  0.00    -0.347 N 
ATOM     10  C   UNL     1       1.756   0.770  -3.412  1.00  0.00     0.104 A 
ATOM     11  C   UNL     1       0.720  -1.212  -2.564  1.00  0.00     0.054 A 
ATOM     12  C   UNL     1       1.000  -1.863  -3.775  1.00  0.00     0.050 A 
ATOM     13  C   UNL     1       0.194  -1.989  -1.524  1.00  0.00     0.055 A 
ATOM     14  C   UNL     1       1.480  -1.060  -4.931  1.00  0.00     0.202 A 
ATOM     15  C   UNL     1       0.824  -3.245  -3.908  1.00  0.00     0.055 A 
ATOM     16  C   UNL     1       0.058  -3.380  -1.591  1.00  0.00     0.073 A 
ATOM     17  O   UNL     1       1.467  -1.563  -6.049  1.00  0.00    -0.288 OA
ATOM     18  C   UNL     1       0.381  -3.984  -2.814  1.00  0.00     0.147 A 
ATOM     19  F   UNL     1       0.275  -5.317  -2.938  1.00  0.00    -0.205 F 
BRANCH   9  20
ATOM     20  C   UNL     1       0.579   0.902  -1.225  1.00  0.00     0.119 C 
ATOM     21  C   UNL     1       1.562   0.788  -0.071  1.00  0.00     0.027 C 
ENDBRANCH   9  20
BRANCH  16  22
ATOM     22  N   UNL     1      -0.329  -4.148  -0.501  1.00  0.00    -0.380 N 
ATOM     23  H   UNL     1      -0.423  -5.115  -0.660  1.00  0.00     0.160 HD
BRANCH  22  24
ATOM     24  C   UNL     1      -0.615  -3.684   0.863  1.00  0.00     0.079 C 
ATOM     25  C   UNL     1       0.625  -3.026   1.506  1.00  0.00     0.025 C 
ATOM     26  C   UNL     1      -1.929  -2.882   0.891  1.00  0.00     0.025 C 
ATOM     27  C   UNL     1       0.333  -2.073   2.662  1.00  0.00     0.002 C 
ATOM     28  C   UNL     1      -2.108  -2.040   2.146  1.00  0.00     0.002 C 
ATOM     29  C   UNL     1      -0.878  -1.186   2.413  1.00  0.00     0.000 C 
ENDBRANCH  22  24
ENDBRANCH  16  22
ENDBRANCH   5   8
ENDBRANCH   3   4
ENDBRANCH   2   3
ENDBRANCH   1   2
BRANCH   1  30
ATOM     30  C   UNL     1       3.458   6.358  -5.126  1.00  0.00     0.002 C 
BRANCH  30  31
ATOM     31  C   UNL     1       2.876   7.069  -3.904  1.00  0.00     0.021 C 
BRANCH  31  32
ATOM     32  C   UNL     1       3.926   7.527  -2.900  1.00  0.00     0.116 C 
BRANCH  32  33
ATOM     33  N   UNL     1       4.797   8.552  -3.457  1.00  0.00    -0.352 N 
ATOM     34  C   UNL     1       5.061   9.819  -2.990  1.00  0.00     0.251 C 
ATOM     35  H   UNL     1       5.263   8.303  -4.287  1.00  0.00     0.163 HD
ATOM     36  O   UNL     1       5.641  10.632  -3.692  1.00  0.00    -0.269 OA
BRANCH  34  37
ATOM     37  C   UNL     1       4.612  10.192  -1.632  1.00  0.00     0.039 A 
ATOM     38  C   UNL     1       4.779   9.305  -0.567  1.00  0.00     0.014 A 
ATOM     39  C   UNL     1       4.001  11.432  -1.428  1.00  0.00     0.014 A 
ATOM     40  C   UNL     1       4.184   9.581   0.656  1.00  0.00     0.010 A 
ATOM     41  C   UNL     1       3.489  11.749  -0.167  1.00  0.00     0.010 A 
ATOM     42  C   UNL     1       3.533  10.807   0.872  1.00  0.00    -0.014 A 
BRANCH  42  43
ATOM     43  C   UNL     1       2.909  11.070   2.195  1.00  0.00     0.031 A 
ATOM     44  C   UNL     1       1.422  11.259   2.323  1.00  0.00     0.074 A 
ATOM     45  C   UNL     1       3.688  11.076   3.294  1.00  0.00     0.049 A 
ATOM     46  N   UNL     1       0.706  11.463   3.400  1.00  0.00    -0.248 NA
ATOM     47  C   UNL     1       0.634  11.217   1.081  1.00  0.00     0.031 C 
ATOM     48  C   UNL     1       5.142  10.896   3.300  1.00  0.00     0.029 A 
ATOM     49  N   UNL     1       3.365  11.212   4.620  1.00  0.00    -0.354 N 
ATOM     50  C   UNL     1      -0.609  11.590   2.967  1.00  0.00     0.074 A 
ATOM     51  C   UNL     1      -0.588  11.477   1.524  1.00  0.00     0.031 C 
ATOM     52  C   UNL     1       5.577  10.878   4.568  1.00  0.00     0.029 A 
ATOM     53  C   UNL     1       4.448  11.113   5.459  1.00  0.00     0.049 A 
ATOM     54  H   UNL     1       2.447  11.365   4.939  1.00  0.00     0.167 HD
ATOM     55  C   UNL     1      -1.732  11.771   3.704  1.00  0.00     0.037 A 
ATOM     56  C   UNL     1       4.526  11.219   6.798  1.00  0.00     0.037 A 
ATOM     57  C   UNL     1      -1.750  11.880   5.141  1.00  0.00     0.049 A 
ATOM     58  C   UNL     1       3.273  11.483   7.582  1.00  0.00     0.074 A 
ATOM     59  C   UNL     1      -2.838  12.048   5.981  1.00  0.00     0.029 A 
ATOM     60  N   UNL     1      -0.625  11.838   5.951  1.00  0.00    -0.354 N 
ATOM     61  N   UNL     1       2.036  11.577   7.160  1.00  0.00    -0.248 NA
ATOM     62  C   UNL     1       3.432  11.662   9.031  1.00  0.00     0.031 C 
ATOM     63  C   UNL     1      -2.365  12.156   7.294  1.00  0.00     0.029 A 
ATOM     64  C   UNL     1      -0.989  12.001   7.278  1.00  0.00     0.049 A 
ATOM     65  H   UNL     1       0.297  11.710   5.630  1.00  0.00     0.167 HD
ATOM     66  C   UNL     1       1.266  11.808   8.292  1.00  0.00     0.074 A 
ATOM     67  C   UNL     1       2.175  11.811   9.420  1.00  0.00     0.031 C 
ATOM     68  C   UNL     1      -0.071  12.006   8.390  1.00  0.00     0.037 A 
BRANCH  55  69
ATOM     69  C   UNL     1      -3.034  11.886   2.962  1.00  0.00     0.057 A 
ATOM     70  C   UNL     1      -3.720  13.106   2.908  1.00  0.00     0.134 A 
ATOM     71  C   UNL     1      -3.620  10.789   2.316  1.00  0.00     0.134 A 
ATOM     72  F   UNL     1      -3.221  14.196   3.510  1.00  0.00    -0.206 F 
ATOM     73  C   UNL     1      -4.939  13.231   2.238  1.00  0.00     0.040 A 
ATOM     74  C   UNL     1      -4.825  10.908   1.619  1.00  0.00     0.040 A 
ATOM     75  F   UNL     1      -3.010   9.593   2.317  1.00  0.00    -0.206 F 
ATOM     76  C   UNL     1      -5.490  12.131   1.584  1.00  0.00     0.006 A 
ENDBRANCH  55  69
BRANCH  56  77
ATOM     77  C   UNL     1       5.838  11.095   7.482  1.00  0.00     0.057 A 
ATOM     78  C   UNL     1       6.839  12.061   7.320  1.00  0.00     0.134 A 
ATOM     79  C   UNL     1       6.110  10.021   8.336  1.00  0.00     0.134 A 
ATOM     80  F   UNL     1       6.642  13.112   6.510  1.00  0.00    -0.206 F 
ATOM     81  C   UNL     1       8.065  11.960   7.978  1.00  0.00     0.040 A 
ATOM     82  C   UNL     1       7.320   9.924   9.024  1.00  0.00     0.040 A 
ATOM     83  F   UNL     1       5.184   9.074   8.546  1.00  0.00    -0.206 F 
ATOM     84  C   UNL     1       8.304  10.894   8.842  1.00  0.00     0.006 A 
ENDBRANCH  56  77
BRANCH  68  85
ATOM     85  C   UNL     1      -0.625  12.208   9.770  1.00  0.00     0.057 A 
ATOM     86  C   UNL     1      -1.408  11.218  10.377  1.00  0.00     0.134 A 
ATOM     87  C   UNL     1      -0.381  13.378  10.502  1.00  0.00     0.134 A 
ATOM     88  F   UNL     1      -1.686  10.077   9.729  1.00  0.00    -0.206 F 
ATOM     89  C   UNL     1      -1.923  11.382  11.663  1.00  0.00     0.040 A 
ATOM     90  C   UNL     1      -0.865  13.540  11.801  1.00  0.00     0.040 A 
ATOM     91  F   UNL     1       0.377  14.357   9.986  1.00  0.00    -0.206 F 
ATOM     92  C   UNL     1      -1.643  12.541  12.383  1.00  0.00     0.006 A 
ENDBRANCH  68  85
ENDBRANCH  42  43
ENDBRANCH  34  37
ENDBRANCH  32  33
ENDBRANCH  31  32
ENDBRANCH  30  31
ENDBRANCH   1  30
TORSDOF 16
