REMARK SMILES O=C(NCCCCCCNC(=O)[C@@H]1CCCC[C@H]1C(=O)Nc1ccccc1C(=O)N1CCOCC1)c1ccc(-c2c3nc(c(-c4c(F)cccc4F)c4ccc([nH]4)c(-c4c(F)cccc4F)c4nc(c(-c5c(F)cccc5F)c5ccc2[nH]5)C=C4)C=C3)cc1
REMARK SMILES IDX 7 1 6 2 5 3 4 4 3 5 1 6 2 7 36 9 37 10 89 11 38 12 88 13
REMARK SMILES IDX 39 14 40 15 41 16 82 17 42 18 87 19 81 20 83 21 43 22 86 23
REMARK SMILES IDX 80 24 79 25 44 27 70 28 53 29 69 30 54 31 57 32 68 33 84 34
REMARK SMILES IDX 55 35 56 36 67 38 85 39 58 40 45 41 46 42 51 43 47 44 48 45
REMARK SMILES IDX 50 46 52 47 49 48 71 49 72 50 77 51 73 52 74 53 76 54 78 55
REMARK SMILES IDX 75 56 59 57 60 58 65 59 61 60 62 61 64 62 66 63 63 64 8 65
REMARK SMILES IDX 9 66 10 67 11 68 12 70 13 71 14 72 18 73 15 74 17 75 16 76
REMARK SMILES IDX 19 77 20 78 21 79 22 81 23 82 27 83 24 84 26 85 25 86 28 87
REMARK SMILES IDX 29 88 30 89 31 90 35 91 32 92 34 93 33 94
REMARK H PARENT 3 8 83 26 57 37 10 69 21 80
REMARK Flexibility Score: inf
ROOT
ATOM      1  C   UNL     1       4.568  -2.610  -3.377  1.00  0.00     0.002 C 
ENDROOT
BRANCH   1   2
ATOM      2  C   UNL     1       3.850  -3.078  -2.107  1.00  0.00     0.002 C 
BRANCH   2   3
ATOM      3  C   UNL     1       4.250  -2.337  -0.833  1.00  0.00     0.021 C 
BRANCH   3   4
ATOM      4  C   UNL     1       4.145  -0.819  -0.931  1.00  0.00     0.116 C 
BRANCH   4   5
ATOM      5  N   UNL     1       2.768  -0.354  -0.900  1.00  0.00    -0.352 N 
ATOM      6  O   UNL     1       0.875   0.419   0.071  1.00  0.00    -0.269 OA
ATOM      7  C   UNL     1       2.094   0.263   0.124  1.00  0.00     0.251 C 
ATOM      8  H   UNL     1       2.250  -0.502  -1.724  1.00  0.00     0.163 HD
BRANCH   7   9
ATOM      9  C   UNL     1       2.848   0.719   1.308  1.00  0.00     0.039 A 
ATOM     10  C   UNL     1       4.029   1.445   1.147  1.00  0.00     0.014 A 
ATOM     11  C   UNL     1       2.387   0.395   2.586  1.00  0.00     0.014 A 
ATOM     12  C   UNL     1       4.835   1.696   2.248  1.00  0.00     0.010 A 
ATOM     13  C   UNL     1       3.146   0.752   3.703  1.00  0.00     0.010 A 
ATOM     14  C   UNL     1       4.393   1.377   3.542  1.00  0.00    -0.014 A 
BRANCH  14  15
ATOM     15  C   UNL     1       5.223   1.777   4.707  1.00  0.00     0.031 A 
ATOM     16  C   UNL     1       5.798   0.758   5.650  1.00  0.00     0.074 A 
ATOM     17  C   UNL     1       5.477   3.088   4.888  1.00  0.00     0.049 A 
ATOM     18  N   UNL     1       6.563   0.946   6.697  1.00  0.00    -0.248 NA
ATOM     19  C   UNL     1       5.467  -0.652   5.396  1.00  0.00     0.031 C 
ATOM     20  C   UNL     1       4.965   4.169   4.041  1.00  0.00     0.029 A 
ATOM     21  N   UNL     1       6.243   3.735   5.822  1.00  0.00    -0.354 N 
ATOM     22  C   UNL     1       6.785  -0.314   7.240  1.00  0.00     0.074 A 
ATOM     23  C   UNL     1       6.051  -1.256   6.422  1.00  0.00     0.031 C 
ATOM     24  C   UNL     1       5.479   5.335   4.455  1.00  0.00     0.029 A 
ATOM     25  C   UNL     1       6.292   5.096   5.640  1.00  0.00     0.049 A 
ATOM     26  H   UNL     1       6.713   3.270   6.552  1.00  0.00     0.167 HD
ATOM     27  C   UNL     1       7.534  -0.649   8.319  1.00  0.00     0.037 A 
ATOM     28  C   UNL     1       6.908   6.052   6.357  1.00  0.00     0.037 A 
ATOM     29  C   UNL     1       8.268   0.298   9.121  1.00  0.00     0.049 A 
ATOM     30  C   UNL     1       7.698   5.652   7.568  1.00  0.00     0.074 A 
ATOM     31  C   UNL     1       9.091   0.055  10.208  1.00  0.00     0.029 A 
ATOM     32  N   UNL     1       8.256   1.674   8.933  1.00  0.00    -0.354 N 
ATOM     33  N   UNL     1       7.935   4.454   8.043  1.00  0.00    -0.248 NA
ATOM     34  C   UNL     1       8.303   6.741   8.345  1.00  0.00     0.031 C 
ATOM     35  C   UNL     1       9.526   1.284  10.714  1.00  0.00     0.029 A 
ATOM     36  C   UNL     1       9.031   2.292   9.903  1.00  0.00     0.049 A 
ATOM     37  H   UNL     1       7.769   2.141   8.216  1.00  0.00     0.167 HD
ATOM     38  C   UNL     1       8.740   4.641   9.158  1.00  0.00     0.074 A 
ATOM     39  C   UNL     1       8.964   6.068   9.274  1.00  0.00     0.031 C 
ATOM     40  C   UNL     1       9.248   3.714  10.007  1.00  0.00     0.037 A 
BRANCH  27  41
ATOM     41  C   UNL     1       7.574  -2.100   8.716  1.00  0.00     0.057 A 
ATOM     42  C   UNL     1       8.219  -3.072   7.940  1.00  0.00     0.134 A 
ATOM     43  C   UNL     1       6.984  -2.525   9.915  1.00  0.00     0.134 A 
ATOM     44  F   UNL     1       8.799  -2.739   6.776  1.00  0.00    -0.206 F 
ATOM     45  C   UNL     1       8.249  -4.415   8.324  1.00  0.00     0.040 A 
ATOM     46  C   UNL     1       7.033  -3.858  10.324  1.00  0.00     0.040 A 
ATOM     47  F   UNL     1       6.358  -1.648  10.714  1.00  0.00    -0.206 F 
ATOM     48  C   UNL     1       7.660  -4.810   9.523  1.00  0.00     0.006 A 
ENDBRANCH  27  41
BRANCH  28  49
ATOM     49  C   UNL     1       6.800   7.473   5.945  1.00  0.00     0.057 A 
ATOM     50  C   UNL     1       7.916   8.176   5.478  1.00  0.00     0.134 A 
ATOM     51  C   UNL     1       5.582   8.163   6.004  1.00  0.00     0.134 A 
ATOM     52  F   UNL     1       9.113   7.574   5.411  1.00  0.00    -0.206 F 
ATOM     53  C   UNL     1       7.831   9.517   5.102  1.00  0.00     0.040 A 
ATOM     54  C   UNL     1       5.475   9.494   5.602  1.00  0.00     0.040 A 
ATOM     55  F   UNL     1       4.473   7.543   6.433  1.00  0.00    -0.206 F 
ATOM     56  C   UNL     1       6.605  10.178   5.158  1.00  0.00     0.006 A 
ENDBRANCH  28  49
BRANCH  40  57
ATOM     57  C   UNL     1      10.136   4.218  11.109  1.00  0.00     0.057 A 
ATOM     58  C   UNL     1       9.639   4.965  12.185  1.00  0.00     0.134 A 
ATOM     59  C   UNL     1      11.509   3.940  11.095  1.00  0.00     0.134 A 
ATOM     60  F   UNL     1       8.336   5.280  12.250  1.00  0.00    -0.206 F 
ATOM     61  C   UNL     1      10.481   5.447  13.188  1.00  0.00     0.040 A 
ATOM     62  C   UNL     1      12.355   4.388  12.110  1.00  0.00     0.040 A 
ATOM     63  F   UNL     1      12.051   3.224  10.099  1.00  0.00    -0.206 F 
ATOM     64  C   UNL     1      11.843   5.153  13.156  1.00  0.00     0.006 A 
ENDBRANCH  40  57
ENDBRANCH  14  15
ENDBRANCH   7   9
ENDBRANCH   4   5
ENDBRANCH   3   4
ENDBRANCH   2   3
ENDBRANCH   1   2
BRANCH   1  65
ATOM     65  C   UNL     1       6.084  -2.384  -3.246  1.00  0.00     0.021 C 
BRANCH  65  66
ATOM     66  C   UNL     1       6.950  -3.631  -3.075  1.00  0.00     0.116 C 
BRANCH  66  67
ATOM     67  N   UNL     1       7.035  -4.377  -4.311  1.00  0.00    -0.356 N 
ATOM     68  C   UNL     1       8.033  -4.721  -5.154  1.00  0.00     0.223 C 
ATOM     69  H   UNL     1       6.159  -4.714  -4.609  1.00  0.00     0.163 HD
ATOM     70  O   UNL     1       7.676  -5.450  -6.088  1.00  0.00    -0.275 OA
BRANCH  68  71
ATOM     71  C   UNL     1       9.540  -4.461  -4.972  1.00  0.00     0.091 C 
ATOM     72  C   UNL     1       9.970  -5.613  -4.034  1.00  0.00     0.014 C 
ATOM     73  C   UNL     1      10.161  -3.104  -4.550  1.00  0.00     0.091 C 
ATOM     74  C   UNL     1      11.475  -5.686  -3.847  1.00  0.00     0.001 C 
ATOM     75  C   UNL     1      11.677  -3.249  -4.264  1.00  0.00     0.014 C 
ATOM     76  C   UNL     1      11.986  -4.372  -3.291  1.00  0.00     0.001 C 
BRANCH  73  77
ATOM     77  C   UNL     1      10.090  -1.772  -5.335  1.00  0.00     0.228 C 
ATOM     78  O   UNL     1       9.798  -0.750  -4.693  1.00  0.00    -0.274 OA
ATOM     79  N   UNL     1      10.510  -1.562  -6.617  1.00  0.00    -0.325 N 
ATOM     80  H   UNL     1      10.610  -0.616  -6.870  1.00  0.00     0.169 HD
BRANCH  79  81
ATOM     81  C   UNL     1      10.819  -2.477  -7.625  1.00  0.00     0.054 A 
ATOM     82  C   UNL     1      12.115  -2.388  -8.157  1.00  0.00     0.027 A 
ATOM     83  C   UNL     1       9.944  -3.460  -8.098  1.00  0.00     0.063 A 
ATOM     84  C   UNL     1      12.633  -3.434  -8.919  1.00  0.00     0.002 A 
ATOM     85  C   UNL     1      10.502  -4.552  -8.790  1.00  0.00     0.016 A 
ATOM     86  C   UNL     1      11.851  -4.557  -9.159  1.00  0.00     0.001 A 
BRANCH  83  87
ATOM     87  C   UNL     1       8.440  -3.314  -8.158  1.00  0.00     0.256 C 
ATOM     88  O   UNL     1       7.771  -4.183  -8.714  1.00  0.00    -0.269 OA
ATOM     89  N   UNL     1       7.886  -2.071  -7.847  1.00  0.00    -0.334 N 
ATOM     90  C   UNL     1       7.074  -1.428  -8.873  1.00  0.00     0.148 C 
ATOM     91  C   UNL     1       7.308  -1.834  -6.531  1.00  0.00     0.148 C 
ATOM     92  C   UNL     1       6.898   0.064  -8.555  1.00  0.00     0.181 C 
ATOM     93  C   UNL     1       7.193  -0.331  -6.259  1.00  0.00     0.181 C 
ATOM     94  O   UNL     1       6.342   0.271  -7.243  1.00  0.00    -0.378 OA
ENDBRANCH  83  87
ENDBRANCH  79  81
ENDBRANCH  73  77
ENDBRANCH  68  71
ENDBRANCH  66  67
ENDBRANCH  65  66
ENDBRANCH   1  65
TORSDOF 16
