REMARK SMILES CC[NH2+][C@@]1(C(=O)NCCCCCCNC(=O)c2ccc(-c3c4nc(c(-c5c(F)cccc5F)c5ccc([nH]5)c(-c5c(F)cccc5F)c5nc(c(-c6c(F)cccc6F)c6ccc3[nH]6)C=C5)C=C4)cc2)CC[C@@H]([N@@H+](C)Cc2nccn2C)C1
REMARK SMILES IDX 10 1 9 2 8 3 7 4 5 5 6 6 4 8 71 9 83 10 72 11 73 12 3 13
REMARK SMILES IDX 2 16 1 17 74 18 75 19 76 21 77 22 78 23 81 24 79 25 80 26
REMARK SMILES IDX 82 27 11 28 12 29 13 30 14 31 15 32 16 34 17 35 18 36 70 37
REMARK SMILES IDX 19 38 69 39 20 40 21 41 22 42 63 43 23 44 68 45 62 46 64 47
REMARK SMILES IDX 24 48 67 49 61 50 60 51 25 53 51 54 34 55 50 56 35 57 38 58
REMARK SMILES IDX 49 59 65 60 36 61 37 62 48 64 66 65 39 66 26 67 27 68 32 69
REMARK SMILES IDX 28 70 29 71 31 72 33 73 30 74 52 75 53 76 58 77 54 78 55 79
REMARK SMILES IDX 57 80 59 81 56 82 40 83 41 84 46 85 42 86 43 87 45 88 47 89
REMARK SMILES IDX 44 90
REMARK H PARENT 7 7 3 14 3 15 74 20 14 33 64 52 38 63
REMARK Flexibility Score: inf
ROOT
ATOM      1  C   UNL     1      -1.944   6.282   4.919  1.00  0.00     0.002 C 
ENDROOT
BRANCH   1   2
ATOM      2  C   UNL     1      -2.084   5.848   3.468  1.00  0.00     0.021 C 
BRANCH   2   3
ATOM      3  C   UNL     1      -0.767   5.607   2.768  1.00  0.00     0.116 C 
BRANCH   3   4
ATOM      4  N   UNL     1      -0.174   4.327   2.979  1.00  0.00    -0.351 N 
ATOM      5  C   UNL     1       0.588   3.613   2.111  1.00  0.00     0.281 C 
ATOM      6  O   UNL     1       1.365   2.813   2.658  1.00  0.00    -0.268 OA
ATOM      7  H   UNL     1      -0.337   3.912   3.856  1.00  0.00     0.163 HD
BRANCH   5   8
ATOM      8  C   UNL     1       0.620   3.801   0.524  1.00  0.00     0.181 C 
ATOM      9  C   UNL     1       1.552   4.984   0.204  1.00  0.00     0.085 C 
ATOM     10  C   UNL     1      -0.647   4.107  -0.320  1.00  0.00     0.144 C 
ATOM     11  C   UNL     1       0.664   6.183  -0.126  1.00  0.00     0.072 C 
ATOM     12  C   UNL     1      -0.687   5.628  -0.613  1.00  0.00     0.191 C 
BRANCH   8  13
ATOM     13  N   UNL     1       1.241   2.539  -0.029  1.00  0.00    -0.334 N 
ATOM     14  H   UNL     1       1.339   2.640  -1.039  1.00  0.00     0.347 HD
ATOM     15  H   UNL     1       2.144   2.417   0.430  1.00  0.00     0.347 HD
BRANCH  13  16
ATOM     16  C   UNL     1       0.436   1.333   0.249  1.00  0.00     0.257 C 
ATOM     17  C   UNL     1       1.085   0.109  -0.380  1.00  0.00     0.071 C 
ENDBRANCH  13  16
ENDBRANCH   8  13
BRANCH  12  18
ATOM     18  N   UNL     1      -1.269   6.092  -1.882  1.00  0.00    -0.328 N 
ATOM     19  C   UNL     1      -1.659   7.508  -1.803  1.00  0.00     0.333 C 
ATOM     20  H   UNL     1      -2.091   5.493  -1.970  1.00  0.00     0.348 HD
BRANCH  18  21
ATOM     21  C   UNL     1      -0.550   5.803  -3.135  1.00  0.00     0.338 C 
BRANCH  21  22
ATOM     22  C   UNL     1       0.820   6.407  -3.258  1.00  0.00     0.164 A 
ATOM     23  N   UNL     1       1.090   7.703  -3.276  1.00  0.00    -0.236 NA
ATOM     24  N   UNL     1       1.991   5.682  -3.285  1.00  0.00    -0.333 N 
ATOM     25  C   UNL     1       2.451   7.811  -3.184  1.00  0.00     0.131 A 
ATOM     26  C   UNL     1       3.031   6.567  -3.170  1.00  0.00     0.107 A 
ATOM     27  C   UNL     1       2.145   4.249  -3.350  1.00  0.00     0.151 C 
ENDBRANCH  21  22
ENDBRANCH  18  21
ENDBRANCH  12  18
ENDBRANCH   5   8
ENDBRANCH   3   4
ENDBRANCH   2   3
ENDBRANCH   1   2
BRANCH   1  28
ATOM     28  C   UNL     1      -1.031   7.492   5.152  1.00  0.00     0.002 C 
BRANCH  28  29
ATOM     29  C   UNL     1      -1.331   8.733   4.304  1.00  0.00     0.021 C 
BRANCH  29  30
ATOM     30  C   UNL     1      -2.778   9.216   4.356  1.00  0.00     0.116 C 
BRANCH  30  31
ATOM     31  N   UNL     1      -3.245   9.388   5.722  1.00  0.00    -0.352 N 
ATOM     32  C   UNL     1      -3.719  10.508   6.352  1.00  0.00     0.251 C 
ATOM     33  H   UNL     1      -3.217   8.576   6.278  1.00  0.00     0.163 HD
ATOM     34  O   UNL     1      -3.865  10.522   7.567  1.00  0.00    -0.269 OA
BRANCH  32  35
ATOM     35  C   UNL     1      -4.036  11.707   5.554  1.00  0.00     0.039 A 
ATOM     36  C   UNL     1      -3.567  12.948   5.988  1.00  0.00     0.014 A 
ATOM     37  C   UNL     1      -4.786  11.600   4.380  1.00  0.00     0.014 A 
ATOM     38  C   UNL     1      -3.792  14.079   5.203  1.00  0.00     0.010 A 
ATOM     39  C   UNL     1      -4.951  12.714   3.566  1.00  0.00     0.010 A 
ATOM     40  C   UNL     1      -4.448  13.961   3.967  1.00  0.00    -0.014 A 
BRANCH  40  41
ATOM     41  C   UNL     1      -4.591  15.125   3.060  1.00  0.00     0.031 A 
ATOM     42  C   UNL     1      -5.953  15.660   2.726  1.00  0.00     0.074 A 
ATOM     43  C   UNL     1      -3.493  15.643   2.478  1.00  0.00     0.049 A 
ATOM     44  N   UNL     1      -6.284  16.604   1.882  1.00  0.00    -0.248 NA
ATOM     45  C   UNL     1      -7.095  15.037   3.413  1.00  0.00     0.031 C 
ATOM     46  C   UNL     1      -2.121  15.180   2.697  1.00  0.00     0.029 A 
ATOM     47  N   UNL     1      -3.358  16.662   1.570  1.00  0.00    -0.354 N 
ATOM     48  C   UNL     1      -7.670  16.681   1.929  1.00  0.00     0.074 A 
ATOM     49  C   UNL     1      -8.120  15.656   2.846  1.00  0.00     0.031 C 
ATOM     50  C   UNL     1      -1.283  15.921   1.955  1.00  0.00     0.029 A 
ATOM     51  C   UNL     1      -2.060  16.878   1.174  1.00  0.00     0.049 A 
ATOM     52  H   UNL     1      -4.119  17.189   1.233  1.00  0.00     0.167 HD
ATOM     53  C   UNL     1      -8.488  17.542   1.279  1.00  0.00     0.037 A 
ATOM     54  C   UNL     1      -1.556  17.736   0.268  1.00  0.00     0.037 A 
ATOM     55  C   UNL     1      -8.030  18.565   0.376  1.00  0.00     0.049 A 
ATOM     56  C   UNL     1      -2.491  18.652  -0.471  1.00  0.00     0.074 A 
ATOM     57  C   UNL     1      -8.773  19.527  -0.285  1.00  0.00     0.029 A 
ATOM     58  N   UNL     1      -6.708  18.750  -0.003  1.00  0.00    -0.354 N 
ATOM     59  N   UNL     1      -3.793  18.766  -0.362  1.00  0.00    -0.248 NA
ATOM     60  C   UNL     1      -1.888  19.555  -1.460  1.00  0.00     0.031 C 
ATOM     61  C   UNL     1      -7.909  20.258  -1.107  1.00  0.00     0.029 A 
ATOM     62  C   UNL     1      -6.620  19.788  -0.917  1.00  0.00     0.049 A 
ATOM     63  H   UNL     1      -5.946  18.223   0.329  1.00  0.00     0.167 HD
ATOM     64  C   UNL     1      -4.162  19.765  -1.253  1.00  0.00     0.074 A 
ATOM     65  C   UNL     1      -2.944  20.239  -1.878  1.00  0.00     0.031 C 
ATOM     66  C   UNL     1      -5.399  20.245  -1.532  1.00  0.00     0.037 A 
BRANCH  53  67
ATOM     67  C   UNL     1      -9.964  17.411   1.518  1.00  0.00     0.057 A 
ATOM     68  C   UNL     1     -10.548  17.749   2.746  1.00  0.00     0.134 A 
ATOM     69  C   UNL     1     -10.819  16.978   0.496  1.00  0.00     0.134 A 
ATOM     70  F   UNL     1      -9.786  18.161   3.771  1.00  0.00    -0.206 F 
ATOM     71  C   UNL     1     -11.924  17.637   2.957  1.00  0.00     0.040 A 
ATOM     72  C   UNL     1     -12.199  16.889   0.685  1.00  0.00     0.040 A 
ATOM     73  F   UNL     1     -10.328  16.643  -0.707  1.00  0.00    -0.206 F 
ATOM     74  C   UNL     1     -12.754  17.213   1.922  1.00  0.00     0.006 A 
ENDBRANCH  53  67
BRANCH  54  75
ATOM     75  C   UNL     1      -0.094  17.768   0.006  1.00  0.00     0.057 A 
ATOM     76  C   UNL     1       0.682  18.872   0.379  1.00  0.00     0.134 A 
ATOM     77  C   UNL     1       0.560  16.705  -0.627  1.00  0.00     0.134 A 
ATOM     78  F   UNL     1       0.109  19.930   0.972  1.00  0.00    -0.206 F 
ATOM     79  C   UNL     1       2.051  18.927   0.113  1.00  0.00     0.040 A 
ATOM     80  C   UNL     1       1.933  16.734  -0.874  1.00  0.00     0.040 A 
ATOM     81  F   UNL     1      -0.125  15.614  -1.002  1.00  0.00    -0.206 F 
ATOM     82  C   UNL     1       2.681  17.852  -0.511  1.00  0.00     0.006 A 
ENDBRANCH  54  75
BRANCH  66  83
ATOM     83  C   UNL     1      -5.495  21.348  -2.545  1.00  0.00     0.057 A 
ATOM     84  C   UNL     1      -5.291  21.114  -3.911  1.00  0.00     0.134 A 
ATOM     85  C   UNL     1      -5.840  22.649  -2.155  1.00  0.00     0.134 A 
ATOM     86  F   UNL     1      -4.943  19.895  -4.348  1.00  0.00    -0.206 F 
ATOM     87  C   UNL     1      -5.409  22.139  -4.851  1.00  0.00     0.040 A 
ATOM     88  C   UNL     1      -5.989  23.675  -3.089  1.00  0.00     0.040 A 
ATOM     89  F   UNL     1      -6.058  22.939  -0.864  1.00  0.00    -0.206 F 
ATOM     90  C   UNL     1      -5.768  23.422  -4.441  1.00  0.00     0.006 A 
ENDBRANCH  66  83
ENDBRANCH  40  41
ENDBRANCH  32  35
ENDBRANCH  30  31
ENDBRANCH  29  30
ENDBRANCH  28  29
ENDBRANCH   1  28
TORSDOF 18
