REMARK SMILES Cc1ccc(N2CC[C@H]([NH+]3CCOCC3)[C@H](CCC(=O)NCCCCCCNC(=O)c3ccc(-c4c5nc(c(-c6c(F)cccc6F)c6ccc([nH]6)c(-c6c(F)cccc6F)c6nc(c(-c7c(F)cccc7F)c7ccc4[nH]7)C=C6)C=C5)cc3)C2)nc1
REMARK SMILES IDX 24 1 23 2 22 3 21 4 19 5 20 6 18 8 17 9 16 10 6 11 7 12
REMARK SMILES IDX 85 13 8 14 9 15 5 16 1 17 2 18 3 19 87 20 4 21 86 22 10 23
REMARK SMILES IDX 11 24 15 25 12 27 14 28 13 29 25 30 26 31 27 32 28 33 29 34
REMARK SMILES IDX 30 36 31 37 32 38 84 39 33 40 83 41 34 42 35 43 36 44 77 45
REMARK SMILES IDX 37 46 82 47 76 48 78 49 38 50 81 51 75 52 74 53 39 55 65 56
REMARK SMILES IDX 48 57 64 58 49 59 52 60 63 61 79 62 50 63 51 64 62 66 80 67
REMARK SMILES IDX 53 68 40 69 41 70 46 71 42 72 43 73 45 74 47 75 44 76 66 77
REMARK SMILES IDX 67 78 72 79 68 80 69 81 71 82 73 83 70 84 54 85 55 86 60 87
REMARK SMILES IDX 56 88 57 89 59 90 61 91 58 92
REMARK H PARENT 21 7 10 26 28 35 78 54 52 65
REMARK Flexibility Score: inf
ROOT
ATOM      1  C   UNL     1      -8.111   2.269  -3.721  1.00  0.00     0.002 C 
ENDROOT
BRANCH   1   2
ATOM      2  C   UNL     1      -7.054   1.292  -3.218  1.00  0.00     0.021 C 
BRANCH   2   3
ATOM      3  C   UNL     1      -7.165  -0.095  -3.865  1.00  0.00     0.116 C 
BRANCH   3   4
ATOM      4  N   UNL     1      -6.185  -0.201  -4.932  1.00  0.00    -0.356 N 
ATOM      5  C   UNL     1      -4.943  -0.766  -4.913  1.00  0.00     0.220 C 
ATOM      6  O   UNL     1      -4.169  -0.509  -5.836  1.00  0.00    -0.275 OA
ATOM      7  H   UNL     1      -6.456   0.192  -5.793  1.00  0.00     0.163 HD
BRANCH   5   8
ATOM      8  C   UNL     1      -4.566  -1.745  -3.815  1.00  0.00     0.100 C 
BRANCH   8   9
ATOM      9  C   UNL     1      -3.746  -1.181  -2.638  1.00  0.00     0.021 C 
BRANCH   9  10
ATOM     10  C   UNL     1      -4.572  -0.521  -1.509  1.00  0.00     0.067 C 
ATOM     11  N   UNL     1      -2.979   0.247   0.258  1.00  0.00    -0.356 N 
ATOM     12  C   UNL     1      -3.592  -0.561   1.290  1.00  0.00     0.124 C 
ATOM     13  C   UNL     1      -3.799   0.665  -0.866  1.00  0.00     0.127 C 
ATOM     14  C   UNL     1      -4.202  -1.815   0.684  1.00  0.00     0.087 C 
ATOM     15  C   UNL     1      -5.223  -1.419  -0.387  1.00  0.00     0.190 C 
BRANCH  11  16
ATOM     16  C   UNL     1      -1.610   0.140   0.112  1.00  0.00     0.128 A 
ATOM     17  C   UNL     1       2.632  -0.221  -0.037  1.00  0.00     0.046 C 
ATOM     18  C   UNL     1       1.150  -0.050   0.010  1.00  0.00    -0.033 A 
ATOM     19  C   UNL     1       0.542   1.187  -0.173  1.00  0.00     0.009 A 
ATOM     20  C   UNL     1       0.317  -1.139   0.225  1.00  0.00     0.117 A 
ATOM     21  C   UNL     1      -0.848   1.280  -0.133  1.00  0.00     0.047 A 
ATOM     22  N   UNL     1      -1.030  -1.064   0.297  1.00  0.00    -0.239 NA
ENDBRANCH  11  16
BRANCH  15  23
ATOM     23  N   UNL     1      -6.140  -2.496  -0.821  1.00  0.00    -0.328 N 
ATOM     24  C   UNL     1      -7.157  -2.870   0.198  1.00  0.00     0.291 C 
ATOM     25  C   UNL     1      -5.566  -3.723  -1.400  1.00  0.00     0.291 C 
ATOM     26  H   UNL     1      -6.579  -2.017  -1.608  1.00  0.00     0.348 HD
ATOM     27  C   UNL     1      -6.818  -4.072   1.105  1.00  0.00     0.221 C 
ATOM     28  C   UNL     1      -5.269  -4.881  -0.443  1.00  0.00     0.221 C 
ATOM     29  O   UNL     1      -6.414  -5.210   0.343  1.00  0.00    -0.370 OA
ENDBRANCH  15  23
ENDBRANCH   9  10
ENDBRANCH   8   9
ENDBRANCH   5   8
ENDBRANCH   3   4
ENDBRANCH   2   3
ENDBRANCH   1   2
BRANCH   1  30
ATOM     30  C   UNL     1      -9.477   2.065  -3.059  1.00  0.00     0.002 C 
BRANCH  30  31
ATOM     31  C   UNL     1      -9.511   2.292  -1.541  1.00  0.00     0.021 C 
BRANCH  31  32
ATOM     32  C   UNL     1      -8.922   3.619  -1.067  1.00  0.00     0.116 C 
BRANCH  32  33
ATOM     33  N   UNL     1      -9.560   4.756  -1.711  1.00  0.00    -0.352 N 
ATOM     34  C   UNL     1     -10.267   5.796  -1.166  1.00  0.00     0.251 C 
ATOM     35  H   UNL     1      -9.470   4.783  -2.691  1.00  0.00     0.163 HD
ATOM     36  O   UNL     1     -10.922   6.537  -1.891  1.00  0.00    -0.269 OA
BRANCH  34  37
ATOM     37  C   UNL     1     -10.249   6.025   0.293  1.00  0.00     0.039 A 
ATOM     38  C   UNL     1     -11.447   6.350   0.936  1.00  0.00     0.014 A 
ATOM     39  C   UNL     1      -9.055   5.971   1.017  1.00  0.00     0.014 A 
ATOM     40  C   UNL     1     -11.454   6.576   2.313  1.00  0.00     0.010 A 
ATOM     41  C   UNL     1      -9.074   6.134   2.400  1.00  0.00     0.010 A 
ATOM     42  C   UNL     1     -10.272   6.447   3.059  1.00  0.00    -0.014 A 
BRANCH  42  43
ATOM     43  C   UNL     1     -10.272   6.649   4.529  1.00  0.00     0.031 A 
ATOM     44  C   UNL     1      -9.523   7.802   5.135  1.00  0.00     0.074 A 
ATOM     45  C   UNL     1     -10.904   5.762   5.321  1.00  0.00     0.049 A 
ATOM     46  N   UNL     1      -9.366   8.115   6.397  1.00  0.00    -0.248 NA
ATOM     47  C   UNL     1      -8.838   8.711   4.202  1.00  0.00     0.031 C 
ATOM     48  C   UNL     1     -11.626   4.577   4.855  1.00  0.00     0.029 A 
ATOM     49  N   UNL     1     -11.033   5.715   6.686  1.00  0.00    -0.354 N 
ATOM     50  C   UNL     1      -8.556   9.243   6.409  1.00  0.00     0.074 A 
ATOM     51  C   UNL     1      -8.213   9.532   5.033  1.00  0.00     0.031 C 
ATOM     52  C   UNL     1     -12.141   3.932   5.914  1.00  0.00     0.029 A 
ATOM     53  C   UNL     1     -11.759   4.638   7.133  1.00  0.00     0.049 A 
ATOM     54  H   UNL     1     -10.643   6.389   7.288  1.00  0.00     0.167 HD
ATOM     55  C   UNL     1      -8.153   9.985   7.468  1.00  0.00     0.037 A 
ATOM     56  C   UNL     1     -12.078   4.262   8.386  1.00  0.00     0.037 A 
ATOM     57  C   UNL     1      -8.519   9.711   8.833  1.00  0.00     0.049 A 
ATOM     58  C   UNL     1     -11.623   5.105   9.544  1.00  0.00     0.074 A 
ATOM     59  C   UNL     1      -8.214  10.438   9.970  1.00  0.00     0.029 A 
ATOM     60  N   UNL     1      -9.272   8.622   9.244  1.00  0.00    -0.354 N 
ATOM     61  N   UNL     1     -10.914   6.207   9.536  1.00  0.00    -0.248 NA
ATOM     62  C   UNL     1     -12.020   4.655  10.886  1.00  0.00     0.031 C 
ATOM     63  C   UNL     1      -8.750   9.768  11.075  1.00  0.00     0.029 A 
ATOM     64  C   UNL     1      -9.425   8.646  10.621  1.00  0.00     0.049 A 
ATOM     65  H   UNL     1      -9.643   7.933   8.646  1.00  0.00     0.167 HD
ATOM     66  C   UNL     1     -10.802   6.597  10.864  1.00  0.00     0.074 A 
ATOM     67  C   UNL     1     -11.527   5.620  11.649  1.00  0.00     0.031 C 
ATOM     68  C   UNL     1     -10.155   7.668  11.386  1.00  0.00     0.037 A 
BRANCH  55  69
ATOM     69  C   UNL     1      -7.273  11.168   7.190  1.00  0.00     0.057 A 
ATOM     70  C   UNL     1      -7.763  12.321   6.562  1.00  0.00     0.134 A 
ATOM     71  C   UNL     1      -5.928  11.169   7.582  1.00  0.00     0.134 A 
ATOM     72  F   UNL     1      -9.039  12.381   6.151  1.00  0.00    -0.206 F 
ATOM     73  C   UNL     1      -6.942  13.421   6.311  1.00  0.00     0.040 A 
ATOM     74  C   UNL     1      -5.104  12.273   7.359  1.00  0.00     0.040 A 
ATOM     75  F   UNL     1      -5.396  10.100   8.193  1.00  0.00    -0.206 F 
ATOM     76  C   UNL     1      -5.609  13.402   6.716  1.00  0.00     0.006 A 
ENDBRANCH  55  69
BRANCH  56  77
ATOM     77  C   UNL     1     -12.893   3.042   8.608  1.00  0.00     0.057 A 
ATOM     78  C   UNL     1     -14.219   3.133   9.046  1.00  0.00     0.134 A 
ATOM     79  C   UNL     1     -12.370   1.762   8.393  1.00  0.00     0.134 A 
ATOM     80  F   UNL     1     -14.770   4.332   9.287  1.00  0.00    -0.206 F 
ATOM     81  C   UNL     1     -14.992   1.994   9.279  1.00  0.00     0.040 A 
ATOM     82  C   UNL     1     -13.138   0.615   8.599  1.00  0.00     0.040 A 
ATOM     83  F   UNL     1     -11.108   1.609   7.965  1.00  0.00    -0.206 F 
ATOM     84  C   UNL     1     -14.452   0.730   9.051  1.00  0.00     0.006 A 
ENDBRANCH  56  77
BRANCH  68  85
ATOM     85  C   UNL     1     -10.229   7.854  12.872  1.00  0.00     0.057 A 
ATOM     86  C   UNL     1      -9.514   7.036  13.755  1.00  0.00     0.134 A 
ATOM     87  C   UNL     1     -10.997   8.888  13.424  1.00  0.00     0.134 A 
ATOM     88  F   UNL     1      -8.771   6.020  13.290  1.00  0.00    -0.206 F 
ATOM     89  C   UNL     1      -9.575   7.227  15.136  1.00  0.00     0.040 A 
ATOM     90  C   UNL     1     -11.046   9.104  14.801  1.00  0.00     0.040 A 
ATOM     91  F   UNL     1     -11.700   9.712  12.632  1.00  0.00    -0.206 F 
ATOM     92  C   UNL     1     -10.338   8.268  15.662  1.00  0.00     0.006 A 
ENDBRANCH  68  85
ENDBRANCH  42  43
ENDBRANCH  34  37
ENDBRANCH  32  33
ENDBRANCH  31  32
ENDBRANCH  30  31
ENDBRANCH   1  30
TORSDOF 17
