REMARK SMILES C[C@@H](C(=O)NCCCCCCNC(=O)c1ccc(-c2c3nc(c(-c4c(F)cccc4F)c4ccc([nH]4)c(-c4c(F)cccc4F)c4nc(c(-c5c(F)cccc5F)c5ccc2[nH]5)C=C4)C=C3)cc1)c1ccc(-c2cccc(OC(=O)NC3CC3)c2)c(F)c1
REMARK SMILES IDX 7 1 6 2 5 3 3 4 4 5 2 7 1 8 69 9 70 10 88 11 71 12 86 13
REMARK SMILES IDX 72 14 87 15 73 16 74 17 85 18 75 19 77 20 76 21 78 22 79 23
REMARK SMILES IDX 80 24 81 25 82 27 83 28 84 29 8 30 9 31 10 32 11 33 12 34
REMARK SMILES IDX 13 35 14 37 15 38 16 39 68 40 17 41 67 42 18 43 19 44 20 45
REMARK SMILES IDX 61 46 21 47 66 48 60 49 62 50 22 51 65 52 59 53 58 54 23 56
REMARK SMILES IDX 49 57 32 58 48 59 33 60 36 61 47 62 63 63 34 64 35 65 46 67
REMARK SMILES IDX 64 68 37 69 24 70 25 71 30 72 26 73 27 74 29 75 31 76 28 77
REMARK SMILES IDX 50 78 51 79 56 80 52 81 53 82 55 83 57 84 54 85 38 86 39 87
REMARK SMILES IDX 44 88 40 89 41 90 43 91 45 92 42 93
REMARK H PARENT 5 6 81 26 12 36 62 55 36 66
REMARK Flexibility Score: inf
ROOT
ATOM      1  C   UNL     1       4.296  -1.014   1.127  1.00  0.00     0.021 C 
ENDROOT
BRANCH   1   2
ATOM      2  C   UNL     1       3.485  -2.005   0.286  1.00  0.00     0.116 C 
BRANCH   2   3
ATOM      3  N   UNL     1       2.366  -2.496   1.060  1.00  0.00    -0.356 N 
ATOM      4  C   UNL     1       1.072  -2.063   1.072  1.00  0.00     0.227 C 
ATOM      5  O   UNL     1       0.376  -2.422   2.023  1.00  0.00    -0.274 OA
ATOM      6  H   UNL     1       2.566  -3.248   1.662  1.00  0.00     0.163 HD
BRANCH   4   7
ATOM      7  C   UNL     1       0.539  -1.215  -0.100  1.00  0.00     0.105 C 
ATOM      8  C   UNL     1       1.078   0.220  -0.021  1.00  0.00     0.023 C 
BRANCH   7   9
ATOM      9  C   UNL     1      -0.988  -1.276  -0.191  1.00  0.00    -0.033 A 
ATOM     10  C   UNL     1      -1.792  -0.128  -0.147  1.00  0.00     0.005 A 
ATOM     11  C   UNL     1      -1.629  -2.523  -0.292  1.00  0.00     0.044 A 
ATOM     12  C   UNL     1      -3.183  -0.220  -0.154  1.00  0.00     0.012 A 
ATOM     13  C   UNL     1      -3.022  -2.609  -0.280  1.00  0.00     0.131 A 
ATOM     14  C   UNL     1      -3.822  -1.465  -0.195  1.00  0.00     0.018 A 
ATOM     15  F   UNL     1      -3.583  -3.827  -0.326  1.00  0.00    -0.206 F 
BRANCH  14  16
ATOM     16  C   UNL     1      -5.277  -1.527  -0.037  1.00  0.00    -0.012 A 
ATOM     17  C   UNL     1      -6.139  -0.873  -0.931  1.00  0.00     0.009 A 
ATOM     18  C   UNL     1      -5.823  -2.159   1.092  1.00  0.00     0.056 A 
ATOM     19  C   UNL     1      -7.514  -0.838  -0.697  1.00  0.00     0.004 A 
ATOM     20  C   UNL     1      -7.191  -2.111   1.329  1.00  0.00     0.133 A 
ATOM     21  C   UNL     1      -8.040  -1.451   0.438  1.00  0.00     0.047 A 
BRANCH  20  22
ATOM     22  O   UNL     1      -7.825  -2.681   2.458  1.00  0.00    -0.410 OA
BRANCH  22  23
ATOM     23  C   UNL     1      -7.229  -3.468   3.438  1.00  0.00     0.412 C 
ATOM     24  O   UNL     1      -6.034  -3.732   3.532  1.00  0.00    -0.224 OA
ATOM     25  N   UNL     1      -8.113  -3.981   4.350  1.00  0.00    -0.318 N 
ATOM     26  H   UNL     1      -7.717  -4.582   5.022  1.00  0.00     0.167 HD
BRANCH  25  27
ATOM     27  C   UNL     1      -9.517  -3.776   4.475  1.00  0.00     0.085 C 
ATOM     28  C   UNL     1     -10.480  -3.403   3.385  1.00  0.00     0.027 C 
ATOM     29  C   UNL     1     -10.446  -4.811   3.893  1.00  0.00     0.027 C 
ENDBRANCH  25  27
ENDBRANCH  22  23
ENDBRANCH  20  22
ENDBRANCH  14  16
ENDBRANCH   7   9
ENDBRANCH   4   7
ENDBRANCH   2   3
ENDBRANCH   1   2
BRANCH   1  30
ATOM     30  C   UNL     1       5.030  -1.668   2.305  1.00  0.00     0.002 C 
BRANCH  30  31
ATOM     31  C   UNL     1       6.002  -2.782   1.909  1.00  0.00     0.002 C 
BRANCH  31  32
ATOM     32  C   UNL     1       7.038  -2.371   0.862  1.00  0.00     0.021 C 
BRANCH  32  33
ATOM     33  C   UNL     1       7.929  -1.216   1.301  1.00  0.00     0.116 C 
BRANCH  33  34
ATOM     34  N   UNL     1       8.779  -1.587   2.422  1.00  0.00    -0.352 N 
ATOM     35  C   UNL     1      10.148  -1.528   2.514  1.00  0.00     0.251 C 
ATOM     36  H   UNL     1       8.312  -1.925   3.220  1.00  0.00     0.163 HD
ATOM     37  O   UNL     1      10.742  -2.075   3.436  1.00  0.00    -0.269 OA
BRANCH  35  38
ATOM     38  C   UNL     1      10.897  -0.807   1.468  1.00  0.00     0.039 A 
ATOM     39  C   UNL     1      11.992  -1.425   0.860  1.00  0.00     0.014 A 
ATOM     40  C   UNL     1      10.482   0.465   1.066  1.00  0.00     0.014 A 
ATOM     41  C   UNL     1      12.635  -0.789  -0.203  1.00  0.00     0.010 A 
ATOM     42  C   UNL     1      11.070   1.058  -0.043  1.00  0.00     0.010 A 
ATOM     43  C   UNL     1      12.155   0.440  -0.685  1.00  0.00    -0.014 A 
BRANCH  43  44
ATOM     44  C   UNL     1      12.771   1.121  -1.850  1.00  0.00     0.031 A 
ATOM     45  C   UNL     1      13.387   2.479  -1.673  1.00  0.00     0.074 A 
ATOM     46  C   UNL     1      12.675   0.575  -3.076  1.00  0.00     0.049 A 
ATOM     47  N   UNL     1      13.829   3.313  -2.577  1.00  0.00    -0.248 NA
ATOM     48  C   UNL     1      13.480   2.979  -0.292  1.00  0.00     0.031 C 
ATOM     49  C   UNL     1      12.062  -0.718  -3.382  1.00  0.00     0.029 A 
ATOM     50  N   UNL     1      13.064   1.058  -4.301  1.00  0.00    -0.354 N 
ATOM     51  C   UNL     1      14.226   4.446  -1.879  1.00  0.00     0.074 A 
ATOM     52  C   UNL     1      13.920   4.213  -0.484  1.00  0.00     0.031 C 
ATOM     53  C   UNL     1      12.116  -0.925  -4.707  1.00  0.00     0.029 A 
ATOM     54  C   UNL     1      12.720   0.240  -5.348  1.00  0.00     0.049 A 
ATOM     55  H   UNL     1      13.544   1.910  -4.417  1.00  0.00     0.167 HD
ATOM     56  C   UNL     1      14.807   5.572  -2.355  1.00  0.00     0.037 A 
ATOM     57  C   UNL     1      12.850   0.418  -6.677  1.00  0.00     0.037 A 
ATOM     58  C   UNL     1      15.122   5.787  -3.743  1.00  0.00     0.049 A 
ATOM     59  C   UNL     1      13.486   1.679  -7.192  1.00  0.00     0.074 A 
ATOM     60  C   UNL     1      15.774   6.860  -4.322  1.00  0.00     0.029 A 
ATOM     61  N   UNL     1      14.793   4.915  -4.771  1.00  0.00    -0.354 N 
ATOM     62  N   UNL     1      13.924   2.715  -6.518  1.00  0.00    -0.248 NA
ATOM     63  C   UNL     1      13.653   1.796  -8.647  1.00  0.00     0.031 C 
ATOM     64  C   UNL     1      15.783   6.668  -5.707  1.00  0.00     0.029 A 
ATOM     65  C   UNL     1      15.199   5.442  -5.985  1.00  0.00     0.049 A 
ATOM     66  H   UNL     1      14.338   4.049  -4.654  1.00  0.00     0.167 HD
ATOM     67  C   UNL     1      14.445   3.593  -7.460  1.00  0.00     0.074 A 
ATOM     68  C   UNL     1      14.268   2.967  -8.755  1.00  0.00     0.031 C 
ATOM     69  C   UNL     1      15.024   4.803  -7.267  1.00  0.00     0.037 A 
BRANCH  56  70
ATOM     70  C   UNL     1      15.114   6.660  -1.365  1.00  0.00     0.057 A 
ATOM     71  C   UNL     1      16.074   6.502  -0.355  1.00  0.00     0.134 A 
ATOM     72  C   UNL     1      14.432   7.882  -1.417  1.00  0.00     0.134 A 
ATOM     73  F   UNL     1      16.759   5.353  -0.241  1.00  0.00    -0.206 F 
ATOM     74  C   UNL     1      16.307   7.497   0.595  1.00  0.00     0.040 A 
ATOM     75  C   UNL     1      14.682   8.899  -0.494  1.00  0.00     0.040 A 
ATOM     76  F   UNL     1      13.507   8.108  -2.362  1.00  0.00    -0.206 F 
ATOM     77  C   UNL     1      15.612   8.702   0.525  1.00  0.00     0.006 A 
ENDBRANCH  56  70
BRANCH  57  78
ATOM     78  C   UNL     1      12.365  -0.636  -7.603  1.00  0.00     0.057 A 
ATOM     79  C   UNL     1      13.259  -1.445  -8.312  1.00  0.00     0.134 A 
ATOM     80  C   UNL     1      10.997  -0.888  -7.768  1.00  0.00     0.134 A 
ATOM     81  F   UNL     1      14.581  -1.242  -8.208  1.00  0.00    -0.206 F 
ATOM     82  C   UNL     1      12.812  -2.464  -9.155  1.00  0.00     0.040 A 
ATOM     83  C   UNL     1      10.537  -1.919  -8.588  1.00  0.00     0.040 A 
ATOM     84  F   UNL     1      10.089  -0.155  -7.107  1.00  0.00    -0.206 F 
ATOM     85  C   UNL     1      11.447  -2.709  -9.287  1.00  0.00     0.006 A 
ENDBRANCH  57  78
BRANCH  69  86
ATOM     86  C   UNL     1      15.557   5.525  -8.470  1.00  0.00     0.057 A 
ATOM     87  C   UNL     1      14.714   6.146  -9.399  1.00  0.00     0.134 A 
ATOM     88  C   UNL     1      16.939   5.679  -8.646  1.00  0.00     0.134 A 
ATOM     89  F   UNL     1      13.382   6.027  -9.295  1.00  0.00    -0.206 F 
ATOM     90  C   UNL     1      15.227   6.893 -10.462  1.00  0.00     0.040 A 
ATOM     91  C   UNL     1      17.463   6.445  -9.687  1.00  0.00     0.040 A 
ATOM     92  F   UNL     1      17.802   5.116  -7.786  1.00  0.00    -0.206 F 
ATOM     93  C   UNL     1      16.605   7.055 -10.600  1.00  0.00     0.006 A 
ENDBRANCH  69  86
ENDBRANCH  43  44
ENDBRANCH  35  38
ENDBRANCH  33  34
ENDBRANCH  32  33
ENDBRANCH  31  32
ENDBRANCH  30  31
ENDBRANCH   1  30
TORSDOF 18
