REMARK SMILES O=C(/C=C/C(=O)NCc1ccc(-c2cccs2)s1)NCCCCCCNC(=O)c1ccc(-c2c3nc(c(-c4c(F)cccc4F)c4ccc([nH]4)c(-c4c(F)cccc4F)c4nc(c(-c5c(F)cccc5F)c5ccc2[nH]5)C=C4)C=C3)cc1
REMARK SMILES IDX 21 1 20 2 19 3 1 4 2 5 3 7 4 8 5 9 6 10 7 11 8 13 9 14 10 15
REMARK SMILES IDX 18 16 11 17 12 18 13 19 14 20 17 21 15 22 16 23 22 24 23 25
REMARK SMILES IDX 24 26 25 27 26 28 27 29 28 31 29 32 30 33 82 34 31 35 81 36
REMARK SMILES IDX 32 37 33 38 34 39 75 40 35 41 80 42 74 43 76 44 36 45 79 46
REMARK SMILES IDX 73 47 72 48 37 50 63 51 46 52 62 53 47 54 50 55 61 56 77 57
REMARK SMILES IDX 48 58 49 59 60 61 78 62 51 63 38 64 39 65 44 66 40 67 41 68
REMARK SMILES IDX 43 69 45 70 42 71 64 72 65 73 70 74 66 75 67 76 69 77 71 78
REMARK SMILES IDX 68 79 52 80 53 81 58 82 54 83 55 84 57 85 59 86 56 87
REMARK H PARENT 19 6 7 12 26 30 76 49 50 60
REMARK Flexibility Score: inf
ROOT
ATOM      1  C   UNL     1       2.768   3.015   1.821  1.00  0.00     0.021 C 
ENDROOT
BRANCH   1   2
ATOM      2  C   UNL     1       2.207   2.533   0.485  1.00  0.00     0.116 C 
BRANCH   2   3
ATOM      3  N   UNL     1       2.819   1.290   0.066  1.00  0.00    -0.353 N 
ATOM      4  O   UNL     1       0.938  -0.009   0.332  1.00  0.00    -0.270 OA
ATOM      5  C   UNL     1       2.122   0.114   0.048  1.00  0.00     0.244 C 
ATOM      6  H   UNL     1       3.762   1.292  -0.215  1.00  0.00     0.163 HD
BRANCH   5   7
ATOM      7  C   UNL     1       2.884  -1.059  -0.426  1.00  0.00     0.077 C 
ATOM      8  C   UNL     1       4.120  -1.341  -0.002  1.00  0.00     0.077 C 
BRANCH   8   9
ATOM      9  C   UNL     1       4.939  -2.504  -0.406  1.00  0.00     0.244 C 
ATOM     10  O   UNL     1       6.158  -2.350  -0.482  1.00  0.00    -0.270 OA
ATOM     11  N   UNL     1       4.420  -3.734  -0.622  1.00  0.00    -0.348 N 
ATOM     12  H   UNL     1       5.084  -4.393  -0.927  1.00  0.00     0.164 HD
BRANCH  11  13
ATOM     13  C   UNL     1       3.083  -4.276  -0.493  1.00  0.00     0.163 C 
BRANCH  13  14
ATOM     14  C   UNL     1       2.657  -4.805  -1.830  1.00  0.00     0.024 A 
ATOM     15  C   UNL     1       2.646  -6.118  -2.257  1.00  0.00     0.018 A 
ATOM     16  S   UNL     1       2.102  -3.753  -3.067  1.00  0.00    -0.138 S 
ATOM     17  C   UNL     1       2.170  -6.252  -3.593  1.00  0.00     0.022 A 
ATOM     18  C   UNL     1       1.844  -5.038  -4.163  1.00  0.00     0.045 A 
BRANCH  18  19
ATOM     19  C   UNL     1       1.321  -4.836  -5.488  1.00  0.00     0.044 A 
ATOM     20  C   UNL     1       0.227  -5.474  -6.042  1.00  0.00     0.021 A 
ATOM     21  S   UNL     1       2.064  -3.782  -6.617  1.00  0.00    -0.143 S 
ATOM     22  C   UNL     1       0.015  -5.114  -7.404  1.00  0.00     0.012 A 
ATOM     23  C   UNL     1       0.953  -4.209  -7.847  1.00  0.00     0.065 A 
ENDBRANCH  18  19
ENDBRANCH  13  14
ENDBRANCH  11  13
ENDBRANCH   8   9
ENDBRANCH   5   7
ENDBRANCH   2   3
ENDBRANCH   1   2
BRANCH   1  24
ATOM     24  C   UNL     1       4.276   3.295   1.811  1.00  0.00     0.002 C 
BRANCH  24  25
ATOM     25  C   UNL     1       4.753   4.274   0.735  1.00  0.00     0.002 C 
BRANCH  25  26
ATOM     26  C   UNL     1       4.062   5.639   0.745  1.00  0.00     0.021 C 
BRANCH  26  27
ATOM     27  C   UNL     1       4.185   6.404   2.057  1.00  0.00     0.116 C 
BRANCH  27  28
ATOM     28  N   UNL     1       5.563   6.746   2.371  1.00  0.00    -0.352 N 
ATOM     29  C   UNL     1       6.107   7.967   2.686  1.00  0.00     0.251 C 
ATOM     30  H   UNL     1       6.198   5.993   2.355  1.00  0.00     0.163 HD
ATOM     31  O   UNL     1       7.323   8.107   2.743  1.00  0.00    -0.269 OA
BRANCH  29  32
ATOM     32  C   UNL     1       5.218   9.123   2.933  1.00  0.00     0.039 A 
ATOM     33  C   UNL     1       5.535  10.354   2.353  1.00  0.00     0.014 A 
ATOM     34  C   UNL     1       4.078   8.994   3.730  1.00  0.00     0.014 A 
ATOM     35  C   UNL     1       4.672  11.438   2.520  1.00  0.00     0.010 A 
ATOM     36  C   UNL     1       3.179  10.052   3.829  1.00  0.00     0.010 A 
ATOM     37  C   UNL     1       3.468  11.286   3.227  1.00  0.00    -0.014 A 
BRANCH  37  38
ATOM     38  C   UNL     1       2.497  12.405   3.340  1.00  0.00     0.031 A 
ATOM     39  C   UNL     1       2.161  12.986   4.686  1.00  0.00     0.074 A 
ATOM     40  C   UNL     1       1.874  12.858   2.235  1.00  0.00     0.049 A 
ATOM     41  N   UNL     1       1.301  13.926   4.989  1.00  0.00    -0.248 NA
ATOM     42  C   UNL     1       2.865  12.420   5.847  1.00  0.00     0.031 C 
ATOM     43  C   UNL     1       2.078  12.347   0.878  1.00  0.00     0.029 A 
ATOM     44  N   UNL     1       0.935  13.847   2.078  1.00  0.00    -0.354 N 
ATOM     45  C   UNL     1       1.354  14.055   6.371  1.00  0.00     0.074 A 
ATOM     46  C   UNL     1       2.286  13.059   6.853  1.00  0.00     0.031 C 
ATOM     47  C   UNL     1       1.309  13.042   0.025  1.00  0.00     0.029 A 
ATOM     48  C   UNL     1       0.526  14.018   0.777  1.00  0.00     0.049 A 
ATOM     49  H   UNL     1       0.588  14.384   2.827  1.00  0.00     0.167 HD
ATOM     50  C   UNL     1       0.704  14.939   7.165  1.00  0.00     0.037 A 
ATOM     51  C   UNL     1      -0.385  14.858   0.251  1.00  0.00     0.037 A 
ATOM     52  C   UNL     1      -0.212  15.939   6.680  1.00  0.00     0.049 A 
ATOM     53  C   UNL     1      -1.111  15.814   1.157  1.00  0.00     0.074 A 
ATOM     54  C   UNL     1      -0.879  16.916   7.397  1.00  0.00     0.029 A 
ATOM     55  N   UNL     1      -0.597  16.083   5.355  1.00  0.00    -0.354 N 
ATOM     56  N   UNL     1      -0.997  15.974   2.453  1.00  0.00    -0.248 NA
ATOM     57  C   UNL     1      -2.089  16.712   0.525  1.00  0.00     0.031 C 
ATOM     58  C   UNL     1      -1.710  17.615   6.516  1.00  0.00     0.029 A 
ATOM     59  C   UNL     1      -1.514  17.115   5.239  1.00  0.00     0.049 A 
ATOM     60  H   UNL     1      -0.267  15.534   4.607  1.00  0.00     0.167 HD
ATOM     61  C   UNL     1      -1.862  17.009   2.787  1.00  0.00     0.074 A 
ATOM     62  C   UNL     1      -2.482  17.448   1.554  1.00  0.00     0.031 C 
ATOM     63  C   UNL     1      -2.119  17.547   4.004  1.00  0.00     0.037 A 
BRANCH  50  64
ATOM     64  C   UNL     1       0.960  14.864   8.643  1.00  0.00     0.057 A 
ATOM     65  C   UNL     1       2.197  15.218   9.200  1.00  0.00     0.134 A 
ATOM     66  C   UNL     1      -0.053  14.467   9.526  1.00  0.00     0.134 A 
ATOM     67  F   UNL     1       3.214  15.597   8.412  1.00  0.00    -0.206 F 
ATOM     68  C   UNL     1       2.425  15.152  10.576  1.00  0.00     0.040 A 
ATOM     69  C   UNL     1       0.154  14.428  10.906  1.00  0.00     0.040 A 
ATOM     70  F   UNL     1      -1.264  14.122   9.063  1.00  0.00    -0.206 F 
ATOM     71  C   UNL     1       1.399  14.764  11.434  1.00  0.00     0.006 A 
ENDBRANCH  50  64
BRANCH  51  72
ATOM     72  C   UNL     1      -0.653  14.846  -1.210  1.00  0.00     0.057 A 
ATOM     73  C   UNL     1      -0.288  15.927  -2.022  1.00  0.00     0.134 A 
ATOM     74  C   UNL     1      -1.290  13.763  -1.829  1.00  0.00     0.134 A 
ATOM     75  F   UNL     1       0.308  17.002  -1.485  1.00  0.00    -0.206 F 
ATOM     76  C   UNL     1      -0.568  15.944  -3.389  1.00  0.00     0.040 A 
ATOM     77  C   UNL     1      -1.549  13.753  -3.201  1.00  0.00     0.040 A 
ATOM     78  F   UNL     1      -1.657  12.692  -1.111  1.00  0.00    -0.206 F 
ATOM     79  C   UNL     1      -1.196  14.851  -3.983  1.00  0.00     0.006 A 
ENDBRANCH  51  72
BRANCH  63  80
ATOM     80  C   UNL     1      -3.082  18.698   4.059  1.00  0.00     0.057 A 
ATOM     81  C   UNL     1      -4.456  18.530   3.842  1.00  0.00     0.134 A 
ATOM     82  C   UNL     1      -2.631  19.988   4.373  1.00  0.00     0.134 A 
ATOM     83  F   UNL     1      -4.952  17.325   3.525  1.00  0.00    -0.206 F 
ATOM     84  C   UNL     1      -5.342  19.607   3.909  1.00  0.00     0.040 A 
ATOM     85  C   UNL     1      -3.511  21.066   4.473  1.00  0.00     0.040 A 
ATOM     86  F   UNL     1      -1.329  20.217   4.603  1.00  0.00    -0.206 F 
ATOM     87  C   UNL     1      -4.870  20.878   4.233  1.00  0.00     0.006 A 
ENDBRANCH  63  80
ENDBRANCH  37  38
ENDBRANCH  29  32
ENDBRANCH  27  28
ENDBRANCH  26  27
ENDBRANCH  25  26
ENDBRANCH  24  25
ENDBRANCH   1  24
TORSDOF 17
