REMARK SMILES Cc1ccc(NC(=O)C[C@@H]2C[NH2+]CCO2)c(C(=O)NCCCCCCNC(=O)c2ccc(-c3c4nc(c(-c5c(F)cccc5F)c5ccc([nH]5)c(-c5c(F)cccc5F)c5nc(c(-c6c(F)cccc6F)c6ccc3[nH]6)C=C5)C=C4)cc2)c1
REMARK SMILES IDX 22 1 21 2 20 3 19 4 17 5 18 6 16 8 1 9 2 10 3 11 83 12 4 13
REMARK SMILES IDX 5 14 6 15 7 16 8 18 9 19 10 20 11 21 15 22 12 23 14 24 13 25
REMARK SMILES IDX 23 28 24 29 25 30 26 31 27 32 28 34 29 35 30 36 82 37 31 38
REMARK SMILES IDX 81 39 32 40 33 41 34 42 75 43 35 44 80 45 74 46 76 47 36 48
REMARK SMILES IDX 79 49 73 50 72 51 37 53 63 54 46 55 62 56 47 57 50 58 61 59
REMARK SMILES IDX 77 60 48 61 49 62 60 64 78 65 51 66 38 67 39 68 44 69 40 70
REMARK SMILES IDX 41 71 43 72 45 73 42 74 64 75 65 76 70 77 66 78 67 79 69 80
REMARK SMILES IDX 71 81 68 82 52 83 53 84 58 85 54 86 55 87 57 88 59 89 56 90
REMARK H PARENT 19 7 6 17 12 26 12 27 26 33 76 52 50 63
REMARK Flexibility Score: inf
ROOT
ATOM      1  C   UNL     1       0.281   6.196  -0.975  1.00  0.00     0.002 C 
ENDROOT
BRANCH   1   2
ATOM      2  C   UNL     1       0.704   4.731  -0.781  1.00  0.00     0.021 C 
BRANCH   2   3
ATOM      3  C   UNL     1      -0.019   4.016   0.364  1.00  0.00     0.116 C 
BRANCH   3   4
ATOM      4  N   UNL     1      -1.303   3.512  -0.083  1.00  0.00    -0.352 N 
ATOM      5  C   UNL     1      -1.813   2.245  -0.222  1.00  0.00     0.253 C 
ATOM      6  O   UNL     1      -3.005   2.162  -0.521  1.00  0.00    -0.269 OA
ATOM      7  H   UNL     1      -1.937   4.221  -0.338  1.00  0.00     0.163 HD
BRANCH   5   8
ATOM      8  C   UNL     1      -1.021   1.007   0.062  1.00  0.00     0.063 A 
ATOM      9  C   UNL     1       2.599  -0.201  -0.094  1.00  0.00     0.044 C 
ATOM     10  C   UNL     1       1.131  -0.148   0.204  1.00  0.00    -0.050 A 
ATOM     11  C   UNL     1       0.500  -1.219   0.833  1.00  0.00     0.005 A 
ATOM     12  C   UNL     1       0.359   0.952  -0.192  1.00  0.00     0.019 A 
ATOM     13  C   UNL     1      -0.888  -1.227   0.985  1.00  0.00     0.027 A 
ATOM     14  C   UNL     1      -1.670  -0.166   0.515  1.00  0.00     0.054 A 
BRANCH  14  15
ATOM     15  N   UNL     1      -3.078  -0.267   0.404  1.00  0.00    -0.325 N 
ATOM     16  C   UNL     1      -3.884  -1.310   0.036  1.00  0.00     0.227 C 
ATOM     17  H   UNL     1      -3.562   0.559   0.632  1.00  0.00     0.169 HD
ATOM     18  O   UNL     1      -5.101  -1.103  -0.055  1.00  0.00    -0.275 OA
BRANCH  16  19
ATOM     19  C   UNL     1      -3.356  -2.694  -0.279  1.00  0.00     0.138 C 
BRANCH  19  20
ATOM     20  C   UNL     1      -2.571  -2.853  -1.593  1.00  0.00     0.182 C 
ATOM     21  C   UNL     1      -1.705  -4.139  -1.494  1.00  0.00     0.293 C 
ATOM     22  O   UNL     1      -1.752  -1.711  -1.860  1.00  0.00    -0.366 OA
ATOM     23  N   UNL     1      -0.788  -4.335  -2.632  1.00  0.00    -0.342 N 
ATOM     24  C   UNL     1      -0.895  -1.886  -2.988  1.00  0.00     0.222 C 
ATOM     25  C   UNL     1       0.009  -3.107  -2.799  1.00  0.00     0.289 C 
ATOM     26  H   UNL     1      -1.324  -4.518  -3.481  1.00  0.00     0.346 HD
ATOM     27  H   UNL     1      -0.175  -5.131  -2.457  1.00  0.00     0.346 HD
ENDBRANCH  19  20
ENDBRANCH  16  19
ENDBRANCH  14  15
ENDBRANCH   5   8
ENDBRANCH   3   4
ENDBRANCH   2   3
ENDBRANCH   1   2
BRANCH   1  28
ATOM     28  C   UNL     1       0.427   7.114   0.252  1.00  0.00     0.002 C 
BRANCH  28  29
ATOM     29  C   UNL     1       1.752   7.008   1.014  1.00  0.00     0.021 C 
BRANCH  29  30
ATOM     30  C   UNL     1       2.945   7.579   0.255  1.00  0.00     0.116 C 
BRANCH  30  31
ATOM     31  N   UNL     1       3.356   8.900   0.718  1.00  0.00    -0.352 N 
ATOM     32  C   UNL     1       4.262   9.781   0.154  1.00  0.00     0.251 C 
ATOM     33  H   UNL     1       2.929   9.208   1.550  1.00  0.00     0.163 HD
ATOM     34  O   UNL     1       4.485  10.861   0.678  1.00  0.00    -0.269 OA
BRANCH  32  35
ATOM     35  C   UNL     1       4.855   9.454  -1.165  1.00  0.00     0.039 A 
ATOM     36  C   UNL     1       4.756  10.416  -2.175  1.00  0.00     0.014 A 
ATOM     37  C   UNL     1       5.280   8.160  -1.461  1.00  0.00     0.014 A 
ATOM     38  C   UNL     1       4.820  10.011  -3.505  1.00  0.00     0.010 A 
ATOM     39  C   UNL     1       5.267   7.741  -2.779  1.00  0.00     0.010 A 
ATOM     40  C   UNL     1       4.954   8.651  -3.793  1.00  0.00    -0.014 A 
BRANCH  40  41
ATOM     41  C   UNL     1       4.585   8.091  -5.090  1.00  0.00     0.031 A 
ATOM     42  C   UNL     1       5.601   7.640  -6.059  1.00  0.00     0.074 A 
ATOM     43  C   UNL     1       3.277   7.966  -5.413  1.00  0.00     0.049 A 
ATOM     44  N   UNL     1       5.411   7.646  -7.337  1.00  0.00    -0.248 NA
ATOM     45  C   UNL     1       6.922   7.166  -5.667  1.00  0.00     0.031 C 
ATOM     46  C   UNL     1       2.712   7.262  -6.561  1.00  0.00     0.029 A 
ATOM     47  N   UNL     1       2.193   8.664  -4.865  1.00  0.00    -0.354 N 
ATOM     48  C   UNL     1       6.450   6.962  -7.912  1.00  0.00     0.074 A 
ATOM     49  C   UNL     1       7.396   6.730  -6.841  1.00  0.00     0.031 C 
ATOM     50  C   UNL     1       1.501   7.774  -6.825  1.00  0.00     0.029 A 
ATOM     51  C   UNL     1       1.296   8.899  -5.930  1.00  0.00     0.049 A 
ATOM     52  H   UNL     1       2.080   8.937  -3.925  1.00  0.00     0.167 HD
ATOM     53  C   UNL     1       6.368   6.556  -9.209  1.00  0.00     0.037 A 
ATOM     54  C   UNL     1       0.978  10.168  -6.311  1.00  0.00     0.037 A 
ATOM     55  C   UNL     1       5.118   6.946  -9.847  1.00  0.00     0.049 A 
ATOM     56  C   UNL     1       1.380  10.528  -7.726  1.00  0.00     0.074 A 
ATOM     57  C   UNL     1       3.924   6.298 -10.122  1.00  0.00     0.029 A 
ATOM     58  N   UNL     1       4.873   8.290 -10.055  1.00  0.00    -0.354 N 
ATOM     59  N   UNL     1       1.991   9.723  -8.552  1.00  0.00    -0.248 NA
ATOM     60  C   UNL     1       1.216  11.873  -8.283  1.00  0.00     0.031 C 
ATOM     61  C   UNL     1       2.961   7.275 -10.501  1.00  0.00     0.029 A 
ATOM     62  C   UNL     1       3.571   8.514 -10.458  1.00  0.00     0.049 A 
ATOM     63  H   UNL     1       5.543   9.000  -9.931  1.00  0.00     0.167 HD
ATOM     64  C   UNL     1       2.368  10.424  -9.669  1.00  0.00     0.074 A 
ATOM     65  C   UNL     1       1.847  11.761  -9.463  1.00  0.00     0.031 C 
ATOM     66  C   UNL     1       3.129   9.881 -10.661  1.00  0.00     0.037 A 
BRANCH  53  67
ATOM     67  C   UNL     1       7.367   5.609  -9.803  1.00  0.00     0.057 A 
ATOM     68  C   UNL     1       6.968   4.545 -10.630  1.00  0.00     0.134 A 
ATOM     69  C   UNL     1       8.748   5.690  -9.555  1.00  0.00     0.134 A 
ATOM     70  F   UNL     1       5.691   4.382 -10.999  1.00  0.00    -0.206 F 
ATOM     71  C   UNL     1       7.864   3.577 -11.096  1.00  0.00     0.040 A 
ATOM     72  C   UNL     1       9.648   4.701  -9.972  1.00  0.00     0.040 A 
ATOM     73  F   UNL     1       9.272   6.737  -8.900  1.00  0.00    -0.206 F 
ATOM     74  C   UNL     1       9.204   3.632 -10.738  1.00  0.00     0.006 A 
ENDBRANCH  53  67
BRANCH  54  75
ATOM     75  C   UNL     1       0.929  11.120  -5.172  1.00  0.00     0.057 A 
ATOM     76  C   UNL     1      -0.042  10.929  -4.173  1.00  0.00     0.134 A 
ATOM     77  C   UNL     1       1.996  11.970  -4.872  1.00  0.00     0.134 A 
ATOM     78  F   UNL     1      -1.091  10.122  -4.397  1.00  0.00    -0.206 F 
ATOM     79  C   UNL     1       0.097  11.475  -2.896  1.00  0.00     0.040 A 
ATOM     80  C   UNL     1       2.138  12.533  -3.600  1.00  0.00     0.040 A 
ATOM     81  F   UNL     1       2.973  12.182  -5.765  1.00  0.00    -0.206 F 
ATOM     82  C   UNL     1       1.209  12.256  -2.598  1.00  0.00     0.006 A 
ENDBRANCH  54  75
BRANCH  66  83
ATOM     83  C   UNL     1       3.531  10.621 -11.903  1.00  0.00     0.057 A 
ATOM     84  C   UNL     1       2.622  11.376 -12.656  1.00  0.00     0.134 A 
ATOM     85  C   UNL     1       4.821  10.490 -12.456  1.00  0.00     0.134 A 
ATOM     86  F   UNL     1       1.349  11.519 -12.259  1.00  0.00    -0.206 F 
ATOM     87  C   UNL     1       2.982  11.994 -13.860  1.00  0.00     0.040 A 
ATOM     88  C   UNL     1       5.179  11.062 -13.679  1.00  0.00     0.040 A 
ATOM     89  F   UNL     1       5.792   9.818 -11.822  1.00  0.00    -0.206 F 
ATOM     90  C   UNL     1       4.260  11.827 -14.382  1.00  0.00     0.006 A 
ENDBRANCH  66  83
ENDBRANCH  40  41
ENDBRANCH  32  35
ENDBRANCH  30  31
ENDBRANCH  29  30
ENDBRANCH  28  29
ENDBRANCH   1  28
TORSDOF 16
