REMARK SMILES O=C(C[C@H]([NH2+]Cc1ccco1)C(=O)NCCCCCCNC(=O)c1ccc(-c2c3nc(c(-c4c(F)cccc4F)c4ccc([nH]4)c(-c4c(F)cccc4F)c4nc(c(-c5c(F)cccc5F)c5ccc2[nH]5)C=C4)C=C3)cc1)Nc1ccc(O)cc1
REMARK SMILES IDX 16 1 15 2 14 3 12 4 13 5 4 7 3 8 2 9 1 10 78 11 79 13 80 14
REMARK SMILES IDX 85 15 81 16 84 17 82 18 83 19 5 21 6 24 7 25 8 26 11 27 9 28
REMARK SMILES IDX 10 29 17 30 18 31 19 32 20 33 21 34 22 35 23 37 24 38 25 39
REMARK SMILES IDX 77 40 26 41 76 42 27 43 28 44 29 45 70 46 30 47 75 48 69 49
REMARK SMILES IDX 71 50 31 51 74 52 68 53 67 54 32 56 58 57 41 58 57 59 42 60
REMARK SMILES IDX 45 61 56 62 72 63 43 64 44 65 55 67 73 68 46 69 33 70 34 71
REMARK SMILES IDX 39 72 35 73 36 74 38 75 40 76 37 77 59 78 60 79 65 80 61 81
REMARK SMILES IDX 62 82 64 83 66 84 63 85 47 86 48 87 53 88 49 89 50 90 52 91
REMARK SMILES IDX 54 92 51 93
REMARK H PARENT 14 6 78 12 83 20 5 22 5 23 21 36 71 55 45 66
REMARK Flexibility Score: inf
ROOT
ATOM      1  C   UNL     1       5.273  -0.766  -3.645  1.00  0.00     0.021 C 
ENDROOT
BRANCH   1   2
ATOM      2  C   UNL     1       5.612   0.010  -2.374  1.00  0.00     0.116 C 
BRANCH   2   3
ATOM      3  N   UNL     1       5.447   1.441  -2.566  1.00  0.00    -0.351 N 
ATOM      4  C   UNL     1       4.612   2.313  -1.931  1.00  0.00     0.278 C 
ATOM      5  O   UNL     1       4.600   3.490  -2.301  1.00  0.00    -0.268 OA
ATOM      6  H   UNL     1       6.023   1.841  -3.257  1.00  0.00     0.163 HD
BRANCH   4   7
ATOM      7  C   UNL     1       3.749   1.865  -0.737  1.00  0.00     0.282 C 
BRANCH   7   8
ATOM      8  C   UNL     1       4.703   1.624   0.442  1.00  0.00     0.175 C 
BRANCH   8   9
ATOM      9  C   UNL     1       4.101   0.921   1.634  1.00  0.00     0.230 C 
ATOM     10  O   UNL     1       4.586  -0.132   2.038  1.00  0.00    -0.274 OA
ATOM     11  N   UNL     1       3.021   1.583   2.187  1.00  0.00    -0.326 N 
ATOM     12  H   UNL     1       2.675   2.361   1.693  1.00  0.00     0.169 HD
BRANCH  11  13
ATOM     13  C   UNL     1       2.369   1.251   3.392  1.00  0.00     0.041 A 
ATOM     14  C   UNL     1       1.131   1.855   3.644  1.00  0.00     0.030 A 
ATOM     15  C   UNL     1       2.910   0.385   4.347  1.00  0.00     0.030 A 
ATOM     16  C   UNL     1       0.434   1.572   4.821  1.00  0.00     0.048 A 
ATOM     17  C   UNL     1       2.223   0.116   5.534  1.00  0.00     0.048 A 
ATOM     18  C   UNL     1       0.986   0.708   5.757  1.00  0.00     0.115 A 
BRANCH  18  19
ATOM     19  O   UNL     1       0.279   0.465   6.896  1.00  0.00    -0.508 OA
ATOM     20  H   UNL     1      -0.553   0.875   7.027  1.00  0.00     0.293 HD
ENDBRANCH  18  19
ENDBRANCH  11  13
ENDBRANCH   8   9
ENDBRANCH   7   8
BRANCH   7  21
ATOM     21  N   UNL     1       2.875   0.724  -1.091  1.00  0.00    -0.329 N 
ATOM     22  H   UNL     1       2.377   0.420  -0.254  1.00  0.00     0.347 HD
ATOM     23  H   UNL     1       3.465  -0.021  -1.461  1.00  0.00     0.347 HD
BRANCH  21  24
ATOM     24  C   UNL     1       1.893   1.082  -2.124  1.00  0.00     0.337 C 
BRANCH  24  25
ATOM     25  C   UNL     1       1.010  -0.071  -2.462  1.00  0.00     0.157 A 
ATOM     26  C   UNL     1       0.570  -1.188  -1.777  1.00  0.00     0.052 A 
ATOM     27  O   UNL     1       0.466  -0.059  -3.715  1.00  0.00    -0.463 OA
ATOM     28  C   UNL     1      -0.280  -1.895  -2.662  1.00  0.00     0.042 A 
ATOM     29  C   UNL     1      -0.308  -1.168  -3.828  1.00  0.00     0.195 A 
ENDBRANCH  24  25
ENDBRANCH  21  24
ENDBRANCH   7  21
ENDBRANCH   4   7
ENDBRANCH   2   3
ENDBRANCH   1   2
BRANCH   1  30
ATOM     30  C   UNL     1       6.212  -0.484  -4.823  1.00  0.00     0.002 C 
BRANCH  30  31
ATOM     31  C   UNL     1       7.702  -0.703  -4.538  1.00  0.00     0.002 C 
BRANCH  31  32
ATOM     32  C   UNL     1       8.065  -2.088  -3.998  1.00  0.00     0.021 C 
BRANCH  32  33
ATOM     33  C   UNL     1       7.646  -3.252  -4.891  1.00  0.00     0.116 C 
BRANCH  33  34
ATOM     34  N   UNL     1       8.302  -3.216  -6.188  1.00  0.00    -0.352 N 
ATOM     35  C   UNL     1       9.005  -4.200  -6.835  1.00  0.00     0.251 C 
ATOM     36  H   UNL     1       8.232  -2.362  -6.672  1.00  0.00     0.163 HD
ATOM     37  O   UNL     1       9.643  -3.936  -7.853  1.00  0.00    -0.269 OA
BRANCH  35  38
ATOM     38  C   UNL     1       9.017  -5.576  -6.297  1.00  0.00     0.039 A 
ATOM     39  C   UNL     1      10.230  -6.268  -6.244  1.00  0.00     0.014 A 
ATOM     40  C   UNL     1       7.841  -6.187  -5.854  1.00  0.00     0.014 A 
ATOM     41  C   UNL     1      10.273  -7.549  -5.690  1.00  0.00     0.010 A 
ATOM     42  C   UNL     1       7.898  -7.434  -5.236  1.00  0.00     0.010 A 
ATOM     43  C   UNL     1       9.114  -8.129  -5.149  1.00  0.00    -0.014 A 
BRANCH  43  44
ATOM     44  C   UNL     1       9.158  -9.456  -4.484  1.00  0.00     0.031 A 
ATOM     45  C   UNL     1       8.391 -10.617  -5.055  1.00  0.00     0.074 A 
ATOM     46  C   UNL     1       9.839  -9.600  -3.330  1.00  0.00     0.049 A 
ATOM     47  N   UNL     1       8.255 -11.831  -4.582  1.00  0.00    -0.248 NA
ATOM     48  C   UNL     1       7.660 -10.378  -6.310  1.00  0.00     0.031 C 
ATOM     49  C   UNL     1      10.582  -8.538  -2.647  1.00  0.00     0.029 A 
ATOM     50  N   UNL     1      10.007 -10.694  -2.518  1.00  0.00    -0.354 N 
ATOM     51  C   UNL     1       7.415 -12.491  -5.469  1.00  0.00     0.074 A 
ATOM     52  C   UNL     1       7.033 -11.533  -6.483  1.00  0.00     0.031 C 
ATOM     53  C   UNL     1      11.139  -9.037  -1.532  1.00  0.00     0.029 A 
ATOM     54  C   UNL     1      10.762 -10.441  -1.399  1.00  0.00     0.049 A 
ATOM     55  H   UNL     1       9.622 -11.578  -2.720  1.00  0.00     0.167 HD
ATOM     56  C   UNL     1       7.015 -13.785  -5.451  1.00  0.00     0.037 A 
ATOM     57  C   UNL     1      11.102 -11.245  -0.374  1.00  0.00     0.037 A 
ATOM     58  C   UNL     1       7.419 -14.744  -4.457  1.00  0.00     0.049 A 
ATOM     59  C   UNL     1      10.643 -12.678  -0.380  1.00  0.00     0.074 A 
ATOM     60  C   UNL     1       7.120 -16.094  -4.392  1.00  0.00     0.029 A 
ATOM     61  N   UNL     1       8.205 -14.454  -3.352  1.00  0.00    -0.354 N 
ATOM     62  N   UNL     1       9.911 -13.308  -1.266  1.00  0.00    -0.248 NA
ATOM     63  C   UNL     1      11.062 -13.513   0.754  1.00  0.00     0.031 C 
ATOM     64  C   UNL     1       7.685 -16.611  -3.222  1.00  0.00     0.029 A 
ATOM     65  C   UNL     1       8.381 -15.596  -2.587  1.00  0.00     0.049 A 
ATOM     66  H   UNL     1       8.582 -13.569  -3.142  1.00  0.00     0.167 HD
ATOM     67  C   UNL     1       9.810 -14.617  -0.815  1.00  0.00     0.074 A 
ATOM     68  C   UNL     1      10.567 -14.695   0.416  1.00  0.00     0.031 C 
ATOM     69  C   UNL     1       9.149 -15.662  -1.370  1.00  0.00     0.037 A 
BRANCH  56  70
ATOM     70  C   UNL     1       6.095 -14.247  -6.543  1.00  0.00     0.057 A 
ATOM     71  C   UNL     1       6.535 -14.403  -7.864  1.00  0.00     0.134 A 
ATOM     72  C   UNL     1       4.769 -14.599  -6.259  1.00  0.00     0.134 A 
ATOM     73  F   UNL     1       7.790 -14.074  -8.206  1.00  0.00    -0.206 F 
ATOM     74  C   UNL     1       5.685 -14.874  -8.867  1.00  0.00     0.040 A 
ATOM     75  C   UNL     1       3.917 -15.097  -7.247  1.00  0.00     0.040 A 
ATOM     76  F   UNL     1       4.284 -14.481  -5.014  1.00  0.00    -0.206 F 
ATOM     77  C   UNL     1       4.374 -15.231  -8.556  1.00  0.00     0.006 A 
ENDBRANCH  56  70
BRANCH  57  78
ATOM     78  C   UNL     1      11.930 -10.723   0.744  1.00  0.00     0.057 A 
ATOM     79  C   UNL     1      13.242 -11.167   0.943  1.00  0.00     0.134 A 
ATOM     80  C   UNL     1      11.421  -9.789   1.655  1.00  0.00     0.134 A 
ATOM     81  F   UNL     1      13.780 -12.076   0.115  1.00  0.00    -0.206 F 
ATOM     82  C   UNL     1      14.010 -10.725   2.022  1.00  0.00     0.040 A 
ATOM     83  C   UNL     1      12.187  -9.317   2.722  1.00  0.00     0.040 A 
ATOM     84  F   UNL     1      10.174  -9.317   1.517  1.00  0.00    -0.206 F 
ATOM     85  C   UNL     1      13.482  -9.793   2.914  1.00  0.00     0.006 A 
ENDBRANCH  57  78
BRANCH  69  86
ATOM     86  C   UNL     1       9.250 -16.989  -0.676  1.00  0.00     0.057 A 
ATOM     87  C   UNL     1       8.601 -17.242   0.539  1.00  0.00     0.134 A 
ATOM     88  C   UNL     1       9.975 -18.039  -1.254  1.00  0.00     0.134 A 
ATOM     89  F   UNL     1       7.901 -16.275   1.151  1.00  0.00    -0.206 F 
ATOM     90  C   UNL     1       8.689 -18.486   1.166  1.00  0.00     0.040 A 
ATOM     91  C   UNL     1      10.046 -19.296  -0.651  1.00  0.00     0.040 A 
ATOM     92  F   UNL     1      10.612 -17.867  -2.422  1.00  0.00    -0.206 F 
ATOM     93  C   UNL     1       9.407 -19.519   0.567  1.00  0.00     0.006 A 
ENDBRANCH  69  86
ENDBRANCH  43  44
ENDBRANCH  35  38
ENDBRANCH  33  34
ENDBRANCH  32  33
ENDBRANCH  31  32
ENDBRANCH  30  31
ENDBRANCH   1  30
TORSDOF 20
