REMARK SMILES C=CCOc1ccc(C(=O)N2CCC[C@H]2C(=O)NCCCCCCNC(=O)c2ccc(-c3c4nc(c(-c5c(F)cccc5F)c5ccc([nH]5)c(-c5c(F)cccc5F)c5nc(c(-c6c(F)cccc6F)c6ccc3[nH]6)C=C5)C=C4)cc2)cc1
REMARK SMILES IDX 20 1 19 2 18 3 16 4 17 5 15 7 11 8 12 9 13 10 14 11 9 12
REMARK SMILES IDX 10 13 8 14 5 15 6 16 83 17 7 18 82 19 4 20 3 21 2 22 1 23
REMARK SMILES IDX 21 24 22 25 23 26 24 27 25 28 26 29 27 31 28 32 29 33 81 34
REMARK SMILES IDX 30 35 80 36 31 37 32 38 33 39 74 40 34 41 79 42 73 43 75 44
REMARK SMILES IDX 35 45 78 46 72 47 71 48 36 50 62 51 45 52 61 53 46 54 49 55
REMARK SMILES IDX 60 56 76 57 47 58 48 59 59 61 77 62 50 63 37 64 38 65 43 66
REMARK SMILES IDX 39 67 40 68 42 69 44 70 41 71 63 72 64 73 69 74 65 75 66 76
REMARK SMILES IDX 68 77 70 78 67 79 51 80 52 81 57 82 53 83 54 84 56 85 58 86
REMARK SMILES IDX 55 87
REMARK H PARENT 18 6 25 30 75 49 49 60
REMARK Flexibility Score: inf
ROOT
ATOM      1  C   UNL     1      -2.321  -3.133  -8.519  1.00  0.00     0.021 C 
ENDROOT
BRANCH   1   2
ATOM      2  C   UNL     1      -1.605  -3.873  -7.397  1.00  0.00     0.116 C 
BRANCH   2   3
ATOM      3  N   UNL     1      -0.454  -4.621  -7.868  1.00  0.00    -0.354 N 
ATOM      4  C   UNL     1       0.768  -4.781  -7.278  1.00  0.00     0.242 C 
ATOM      5  O   UNL     1       1.508  -5.664  -7.720  1.00  0.00    -0.273 OA
ATOM      6  H   UNL     1      -0.570  -5.077  -8.732  1.00  0.00     0.163 HD
BRANCH   4   7
ATOM      7  C   UNL     1       1.162  -3.905  -6.071  1.00  0.00     0.174 C 
ATOM      8  N   UNL     1       0.923  -4.566  -4.788  1.00  0.00    -0.327 N 
ATOM      9  C   UNL     1       2.151  -5.130  -4.268  1.00  0.00     0.121 C 
ATOM     10  C   UNL     1       3.186  -4.111  -4.699  1.00  0.00     0.024 C 
ATOM     11  C   UNL     1       2.686  -3.639  -6.067  1.00  0.00     0.037 C 
BRANCH   8  12
ATOM     12  C   UNL     1      -0.331  -4.679  -4.231  1.00  0.00     0.254 C 
ATOM     13  O   UNL     1      -1.293  -5.113  -4.859  1.00  0.00    -0.269 OA
BRANCH  12  14
ATOM     14  C   UNL     1      -0.577  -4.088  -2.881  1.00  0.00     0.040 A 
ATOM     15  C   UNL     1      -1.178  -2.836  -0.440  1.00  0.00     0.119 A 
ATOM     16  C   UNL     1      -2.186  -3.479  -1.152  1.00  0.00     0.047 A 
ATOM     17  C   UNL     1       0.125  -2.844  -0.927  1.00  0.00     0.047 A 
ATOM     18  C   UNL     1      -1.886  -4.103  -2.369  1.00  0.00     0.017 A 
ATOM     19  C   UNL     1       0.416  -3.426  -2.158  1.00  0.00     0.017 A 
BRANCH  15  20
ATOM     20  O   UNL     1      -1.481  -2.286   0.775  1.00  0.00    -0.490 OA
BRANCH  20  21
ATOM     21  C   UNL     1      -1.297  -0.861   0.816  1.00  0.00     0.257 C 
BRANCH  21  22
ATOM     22  C   UNL     1       0.118  -0.497   1.172  1.00  0.00     0.006 C 
ATOM     23  C   UNL     1       0.896   0.313   0.439  1.00  0.00     0.007 C 
ENDBRANCH  21  22
ENDBRANCH  20  21
ENDBRANCH  15  20
ENDBRANCH  12  14
ENDBRANCH   8  12
ENDBRANCH   4   7
ENDBRANCH   2   3
ENDBRANCH   1   2
BRANCH   1  24
ATOM     24  C   UNL     1      -2.879  -4.040  -9.620  1.00  0.00     0.002 C 
BRANCH  24  25
ATOM     25  C   UNL     1      -3.803  -5.167  -9.145  1.00  0.00     0.002 C 
BRANCH  25  26
ATOM     26  C   UNL     1      -5.016  -4.723  -8.325  1.00  0.00     0.021 C 
BRANCH  26  27
ATOM     27  C   UNL     1      -5.910  -3.690  -9.003  1.00  0.00     0.116 C 
BRANCH  27  28
ATOM     28  N   UNL     1      -6.465  -4.172 -10.257  1.00  0.00    -0.352 N 
ATOM     29  C   UNL     1      -7.759  -4.149 -10.708  1.00  0.00     0.251 C 
ATOM     30  H   UNL     1      -5.814  -4.576 -10.875  1.00  0.00     0.163 HD
ATOM     31  O   UNL     1      -8.062  -4.753 -11.734  1.00  0.00    -0.269 OA
BRANCH  29  32
ATOM     32  C   UNL     1      -8.801  -3.418  -9.954  1.00  0.00     0.039 A 
ATOM     33  C   UNL     1     -10.054  -4.016  -9.795  1.00  0.00     0.014 A 
ATOM     34  C   UNL     1      -8.562  -2.147  -9.425  1.00  0.00     0.014 A 
ATOM     35  C   UNL     1     -11.046  -3.364  -9.061  1.00  0.00     0.010 A 
ATOM     36  C   UNL     1      -9.526  -1.531  -8.630  1.00  0.00     0.010 A 
ATOM     37  C   UNL     1     -10.781  -2.130  -8.444  1.00  0.00    -0.014 A 
BRANCH  37  38
ATOM     38  C   UNL     1     -11.806  -1.467  -7.598  1.00  0.00     0.031 A 
ATOM     39  C   UNL     1     -12.381  -0.135  -7.995  1.00  0.00     0.074 A 
ATOM     40  C   UNL     1     -12.189  -2.048  -6.444  1.00  0.00     0.049 A 
ATOM     41  N   UNL     1     -13.267   0.601  -7.372  1.00  0.00    -0.248 NA
ATOM     42  C   UNL     1     -11.878   0.461  -9.243  1.00  0.00     0.031 C 
ATOM     43  C   UNL     1     -11.666  -3.312  -5.920  1.00  0.00     0.029 A 
ATOM     44  N   UNL     1     -13.103  -1.651  -5.500  1.00  0.00    -0.354 N 
ATOM     45  C   UNL     1     -13.418   1.747  -8.143  1.00  0.00     0.074 A 
ATOM     46  C   UNL     1     -12.495   1.634  -9.252  1.00  0.00     0.031 C 
ATOM     47  C   UNL     1     -12.286  -3.598  -4.763  1.00  0.00     0.029 A 
ATOM     48  C   UNL     1     -13.221  -2.523  -4.446  1.00  0.00     0.049 A 
ATOM     49  H   UNL     1     -13.625  -0.819  -5.572  1.00  0.00     0.167 HD
ATOM     50  C   UNL     1     -14.266   2.787  -7.957  1.00  0.00     0.037 A 
ATOM     51  C   UNL     1     -13.991  -2.463  -3.343  1.00  0.00     0.037 A 
ATOM     52  C   UNL     1     -15.200   2.886  -6.865  1.00  0.00     0.049 A 
ATOM     53  C   UNL     1     -14.925  -1.298  -3.163  1.00  0.00     0.074 A 
ATOM     54  C   UNL     1     -16.146   3.868  -6.628  1.00  0.00     0.029 A 
ATOM     55  N   UNL     1     -15.301   1.974  -5.826  1.00  0.00    -0.354 N 
ATOM     56  N   UNL     1     -15.115  -0.262  -3.943  1.00  0.00    -0.248 NA
ATOM     57  C   UNL     1     -15.759  -1.299  -1.953  1.00  0.00     0.031 C 
ATOM     58  C   UNL     1     -16.784   3.578  -5.417  1.00  0.00     0.029 A 
ATOM     59  C   UNL     1     -16.275   2.385  -4.930  1.00  0.00     0.049 A 
ATOM     60  H   UNL     1     -14.761   1.156  -5.737  1.00  0.00     0.167 HD
ATOM     61  C   UNL     1     -16.108   0.496  -3.335  1.00  0.00     0.074 A 
ATOM     62  C   UNL     1     -16.493  -0.210  -2.131  1.00  0.00     0.031 C 
ATOM     63  C   UNL     1     -16.650   1.672  -3.736  1.00  0.00     0.037 A 
BRANCH  50  64
ATOM     64  C   UNL     1     -14.226   3.906  -8.958  1.00  0.00     0.057 A 
ATOM     65  C   UNL     1     -14.689   3.744 -10.271  1.00  0.00     0.134 A 
ATOM     66  C   UNL     1     -13.764   5.177  -8.591  1.00  0.00     0.134 A 
ATOM     67  F   UNL     1     -15.135   2.550 -10.692  1.00  0.00    -0.206 F 
ATOM     68  C   UNL     1     -14.673   4.797 -11.187  1.00  0.00     0.040 A 
ATOM     69  C   UNL     1     -13.770   6.245  -9.490  1.00  0.00     0.040 A 
ATOM     70  F   UNL     1     -13.312   5.406  -7.349  1.00  0.00    -0.206 F 
ATOM     71  C   UNL     1     -14.221   6.055 -10.795  1.00  0.00     0.006 A 
ENDBRANCH  50  64
BRANCH  51  72
ATOM     72  C   UNL     1     -13.926  -3.546  -2.328  1.00  0.00     0.057 A 
ATOM     73  C   UNL     1     -15.004  -4.416  -2.126  1.00  0.00     0.134 A 
ATOM     74  C   UNL     1     -12.794  -3.726  -1.525  1.00  0.00     0.134 A 
ATOM     75  F   UNL     1     -16.125  -4.282  -2.851  1.00  0.00    -0.206 F 
ATOM     76  C   UNL     1     -14.969  -5.409  -1.145  1.00  0.00     0.040 A 
ATOM     77  C   UNL     1     -12.734  -4.733  -0.561  1.00  0.00     0.040 A 
ATOM     78  F   UNL     1     -11.724  -2.931  -1.674  1.00  0.00    -0.206 F 
ATOM     79  C   UNL     1     -13.828  -5.572  -0.362  1.00  0.00     0.006 A 
ENDBRANCH  51  72
BRANCH  63  80
ATOM     80  C   UNL     1     -17.742   2.249  -2.882  1.00  0.00     0.057 A 
ATOM     81  C   UNL     1     -17.486   2.789  -1.614  1.00  0.00     0.134 A 
ATOM     82  C   UNL     1     -19.064   2.288  -3.345  1.00  0.00     0.134 A 
ATOM     83  F   UNL     1     -16.245   2.772  -1.106  1.00  0.00    -0.206 F 
ATOM     84  C   UNL     1     -18.510   3.317  -0.826  1.00  0.00     0.040 A 
ATOM     85  C   UNL     1     -20.090   2.842  -2.579  1.00  0.00     0.040 A 
ATOM     86  F   UNL     1     -19.377   1.799  -4.554  1.00  0.00    -0.206 F 
ATOM     87  C   UNL     1     -19.816   3.350  -1.312  1.00  0.00     0.006 A 
ENDBRANCH  63  80
ENDBRANCH  37  38
ENDBRANCH  29  32
ENDBRANCH  27  28
ENDBRANCH  26  27
ENDBRANCH  25  26
ENDBRANCH  24  25
ENDBRANCH   1  24
TORSDOF 18
