REMARK SMILES CC1=C([C@H](NC(=O)c2cccc3ccccc23)C(=O)NCCCCCCNC(=O)c2ccc(-c3c4nc(c(-c5c(F)cccc5F)c5ccc([nH]5)c(-c5c(F)cccc5F)c5nc(c(-c6c(F)cccc6F)c6ccc3[nH]6)C=C5)C=C4)cc2)[C@H](C)N=N1
REMARK SMILES IDX 23 1 22 2 21 3 20 4 18 5 19 6 4 8 3 9 1 10 2 11 87 12 84 13
REMARK SMILES IDX 86 14 85 15 5 16 6 17 7 19 8 20 9 21 17 22 10 23 12 24 16 25
REMARK SMILES IDX 11 26 13 27 15 28 14 29 24 30 25 31 26 32 27 33 28 34 29 36
REMARK SMILES IDX 30 37 31 38 83 39 32 40 82 41 33 42 34 43 35 44 76 45 36 46
REMARK SMILES IDX 81 47 75 48 77 49 37 50 80 51 74 52 73 53 38 55 64 56 47 57
REMARK SMILES IDX 63 58 48 59 51 60 62 61 78 62 49 63 50 64 61 66 79 67 52 68
REMARK SMILES IDX 39 69 40 70 45 71 41 72 42 73 44 74 46 75 43 76 65 77 66 78
REMARK SMILES IDX 71 79 67 80 68 81 70 82 72 83 69 84 53 85 54 86 59 87 55 88
REMARK SMILES IDX 56 89 58 90 60 91 57 92
REMARK H PARENT 20 7 5 18 27 35 77 54 51 65
REMARK Flexibility Score: inf
ROOT
ATOM      1  C   UNL     1       1.321   7.111   2.700  1.00  0.00     0.002 C 
ENDROOT
BRANCH   1   2
ATOM      2  C   UNL     1       0.736   6.065   1.748  1.00  0.00     0.021 C 
BRANCH   2   3
ATOM      3  C   UNL     1       1.685   5.628   0.644  1.00  0.00     0.116 C 
BRANCH   3   4
ATOM      4  N   UNL     1       2.965   5.140   1.126  1.00  0.00    -0.354 N 
ATOM      5  C   UNL     1       3.660   4.012   0.778  1.00  0.00     0.247 C 
ATOM      6  O   UNL     1       4.848   3.945   1.104  1.00  0.00    -0.272 OA
ATOM      7  H   UNL     1       3.400   5.706   1.805  1.00  0.00     0.163 HD
BRANCH   5   8
ATOM      8  C   UNL     1       3.012   2.940  -0.106  1.00  0.00     0.202 C 
BRANCH   8   9
ATOM      9  C   UNL     1       3.212   3.352  -1.559  1.00  0.00     0.011 C 
ATOM     10  C   UNL     1       3.752   5.905  -1.797  1.00  0.00     0.069 C 
ATOM     11  C   UNL     1       3.463   4.501  -2.225  1.00  0.00     0.064 C 
ATOM     12  N   UNL     1       3.532   4.313  -3.587  1.00  0.00    -0.160 NA
ATOM     13  C   UNL     1       3.372   2.303  -2.620  1.00  0.00     0.156 C 
ATOM     14  N   UNL     1       3.426   3.098  -3.871  1.00  0.00    -0.181 NA
ATOM     15  C   UNL     1       4.709   1.571  -2.508  1.00  0.00     0.040 C 
ENDBRANCH   8   9
BRANCH   8  16
ATOM     16  N   UNL     1       1.581   2.704   0.179  1.00  0.00    -0.337 N 
ATOM     17  C   UNL     1       0.903   2.241   1.300  1.00  0.00     0.252 C 
ATOM     18  H   UNL     1       0.989   2.919  -0.577  1.00  0.00     0.165 HD
ATOM     19  O   UNL     1      -0.319   2.128   1.203  1.00  0.00    -0.269 OA
BRANCH  17  20
ATOM     20  C   UNL     1       1.571   1.916   2.605  1.00  0.00     0.047 A 
ATOM     21  C   UNL     1       2.381   2.878   3.209  1.00  0.00     0.014 A 
ATOM     22  C   UNL     1       1.291   0.738   3.351  1.00  0.00    -0.006 A 
ATOM     23  C   UNL     1       3.166   2.607   4.322  1.00  0.00     0.001 A 
ATOM     24  C   UNL     1       2.066   0.480   4.521  1.00  0.00    -0.018 A 
ATOM     25  C   UNL     1       0.250  -0.177   3.063  1.00  0.00     0.009 A 
ATOM     26  C   UNL     1       3.048   1.380   4.942  1.00  0.00     0.009 A 
ATOM     27  C   UNL     1       1.820  -0.650   5.311  1.00  0.00     0.009 A 
ATOM     28  C   UNL     1      -0.028  -1.261   3.902  1.00  0.00     0.001 A 
ATOM     29  C   UNL     1       0.764  -1.504   5.018  1.00  0.00     0.001 A 
ENDBRANCH  17  20
ENDBRANCH   8  16
ENDBRANCH   5   8
ENDBRANCH   3   4
ENDBRANCH   2   3
ENDBRANCH   1   2
BRANCH   1  30
ATOM     30  C   UNL     1       2.133   8.253   2.063  1.00  0.00     0.002 C 
BRANCH  30  31
ATOM     31  C   UNL     1       1.494   9.027   0.900  1.00  0.00     0.021 C 
BRANCH  31  32
ATOM     32  C   UNL     1       0.166   9.666   1.238  1.00  0.00     0.116 C 
BRANCH  32  33
ATOM     33  N   UNL     1       0.293  10.704   2.252  1.00  0.00    -0.352 N 
ATOM     34  C   UNL     1      -0.716  11.469   2.806  1.00  0.00     0.251 C 
ATOM     35  H   UNL     1       1.204  10.882   2.581  1.00  0.00     0.163 HD
ATOM     36  O   UNL     1      -0.480  12.538   3.340  1.00  0.00    -0.269 OA
BRANCH  34  37
ATOM     37  C   UNL     1      -2.092  10.948   2.736  1.00  0.00     0.039 A 
ATOM     38  C   UNL     1      -3.172  11.781   2.442  1.00  0.00     0.014 A 
ATOM     39  C   UNL     1      -2.276   9.582   2.931  1.00  0.00     0.014 A 
ATOM     40  C   UNL     1      -4.430  11.206   2.280  1.00  0.00     0.010 A 
ATOM     41  C   UNL     1      -3.465   9.000   2.586  1.00  0.00     0.010 A 
ATOM     42  C   UNL     1      -4.564   9.807   2.334  1.00  0.00    -0.014 A 
BRANCH  42  43
ATOM     43  C   UNL     1      -5.827   9.157   2.003  1.00  0.00     0.031 A 
ATOM     44  C   UNL     1      -6.385   9.572   0.688  1.00  0.00     0.074 A 
ATOM     45  C   UNL     1      -6.332   8.120   2.710  1.00  0.00     0.049 A 
ATOM     46  N   UNL     1      -7.463  10.248   0.469  1.00  0.00    -0.248 NA
ATOM     47  C   UNL     1      -5.569   9.349  -0.520  1.00  0.00     0.031 C 
ATOM     48  C   UNL     1      -5.734   7.400   3.842  1.00  0.00     0.029 A 
ATOM     49  N   UNL     1      -7.478   7.417   2.497  1.00  0.00    -0.354 N 
ATOM     50  C   UNL     1      -7.582  10.338  -0.914  1.00  0.00     0.074 A 
ATOM     51  C   UNL     1      -6.308   9.944  -1.458  1.00  0.00     0.031 C 
ATOM     52  C   UNL     1      -6.395   6.239   4.051  1.00  0.00     0.029 A 
ATOM     53  C   UNL     1      -7.568   6.216   3.200  1.00  0.00     0.049 A 
ATOM     54  H   UNL     1      -8.189   7.731   1.893  1.00  0.00     0.167 HD
ATOM     55  C   UNL     1      -8.803  10.471  -1.501  1.00  0.00     0.037 A 
ATOM     56  C   UNL     1      -8.537   5.273   3.071  1.00  0.00     0.037 A 
ATOM     57  C   UNL     1      -9.789  10.925  -0.550  1.00  0.00     0.049 A 
ATOM     58  C   UNL     1      -9.694   5.923   2.411  1.00  0.00     0.074 A 
ATOM     59  C   UNL     1      -9.909  12.034   0.266  1.00  0.00     0.029 A 
ATOM     60  N   UNL     1     -10.649   9.990  -0.027  1.00  0.00    -0.354 N 
ATOM     61  N   UNL     1     -10.430   6.837   2.977  1.00  0.00    -0.248 NA
ATOM     62  C   UNL     1      -9.732   5.894   0.958  1.00  0.00     0.031 C 
ATOM     63  C   UNL     1     -10.426  11.530   1.498  1.00  0.00     0.029 A 
ATOM     64  C   UNL     1     -10.674  10.168   1.333  1.00  0.00     0.049 A 
ATOM     65  H   UNL     1     -11.155   9.316  -0.536  1.00  0.00     0.167 HD
ATOM     66  C   UNL     1     -10.654   7.770   1.977  1.00  0.00     0.074 A 
ATOM     67  C   UNL     1     -10.262   7.100   0.737  1.00  0.00     0.031 C 
ATOM     68  C   UNL     1     -10.850   9.088   2.276  1.00  0.00     0.037 A 
BRANCH  55  69
ATOM     69  C   UNL     1      -9.179   9.817  -2.808  1.00  0.00     0.057 A 
ATOM     70  C   UNL     1     -10.410  10.134  -3.408  1.00  0.00     0.134 A 
ATOM     71  C   UNL     1      -8.525   8.689  -3.346  1.00  0.00     0.134 A 
ATOM     72  F   UNL     1     -11.143  11.168  -2.970  1.00  0.00    -0.206 F 
ATOM     73  C   UNL     1     -10.975   9.349  -4.422  1.00  0.00     0.040 A 
ATOM     74  C   UNL     1      -9.055   7.930  -4.392  1.00  0.00     0.040 A 
ATOM     75  F   UNL     1      -7.396   8.195  -2.825  1.00  0.00    -0.206 F 
ATOM     76  C   UNL     1     -10.298   8.240  -4.914  1.00  0.00     0.006 A 
ENDBRANCH  55  69
BRANCH  56  77
ATOM     77  C   UNL     1      -8.453   3.798   3.186  1.00  0.00     0.057 A 
ATOM     78  C   UNL     1      -9.616   3.018   3.292  1.00  0.00     0.134 A 
ATOM     79  C   UNL     1      -7.273   3.105   2.869  1.00  0.00     0.134 A 
ATOM     80  F   UNL     1     -10.798   3.591   3.558  1.00  0.00    -0.206 F 
ATOM     81  C   UNL     1      -9.615   1.637   3.049  1.00  0.00     0.040 A 
ATOM     82  C   UNL     1      -7.258   1.726   2.627  1.00  0.00     0.040 A 
ATOM     83  F   UNL     1      -6.118   3.760   2.685  1.00  0.00    -0.206 F 
ATOM     84  C   UNL     1      -8.435   0.990   2.697  1.00  0.00     0.006 A 
ENDBRANCH  56  77
BRANCH  68  85
ATOM     85  C   UNL     1     -11.058   9.455   3.724  1.00  0.00     0.057 A 
ATOM     86  C   UNL     1     -10.123   9.233   4.749  1.00  0.00     0.134 A 
ATOM     87  C   UNL     1     -12.212  10.164   4.074  1.00  0.00     0.134 A 
ATOM     88  F   UNL     1      -8.942   8.655   4.502  1.00  0.00    -0.206 F 
ATOM     89  C   UNL     1     -10.355   9.645   6.067  1.00  0.00     0.040 A 
ATOM     90  C   UNL     1     -12.439  10.613   5.377  1.00  0.00     0.040 A 
ATOM     91  F   UNL     1     -13.128  10.465   3.140  1.00  0.00    -0.206 F 
ATOM     92  C   UNL     1     -11.517  10.341   6.383  1.00  0.00     0.006 A 
ENDBRANCH  68  85
ENDBRANCH  42  43
ENDBRANCH  34  37
ENDBRANCH  32  33
ENDBRANCH  31  32
ENDBRANCH  30  31
ENDBRANCH   1  30
TORSDOF 16
