REMARK SMILES C[NH2+]CCC(=O)N1CC[C@@H](C(=O)NCCCCCCNC(=O)c2ccc(-c3c4nc(c(-c5c(F)cccc5F)c5ccc([nH]5)c(-c5c(F)cccc5F)c5nc(c(-c6c(F)cccc6F)c6ccc3[nH]6)C=C5)C=C4)cc2)[C@@H]1C
REMARK SMILES IDX 15 1 14 2 13 3 11 4 12 5 10 7 7 8 8 9 77 10 9 11 78 12 5 13
REMARK SMILES IDX 6 14 4 15 3 16 2 17 1 18 16 21 17 22 18 23 19 24 20 25 21 26
REMARK SMILES IDX 22 28 23 29 24 30 76 31 25 32 75 33 26 34 27 35 28 36 69 37
REMARK SMILES IDX 29 38 74 39 68 40 70 41 30 42 73 43 67 44 66 45 31 47 57 48
REMARK SMILES IDX 40 49 56 50 41 51 44 52 55 53 71 54 42 55 43 56 54 58 72 59
REMARK SMILES IDX 45 60 32 61 33 62 38 63 34 64 35 65 37 66 39 67 36 68 58 69
REMARK SMILES IDX 59 70 64 71 60 72 61 73 63 74 65 75 62 76 46 77 47 78 52 79
REMARK SMILES IDX 48 80 49 81 51 82 53 83 50 84
REMARK H PARENT 13 6 2 19 2 20 20 27 70 46 44 57
REMARK Flexibility Score: inf
ROOT
ATOM      1  C   UNL     1       1.849  -1.072   1.372  1.00  0.00     0.021 C 
ENDROOT
BRANCH   1   2
ATOM      2  C   UNL     1       2.347   0.239   1.976  1.00  0.00     0.116 C 
BRANCH   2   3
ATOM      3  N   UNL     1       3.537   0.705   1.291  1.00  0.00    -0.356 N 
ATOM      4  C   UNL     1       3.815   1.879   0.668  1.00  0.00     0.225 C 
ATOM      5  O   UNL     1       4.906   1.962   0.095  1.00  0.00    -0.275 OA
ATOM      6  H   UNL     1       4.276   0.054   1.275  1.00  0.00     0.163 HD
BRANCH   4   7
ATOM      7  C   UNL     1       2.857   3.059   0.633  1.00  0.00     0.102 C 
ATOM      8  N   UNL     1       0.487   3.186   0.772  1.00  0.00    -0.339 N 
ATOM      9  C   UNL     1       1.003   4.092   1.776  1.00  0.00     0.120 C 
ATOM     10  C   UNL     1       1.555   2.777  -0.138  1.00  0.00     0.094 C 
ATOM     11  C   UNL     1       2.429   3.607   1.999  1.00  0.00     0.037 C 
ATOM     12  C   UNL     1       1.508   3.644  -1.406  1.00  0.00     0.032 C 
BRANCH   8  13
ATOM     13  C   UNL     1      -0.863   2.929   0.673  1.00  0.00     0.228 C 
ATOM     14  O   UNL     1      -1.701   3.697   1.150  1.00  0.00    -0.275 OA
BRANCH  13  15
ATOM     15  C   UNL     1      -1.288   1.571   0.139  1.00  0.00     0.161 C 
BRANCH  15  16
ATOM     16  C   UNL     1      -1.622   1.469  -1.349  1.00  0.00     0.270 C 
BRANCH  16  17
ATOM     17  N   UNL     1      -0.573   0.995  -2.258  1.00  0.00    -0.348 N 
ATOM     18  C   UNL     1      -0.040  -0.319  -1.947  1.00  0.00     0.330 C 
ATOM     19  H   UNL     1      -0.962   0.964  -3.200  1.00  0.00     0.346 HD
ATOM     20  H   UNL     1       0.204   1.648  -2.161  1.00  0.00     0.346 HD
ENDBRANCH  16  17
ENDBRANCH  15  16
ENDBRANCH  13  15
ENDBRANCH   8  13
ENDBRANCH   4   7
ENDBRANCH   2   3
ENDBRANCH   1   2
BRANCH   1  21
ATOM     21  C   UNL     1       2.562  -2.336   1.858  1.00  0.00     0.002 C 
BRANCH  21  22
ATOM     22  C   UNL     1       2.407  -2.662   3.345  1.00  0.00     0.002 C 
BRANCH  22  23
ATOM     23  C   UNL     1       0.976  -2.667   3.888  1.00  0.00     0.021 C 
BRANCH  23  24
ATOM     24  C   UNL     1      -0.025  -3.527   3.119  1.00  0.00     0.116 C 
BRANCH  24  25
ATOM     25  N   UNL     1       0.345  -4.932   3.086  1.00  0.00    -0.352 N 
ATOM     26  C   UNL     1      -0.309  -6.027   3.584  1.00  0.00     0.251 C 
ATOM     27  H   UNL     1       1.199  -5.126   2.636  1.00  0.00     0.163 HD
ATOM     28  O   UNL     1       0.251  -7.126   3.586  1.00  0.00    -0.269 OA
BRANCH  26  29
ATOM     29  C   UNL     1      -1.670  -5.905   4.145  1.00  0.00     0.039 A 
ATOM     30  C   UNL     1      -1.953  -6.530   5.364  1.00  0.00     0.014 A 
ATOM     31  C   UNL     1      -2.674  -5.204   3.471  1.00  0.00     0.014 A 
ATOM     32  C   UNL     1      -3.220  -6.398   5.937  1.00  0.00     0.010 A 
ATOM     33  C   UNL     1      -3.918  -5.019   4.075  1.00  0.00     0.010 A 
ATOM     34  C   UNL     1      -4.203  -5.613   5.314  1.00  0.00    -0.014 A 
BRANCH  34  35
ATOM     35  C   UNL     1      -5.530  -5.400   5.949  1.00  0.00     0.031 A 
ATOM     36  C   UNL     1      -6.779  -5.924   5.295  1.00  0.00     0.074 A 
ATOM     37  C   UNL     1      -5.616  -4.677   7.083  1.00  0.00     0.049 A 
ATOM     38  N   UNL     1      -8.028  -5.774   5.661  1.00  0.00    -0.248 NA
ATOM     39  C   UNL     1      -6.607  -6.696   4.054  1.00  0.00     0.031 C 
ATOM     40  C   UNL     1      -4.486  -4.069   7.789  1.00  0.00     0.029 A 
ATOM     41  N   UNL     1      -6.707  -4.315   7.834  1.00  0.00    -0.354 N 
ATOM     42  C   UNL     1      -8.787  -6.412   4.688  1.00  0.00     0.074 A 
ATOM     43  C   UNL     1      -7.864  -6.919   3.696  1.00  0.00     0.031 C 
ATOM     44  C   UNL     1      -4.941  -3.420   8.873  1.00  0.00     0.029 A 
ATOM     45  C   UNL     1      -6.395  -3.536   8.922  1.00  0.00     0.049 A 
ATOM     46  H   UNL     1      -7.627  -4.589   7.614  1.00  0.00     0.167 HD
ATOM     47  C   UNL     1     -10.130  -6.575   4.636  1.00  0.00     0.037 A 
ATOM     48  C   UNL     1      -7.191  -2.968   9.848  1.00  0.00     0.037 A 
ATOM     49  C   UNL     1     -11.045  -6.109   5.644  1.00  0.00     0.049 A 
ATOM     50  C   UNL     1      -8.678  -3.185   9.776  1.00  0.00     0.074 A 
ATOM     51  C   UNL     1     -12.414  -6.301   5.719  1.00  0.00     0.029 A 
ATOM     52  N   UNL     1     -10.685  -5.358   6.752  1.00  0.00    -0.354 N 
ATOM     53  N   UNL     1      -9.372  -3.862   8.894  1.00  0.00    -0.248 NA
ATOM     54  C   UNL     1      -9.491  -2.566  10.832  1.00  0.00     0.031 C 
ATOM     55  C   UNL     1     -12.889  -5.632   6.851  1.00  0.00     0.029 A 
ATOM     56  C   UNL     1     -11.810  -5.060   7.504  1.00  0.00     0.049 A 
ATOM     57  H   UNL     1      -9.767  -5.077   6.971  1.00  0.00     0.167 HD
ATOM     58  C   UNL     1     -10.696  -3.775   9.304  1.00  0.00     0.074 A 
ATOM     59  C   UNL     1     -10.707  -2.992  10.522  1.00  0.00     0.031 C 
ATOM     60  C   UNL     1     -11.804  -4.294   8.723  1.00  0.00     0.037 A 
BRANCH  47  61
ATOM     61  C   UNL     1     -10.703  -7.300   3.454  1.00  0.00     0.057 A 
ATOM     62  C   UNL     1     -10.568  -8.685   3.301  1.00  0.00     0.134 A 
ATOM     63  C   UNL     1     -11.462  -6.614   2.497  1.00  0.00     0.134 A 
ATOM     64  F   UNL     1      -9.846  -9.399   4.178  1.00  0.00    -0.206 F 
ATOM     65  C   UNL     1     -11.157  -9.361   2.231  1.00  0.00     0.040 A 
ATOM     66  C   UNL     1     -12.075  -7.282   1.436  1.00  0.00     0.040 A 
ATOM     67  F   UNL     1     -11.636  -5.287   2.589  1.00  0.00    -0.206 F 
ATOM     68  C   UNL     1     -11.921  -8.660   1.300  1.00  0.00     0.006 A 
ENDBRANCH  47  61
BRANCH  48  69
ATOM     69  C   UNL     1      -6.605  -2.141  10.934  1.00  0.00     0.057 A 
ATOM     70  C   UNL     1      -6.614  -2.580  12.263  1.00  0.00     0.134 A 
ATOM     71  C   UNL     1      -6.056  -0.880  10.675  1.00  0.00     0.134 A 
ATOM     72  F   UNL     1      -7.145  -3.771  12.577  1.00  0.00    -0.206 F 
ATOM     73  C   UNL     1      -6.124  -1.783  13.300  1.00  0.00     0.040 A 
ATOM     74  C   UNL     1      -5.539  -0.084  11.697  1.00  0.00     0.040 A 
ATOM     75  F   UNL     1      -6.010  -0.406   9.421  1.00  0.00    -0.206 F 
ATOM     76  C   UNL     1      -5.582  -0.531  13.017  1.00  0.00     0.006 A 
ENDBRANCH  48  69
BRANCH  60  77
ATOM     77  C   UNL     1     -13.114  -4.067   9.415  1.00  0.00     0.057 A 
ATOM     78  C   UNL     1     -13.743  -2.816   9.416  1.00  0.00     0.134 A 
ATOM     79  C   UNL     1     -13.773  -5.125  10.056  1.00  0.00     0.134 A 
ATOM     80  F   UNL     1     -13.158  -1.761   8.830  1.00  0.00    -0.206 F 
ATOM     81  C   UNL     1     -14.972  -2.620  10.048  1.00  0.00     0.040 A 
ATOM     82  C   UNL     1     -15.013  -4.946  10.670  1.00  0.00     0.040 A 
ATOM     83  F   UNL     1     -13.227  -6.350  10.085  1.00  0.00    -0.206 F 
ATOM     84  C   UNL     1     -15.613  -3.689  10.672  1.00  0.00     0.006 A 
ENDBRANCH  60  77
ENDBRANCH  34  35
ENDBRANCH  26  29
ENDBRANCH  24  25
ENDBRANCH  23  24
ENDBRANCH  22  23
ENDBRANCH  21  22
ENDBRANCH   1  21
TORSDOF 17
