REMARK SMILES CC(C)[C@@H]1C(=O)Nc2ccccc2N1C(=O)N[C@H](Cc1ccccc1)C(=O)NCCCCCCNC(=O)c1ccc(-c2c3nc(c(-c4c(F)cccc4F)c4ccc([nH]4)c(-c4c(F)cccc4F)c4nc(c(-c5c(F)cccc5F)c5ccc2[nH]5)C=C4)C=C3)cc1
REMARK SMILES IDX 31 1 30 2 29 3 28 4 26 5 27 6 18 8 17 9 15 10 16 11 14 13
REMARK SMILES IDX 4 14 5 15 6 16 7 17 13 18 8 19 12 21 9 22 11 23 10 24 2 25
REMARK SMILES IDX 1 26 3 27 19 28 20 29 21 30 25 31 22 32 24 33 23 34 32 35
REMARK SMILES IDX 33 36 34 37 35 38 36 39 37 41 38 42 39 43 91 44 40 45 90 46
REMARK SMILES IDX 41 47 42 48 43 49 84 50 44 51 89 52 83 53 85 54 45 55 88 56
REMARK SMILES IDX 82 57 81 58 46 60 72 61 55 62 71 63 56 64 59 65 70 66 86 67
REMARK SMILES IDX 57 68 58 69 69 71 87 72 60 73 47 74 48 75 53 76 49 77 50 78
REMARK SMILES IDX 52 79 54 80 51 81 73 82 74 83 79 84 75 85 76 86 78 87 80 88
REMARK SMILES IDX 77 89 61 90 62 91 67 92 63 93 64 94 66 95 68 96 65 97
REMARK H PARENT 28 7 17 12 7 20 35 40 85 59 59 70
REMARK Flexibility Score: inf
ROOT
ATOM      1  C   UNL     1       5.151   5.897   1.407  1.00  0.00     0.002 C 
ENDROOT
BRANCH   1   2
ATOM      2  C   UNL     1       5.365   4.495   0.806  1.00  0.00     0.021 C 
BRANCH   2   3
ATOM      3  C   UNL     1       4.385   3.346   1.164  1.00  0.00     0.116 C 
BRANCH   3   4
ATOM      4  N   UNL     1       2.973   3.697   1.270  1.00  0.00    -0.354 N 
ATOM      5  C   UNL     1       1.851   2.929   1.092  1.00  0.00     0.242 C 
ATOM      6  O   UNL     1       0.978   3.077   1.960  1.00  0.00    -0.273 OA
ATOM      7  H   UNL     1       2.796   4.636   1.508  1.00  0.00     0.163 HD
BRANCH   5   8
ATOM      8  C   UNL     1       1.530   2.019  -0.148  1.00  0.00     0.177 C 
BRANCH   8   9
ATOM      9  N   UNL     1       2.599   1.801  -1.153  1.00  0.00    -0.326 N 
ATOM     10  C   UNL     1       3.377   2.369  -2.083  1.00  0.00     0.323 C 
ATOM     11  O   UNL     1       3.853   1.493  -2.827  1.00  0.00    -0.248 OA
ATOM     12  H   UNL     1       2.832   0.845  -1.125  1.00  0.00     0.166 HD
BRANCH  10  13
ATOM     13  N   UNL     1       3.757   3.684  -2.217  1.00  0.00    -0.280 N 
ATOM     14  C   UNL     1       3.062   4.998  -1.879  1.00  0.00     0.184 C 
ATOM     15  C   UNL     1       3.546   6.254  -2.630  1.00  0.00     0.247 C 
ATOM     16  O   UNL     1       3.002   7.360  -2.546  1.00  0.00    -0.272 OA
ATOM     17  N   UNL     1       4.710   6.186  -3.311  1.00  0.00    -0.322 N 
ATOM     18  C   UNL     1       5.151   3.891  -2.650  1.00  0.00     0.070 A 
ATOM     19  C   UNL     1       5.569   5.104  -3.211  1.00  0.00     0.065 A 
ATOM     20  H   UNL     1       4.958   6.934  -3.900  1.00  0.00     0.170 HD
ATOM     21  C   UNL     1       6.161   2.942  -2.387  1.00  0.00     0.028 A 
ATOM     22  C   UNL     1       6.903   5.342  -3.567  1.00  0.00     0.028 A 
ATOM     23  C   UNL     1       7.509   3.205  -2.666  1.00  0.00     0.002 A 
ATOM     24  C   UNL     1       7.878   4.401  -3.267  1.00  0.00     0.002 A 
BRANCH  14  25
ATOM     25  C   UNL     1       1.542   5.011  -1.987  1.00  0.00     0.015 C 
ATOM     26  C   UNL     1       0.808   6.122  -1.226  1.00  0.00     0.010 C 
ATOM     27  C   UNL     1       0.996   4.797  -3.395  1.00  0.00     0.010 C 
ENDBRANCH  14  25
ENDBRANCH  10  13
ENDBRANCH   8   9
BRANCH   8  28
ATOM     28  C   UNL     1       0.190   2.467  -0.825  1.00  0.00     0.070 C 
BRANCH  28  29
ATOM     29  C   UNL     1      -1.172   1.944  -1.214  1.00  0.00    -0.045 A 
ATOM     30  C   UNL     1      -2.052   2.974  -1.657  1.00  0.00     0.004 A 
ATOM     31  C   UNL     1      -1.557   0.629  -1.431  1.00  0.00     0.004 A 
ATOM     32  C   UNL     1      -3.248   2.715  -2.314  1.00  0.00     0.000 A 
ATOM     33  C   UNL     1      -2.781   0.365  -2.080  1.00  0.00     0.000 A 
ATOM     34  C   UNL     1      -3.614   1.399  -2.530  1.00  0.00     0.000 A 
ENDBRANCH  28  29
ENDBRANCH   8  28
ENDBRANCH   5   8
ENDBRANCH   3   4
ENDBRANCH   2   3
ENDBRANCH   1   2
BRANCH   1  35
ATOM     35  C   UNL     1       6.319   6.888   1.122  1.00  0.00     0.002 C 
BRANCH  35  36
ATOM     36  C   UNL     1       6.609   7.192  -0.361  1.00  0.00     0.021 C 
BRANCH  36  37
ATOM     37  C   UNL     1       6.217   8.591  -0.857  1.00  0.00     0.116 C 
BRANCH  37  38
ATOM     38  N   UNL     1       7.187   9.605  -0.472  1.00  0.00    -0.352 N 
ATOM     39  C   UNL     1       8.229  10.195  -1.146  1.00  0.00     0.251 C 
ATOM     40  H   UNL     1       7.075   9.932   0.450  1.00  0.00     0.163 HD
ATOM     41  O   UNL     1       9.045  10.845  -0.492  1.00  0.00    -0.269 OA
BRANCH  39  42
ATOM     42  C   UNL     1       8.424  10.101  -2.620  1.00  0.00     0.039 A 
ATOM     43  C   UNL     1       9.741  10.098  -3.106  1.00  0.00     0.014 A 
ATOM     44  C   UNL     1       7.375  10.184  -3.539  1.00  0.00     0.014 A 
ATOM     45  C   UNL     1      10.004  10.167  -4.482  1.00  0.00     0.010 A 
ATOM     46  C   UNL     1       7.636  10.197  -4.920  1.00  0.00     0.010 A 
ATOM     47  C   UNL     1       8.954  10.209  -5.411  1.00  0.00    -0.014 A 
BRANCH  47  48
ATOM     48  C   UNL     1       9.229  10.311  -6.878  1.00  0.00     0.031 A 
ATOM     49  C   UNL     1       8.815  11.536  -7.659  1.00  0.00     0.074 A 
ATOM     50  C   UNL     1       9.839   9.299  -7.529  1.00  0.00     0.049 A 
ATOM     51  N   UNL     1       8.918  11.776  -8.944  1.00  0.00    -0.248 NA
ATOM     52  C   UNL     1       8.188  12.626  -6.898  1.00  0.00     0.031 C 
ATOM     53  C   UNL     1      10.288   8.049  -6.915  1.00  0.00     0.029 A 
ATOM     54  N   UNL     1      10.179   9.158  -8.854  1.00  0.00    -0.354 N 
ATOM     55  C   UNL     1       8.351  13.030  -9.147  1.00  0.00     0.074 A 
ATOM     56  C   UNL     1       7.871  13.483  -7.859  1.00  0.00     0.031 C 
ATOM     57  C   UNL     1      10.854   7.276  -7.856  1.00  0.00     0.029 A 
ATOM     58  C   UNL     1      10.776   7.955  -9.147  1.00  0.00     0.049 A 
ATOM     59  H   UNL     1      10.010   9.854  -9.530  1.00  0.00     0.167 HD
ATOM     60  C   UNL     1       8.251  13.748 -10.294  1.00  0.00     0.037 A 
ATOM     61  C   UNL     1      11.202   7.444 -10.320  1.00  0.00     0.037 A 
ATOM     62  C   UNL     1       8.755  13.322 -11.575  1.00  0.00     0.049 A 
ATOM     63  C   UNL     1      11.065   8.252 -11.582  1.00  0.00     0.074 A 
ATOM     64  C   UNL     1       8.750  14.012 -12.776  1.00  0.00     0.029 A 
ATOM     65  N   UNL     1       9.353  12.097 -11.824  1.00  0.00    -0.354 N 
ATOM     66  N   UNL     1      10.570   9.455 -11.744  1.00  0.00    -0.248 NA
ATOM     67  C   UNL     1      11.551   7.632 -12.825  1.00  0.00     0.031 C 
ATOM     68  C   UNL     1       9.303  13.187 -13.761  1.00  0.00     0.029 A 
ATOM     69  C   UNL     1       9.698  12.002 -13.163  1.00  0.00     0.049 A 
ATOM     70  H   UNL     1       9.510  11.397 -11.149  1.00  0.00     0.167 HD
ATOM     71  C   UNL     1      10.709   9.745 -13.096  1.00  0.00     0.074 A 
ATOM     72  C   UNL     1      11.347   8.599 -13.709  1.00  0.00     0.031 C 
ATOM     73  C   UNL     1      10.340  10.863 -13.767  1.00  0.00     0.037 A 
BRANCH  60  74
ATOM     74  C   UNL     1       7.560  15.082 -10.223  1.00  0.00     0.057 A 
ATOM     75  C   UNL     1       8.144  16.186  -9.588  1.00  0.00     0.134 A 
ATOM     76  C   UNL     1       6.318  15.277 -10.842  1.00  0.00     0.134 A 
ATOM     77  F   UNL     1       9.329  16.067  -8.972  1.00  0.00    -0.206 F 
ATOM     78  C   UNL     1       7.505  17.427  -9.548  1.00  0.00     0.040 A 
ATOM     79  C   UNL     1       5.683  16.520 -10.832  1.00  0.00     0.040 A 
ATOM     80  F   UNL     1       5.708  14.267 -11.480  1.00  0.00    -0.206 F 
ATOM     81  C   UNL     1       6.274  17.598 -10.177  1.00  0.00     0.006 A 
ENDBRANCH  60  74
BRANCH  61  82
ATOM     82  C   UNL     1      11.809   6.088 -10.361  1.00  0.00     0.057 A 
ATOM     83  C   UNL     1      13.172   5.912 -10.623  1.00  0.00     0.134 A 
ATOM     84  C   UNL     1      11.039   4.938 -10.152  1.00  0.00     0.134 A 
ATOM     85  F   UNL     1      13.957   6.974 -10.855  1.00  0.00    -0.206 F 
ATOM     86  C   UNL     1      13.746   4.641 -10.690  1.00  0.00     0.040 A 
ATOM     87  C   UNL     1      11.604   3.662 -10.191  1.00  0.00     0.040 A 
ATOM     88  F   UNL     1       9.726   5.039  -9.894  1.00  0.00    -0.206 F 
ATOM     89  C   UNL     1      12.961   3.511 -10.468  1.00  0.00     0.006 A 
ENDBRANCH  61  82
BRANCH  73  90
ATOM     90  C   UNL     1      10.646  10.923 -15.236  1.00  0.00     0.057 A 
ATOM     91  C   UNL     1       9.935  10.163 -16.173  1.00  0.00     0.134 A 
ATOM     92  C   UNL     1      11.637  11.786 -15.723  1.00  0.00     0.134 A 
ATOM     93  F   UNL     1       8.982   9.308 -15.772  1.00  0.00    -0.206 F 
ATOM     94  C   UNL     1      10.211  10.245 -17.540  1.00  0.00     0.040 A 
ATOM     95  C   UNL     1      11.905  11.895 -17.089  1.00  0.00     0.040 A 
ATOM     96  F   UNL     1      12.351  12.548 -14.882  1.00  0.00    -0.206 F 
ATOM     97  C   UNL     1      11.194  11.118 -18.001  1.00  0.00     0.006 A 
ENDBRANCH  73  90
ENDBRANCH  47  48
ENDBRANCH  39  42
ENDBRANCH  37  38
ENDBRANCH  36  37
ENDBRANCH  35  36
ENDBRANCH   1  35
TORSDOF 18
