REMARK SMILES NS(=O)(=O)c1ccc(-c2cc(Cl)cc3c2O[C@H](C(F)(F)F)C(C(=O)NCCCCCCNC(=O)c2ccc(-c4c5nc(c(-c6c(F)cccc6F)c6ccc([nH]6)c(-c6c(F)cccc6F)c6nc(c(-c7c(F)cccc7F)c7ccc4[nH]7)C=C6)C=C5)cc2)=C3)cc1
REMARK SMILES IDX 28 1 27 2 26 3 25 4 23 5 24 6 22 8 9 9 10 10 15 11 11 12
REMARK SMILES IDX 14 13 16 14 12 15 13 16 89 17 17 18 8 19 5 20 6 21 91 22
REMARK SMILES IDX 7 23 90 24 2 25 3 26 4 27 1 28 18 31 19 32 20 33 21 34 29 35
REMARK SMILES IDX 30 36 31 37 32 38 33 39 34 41 35 42 36 43 88 44 37 45 87 46
REMARK SMILES IDX 38 47 39 48 40 49 81 50 41 51 86 52 80 53 82 54 42 55 85 56
REMARK SMILES IDX 79 57 78 58 43 60 69 61 52 62 68 63 53 64 56 65 67 66 83 67
REMARK SMILES IDX 54 68 55 69 66 71 84 72 57 73 44 74 45 75 50 76 46 77 47 78
REMARK SMILES IDX 49 79 51 80 48 81 70 82 71 83 76 84 72 85 73 86 75 87 77 88
REMARK SMILES IDX 74 89 58 90 59 91 64 92 60 93 61 94 63 95 65 96 62 97
REMARK H PARENT 25 7 1 29 1 30 32 40 82 59 56 70
REMARK Flexibility Score: inf
ROOT
ATOM      1  C   UNL     1       0.825  10.097  11.943  1.00  0.00     0.002 C 
ENDROOT
BRANCH   1   2
ATOM      2  C   UNL     1      -0.326   9.938  10.934  1.00  0.00     0.021 C 
BRANCH   2   3
ATOM      3  C   UNL     1       0.028  10.321   9.489  1.00  0.00     0.116 C 
BRANCH   3   4
ATOM      4  N   UNL     1       1.142   9.518   9.029  1.00  0.00    -0.352 N 
ATOM      5  C   UNL     1       1.101   8.632   8.003  1.00  0.00     0.251 C 
ATOM      6  O   UNL     1       1.536   7.497   8.157  1.00  0.00    -0.270 OA
ATOM      7  H   UNL     1       2.000   9.624   9.499  1.00  0.00     0.163 HD
BRANCH   5   8
ATOM      8  C   UNL     1       0.675   9.173   6.680  1.00  0.00     0.067 C 
ATOM      9  C   UNL     1       1.344   5.858   4.431  1.00  0.00     0.026 A 
ATOM     10  C   UNL     1       2.628   5.376   4.808  1.00  0.00     0.033 A 
ATOM     11  C   UNL     1       1.023   7.162   4.859  1.00  0.00     0.135 A 
ATOM     12  C   UNL     1       3.589   6.178   5.418  1.00  0.00     0.042 A 
ATOM     13  C   UNL     1       2.058   7.994   5.363  1.00  0.00     0.019 A 
ATOM     14  O   UNL     1      -0.273   7.672   4.882  1.00  0.00    -0.475 OA
ATOM     15  Cl  UNL     1       5.096   5.500   5.887  1.00  0.00    -0.084 Cl
ATOM     16  C   UNL     1       3.337   7.516   5.629  1.00  0.00     0.032 A 
ATOM     17  C   UNL     1       1.699   9.351   5.824  1.00  0.00     0.025 C 
ATOM     18  C   UNL     1      -0.563   8.531   6.077  1.00  0.00     0.314 C 
BRANCH   9  19
ATOM     19  C   UNL     1       0.622   4.979   3.463  1.00  0.00    -0.015 A 
ATOM     20  C   UNL     1       0.331   3.151   1.305  1.00  0.00     0.082 A 
ATOM     21  C   UNL     1       0.443   2.670   2.607  1.00  0.00     0.022 A 
ATOM     22  C   UNL     1       0.267   4.530   1.079  1.00  0.00     0.022 A 
ATOM     23  C   UNL     1       0.560   3.579   3.674  1.00  0.00     0.010 A 
ATOM     24  C   UNL     1       0.396   5.434   2.151  1.00  0.00     0.010 A 
BRANCH  20  25
ATOM     25  S   UNL     1       0.382   2.060  -0.093  1.00  0.00     0.238 S 
ATOM     26  O   UNL     1       1.285   2.610  -1.076  1.00  0.00    -0.207 OA
ATOM     27  O   UNL     1      -0.970   1.660  -0.411  1.00  0.00    -0.207 OA
BRANCH  25  28
ATOM     28  N   UNL     1       1.152   0.664   0.455  1.00  0.00    -0.225 NA
ATOM     29  H   UNL     1       1.215  -0.011  -0.306  1.00  0.00     0.137 HD
ATOM     30  H   UNL     1       0.617   0.261   1.224  1.00  0.00     0.137 HD
ENDBRANCH  25  28
ENDBRANCH  20  25
ENDBRANCH   9  19
BRANCH  18  31
ATOM     31  C   UNL     1      -1.562   9.672   5.768  1.00  0.00     0.429 C 
ATOM     32  F   UNL     1      -1.684   9.921   4.446  1.00  0.00    -0.167 F 
ATOM     33  F   UNL     1      -2.795   9.394   6.255  1.00  0.00    -0.167 F 
ATOM     34  F   UNL     1      -1.195  10.851   6.346  1.00  0.00    -0.167 F 
ENDBRANCH  18  31
ENDBRANCH   5   8
ENDBRANCH   3   4
ENDBRANCH   2   3
ENDBRANCH   1   2
BRANCH   1  35
ATOM     35  C   UNL     1       1.459  11.490  11.980  1.00  0.00     0.002 C 
BRANCH  35  36
ATOM     36  C   UNL     1       0.484  12.617  12.319  1.00  0.00     0.021 C 
BRANCH  36  37
ATOM     37  C   UNL     1      -0.273  12.420  13.627  1.00  0.00     0.116 C 
BRANCH  37  38
ATOM     38  N   UNL     1       0.614  12.351  14.777  1.00  0.00    -0.352 N 
ATOM     39  C   UNL     1       0.535  13.028  15.968  1.00  0.00     0.251 C 
ATOM     40  H   UNL     1       1.377  11.735  14.689  1.00  0.00     0.163 HD
ATOM     41  O   UNL     1       1.462  12.988  16.770  1.00  0.00    -0.269 OA
BRANCH  39  42
ATOM     42  C   UNL     1      -0.669  13.830  16.266  1.00  0.00     0.039 A 
ATOM     43  C   UNL     1      -0.511  15.123  16.768  1.00  0.00     0.014 A 
ATOM     44  C   UNL     1      -1.946  13.313  16.029  1.00  0.00     0.014 A 
ATOM     45  C   UNL     1      -1.636  15.920  16.978  1.00  0.00     0.010 A 
ATOM     46  C   UNL     1      -3.058  14.137  16.158  1.00  0.00     0.010 A 
ATOM     47  C   UNL     1      -2.915  15.447  16.641  1.00  0.00    -0.014 A 
BRANCH  47  48
ATOM     48  C   UNL     1      -4.113  16.311  16.784  1.00  0.00     0.031 A 
ATOM     49  C   UNL     1      -5.217  15.928  17.727  1.00  0.00     0.074 A 
ATOM     50  C   UNL     1      -4.237  17.406  16.010  1.00  0.00     0.049 A 
ATOM     51  N   UNL     1      -6.357  16.530  17.954  1.00  0.00    -0.248 NA
ATOM     52  C   UNL     1      -5.030  14.687  18.494  1.00  0.00     0.031 C 
ATOM     53  C   UNL     1      -3.263  17.848  15.010  1.00  0.00     0.029 A 
ATOM     54  N   UNL     1      -5.240  18.338  15.933  1.00  0.00    -0.354 N 
ATOM     55  C   UNL     1      -7.027  15.734  18.874  1.00  0.00     0.074 A 
ATOM     56  C   UNL     1      -6.193  14.576  19.115  1.00  0.00     0.031 C 
ATOM     57  C   UNL     1      -3.707  18.975  14.435  1.00  0.00     0.029 A 
ATOM     58  C   UNL     1      -5.013  19.313  14.994  1.00  0.00     0.049 A 
ATOM     59  H   UNL     1      -6.046  18.311  16.498  1.00  0.00     0.167 HD
ATOM     60  C   UNL     1      -8.218  15.958  19.479  1.00  0.00     0.037 A 
ATOM     61  C   UNL     1      -5.775  20.356  14.614  1.00  0.00     0.037 A 
ATOM     62  C   UNL     1      -9.037  17.118  19.240  1.00  0.00     0.049 A 
ATOM     63  C   UNL     1      -7.093  20.590  15.296  1.00  0.00     0.074 A 
ATOM     64  C   UNL     1     -10.222  17.479  19.857  1.00  0.00     0.029 A 
ATOM     65  N   UNL     1      -8.765  18.097  18.295  1.00  0.00    -0.354 N 
ATOM     66  N   UNL     1      -7.674  19.880  16.233  1.00  0.00    -0.248 NA
ATOM     67  C   UNL     1      -7.855  21.773  14.877  1.00  0.00     0.031 C 
ATOM     68  C   UNL     1     -10.700  18.639  19.238  1.00  0.00     0.029 A 
ATOM     69  C   UNL     1      -9.779  19.041  18.284  1.00  0.00     0.049 A 
ATOM     70  H   UNL     1      -7.968  18.118  17.717  1.00  0.00     0.167 HD
ATOM     71  C   UNL     1      -8.860  20.539  16.531  1.00  0.00     0.074 A 
ATOM     72  C   UNL     1      -8.905  21.715  15.685  1.00  0.00     0.031 C 
ATOM     73  C   UNL     1      -9.821  20.202  17.427  1.00  0.00     0.037 A 
BRANCH  60  74
ATOM     74  C   UNL     1      -8.708  14.910  20.440  1.00  0.00     0.057 A 
ATOM     75  C   UNL     1      -8.055  14.642  21.652  1.00  0.00     0.134 A 
ATOM     76  C   UNL     1      -9.848  14.151  20.145  1.00  0.00     0.134 A 
ATOM     77  F   UNL     1      -6.951  15.324  21.995  1.00  0.00    -0.206 F 
ATOM     78  C   UNL     1      -8.486  13.627  22.508  1.00  0.00     0.040 A 
ATOM     79  C   UNL     1     -10.311  13.158  21.011  1.00  0.00     0.040 A 
ATOM     80  F   UNL     1     -10.531  14.358  19.009  1.00  0.00    -0.206 F 
ATOM     81  C   UNL     1      -9.620  12.884  22.190  1.00  0.00     0.006 A 
ENDBRANCH  60  74
BRANCH  61  82
ATOM     82  C   UNL     1      -5.288  21.260  13.542  1.00  0.00     0.057 A 
ATOM     83  C   UNL     1      -4.856  22.559  13.828  1.00  0.00     0.134 A 
ATOM     84  C   UNL     1      -5.202  20.828  12.212  1.00  0.00     0.134 A 
ATOM     85  F   UNL     1      -4.929  23.035  15.079  1.00  0.00    -0.206 F 
ATOM     86  C   UNL     1      -4.360  23.400  12.830  1.00  0.00     0.040 A 
ATOM     87  C   UNL     1      -4.684  21.648  11.209  1.00  0.00     0.040 A 
ATOM     88  F   UNL     1      -5.589  19.589  11.876  1.00  0.00    -0.206 F 
ATOM     89  C   UNL     1      -4.264  22.940  11.517  1.00  0.00     0.006 A 
ENDBRANCH  61  82
BRANCH  73  90
ATOM     90  C   UNL     1     -10.998  21.127  17.555  1.00  0.00     0.057 A 
ATOM     91  C   UNL     1     -11.966  21.243  16.549  1.00  0.00     0.134 A 
ATOM     92  C   UNL     1     -11.187  21.882  18.720  1.00  0.00     0.134 A 
ATOM     93  F   UNL     1     -11.840  20.558  15.402  1.00  0.00    -0.206 F 
ATOM     94  C   UNL     1     -13.064  22.094  16.686  1.00  0.00     0.040 A 
ATOM     95  C   UNL     1     -12.297  22.712  18.883  1.00  0.00     0.040 A 
ATOM     96  F   UNL     1     -10.304  21.812  19.728  1.00  0.00    -0.206 F 
ATOM     97  C   UNL     1     -13.236  22.825  17.860  1.00  0.00     0.006 A 
ENDBRANCH  73  90
ENDBRANCH  47  48
ENDBRANCH  39  42
ENDBRANCH  37  38
ENDBRANCH  36  37
ENDBRANCH  35  36
ENDBRANCH   1  35
TORSDOF 17
