REMARK SMILES Cc1cc(Br)cc([N+](=O)[O-])c1OCCC[C@@](C)([NH3+])C(=O)NCCCCCCNC(=O)c1ccc(-c2c3nc(c(-c4c(F)cccc4F)c4ccc([nH]4)c(-c4c(F)cccc4F)c4nc(c(-c5c(F)cccc5F)c5ccc2[nH]5)C=C4)C=C3)cc1
REMARK SMILES IDX 22 1 21 2 19 3 20 4 16 6 17 7 15 8 14 9 13 10 12 11 11 12
REMARK SMILES IDX 1 13 2 14 3 15 4 16 7 17 5 18 6 19 8 20 9 21 10 22 18 23
REMARK SMILES IDX 23 27 24 28 25 29 26 30 27 31 28 32 29 33 30 35 31 36 32 37
REMARK SMILES IDX 84 38 33 39 83 40 34 41 35 42 36 43 77 44 37 45 82 46 76 47
REMARK SMILES IDX 78 48 38 49 81 50 75 51 74 52 39 54 65 55 48 56 64 57 49 58
REMARK SMILES IDX 52 59 63 60 79 61 50 62 51 63 62 65 80 66 53 67 40 68 41 69
REMARK SMILES IDX 46 70 42 71 43 72 45 73 47 74 44 75 66 76 67 77 72 78 68 79
REMARK SMILES IDX 69 80 71 81 73 82 70 83 54 84 55 85 60 86 56 87 57 88 59 89
REMARK SMILES IDX 61 90 58 91
REMARK H PARENT 21 5 18 24 18 25 18 26 28 34 78 53 52 64
REMARK Flexibility Score: inf
ROOT
ATOM      1  C   UNL     1      -3.084  -4.129   2.736  1.00  0.00     0.116 C 
ENDROOT
BRANCH   1   2
ATOM      2  N   UNL     1      -3.865  -2.954   2.404  1.00  0.00    -0.351 N 
ATOM      3  C   UNL     1      -4.585  -2.595   1.311  1.00  0.00     0.280 C 
ATOM      4  O   UNL     1      -5.442  -1.730   1.532  1.00  0.00    -0.268 OA
ATOM      5  H   UNL     1      -3.876  -2.277   3.118  1.00  0.00     0.163 HD
BRANCH   3   6
ATOM      6  C   UNL     1      -4.421  -3.204  -0.117  1.00  0.00     0.171 C 
ATOM      7  C   UNL     1      -5.602  -4.169  -0.297  1.00  0.00     0.090 C 
BRANCH   6   8
ATOM      8  C   UNL     1      -4.380  -2.138  -1.270  1.00  0.00     0.082 C 
BRANCH   8   9
ATOM      9  C   UNL     1      -5.095  -0.778  -1.115  1.00  0.00     0.049 C 
BRANCH   9  10
ATOM     10  C   UNL     1      -4.343   0.346  -0.354  1.00  0.00     0.230 C 
BRANCH  10  11
ATOM     11  O   UNL     1      -3.181   0.762  -1.094  1.00  0.00    -0.487 OA
BRANCH  11  12
ATOM     12  C   UNL     1      -2.065   1.145  -0.380  1.00  0.00     0.200 A 
ATOM     13  C   UNL     1      -1.489  -1.270   0.205  1.00  0.00     0.049 C 
ATOM     14  C   UNL     1      -1.138   0.161   0.015  1.00  0.00    -0.001 A 
ATOM     15  C   UNL     1       0.213   0.490   0.213  1.00  0.00     0.023 A 
ATOM     16  C   UNL     1       0.644   1.801   0.102  1.00  0.00     0.025 A 
ATOM     17  C   UNL     1      -1.628   2.482  -0.377  1.00  0.00     0.312 A 
ATOM     18  Br  UNL     1       2.482   2.189   0.290  1.00  0.00    -0.051 Br
ATOM     19  C   UNL     1      -0.276   2.811  -0.139  1.00  0.00     0.105 A 
BRANCH  17  20
ATOM     20  N   UNL     1      -2.564   3.594  -0.545  1.00  0.00     0.066 N 
ATOM     21  O   UNL     1      -2.097   4.676  -0.932  1.00  0.00    -0.258 OA
ATOM     22  O   UNL     1      -3.742   3.424  -0.208  1.00  0.00    -0.258 OA
ENDBRANCH  17  20
ENDBRANCH  11  12
ENDBRANCH  10  11
ENDBRANCH   9  10
ENDBRANCH   8   9
ENDBRANCH   6   8
BRANCH   6  23
ATOM     23  N   UNL     1      -3.215  -4.057  -0.268  1.00  0.00    -0.345 N 
ATOM     24  H   UNL     1      -3.172  -4.420  -1.221  1.00  0.00     0.345 HD
ATOM     25  H   UNL     1      -3.264  -4.835   0.389  1.00  0.00     0.345 HD
ATOM     26  H   UNL     1      -2.380  -3.503  -0.077  1.00  0.00     0.345 HD
ENDBRANCH   6  23
ENDBRANCH   3   6
ENDBRANCH   1   2
BRANCH   1  27
ATOM     27  C   UNL     1      -1.803  -3.768   3.493  1.00  0.00     0.021 C 
BRANCH  27  28
ATOM     28  C   UNL     1      -2.001  -2.988   4.800  1.00  0.00     0.002 C 
BRANCH  28  29
ATOM     29  C   UNL     1      -3.017  -3.577   5.784  1.00  0.00     0.002 C 
BRANCH  29  30
ATOM     30  C   UNL     1      -2.830  -5.057   6.115  1.00  0.00     0.021 C 
BRANCH  30  31
ATOM     31  C   UNL     1      -1.475  -5.411   6.711  1.00  0.00     0.116 C 
BRANCH  31  32
ATOM     32  N   UNL     1      -1.309  -4.883   8.053  1.00  0.00    -0.352 N 
ATOM     33  C   UNL     1      -1.003  -5.554   9.213  1.00  0.00     0.251 C 
ATOM     34  H   UNL     1      -1.433  -3.910   8.145  1.00  0.00     0.163 HD
ATOM     35  O   UNL     1      -1.087  -4.990  10.297  1.00  0.00    -0.269 OA
BRANCH  33  36
ATOM     36  C   UNL     1      -0.595  -6.975   9.147  1.00  0.00     0.039 A 
ATOM     37  C   UNL     1      -1.166  -7.884  10.041  1.00  0.00     0.014 A 
ATOM     38  C   UNL     1       0.337  -7.410   8.201  1.00  0.00     0.014 A 
ATOM     39  C   UNL     1      -0.848  -9.241   9.944  1.00  0.00     0.010 A 
ATOM     40  C   UNL     1       0.592  -8.771   8.055  1.00  0.00     0.010 A 
ATOM     41  C   UNL     1       0.005  -9.700   8.927  1.00  0.00    -0.014 A 
BRANCH  41  42
ATOM     42  C   UNL     1       0.294 -11.147   8.761  1.00  0.00     0.031 A 
ATOM     43  C   UNL     1       1.696 -11.664   8.932  1.00  0.00     0.074 A 
ATOM     44  C   UNL     1      -0.694 -11.987   8.394  1.00  0.00     0.049 A 
ATOM     45  N   UNL     1       2.156 -12.879   8.770  1.00  0.00    -0.248 NA
ATOM     46  C   UNL     1       2.723 -10.680   9.311  1.00  0.00     0.031 C 
ATOM     47  C   UNL     1      -2.085 -11.602   8.149  1.00  0.00     0.029 A 
ATOM     48  N   UNL     1      -0.677 -13.338   8.155  1.00  0.00    -0.354 N 
ATOM     49  C   UNL     1       3.521 -12.802   9.014  1.00  0.00     0.074 A 
ATOM     50  C   UNL     1       3.826 -11.413   9.279  1.00  0.00     0.031 C 
ATOM     51  C   UNL     1      -2.792 -12.694   7.819  1.00  0.00     0.029 A 
ATOM     52  C   UNL     1      -1.899 -13.848   7.789  1.00  0.00     0.049 A 
ATOM     53  H   UNL     1       0.134 -13.890   8.237  1.00  0.00     0.167 HD
ATOM     54  C   UNL     1       4.435 -13.802   9.038  1.00  0.00     0.037 A 
ATOM     55  C   UNL     1      -2.259 -15.104   7.459  1.00  0.00     0.037 A 
ATOM     56  C   UNL     1       4.125 -15.187   8.794  1.00  0.00     0.049 A 
ATOM     57  C   UNL     1      -1.224 -16.194   7.483  1.00  0.00     0.074 A 
ATOM     58  C   UNL     1       4.968 -16.282   8.854  1.00  0.00     0.029 A 
ATOM     59  N   UNL     1       2.872 -15.665   8.440  1.00  0.00    -0.354 N 
ATOM     60  N   UNL     1       0.050 -16.119   7.783  1.00  0.00    -0.248 NA
ATOM     61  C   UNL     1      -1.677 -17.546   7.127  1.00  0.00     0.031 C 
ATOM     62  C   UNL     1       4.238 -17.417   8.487  1.00  0.00     0.029 A 
ATOM     63  C   UNL     1       2.926 -17.037   8.253  1.00  0.00     0.049 A 
ATOM     64  H   UNL     1       2.064 -15.112   8.337  1.00  0.00     0.167 HD
ATOM     65  C   UNL     1       0.543 -17.413   7.683  1.00  0.00     0.074 A 
ATOM     66  C   UNL     1      -0.573 -18.256   7.306  1.00  0.00     0.031 C 
ATOM     67  C   UNL     1       1.805 -17.864   7.884  1.00  0.00     0.037 A 
BRANCH  54  68
ATOM     68  C   UNL     1       5.859 -13.433   9.342  1.00  0.00     0.057 A 
ATOM     69  C   UNL     1       6.256 -13.002  10.615  1.00  0.00     0.134 A 
ATOM     70  C   UNL     1       6.852 -13.543   8.361  1.00  0.00     0.134 A 
ATOM     71  F   UNL     1       5.354 -12.863  11.598  1.00  0.00    -0.206 F 
ATOM     72  C   UNL     1       7.582 -12.667  10.893  1.00  0.00     0.040 A 
ATOM     73  C   UNL     1       8.187 -13.240   8.635  1.00  0.00     0.040 A 
ATOM     74  F   UNL     1       6.543 -13.956   7.122  1.00  0.00    -0.206 F 
ATOM     75  C   UNL     1       8.554 -12.793   9.902  1.00  0.00     0.006 A 
ENDBRANCH  54  68
BRANCH  55  76
ATOM     76  C   UNL     1      -3.668 -15.403   7.098  1.00  0.00     0.057 A 
ATOM     77  C   UNL     1      -4.481 -16.172   7.939  1.00  0.00     0.134 A 
ATOM     78  C   UNL     1      -4.233 -14.938   5.904  1.00  0.00     0.134 A 
ATOM     79  F   UNL     1      -3.992 -16.662   9.087  1.00  0.00    -0.206 F 
ATOM     80  C   UNL     1      -5.798 -16.486   7.597  1.00  0.00     0.040 A 
ATOM     81  C   UNL     1      -5.556 -15.221   5.562  1.00  0.00     0.040 A 
ATOM     82  F   UNL     1      -3.509 -14.189   5.059  1.00  0.00    -0.206 F 
ATOM     83  C   UNL     1      -6.340 -16.005   6.407  1.00  0.00     0.006 A 
ENDBRANCH  55  76
BRANCH  67  84
ATOM     84  C   UNL     1       2.040 -19.340   7.740  1.00  0.00     0.057 A 
ATOM     85  C   UNL     1       2.026 -19.974   6.491  1.00  0.00     0.134 A 
ATOM     86  C   UNL     1       2.323 -20.128   8.863  1.00  0.00     0.134 A 
ATOM     87  F   UNL     1       1.749 -19.279   5.378  1.00  0.00    -0.206 F 
ATOM     88  C   UNL     1       2.261 -21.345   6.368  1.00  0.00     0.040 A 
ATOM     89  C   UNL     1       2.588 -21.493   8.749  1.00  0.00     0.040 A 
ATOM     90  F   UNL     1       2.362 -19.581  10.087  1.00  0.00    -0.206 F 
ATOM     91  C   UNL     1       2.551 -22.107   7.499  1.00  0.00     0.006 A 
ENDBRANCH  67  84
ENDBRANCH  41  42
ENDBRANCH  33  36
ENDBRANCH  31  32
ENDBRANCH  30  31
ENDBRANCH  29  30
ENDBRANCH  28  29
ENDBRANCH  27  28
ENDBRANCH   1  27
TORSDOF 20
