REMARK SMILES CC[C@](C)(NS(=O)(=O)Cc1cc(C)on1)C(=O)NCCCCCCNC(=O)c1ccc(-c2c3nc(c(-c4c(F)cccc4F)c4ccc([nH]4)c(-c4c(F)cccc4F)c4nc(c(-c5c(F)cccc5F)c5ccc2[nH]5)C=C4)C=C3)cc1
REMARK SMILES IDX 20 1 19 2 18 3 16 4 17 5 3 7 4 8 2 9 1 10 5 11 6 13 7 14
REMARK SMILES IDX 8 15 9 16 10 17 11 18 15 19 12 20 14 21 13 22 21 23 22 24
REMARK SMILES IDX 23 25 24 26 25 27 26 28 27 30 28 31 29 32 81 33 30 34 80 35
REMARK SMILES IDX 31 36 32 37 33 38 74 39 34 40 79 41 73 42 75 43 35 44 78 45
REMARK SMILES IDX 72 46 71 47 36 49 62 50 45 51 61 52 46 53 49 54 60 55 76 56
REMARK SMILES IDX 47 57 48 58 59 60 77 61 50 62 37 63 38 64 43 65 39 66 40 67
REMARK SMILES IDX 42 68 44 69 41 70 63 71 64 72 69 73 65 74 66 75 68 76 70 77
REMARK SMILES IDX 67 78 51 79 52 80 57 81 53 82 54 83 56 84 58 85 55 86
REMARK H PARENT 18 6 5 12 25 29 75 48 49 59
REMARK Flexibility Score: inf
ROOT
ATOM      1  C   UNL     1       2.978   5.718  -2.242  1.00  0.00     0.021 C 
ENDROOT
BRANCH   1   2
ATOM      2  C   UNL     1       2.595   4.264  -2.528  1.00  0.00     0.116 C 
BRANCH   2   3
ATOM      3  N   UNL     1       3.065   3.342  -1.504  1.00  0.00    -0.354 N 
ATOM      4  C   UNL     1       2.502   2.558  -0.555  1.00  0.00     0.240 C 
ATOM      5  O   UNL     1       3.334   2.001   0.178  1.00  0.00    -0.273 OA
ATOM      6  H   UNL     1       4.047   3.271  -1.501  1.00  0.00     0.163 HD
BRANCH   4   7
ATOM      7  C   UNL     1       0.985   2.382  -0.280  1.00  0.00     0.108 C 
ATOM      8  C   UNL     1       0.845   1.002   0.443  1.00  0.00     0.040 C 
BRANCH   7   9
ATOM      9  C   UNL     1       0.066   2.321  -1.519  1.00  0.00     0.030 C 
ATOM     10  C   UNL     1       0.537   1.354  -2.609  1.00  0.00     0.006 C 
ENDBRANCH   7   9
BRANCH   7  11
ATOM     11  N   UNL     1       0.472   3.326   0.755  1.00  0.00    -0.200 NA
ATOM     12  H   UNL     1       0.934   3.043   1.619  1.00  0.00     0.142 HD
BRANCH  11  13
ATOM     13  S   UNL     1       0.572   4.978   0.744  1.00  0.00     0.218 S 
ATOM     14  O   UNL     1       0.274   5.397  -0.610  1.00  0.00    -0.212 OA
ATOM     15  O   UNL     1      -0.296   5.400   1.821  1.00  0.00    -0.212 OA
BRANCH  13  16
ATOM     16  C   UNL     1       2.259   5.432   1.141  1.00  0.00     0.213 C 
BRANCH  16  17
ATOM     17  C   UNL     1       2.767   5.134   2.495  1.00  0.00     0.100 A 
ATOM     18  C   UNL     1       3.325   3.927   2.981  1.00  0.00     0.073 A 
ATOM     19  N   UNL     1       2.979   6.140   3.356  1.00  0.00    -0.084 NA
ATOM     20  C   UNL     1       3.940   4.286   4.155  1.00  0.00     0.133 A 
ATOM     21  O   UNL     1       3.705   5.601   4.400  1.00  0.00    -0.361 OA
ATOM     22  C   UNL     1       4.808   3.588   5.118  1.00  0.00     0.091 C 
ENDBRANCH  16  17
ENDBRANCH  13  16
ENDBRANCH  11  13
ENDBRANCH   7  11
ENDBRANCH   4   7
ENDBRANCH   2   3
ENDBRANCH   1   2
BRANCH   1  23
ATOM     23  C   UNL     1       4.468   5.963  -1.973  1.00  0.00     0.002 C 
BRANCH  23  24
ATOM     24  C   UNL     1       5.294   6.224  -3.231  1.00  0.00     0.002 C 
BRANCH  24  25
ATOM     25  C   UNL     1       4.815   7.409  -4.075  1.00  0.00     0.021 C 
BRANCH  25  26
ATOM     26  C   UNL     1       4.626   8.708  -3.296  1.00  0.00     0.116 C 
BRANCH  26  27
ATOM     27  N   UNL     1       5.903   9.283  -2.905  1.00  0.00    -0.352 N 
ATOM     28  C   UNL     1       6.429  10.492  -3.290  1.00  0.00     0.251 C 
ATOM     29  H   UNL     1       6.455   8.743  -2.295  1.00  0.00     0.163 HD
ATOM     30  O   UNL     1       7.611  10.760  -3.112  1.00  0.00    -0.269 OA
BRANCH  28  31
ATOM     31  C   UNL     1       5.531  11.467  -3.939  1.00  0.00     0.039 A 
ATOM     32  C   UNL     1       5.861  11.971  -5.198  1.00  0.00     0.014 A 
ATOM     33  C   UNL     1       4.332  11.824  -3.314  1.00  0.00     0.014 A 
ATOM     34  C   UNL     1       4.954  12.800  -5.859  1.00  0.00     0.010 A 
ATOM     35  C   UNL     1       3.406  12.601  -4.001  1.00  0.00     0.010 A 
ATOM     36  C   UNL     1       3.708  13.096  -5.279  1.00  0.00    -0.014 A 
BRANCH  36  37
ATOM     37  C   UNL     1       2.702  13.913  -5.999  1.00  0.00     0.031 A 
ATOM     38  C   UNL     1       2.304  15.260  -5.467  1.00  0.00     0.074 A 
ATOM     39  C   UNL     1       2.095  13.411  -7.090  1.00  0.00     0.049 A 
ATOM     40  N   UNL     1       1.405  16.096  -5.922  1.00  0.00    -0.248 NA
ATOM     41  C   UNL     1       2.987  15.714  -4.246  1.00  0.00     0.031 C 
ATOM     42  C   UNL     1       2.352  12.090  -7.667  1.00  0.00     0.029 A 
ATOM     43  N   UNL     1       1.123  13.944  -7.898  1.00  0.00    -0.354 N 
ATOM     44  C   UNL     1       1.412  17.170  -5.043  1.00  0.00     0.074 A 
ATOM     45  C   UNL     1       2.359  16.853  -3.995  1.00  0.00     0.031 C 
ATOM     46  C   UNL     1       1.565  11.921  -8.742  1.00  0.00     0.029 A 
ATOM     47  C   UNL     1       0.728  13.105  -8.910  1.00  0.00     0.049 A 
ATOM     48  H   UNL     1       0.745  14.843  -7.764  1.00  0.00     0.167 HD
ATOM     49  C   UNL     1       0.712  18.327  -5.115  1.00  0.00     0.037 A 
ATOM     50  C   UNL     1      -0.212  13.266  -9.861  1.00  0.00     0.037 A 
ATOM     51  C   UNL     1      -0.226  18.640  -6.161  1.00  0.00     0.049 A 
ATOM     52  C   UNL     1      -0.987  14.552  -9.918  1.00  0.00     0.074 A 
ATOM     53  C   UNL     1      -0.940  19.808  -6.360  1.00  0.00     0.029 A 
ATOM     54  N   UNL     1      -0.589  17.770  -7.180  1.00  0.00    -0.354 N 
ATOM     55  N   UNL     1      -0.911  15.596  -9.129  1.00  0.00    -0.248 NA
ATOM     56  C   UNL     1      -1.973  14.685 -10.999  1.00  0.00     0.031 C 
ATOM     57  C   UNL     1      -1.770  19.628  -7.473  1.00  0.00     0.029 A 
ATOM     58  C   UNL     1      -1.539  18.366  -7.994  1.00  0.00     0.049 A 
ATOM     59  H   UNL     1      -0.225  16.864  -7.306  1.00  0.00     0.167 HD
ATOM     60  C   UNL     1      -1.828  16.515  -9.622  1.00  0.00     0.074 A 
ATOM     61  C   UNL     1      -2.433  15.912 -10.793  1.00  0.00     0.031 C 
ATOM     62  C   UNL     1      -2.142  17.745  -9.148  1.00  0.00     0.037 A 
BRANCH  49  63
ATOM     63  C   UNL     1       0.941  19.335  -4.026  1.00  0.00     0.057 A 
ATOM     64  C   UNL     1       2.155  20.026  -3.905  1.00  0.00     0.134 A 
ATOM     65  C   UNL     1      -0.060  19.622  -3.090  1.00  0.00     0.134 A 
ATOM     66  F   UNL     1       3.160  19.790  -4.761  1.00  0.00    -0.206 F 
ATOM     67  C   UNL     1       2.378  20.938  -2.871  1.00  0.00     0.040 A 
ATOM     68  C   UNL     1       0.141  20.553  -2.069  1.00  0.00     0.040 A 
ATOM     69  F   UNL     1      -1.248  19.003  -3.151  1.00  0.00    -0.206 F 
ATOM     70  C   UNL     1       1.366  21.206  -1.952  1.00  0.00     0.006 A 
ENDBRANCH  49  63
BRANCH  50  71
ATOM     71  C   UNL     1      -0.455  12.180 -10.842  1.00  0.00     0.057 A 
ATOM     72  C   UNL     1      -0.052  12.306 -12.176  1.00  0.00     0.134 A 
ATOM     73  C   UNL     1      -1.072  10.981 -10.463  1.00  0.00     0.134 A 
ATOM     74  F   UNL     1       0.528  13.437 -12.601  1.00  0.00    -0.206 F 
ATOM     75  C   UNL     1      -0.260  11.282 -13.101  1.00  0.00     0.040 A 
ATOM     76  C   UNL     1      -1.266   9.940 -11.373  1.00  0.00     0.040 A 
ATOM     77  F   UNL     1      -1.473  10.796  -9.197  1.00  0.00    -0.206 F 
ATOM     78  C   UNL     1      -0.863  10.091 -12.698  1.00  0.00     0.006 A 
ENDBRANCH  50  71
BRANCH  62  79
ATOM     79  C   UNL     1      -3.185  18.522  -9.897  1.00  0.00     0.057 A 
ATOM     80  C   UNL     1      -4.542  18.180  -9.835  1.00  0.00     0.134 A 
ATOM     81  C   UNL     1      -2.834  19.646 -10.655  1.00  0.00     0.134 A 
ATOM     82  F   UNL     1      -4.941  17.106  -9.138  1.00  0.00    -0.206 F 
ATOM     83  C   UNL     1      -5.511  18.919 -10.515  1.00  0.00     0.040 A 
ATOM     84  C   UNL     1      -3.796  20.407 -11.319  1.00  0.00     0.040 A 
ATOM     85  F   UNL     1      -1.552  20.031 -10.750  1.00  0.00    -0.206 F 
ATOM     86  C   UNL     1      -5.139  20.041 -11.254  1.00  0.00     0.006 A 
ENDBRANCH  62  79
ENDBRANCH  36  37
ENDBRANCH  28  31
ENDBRANCH  26  27
ENDBRANCH  25  26
ENDBRANCH  24  25
ENDBRANCH  23  24
ENDBRANCH   1  23
TORSDOF 18
