REMARK SMILES Cc1ccc(N2C(=O)[NH+]=C(NCCCCCCNC(=O)c3ccc(-c4c5nc(c(-c6c(F)cccc6F)c6ccc([nH]6)c(-c6c(F)cccc6F)c6nc(c(-c7c(F)cccc7F)c7ccc4[nH]7)C=C6)C=C5)cc3)/C(=C\c3ccccc3OCc3cccc(C(=O)[O-])c3)C2=O)cc1
REMARK SMILES IDX 13 1 12 2 11 3 6 4 7 5 94 6 8 7 9 8 75 9 95 10 10 11 76 13
REMARK SMILES IDX 5 15 1 16 2 17 3 18 97 19 4 20 96 21 77 22 78 23 82 24 79 25
REMARK SMILES IDX 81 26 80 27 83 28 84 29 85 30 86 31 93 32 87 33 89 34 88 35
REMARK SMILES IDX 90 36 91 37 92 38 14 39 15 40 16 41 17 42 18 43 19 44 20 46
REMARK SMILES IDX 21 47 22 48 74 49 23 50 73 51 24 52 25 53 26 54 67 55 27 56
REMARK SMILES IDX 72 57 66 58 68 59 28 60 71 61 65 62 64 63 29 65 55 66 38 67
REMARK SMILES IDX 54 68 39 69 42 70 53 71 69 72 40 73 41 74 52 76 70 77 43 78
REMARK SMILES IDX 30 79 31 80 36 81 32 82 33 83 35 84 37 85 34 86 56 87 57 88
REMARK SMILES IDX 62 89 58 90 59 91 61 92 63 93 60 94 44 95 45 96 50 97 46 98
REMARK SMILES IDX 47 99 49 100 51 101 48 102
REMARK H PARENT 9 12 11 14 18 45 68 64 42 75
REMARK Flexibility Score: inf
ROOT
ATOM      1  C   UNL     1      -9.293   0.659   2.094  1.00  0.00     0.037 C 
ENDROOT
BRANCH   1   2
ATOM      2  C   UNL     1      -7.941   0.102   1.651  1.00  0.00     0.194 C 
BRANCH   2   3
ATOM      3  N   UNL     1      -7.202   1.065   0.848  1.00  0.00    -0.305 N 
ATOM      4  N   UNL     1      -3.086   0.784   0.337  1.00  0.00    -0.155 N 
ATOM      5  C   UNL     1      -3.795   0.094   1.335  1.00  0.00     0.448 C 
ATOM      6  C   UNL     1      -3.710   1.641  -0.566  1.00  0.00     0.328 C 
ATOM      7  O   UNL     1      -3.240  -0.646   2.146  1.00  0.00    -0.212 OA
ATOM      8  N   UNL     1      -5.141   0.285   1.468  1.00  0.00    -0.209 N 
ATOM      9  C   UNL     1      -5.194   1.531  -0.586  1.00  0.00     0.129 C 
ATOM     10  O   UNL     1      -3.145   2.350  -1.401  1.00  0.00    -0.249 OA
ATOM     11  C   UNL     1      -5.851   0.941   0.606  1.00  0.00     0.236 C 
ATOM     12  H   UNL     1      -5.593  -0.095   2.256  1.00  0.00     0.270 HD
ATOM     13  C   UNL     1      -5.777   1.776  -1.780  1.00  0.00     0.034 C 
ATOM     14  H   UNL     1      -7.685   1.833   0.464  1.00  0.00     0.256 HD
BRANCH   4  15
ATOM     15  C   UNL     1      -1.662   0.582   0.235  1.00  0.00     0.111 A 
ATOM     16  C   UNL     1       2.613  -0.057  -0.054  1.00  0.00     0.044 C 
ATOM     17  C   UNL     1       1.134   0.171   0.041  1.00  0.00    -0.051 A 
ATOM     18  C   UNL     1       0.274  -0.906   0.261  1.00  0.00     0.007 A 
ATOM     19  C   UNL     1       0.591   1.449  -0.104  1.00  0.00     0.007 A 
ATOM     20  C   UNL     1      -1.105  -0.700   0.367  1.00  0.00     0.044 A 
ATOM     21  C   UNL     1      -0.791   1.651  -0.016  1.00  0.00     0.044 A 
ENDBRANCH   4  15
BRANCH  13  22
ATOM     22  C   UNL     1      -7.135   1.453  -2.248  1.00  0.00     0.018 A 
ATOM     23  C   UNL     1      -7.849   2.494  -2.868  1.00  0.00     0.012 A 
ATOM     24  C   UNL     1      -7.736   0.185  -2.162  1.00  0.00     0.127 A 
ATOM     25  C   UNL     1      -9.161   2.306  -3.311  1.00  0.00     0.001 A 
ATOM     26  C   UNL     1      -9.051   0.007  -2.611  1.00  0.00     0.047 A 
ATOM     27  C   UNL     1      -9.769   1.065  -3.166  1.00  0.00     0.004 A 
BRANCH  24  28
ATOM     28  O   UNL     1      -7.203  -0.900  -1.514  1.00  0.00    -0.488 OA
BRANCH  28  29
ATOM     29  C   UNL     1      -5.963  -1.384  -2.032  1.00  0.00     0.265 C 
BRANCH  29  30
ATOM     30  C   UNL     1      -5.543  -2.635  -1.288  1.00  0.00    -0.010 A 
ATOM     31  C   UNL     1      -4.179  -2.906  -1.091  1.00  0.00     0.007 A 
ATOM     32  C   UNL     1      -6.488  -3.579  -0.859  1.00  0.00     0.017 A 
ATOM     33  C   UNL     1      -3.767  -4.092  -0.481  1.00  0.00     0.001 A 
ATOM     34  C   UNL     1      -6.076  -4.782  -0.270  1.00  0.00    -0.002 A 
ATOM     35  C   UNL     1      -4.712  -5.035  -0.082  1.00  0.00     0.010 A 
BRANCH  34  36
ATOM     36  C   UNL     1      -7.048  -5.829   0.112  1.00  0.00     0.071 C 
ATOM     37  O   UNL     1      -6.771  -6.972   0.460  1.00  0.00    -0.545 OA
ATOM     38  O   UNL     1      -8.325  -5.423   0.029  1.00  0.00    -0.545 OA
ENDBRANCH  34  36
ENDBRANCH  29  30
ENDBRANCH  28  29
ENDBRANCH  24  28
ENDBRANCH  13  22
ENDBRANCH   2   3
ENDBRANCH   1   2
BRANCH   1  39
ATOM     39  C   UNL     1     -10.290   0.935   0.962  1.00  0.00     0.003 C 
BRANCH  39  40
ATOM     40  C   UNL     1     -10.807  -0.300   0.212  1.00  0.00     0.002 C 
BRANCH  40  41
ATOM     41  C   UNL     1     -11.620  -1.314   1.009  1.00  0.00     0.021 C 
BRANCH  41  42
ATOM     42  C   UNL     1     -12.837  -0.738   1.700  1.00  0.00     0.116 C 
BRANCH  42  43
ATOM     43  N   UNL     1     -13.960  -0.407   0.835  1.00  0.00    -0.352 N 
ATOM     44  C   UNL     1     -15.232   0.043   1.154  1.00  0.00     0.251 C 
ATOM     45  H   UNL     1     -13.789  -0.520  -0.128  1.00  0.00     0.163 HD
ATOM     46  O   UNL     1     -16.070   0.133   0.258  1.00  0.00    -0.269 OA
BRANCH  44  47
ATOM     47  C   UNL     1     -15.545   0.611   2.501  1.00  0.00     0.039 A 
ATOM     48  C   UNL     1     -16.498   1.642   2.538  1.00  0.00     0.014 A 
ATOM     49  C   UNL     1     -14.611   0.528   3.514  1.00  0.00     0.014 A 
ATOM     50  C   UNL     1     -16.256   2.756   3.330  1.00  0.00     0.010 A 
ATOM     51  C   UNL     1     -14.210   1.703   4.078  1.00  0.00     0.010 A 
ATOM     52  C   UNL     1     -15.023   2.830   3.952  1.00  0.00    -0.014 A 
BRANCH  52  53
ATOM     53  C   UNL     1     -14.490   3.969   4.656  1.00  0.00     0.031 A 
ATOM     54  C   UNL     1     -14.565   3.914   6.123  1.00  0.00     0.074 A 
ATOM     55  C   UNL     1     -13.691   4.820   3.978  1.00  0.00     0.049 A 
ATOM     56  N   UNL     1     -14.264   4.892   6.890  1.00  0.00    -0.248 NA
ATOM     57  C   UNL     1     -15.026   2.735   6.856  1.00  0.00     0.031 C 
ATOM     58  C   UNL     1     -12.665   5.710   4.506  1.00  0.00     0.029 A 
ATOM     59  N   UNL     1     -13.790   5.178   2.628  1.00  0.00    -0.354 N 
ATOM     60  C   UNL     1     -14.177   4.401   8.173  1.00  0.00     0.074 A 
ATOM     61  C   UNL     1     -14.784   3.098   8.117  1.00  0.00     0.031 C 
ATOM     62  C   UNL     1     -12.437   6.688   3.612  1.00  0.00     0.029 A 
ATOM     63  C   UNL     1     -13.443   6.551   2.573  1.00  0.00     0.049 A 
ATOM     64  H   UNL     1     -14.046   4.598   1.875  1.00  0.00     0.167 HD
ATOM     65  C   UNL     1     -13.468   5.134   9.075  1.00  0.00     0.037 A 
ATOM     66  C   UNL     1     -14.406   7.484   2.292  1.00  0.00     0.037 A 
ATOM     67  C   UNL     1     -13.040   6.392   8.457  1.00  0.00     0.049 A 
ATOM     68  C   UNL     1     -14.697   8.440   3.438  1.00  0.00     0.074 A 
ATOM     69  C   UNL     1     -11.864   6.856   7.895  1.00  0.00     0.029 A 
ATOM     70  N   UNL     1     -14.024   7.266   8.046  1.00  0.00    -0.354 N 
ATOM     71  N   UNL     1     -14.220   8.305   4.646  1.00  0.00    -0.248 NA
ATOM     72  C   UNL     1     -15.595   9.588   3.333  1.00  0.00     0.031 C 
ATOM     73  C   UNL     1     -12.170   8.042   7.156  1.00  0.00     0.029 A 
ATOM     74  C   UNL     1     -13.523   8.300   7.294  1.00  0.00     0.049 A 
ATOM     75  H   UNL     1     -14.978   7.160   8.266  1.00  0.00     0.167 HD
ATOM     76  C   UNL     1     -14.751   9.259   5.474  1.00  0.00     0.074 A 
ATOM     77  C   UNL     1     -15.616  10.036   4.603  1.00  0.00     0.031 C 
ATOM     78  C   UNL     1     -14.463   9.300   6.812  1.00  0.00     0.037 A 
BRANCH  65  79
ATOM     79  C   UNL     1     -12.989   4.702  10.441  1.00  0.00     0.057 A 
ATOM     80  C   UNL     1     -12.080   5.521  11.143  1.00  0.00     0.134 A 
ATOM     81  C   UNL     1     -13.315   3.510  11.111  1.00  0.00     0.134 A 
ATOM     82  F   UNL     1     -11.717   6.727  10.685  1.00  0.00    -0.206 F 
ATOM     83  C   UNL     1     -11.492   5.151  12.358  1.00  0.00     0.040 A 
ATOM     84  C   UNL     1     -12.732   3.125  12.326  1.00  0.00     0.040 A 
ATOM     85  F   UNL     1     -14.229   2.651  10.658  1.00  0.00    -0.206 F 
ATOM     86  C   UNL     1     -11.804   3.940  12.949  1.00  0.00     0.006 A 
ENDBRANCH  65  79
BRANCH  66  87
ATOM     87  C   UNL     1     -15.412   6.940   1.327  1.00  0.00     0.057 A 
ATOM     88  C   UNL     1     -14.950   6.577   0.045  1.00  0.00     0.134 A 
ATOM     89  C   UNL     1     -16.568   6.303   1.789  1.00  0.00     0.134 A 
ATOM     90  F   UNL     1     -13.861   7.169  -0.471  1.00  0.00    -0.206 F 
ATOM     91  C   UNL     1     -15.487   5.488  -0.648  1.00  0.00     0.040 A 
ATOM     92  C   UNL     1     -17.131   5.231   1.084  1.00  0.00     0.040 A 
ATOM     93  F   UNL     1     -17.073   6.597   2.995  1.00  0.00    -0.206 F 
ATOM     94  C   UNL     1     -16.549   4.778  -0.099  1.00  0.00     0.006 A 
ENDBRANCH  66  87
BRANCH  78  95
ATOM     95  C   UNL     1     -15.084  10.248   7.817  1.00  0.00     0.057 A 
ATOM     96  C   UNL     1     -15.341  11.594   7.542  1.00  0.00     0.134 A 
ATOM     97  C   UNL     1     -15.360   9.854   9.151  1.00  0.00     0.134 A 
ATOM     98  F   UNL     1     -15.014  12.136   6.361  1.00  0.00    -0.206 F 
ATOM     99  C   UNL     1     -15.914  12.457   8.490  1.00  0.00     0.040 A 
ATOM    100  C   UNL     1     -15.876  10.717  10.119  1.00  0.00     0.040 A 
ATOM    101  F   UNL     1     -15.174   8.604   9.591  1.00  0.00    -0.206 F 
ATOM    102  C   UNL     1     -16.182  12.021   9.783  1.00  0.00     0.006 A 
ENDBRANCH  78  95
ENDBRANCH  52  53
ENDBRANCH  44  47
ENDBRANCH  42  43
ENDBRANCH  41  42
ENDBRANCH  40  41
ENDBRANCH  39  40
ENDBRANCH   1  39
TORSDOF 18
