REMARK SMILES COCCCN1C(=O)CC[C@@H](C(=O)NCCCCCCNC(=O)c2ccc(-c3c4nc(c(-c5c(F)cccc5F)c5ccc([nH]5)c(-c5c(F)cccc5F)c5nc(c(-c6c(F)cccc6F)c6ccc3[nH]6)C=C5)C=C4)cc2)[C@@H]1c1ccc(F)cc1
REMARK SMILES IDX 16 1 15 2 14 3 12 4 13 5 11 7 6 8 7 9 78 10 8 11 9 12 10 13
REMARK SMILES IDX 5 14 4 15 3 16 2 17 1 18 79 19 80 20 85 21 81 22 84 23 82 24
REMARK SMILES IDX 83 25 17 26 18 27 19 28 20 29 21 30 22 31 23 33 24 34 25 35
REMARK SMILES IDX 77 36 26 37 76 38 27 39 28 40 29 41 70 42 30 43 75 44 69 45
REMARK SMILES IDX 71 46 31 47 74 48 68 49 67 50 32 52 58 53 41 54 57 55 42 56
REMARK SMILES IDX 45 57 56 58 72 59 43 60 44 61 55 63 73 64 46 65 33 66 34 67
REMARK SMILES IDX 39 68 35 69 36 70 38 71 40 72 37 73 59 74 60 75 65 76 61 77
REMARK SMILES IDX 62 78 64 79 66 80 63 81 47 82 48 83 53 84 49 85 50 86 52 87
REMARK SMILES IDX 54 88 51 89
REMARK H PARENT 14 6 21 32 71 51 45 62
REMARK Flexibility Score: inf
ROOT
ATOM      1  C   UNL     1       4.831   3.182  -5.181  1.00  0.00     0.021 C 
ENDROOT
BRANCH   1   2
ATOM      2  C   UNL     1       3.909   2.215  -4.445  1.00  0.00     0.116 C 
BRANCH   2   3
ATOM      3  N   UNL     1       4.135   0.843  -4.853  1.00  0.00    -0.356 N 
ATOM      4  C   UNL     1       4.573  -0.227  -4.135  1.00  0.00     0.225 C 
ATOM      5  O   UNL     1       4.830  -1.260  -4.753  1.00  0.00    -0.275 OA
ATOM      6  H   UNL     1       3.941   0.655  -5.800  1.00  0.00     0.163 HD
BRANCH   4   7
ATOM      7  C   UNL     1       4.710  -0.118  -2.619  1.00  0.00     0.106 C 
ATOM      8  N   UNL     1       2.589  -1.348  -2.051  1.00  0.00    -0.335 N 
ATOM      9  C   UNL     1       3.243  -2.569  -2.130  1.00  0.00     0.223 C 
ATOM     10  C   UNL     1       3.320  -0.068  -1.967  1.00  0.00     0.128 C 
ATOM     11  O   UNL     1       2.637  -3.635  -2.249  1.00  0.00    -0.275 OA
ATOM     12  C   UNL     1       4.760  -2.601  -2.071  1.00  0.00     0.101 C 
ATOM     13  C   UNL     1       5.504  -1.277  -2.027  1.00  0.00     0.026 C 
BRANCH   8  14
ATOM     14  C   UNL     1       1.147  -1.278  -2.354  1.00  0.00     0.122 C 
BRANCH  14  15
ATOM     15  C   UNL     1       0.185  -2.235  -1.628  1.00  0.00     0.050 C 
BRANCH  15  16
ATOM     16  C   UNL     1       0.303  -2.277  -0.108  1.00  0.00     0.161 C 
BRANCH  16  17
ATOM     17  O   UNL     1      -0.553  -1.374   0.590  1.00  0.00    -0.385 OA
ATOM     18  C   UNL     1      -0.390  -0.005   0.270  1.00  0.00     0.194 C 
ENDBRANCH  16  17
ENDBRANCH  15  16
ENDBRANCH  14  15
ENDBRANCH   8  14
BRANCH  10  19
ATOM     19  C   UNL     1       3.377   0.513  -0.550  1.00  0.00    -0.024 A 
ATOM     20  C   UNL     1       3.360  -0.290   0.602  1.00  0.00     0.009 A 
ATOM     21  C   UNL     1       3.439   1.911  -0.379  1.00  0.00     0.009 A 
ATOM     22  C   UNL     1       3.323   0.283   1.877  1.00  0.00     0.039 A 
ATOM     23  C   UNL     1       3.435   2.483   0.895  1.00  0.00     0.039 A 
ATOM     24  C   UNL     1       3.357   1.663   2.012  1.00  0.00     0.123 A 
ATOM     25  F   UNL     1       3.313   2.213   3.232  1.00  0.00    -0.207 F 
ENDBRANCH  10  19
ENDBRANCH   4   7
ENDBRANCH   2   3
ENDBRANCH   1   2
BRANCH   1  26
ATOM     26  C   UNL     1       4.655   3.198  -6.703  1.00  0.00     0.002 C 
BRANCH  26  27
ATOM     27  C   UNL     1       3.232   3.475  -7.196  1.00  0.00     0.002 C 
BRANCH  27  28
ATOM     28  C   UNL     1       2.598   4.768  -6.678  1.00  0.00     0.021 C 
BRANCH  28  29
ATOM     29  C   UNL     1       3.394   6.036  -6.965  1.00  0.00     0.116 C 
BRANCH  29  30
ATOM     30  N   UNL     1       3.553   6.283  -8.386  1.00  0.00    -0.352 N 
ATOM     31  C   UNL     1       3.408   7.452  -9.087  1.00  0.00     0.251 C 
ATOM     32  H   UNL     1       3.802   5.497  -8.924  1.00  0.00     0.163 HD
ATOM     33  O   UNL     1       3.433   7.432 -10.319  1.00  0.00    -0.269 OA
BRANCH  31  34
ATOM     34  C   UNL     1       3.203   8.735  -8.380  1.00  0.00     0.039 A 
ATOM     35  C   UNL     1       2.288   9.650  -8.906  1.00  0.00     0.014 A 
ATOM     36  C   UNL     1       3.936   9.062  -7.236  1.00  0.00     0.014 A 
ATOM     37  C   UNL     1       2.089  10.878  -8.274  1.00  0.00     0.010 A 
ATOM     38  C   UNL     1       3.683  10.255  -6.562  1.00  0.00     0.010 A 
ATOM     39  C   UNL     1       2.776  11.187  -7.089  1.00  0.00    -0.014 A 
BRANCH  39  40
ATOM     40  C   UNL     1       2.597  12.503  -6.427  1.00  0.00     0.031 A 
ATOM     41  C   UNL     1       3.746  13.473  -6.356  1.00  0.00     0.074 A 
ATOM     42  C   UNL     1       1.414  12.818  -5.867  1.00  0.00     0.049 A 
ATOM     43  N   UNL     1       3.792  14.664  -5.812  1.00  0.00    -0.248 NA
ATOM     44  C   UNL     1       5.019  13.037  -6.950  1.00  0.00     0.031 C 
ATOM     45  C   UNL     1       0.238  11.946  -5.822  1.00  0.00     0.029 A 
ATOM     46  N   UNL     1       1.005  13.960  -5.226  1.00  0.00    -0.354 N 
ATOM     47  C   UNL     1       5.098  15.108  -5.986  1.00  0.00     0.074 A 
ATOM     48  C   UNL     1       5.826  14.038  -6.631  1.00  0.00     0.031 C 
ATOM     49  C   UNL     1      -0.767  12.596  -5.214  1.00  0.00     0.029 A 
ATOM     50  C   UNL     1      -0.302  13.918  -4.806  1.00  0.00     0.049 A 
ATOM     51  H   UNL     1       1.593  14.736  -5.080  1.00  0.00     0.167 HD
ATOM     52  C   UNL     1       5.636  16.309  -5.665  1.00  0.00     0.037 A 
ATOM     53  C   UNL     1      -1.042  14.847  -4.172  1.00  0.00     0.037 A 
ATOM     54  C   UNL     1       4.903  17.386  -5.054  1.00  0.00     0.049 A 
ATOM     55  C   UNL     1      -0.431  16.183  -3.853  1.00  0.00     0.074 A 
ATOM     56  C   UNL     1       5.343  18.659  -4.734  1.00  0.00     0.029 A 
ATOM     57  N   UNL     1       3.571  17.317  -4.675  1.00  0.00    -0.354 N 
ATOM     58  N   UNL     1       0.787  16.612  -4.081  1.00  0.00    -0.248 NA
ATOM     59  C   UNL     1      -1.305  17.171  -3.206  1.00  0.00     0.031 C 
ATOM     60  C   UNL     1       4.285  19.349  -4.132  1.00  0.00     0.029 A 
ATOM     61  C   UNL     1       3.175  18.521  -4.117  1.00  0.00     0.049 A 
ATOM     62  H   UNL     1       2.992  16.528  -4.786  1.00  0.00     0.167 HD
ATOM     63  C   UNL     1       0.816  17.927  -3.635  1.00  0.00     0.074 A 
ATOM     64  C   UNL     1      -0.511  18.229  -3.139  1.00  0.00     0.031 C 
ATOM     65  C   UNL     1       1.847  18.807  -3.637  1.00  0.00     0.037 A 
BRANCH  52  66
ATOM     66  C   UNL     1       7.089  16.518  -5.981  1.00  0.00     0.057 A 
ATOM     67  C   UNL     1       7.548  16.639  -7.300  1.00  0.00     0.134 A 
ATOM     68  C   UNL     1       8.039  16.618  -4.956  1.00  0.00     0.134 A 
ATOM     69  F   UNL     1       6.693  16.537  -8.329  1.00  0.00    -0.206 F 
ATOM     70  C   UNL     1       8.902  16.819  -7.589  1.00  0.00     0.040 A 
ATOM     71  C   UNL     1       9.391  16.827  -5.232  1.00  0.00     0.040 A 
ATOM     72  F   UNL     1       7.668  16.516  -3.671  1.00  0.00    -0.206 F 
ATOM     73  C   UNL     1       9.827  16.920  -6.553  1.00  0.00     0.006 A 
ENDBRANCH  52  66
BRANCH  53  74
ATOM     74  C   UNL     1      -2.461  14.565  -3.837  1.00  0.00     0.057 A 
ATOM     75  C   UNL     1      -3.503  15.208  -4.515  1.00  0.00     0.134 A 
ATOM     76  C   UNL     1      -2.808  13.662  -2.826  1.00  0.00     0.134 A 
ATOM     77  F   UNL     1      -3.231  16.097  -5.482  1.00  0.00    -0.206 F 
ATOM     78  C   UNL     1      -4.840  14.983  -4.184  1.00  0.00     0.040 A 
ATOM     79  C   UNL     1      -4.142  13.409  -2.500  1.00  0.00     0.040 A 
ATOM     80  F   UNL     1      -1.856  13.007  -2.146  1.00  0.00    -0.206 F 
ATOM     81  C   UNL     1      -5.162  14.077  -3.175  1.00  0.00     0.006 A 
ENDBRANCH  53  74
BRANCH  65  82
ATOM     82  C   UNL     1       1.565  20.190  -3.125  1.00  0.00     0.057 A 
ATOM     83  C   UNL     1       1.353  20.449  -1.765  1.00  0.00     0.134 A 
ATOM     84  C   UNL     1       1.517  21.277  -4.006  1.00  0.00     0.134 A 
ATOM     85  F   UNL     1       1.373  19.449  -0.871  1.00  0.00    -0.206 F 
ATOM     86  C   UNL     1       1.069  21.735  -1.304  1.00  0.00     0.040 A 
ATOM     87  C   UNL     1       1.262  22.572  -3.554  1.00  0.00     0.040 A 
ATOM     88  F   UNL     1       1.722  21.100  -5.320  1.00  0.00    -0.206 F 
ATOM     89  C   UNL     1       1.028  22.802  -2.200  1.00  0.00     0.006 A 
ENDBRANCH  65  82
ENDBRANCH  39  40
ENDBRANCH  31  34
ENDBRANCH  29  30
ENDBRANCH  28  29
ENDBRANCH  27  28
ENDBRANCH  26  27
ENDBRANCH   1  26
TORSDOF 18
