REMARK SMILES Cc1ccc(-c2cc(Cl)cc3c2O[C@H](C(F)(F)F)C(C(=O)NCCCCCCNC(=O)c2ccc(-c4c5nc(c(-c6c(F)cccc6F)c6ccc([nH]6)c(-c6c(F)cccc6F)c6nc(c(-c7c(F)cccc7F)c7ccc4[nH]7)C=C6)C=C5)cc2)=C3)cc1F
REMARK SMILES IDX 26 1 25 2 24 3 23 4 22 5 20 6 21 7 19 9 6 10 7 11 12 12 8 13
REMARK SMILES IDX 11 14 13 15 9 16 10 17 86 18 14 19 5 20 1 21 2 22 3 23 88 24
REMARK SMILES IDX 4 25 87 26 89 27 15 28 16 29 17 30 18 31 27 32 28 33 29 34
REMARK SMILES IDX 30 35 31 37 32 38 33 39 85 40 34 41 84 42 35 43 36 44 37 45
REMARK SMILES IDX 78 46 38 47 83 48 77 49 79 50 39 51 82 52 76 53 75 54 40 56
REMARK SMILES IDX 66 57 49 58 65 59 50 60 53 61 64 62 80 63 51 64 52 65 63 67
REMARK SMILES IDX 81 68 54 69 41 70 42 71 47 72 43 73 44 74 46 75 48 76 45 77
REMARK SMILES IDX 67 78 68 79 73 80 69 81 70 82 72 83 74 84 71 85 55 86 56 87
REMARK SMILES IDX 61 88 57 89 58 90 60 91 62 92 59 93
REMARK H PARENT 22 8 29 36 79 55 53 66
REMARK Flexibility Score: inf
ROOT
ATOM      1  C   UNL     1      -0.896  -4.795   8.691  1.00  0.00     0.002 C 
ENDROOT
BRANCH   1   2
ATOM      2  C   UNL     1      -2.353  -4.457   8.372  1.00  0.00     0.002 C 
BRANCH   2   3
ATOM      3  C   UNL     1      -2.593  -3.885   6.970  1.00  0.00     0.021 C 
BRANCH   3   4
ATOM      4  C   UNL     1      -2.061  -4.771   5.841  1.00  0.00     0.116 C 
BRANCH   4   5
ATOM      5  N   UNL     1      -3.123  -5.520   5.199  1.00  0.00    -0.352 N 
ATOM      6  C   UNL     1      -3.834  -5.437   4.052  1.00  0.00     0.251 C 
ATOM      7  O   UNL     1      -4.724  -6.283   3.919  1.00  0.00    -0.270 OA
ATOM      8  H   UNL     1      -3.399  -6.294   5.741  1.00  0.00     0.163 HD
BRANCH   6   9
ATOM      9  C   UNL     1      -3.608  -4.431   2.974  1.00  0.00     0.067 C 
ATOM     10  C   UNL     1      -3.110  -1.717  -0.217  1.00  0.00     0.026 A 
ATOM     11  C   UNL     1      -4.046  -1.726  -1.260  1.00  0.00     0.033 A 
ATOM     12  C   UNL     1      -3.318  -2.590   0.870  1.00  0.00     0.135 A 
ATOM     13  C   UNL     1      -5.148  -2.582  -1.212  1.00  0.00     0.042 A 
ATOM     14  C   UNL     1      -4.419  -3.450   0.918  1.00  0.00     0.019 A 
ATOM     15  O   UNL     1      -2.434  -2.508   1.911  1.00  0.00    -0.475 OA
ATOM     16  Cl  UNL     1      -6.289  -2.573  -2.501  1.00  0.00    -0.084 Cl
ATOM     17  C   UNL     1      -5.339  -3.443  -0.132  1.00  0.00     0.032 A 
ATOM     18  C   UNL     1      -4.598  -4.328   2.068  1.00  0.00     0.025 C 
ATOM     19  C   UNL     1      -2.344  -3.637   2.813  1.00  0.00     0.314 C 
BRANCH  10  20
ATOM     20  C   UNL     1      -1.942  -0.820  -0.255  1.00  0.00    -0.012 A 
ATOM     21  C   UNL     1       1.515   1.774  -0.033  1.00  0.00     0.047 C 
ATOM     22  C   UNL     1       0.308   0.893  -0.139  1.00  0.00    -0.015 A 
ATOM     23  C   UNL     1      -0.985   1.423  -0.152  1.00  0.00     0.007 A 
ATOM     24  C   UNL     1       0.462  -0.492  -0.205  1.00  0.00     0.126 A 
ATOM     25  C   UNL     1      -2.098   0.574  -0.211  1.00  0.00     0.009 A 
ATOM     26  C   UNL     1      -0.639  -1.341  -0.269  1.00  0.00     0.048 A 
ATOM     27  F   UNL     1       1.691  -1.028  -0.188  1.00  0.00    -0.207 F 
ENDBRANCH  10  20
BRANCH  19  28
ATOM     28  C   UNL     1      -1.130  -4.495   2.419  1.00  0.00     0.429 C 
ATOM     29  F   UNL     1       0.015  -3.776   2.527  1.00  0.00    -0.167 F 
ATOM     30  F   UNL     1      -0.976  -5.576   3.217  1.00  0.00    -0.167 F 
ATOM     31  F   UNL     1      -1.207  -4.943   1.146  1.00  0.00    -0.167 F 
ENDBRANCH  19  28
ENDBRANCH   6   9
ENDBRANCH   4   5
ENDBRANCH   3   4
ENDBRANCH   2   3
ENDBRANCH   1   2
BRANCH   1  32
ATOM     32  C   UNL     1       0.111  -3.682   8.396  1.00  0.00     0.021 C 
BRANCH  32  33
ATOM     33  C   UNL     1       0.148  -2.506   9.359  1.00  0.00     0.116 C 
BRANCH  33  34
ATOM     34  N   UNL     1       0.191  -2.873  10.760  1.00  0.00    -0.352 N 
ATOM     35  C   UNL     1       1.168  -3.201  11.669  1.00  0.00     0.251 C 
ATOM     36  H   UNL     1      -0.707  -2.893  11.162  1.00  0.00     0.163 HD
ATOM     37  O   UNL     1       0.803  -3.421  12.812  1.00  0.00    -0.269 OA
BRANCH  35  38
ATOM     38  C   UNL     1       2.605  -3.408  11.329  1.00  0.00     0.039 A 
ATOM     39  C   UNL     1       3.334  -2.720  10.359  1.00  0.00     0.014 A 
ATOM     40  C   UNL     1       3.266  -4.386  12.091  1.00  0.00     0.014 A 
ATOM     41  C   UNL     1       4.655  -3.110  10.054  1.00  0.00     0.010 A 
ATOM     42  C   UNL     1       4.578  -4.760  11.803  1.00  0.00     0.010 A 
ATOM     43  C   UNL     1       5.265  -4.172  10.739  1.00  0.00    -0.014 A 
BRANCH  43  44
ATOM     44  C   UNL     1       6.581  -4.727  10.370  1.00  0.00     0.031 A 
ATOM     45  C   UNL     1       7.783  -3.860  10.189  1.00  0.00     0.074 A 
ATOM     46  C   UNL     1       6.717  -6.027   9.998  1.00  0.00     0.049 A 
ATOM     47  N   UNL     1       8.670  -4.035   9.258  1.00  0.00    -0.248 NA
ATOM     48  C   UNL     1       8.071  -2.711  11.044  1.00  0.00     0.031 C 
ATOM     49  C   UNL     1       7.965  -6.726   9.689  1.00  0.00     0.029 A 
ATOM     50  N   UNL     1       5.766  -6.978   9.651  1.00  0.00    -0.354 N 
ATOM     51  C   UNL     1       9.756  -3.246   9.560  1.00  0.00     0.074 A 
ATOM     52  C   UNL     1       9.296  -2.368  10.617  1.00  0.00     0.031 C 
ATOM     53  C   UNL     1       7.691  -7.785   8.911  1.00  0.00     0.029 A 
ATOM     54  C   UNL     1       6.277  -7.743   8.594  1.00  0.00     0.049 A 
ATOM     55  H   UNL     1       4.885  -7.095  10.075  1.00  0.00     0.167 HD
ATOM     56  C   UNL     1      10.981  -3.503   9.012  1.00  0.00     0.037 A 
ATOM     57  C   UNL     1       5.736  -7.862   7.339  1.00  0.00     0.037 A 
ATOM     58  C   UNL     1      10.980  -4.675   8.147  1.00  0.00     0.049 A 
ATOM     59  C   UNL     1       6.670  -7.512   6.204  1.00  0.00     0.074 A 
ATOM     60  C   UNL     1      11.301  -6.004   8.371  1.00  0.00     0.029 A 
ATOM     61  N   UNL     1      10.383  -4.624   6.903  1.00  0.00    -0.354 N 
ATOM     62  N   UNL     1       7.874  -7.058   6.384  1.00  0.00    -0.248 NA
ATOM     63  C   UNL     1       6.276  -7.503   4.791  1.00  0.00     0.031 C 
ATOM     64  C   UNL     1      10.899  -6.757   7.242  1.00  0.00     0.029 A 
ATOM     65  C   UNL     1      10.316  -5.887   6.342  1.00  0.00     0.049 A 
ATOM     66  H   UNL     1      10.050  -3.803   6.474  1.00  0.00     0.167 HD
ATOM     67  C   UNL     1       8.389  -6.666   5.183  1.00  0.00     0.074 A 
ATOM     68  C   UNL     1       7.366  -6.973   4.207  1.00  0.00     0.031 C 
ATOM     69  C   UNL     1       9.614  -6.085   5.091  1.00  0.00     0.037 A 
BRANCH  56  70
ATOM     70  C   UNL     1      12.259  -2.861   9.496  1.00  0.00     0.057 A 
ATOM     71  C   UNL     1      13.463  -3.591   9.576  1.00  0.00     0.134 A 
ATOM     72  C   UNL     1      12.356  -1.524   9.913  1.00  0.00     0.134 A 
ATOM     73  F   UNL     1      13.562  -4.848   9.124  1.00  0.00    -0.206 F 
ATOM     74  C   UNL     1      14.635  -3.072  10.136  1.00  0.00     0.040 A 
ATOM     75  C   UNL     1      13.513  -1.002  10.513  1.00  0.00     0.040 A 
ATOM     76  F   UNL     1      11.341  -0.667   9.731  1.00  0.00    -0.206 F 
ATOM     77  C   UNL     1      14.653  -1.784  10.643  1.00  0.00     0.006 A 
ENDBRANCH  56  70
BRANCH  57  78
ATOM     78  C   UNL     1       4.300  -7.522   7.283  1.00  0.00     0.057 A 
ATOM     79  C   UNL     1       3.382  -8.409   7.860  1.00  0.00     0.134 A 
ATOM     80  C   UNL     1       3.994  -6.164   7.253  1.00  0.00     0.134 A 
ATOM     81  F   UNL     1       3.620  -9.728   7.854  1.00  0.00    -0.206 F 
ATOM     82  C   UNL     1       2.312  -7.933   8.610  1.00  0.00     0.040 A 
ATOM     83  C   UNL     1       2.981  -5.684   8.059  1.00  0.00     0.040 A 
ATOM     84  F   UNL     1       4.809  -5.275   6.667  1.00  0.00    -0.206 F 
ATOM     85  C   UNL     1       2.167  -6.561   8.780  1.00  0.00     0.006 A 
ENDBRANCH  57  78
BRANCH  69  86
ATOM     86  C   UNL     1      10.260  -5.735   3.799  1.00  0.00     0.057 A 
ATOM     87  C   UNL     1      10.383  -6.670   2.763  1.00  0.00     0.134 A 
ATOM     88  C   UNL     1      10.923  -4.511   3.626  1.00  0.00     0.134 A 
ATOM     89  F   UNL     1       9.811  -7.880   2.857  1.00  0.00    -0.206 F 
ATOM     90  C   UNL     1      11.125  -6.399   1.611  1.00  0.00     0.040 A 
ATOM     91  C   UNL     1      11.694  -4.241   2.495  1.00  0.00     0.040 A 
ATOM     92  F   UNL     1      10.838  -3.540   4.549  1.00  0.00    -0.206 F 
ATOM     93  C   UNL     1      11.798  -5.188   1.482  1.00  0.00     0.006 A 
ENDBRANCH  69  86
ENDBRANCH  43  44
ENDBRANCH  35  38
ENDBRANCH  33  34
ENDBRANCH  32  33
ENDBRANCH   1  32
TORSDOF 15
