REMARK SMILES COc1cccc(N2/C(=[NH+]/C(=O)CCC(=O)NCCCCCCNC(=O)c3ccc(-c4c5nc(c(-c6c(F)cccc6F)c6ccc([nH]6)c(-c6c(F)cccc6F)c6nc(c(-c7c(F)cccc7F)c7ccc4[nH]7)C=C6)C=C5)cc3)S[C@@H]3CS(=O)(=O)C[C@H]32)c1
REMARK SMILES IDX 19 1 18 2 17 3 15 4 16 5 14 7 13 8 11 9 8 10 9 11 88 12
REMARK SMILES IDX 10 13 81 14 82 15 87 16 83 18 84 19 12 20 85 21 86 22 7 23
REMARK SMILES IDX 3 24 4 25 89 26 5 27 6 28 2 29 1 30 20 31 21 32 22 33 23 34
REMARK SMILES IDX 24 35 25 36 26 38 27 39 28 40 80 41 29 42 79 43 30 44 31 45
REMARK SMILES IDX 32 46 73 47 33 48 78 49 72 50 74 51 34 52 77 53 71 54 70 55
REMARK SMILES IDX 35 57 61 58 44 59 60 60 45 61 48 62 59 63 75 64 46 65 47 66
REMARK SMILES IDX 58 68 76 69 49 70 36 71 37 72 42 73 38 74 39 75 41 76 43 77
REMARK SMILES IDX 40 78 62 79 63 80 68 81 64 82 65 83 67 84 69 85 66 86 50 87
REMARK SMILES IDX 51 88 56 89 52 90 53 91 55 92 57 93 54 94
REMARK H PARENT 17 6 10 17 24 37 74 56 48 67
REMARK Flexibility Score: inf
ROOT
ATOM      1  C   UNL     1       5.674  -2.224  -1.043  1.00  0.00     0.021 C 
ENDROOT
BRANCH   1   2
ATOM      2  C   UNL     1       5.850  -1.160   0.069  1.00  0.00     0.116 C 
BRANCH   2   3
ATOM      3  N   UNL     1       4.782  -1.100   1.064  1.00  0.00    -0.356 N 
ATOM      4  C   UNL     1       4.691  -1.476   2.369  1.00  0.00     0.220 C 
ATOM      5  O   UNL     1       3.648  -1.204   2.970  1.00  0.00    -0.275 OA
ATOM      6  H   UNL     1       3.951  -0.702   0.716  1.00  0.00     0.163 HD
BRANCH   4   7
ATOM      7  C   UNL     1       5.798  -2.223   3.076  1.00  0.00     0.112 C 
BRANCH   7   8
ATOM      8  C   UNL     1       5.340  -3.647   3.379  1.00  0.00     0.138 C 
BRANCH   8   9
ATOM      9  C   UNL     1       5.464  -4.401   2.091  1.00  0.00     0.308 C 
ATOM     10  N   UNL     1       3.215  -5.623  -0.499  1.00  0.00    -0.216 N 
ATOM     11  C   UNL     1       4.189  -5.473   0.499  1.00  0.00     0.319 C 
ATOM     12  C   UNL     1       3.877  -6.093  -1.726  1.00  0.00     0.212 C 
ATOM     13  N   UNL     1       4.281  -4.564   1.407  1.00  0.00    -0.204 N 
ATOM     14  S   UNL     1       5.431  -6.757   0.278  1.00  0.00    -0.029 SA
ATOM     15  C   UNL     1       4.730  -7.283  -1.268  1.00  0.00     0.120 C 
ATOM     16  C   UNL     1       3.200  -6.599  -2.975  1.00  0.00     0.188 C 
ATOM     17  H   UNL     1       3.509  -3.988   1.611  1.00  0.00     0.316 HD
ATOM     18  C   UNL     1       5.700  -7.522  -2.382  1.00  0.00     0.156 C 
ATOM     19  S   UNL     1       4.611  -7.460  -3.772  1.00  0.00     0.155 S 
ATOM     20  O   UNL     1       6.594  -4.601   1.642  1.00  0.00    -0.247 OA
ATOM     21  O   UNL     1       4.208  -8.801  -4.122  1.00  0.00    -0.229 OA
ATOM     22  O   UNL     1       5.289  -6.582  -4.697  1.00  0.00    -0.229 OA
BRANCH  10  23
ATOM     23  C   UNL     1       1.943  -5.026  -0.529  1.00  0.00     0.132 A 
ATOM     24  C   UNL     1       0.381  -3.168  -0.131  1.00  0.00     0.123 A 
ATOM     25  C   UNL     1      -0.692  -3.982  -0.484  1.00  0.00     0.047 A 
ATOM     26  C   UNL     1       1.682  -3.700  -0.120  1.00  0.00     0.098 A 
ATOM     27  C   UNL     1      -0.470  -5.301  -0.859  1.00  0.00     0.008 A 
ATOM     28  C   UNL     1       0.832  -5.808  -0.891  1.00  0.00     0.052 A 
BRANCH  24  29
ATOM     29  O   UNL     1       0.020  -1.916   0.287  1.00  0.00    -0.497 OA
ATOM     30  C   UNL     1       0.888  -0.846  -0.061  1.00  0.00     0.278 C 
ENDBRANCH  24  29
ENDBRANCH  10  23
ENDBRANCH   8   9
ENDBRANCH   7   8
ENDBRANCH   4   7
ENDBRANCH   2   3
ENDBRANCH   1   2
BRANCH   1  31
ATOM     31  C   UNL     1       4.328  -2.245  -1.799  1.00  0.00     0.002 C 
BRANCH  31  32
ATOM     32  C   UNL     1       4.206  -1.843  -3.290  1.00  0.00     0.002 C 
BRANCH  32  33
ATOM     33  C   UNL     1       5.140  -2.434  -4.372  1.00  0.00     0.021 C 
BRANCH  33  34
ATOM     34  C   UNL     1       4.768  -3.771  -5.064  1.00  0.00     0.116 C 
BRANCH  34  35
ATOM     35  N   UNL     1       3.554  -3.829  -5.881  1.00  0.00    -0.352 N 
ATOM     36  C   UNL     1       3.160  -4.777  -6.829  1.00  0.00     0.251 C 
ATOM     37  H   UNL     1       2.920  -3.089  -5.741  1.00  0.00     0.163 HD
ATOM     38  O   UNL     1       1.968  -4.867  -7.118  1.00  0.00    -0.269 OA
BRANCH  36  39
ATOM     39  C   UNL     1       4.111  -5.718  -7.491  1.00  0.00     0.039 A 
ATOM     40  C   UNL     1       4.871  -5.352  -8.593  1.00  0.00     0.014 A 
ATOM     41  C   UNL     1       4.177  -7.048  -7.091  1.00  0.00     0.014 A 
ATOM     42  C   UNL     1       5.824  -6.253  -9.126  1.00  0.00     0.010 A 
ATOM     43  C   UNL     1       5.270  -7.856  -7.474  1.00  0.00     0.010 A 
ATOM     44  C   UNL     1       6.167  -7.461  -8.472  1.00  0.00    -0.014 A 
BRANCH  44  45
ATOM     45  C   UNL     1       7.477  -8.181  -8.786  1.00  0.00     0.031 A 
ATOM     46  C   UNL     1       7.641  -9.702  -8.858  1.00  0.00     0.074 A 
ATOM     47  C   UNL     1       8.615  -7.449  -8.928  1.00  0.00     0.049 A 
ATOM     48  N   UNL     1       8.712 -10.405  -9.177  1.00  0.00    -0.248 NA
ATOM     49  C   UNL     1       6.502 -10.549  -8.475  1.00  0.00     0.031 C 
ATOM     50  C   UNL     1       8.732  -6.007  -8.690  1.00  0.00     0.029 A 
ATOM     51  N   UNL     1       9.894  -7.800  -9.317  1.00  0.00    -0.354 N 
ATOM     52  C   UNL     1       8.379 -11.749  -8.996  1.00  0.00     0.074 A 
ATOM     53  C   UNL     1       7.033 -11.765  -8.473  1.00  0.00     0.031 C 
ATOM     54  C   UNL     1       9.951  -5.582  -9.046  1.00  0.00     0.029 A 
ATOM     55  C   UNL     1      10.749  -6.725  -9.466  1.00  0.00     0.049 A 
ATOM     56  H   UNL     1      10.171  -8.731  -9.475  1.00  0.00     0.167 HD
ATOM     57  C   UNL     1       9.092 -12.873  -9.274  1.00  0.00     0.037 A 
ATOM     58  C   UNL     1      12.027  -6.639  -9.893  1.00  0.00     0.037 A 
ATOM     59  C   UNL     1      10.409 -12.886  -9.862  1.00  0.00     0.049 A 
ATOM     60  C   UNL     1      12.757  -7.886 -10.311  1.00  0.00     0.074 A 
ATOM     61  C   UNL     1      11.141 -13.974 -10.314  1.00  0.00     0.029 A 
ATOM     62  N   UNL     1      11.194 -11.766 -10.072  1.00  0.00    -0.354 N 
ATOM     63  N   UNL     1      12.342  -9.127 -10.298  1.00  0.00    -0.248 NA
ATOM     64  C   UNL     1      14.131  -7.720 -10.812  1.00  0.00     0.031 C 
ATOM     65  C   UNL     1      12.389 -13.518 -10.747  1.00  0.00     0.029 A 
ATOM     66  C   UNL     1      12.411 -12.140 -10.622  1.00  0.00     0.049 A 
ATOM     67  H   UNL     1      10.928 -10.842  -9.863  1.00  0.00     0.167 HD
ATOM     68  C   UNL     1      13.389  -9.882 -10.811  1.00  0.00     0.074 A 
ATOM     69  C   UNL     1      14.449  -8.960 -11.151  1.00  0.00     0.031 C 
ATOM     70  C   UNL     1      13.463 -11.224 -10.977  1.00  0.00     0.037 A 
BRANCH  57  71
ATOM     71  C   UNL     1       8.457 -14.216  -8.998  1.00  0.00     0.057 A 
ATOM     72  C   UNL     1       7.367 -14.685  -9.743  1.00  0.00     0.134 A 
ATOM     73  C   UNL     1       9.005 -15.093  -8.049  1.00  0.00     0.134 A 
ATOM     74  F   UNL     1       6.798 -13.909 -10.678  1.00  0.00    -0.206 F 
ATOM     75  C   UNL     1       6.824 -15.956  -9.534  1.00  0.00     0.040 A 
ATOM     76  C   UNL     1       8.491 -16.378  -7.853  1.00  0.00     0.040 A 
ATOM     77  F   UNL     1      10.069 -14.729  -7.317  1.00  0.00    -0.206 F 
ATOM     78  C   UNL     1       7.392 -16.810  -8.591  1.00  0.00     0.006 A 
ENDBRANCH  57  71
BRANCH  58  79
ATOM     79  C   UNL     1      12.707  -5.314  -9.984  1.00  0.00     0.057 A 
ATOM     80  C   UNL     1      13.071  -4.767 -11.223  1.00  0.00     0.134 A 
ATOM     81  C   UNL     1      13.044  -4.581  -8.840  1.00  0.00     0.134 A 
ATOM     82  F   UNL     1      12.796  -5.425 -12.359  1.00  0.00    -0.206 F 
ATOM     83  C   UNL     1      13.774  -3.564 -11.318  1.00  0.00     0.040 A 
ATOM     84  C   UNL     1      13.715  -3.358  -8.923  1.00  0.00     0.040 A 
ATOM     85  F   UNL     1      12.716  -5.036  -7.622  1.00  0.00    -0.206 F 
ATOM     86  C   UNL     1      14.095  -2.853 -10.164  1.00  0.00     0.006 A 
ENDBRANCH  58  79
BRANCH  70  87
ATOM     87  C   UNL     1      14.714 -11.783 -11.591  1.00  0.00     0.057 A 
ATOM     88  C   UNL     1      15.935 -11.800 -10.906  1.00  0.00     0.134 A 
ATOM     89  C   UNL     1      14.684 -12.350 -12.872  1.00  0.00     0.134 A 
ATOM     90  F   UNL     1      16.036 -11.262  -9.681  1.00  0.00    -0.206 F 
ATOM     91  C   UNL     1      17.087 -12.339 -11.482  1.00  0.00     0.040 A 
ATOM     92  C   UNL     1      15.822 -12.919 -13.446  1.00  0.00     0.040 A 
ATOM     93  F   UNL     1      13.545 -12.375 -13.581  1.00  0.00    -0.206 F 
ATOM     94  C   UNL     1      17.030 -12.908 -12.752  1.00  0.00     0.006 A 
ENDBRANCH  70  87
ENDBRANCH  44  45
ENDBRANCH  36  39
ENDBRANCH  34  35
ENDBRANCH  33  34
ENDBRANCH  32  33
ENDBRANCH  31  32
ENDBRANCH   1  31
TORSDOF 17
