REMARK SMILES COCC[C@]1(C(=O)NCCCCCCNC(=O)c2ccc(-c3c4nc(c(-c5c(F)cccc5F)c5ccc([nH]5)c(-c5c(F)cccc5F)c5nc(c(-c6c(F)cccc6F)c6ccc3[nH]6)C=C5)C=C4)cc2)CCCN(C(=O)Cc2c(C)nc(C)[nH]c2=O)C1
REMARK SMILES IDX 11 1 10 2 9 3 8 4 6 5 7 6 5 8 72 9 88 10 73 11 75 12 74 13
REMARK SMILES IDX 4 14 3 15 2 16 1 17 76 18 77 19 78 20 79 21 80 22 86 23
REMARK SMILES IDX 81 24 82 25 85 26 87 27 83 28 84 30 12 31 13 32 14 33 15 34
REMARK SMILES IDX 16 35 17 37 18 38 19 39 71 40 20 41 70 42 21 43 22 44 23 45
REMARK SMILES IDX 64 46 24 47 69 48 63 49 65 50 25 51 68 52 62 53 61 54 26 56
REMARK SMILES IDX 52 57 35 58 51 59 36 60 39 61 50 62 66 63 37 64 38 65 49 67
REMARK SMILES IDX 67 68 40 69 27 70 28 71 33 72 29 73 30 74 32 75 34 76 31 77
REMARK SMILES IDX 53 78 54 79 59 80 55 81 56 82 58 83 60 84 57 85 41 86 42 87
REMARK SMILES IDX 47 88 43 89 44 90 46 91 48 92 45 93
REMARK H PARENT 8 7 85 29 15 36 65 55 39 66
REMARK Flexibility Score: inf
ROOT
ATOM      1  C   UNL     1       0.508  -4.434  -4.650  1.00  0.00     0.002 C 
ENDROOT
BRANCH   1   2
ATOM      2  C   UNL     1       1.513  -4.221  -3.513  1.00  0.00     0.021 C 
BRANCH   2   3
ATOM      3  C   UNL     1       1.462  -2.840  -2.855  1.00  0.00     0.116 C 
BRANCH   3   4
ATOM      4  N   UNL     1       0.254  -2.648  -2.073  1.00  0.00    -0.356 N 
ATOM      5  C   UNL     1       0.024  -2.397  -0.751  1.00  0.00     0.228 C 
ATOM      6  O   UNL     1      -1.165  -2.315  -0.437  1.00  0.00    -0.274 OA
ATOM      7  H   UNL     1      -0.571  -2.711  -2.607  1.00  0.00     0.163 HD
BRANCH   5   8
ATOM      8  C   UNL     1       1.166  -2.240   0.286  1.00  0.00     0.069 C 
ATOM      9  C   UNL     1       1.993  -3.575   0.292  1.00  0.00     0.021 C 
ATOM     10  C   UNL     1       2.027  -1.002  -0.087  1.00  0.00     0.136 C 
ATOM     11  C   UNL     1       3.426  -3.426   0.813  1.00  0.00     0.023 C 
ATOM     12  N   UNL     1       3.350  -1.024   0.543  1.00  0.00    -0.341 N 
ATOM     13  C   UNL     1       4.117  -2.212   0.210  1.00  0.00     0.119 C 
BRANCH   8  14
ATOM     14  C   UNL     1       0.567  -2.116   1.739  1.00  0.00     0.047 C 
BRANCH  14  15
ATOM     15  C   UNL     1       0.187  -0.748   2.317  1.00  0.00     0.161 C 
BRANCH  15  16
ATOM     16  O   UNL     1      -1.036  -0.228   1.820  1.00  0.00    -0.385 OA
ATOM     17  C   UNL     1      -0.884   0.798   0.852  1.00  0.00     0.194 C 
ENDBRANCH  15  16
ENDBRANCH  14  15
ENDBRANCH   8  14
BRANCH  12  18
ATOM     18  C   UNL     1       3.756   0.020   1.367  1.00  0.00     0.227 C 
ATOM     19  O   UNL     1       3.054   1.026   1.513  1.00  0.00    -0.275 OA
BRANCH  18  20
ATOM     20  C   UNL     1       5.084  -0.061   2.134  1.00  0.00     0.143 C 
BRANCH  20  21
ATOM     21  C   UNL     1       4.935  -0.841   3.414  1.00  0.00     0.048 A 
ATOM     22  C   UNL     1       4.554  -0.395   4.631  1.00  0.00     0.049 A 
ATOM     23  C   UNL     1       5.357  -2.263   3.373  1.00  0.00     0.254 A 
ATOM     24  C   UNL     1       4.283   1.054   4.948  1.00  0.00     0.067 C 
ATOM     25  N   UNL     1       4.347  -1.220   5.720  1.00  0.00    -0.240 NA
ATOM     26  N   UNL     1       4.952  -3.041   4.405  1.00  0.00    -0.311 N 
ATOM     27  O   UNL     1       6.059  -2.726   2.481  1.00  0.00    -0.269 OA
ATOM     28  C   UNL     1       4.500  -2.491   5.560  1.00  0.00     0.105 A 
ATOM     29  H   UNL     1       4.986  -4.021   4.315  1.00  0.00     0.171 HD
ATOM     30  C   UNL     1       4.231  -3.459   6.673  1.00  0.00     0.087 C 
ENDBRANCH  20  21
ENDBRANCH  18  20
ENDBRANCH  12  18
ENDBRANCH   5   8
ENDBRANCH   3   4
ENDBRANCH   2   3
ENDBRANCH   1   2
BRANCH   1  31
ATOM     31  C   UNL     1       0.535  -3.384  -5.764  1.00  0.00     0.002 C 
BRANCH  31  32
ATOM     32  C   UNL     1       1.911  -3.091  -6.368  1.00  0.00     0.021 C 
BRANCH  32  33
ATOM     33  C   UNL     1       2.648  -4.302  -6.928  1.00  0.00     0.116 C 
BRANCH  33  34
ATOM     34  N   UNL     1       1.942  -4.921  -8.035  1.00  0.00    -0.352 N 
ATOM     35  C   UNL     1       2.408  -5.262  -9.282  1.00  0.00     0.251 C 
ATOM     36  H   UNL     1       0.994  -5.126  -7.868  1.00  0.00     0.163 HD
ATOM     37  O   UNL     1       1.632  -5.638 -10.149  1.00  0.00    -0.269 OA
BRANCH  35  38
ATOM     38  C   UNL     1       3.853  -5.149  -9.583  1.00  0.00     0.039 A 
ATOM     39  C   UNL     1       4.242  -4.546 -10.781  1.00  0.00     0.014 A 
ATOM     40  C   UNL     1       4.816  -5.645  -8.700  1.00  0.00     0.014 A 
ATOM     41  C   UNL     1       5.600  -4.389 -11.069  1.00  0.00     0.010 A 
ATOM     42  C   UNL     1       6.168  -5.432  -8.957  1.00  0.00     0.010 A 
ATOM     43  C   UNL     1       6.572  -4.806 -10.146  1.00  0.00    -0.014 A 
BRANCH  43  44
ATOM     44  C   UNL     1       8.018  -4.599 -10.411  1.00  0.00     0.031 A 
ATOM     45  C   UNL     1       8.927  -5.781 -10.605  1.00  0.00     0.074 A 
ATOM     46  C   UNL     1       8.524  -3.351 -10.415  1.00  0.00     0.049 A 
ATOM     47  N   UNL     1      10.223  -5.806 -10.779  1.00  0.00    -0.248 NA
ATOM     48  C   UNL     1       8.298  -7.111 -10.572  1.00  0.00     0.031 C 
ATOM     49  C   UNL     1       7.754  -2.125 -10.193  1.00  0.00     0.029 A 
ATOM     50  N   UNL     1       9.809  -2.908 -10.603  1.00  0.00    -0.354 N 
ATOM     51  C   UNL     1      10.567  -7.150 -10.858  1.00  0.00     0.074 A 
ATOM     52  C   UNL     1       9.351  -7.910 -10.668  1.00  0.00     0.031 C 
ATOM     53  C   UNL     1       8.579  -1.069 -10.277  1.00  0.00     0.029 A 
ATOM     54  C   UNL     1       9.937  -1.543 -10.525  1.00  0.00     0.049 A 
ATOM     55  H   UNL     1      10.567  -3.511 -10.777  1.00  0.00     0.167 HD
ATOM     56  C   UNL     1      11.783  -7.700 -11.087  1.00  0.00     0.037 A 
ATOM     57  C   UNL     1      11.027  -0.761 -10.638  1.00  0.00     0.037 A 
ATOM     58  C   UNL     1      12.986  -6.942 -11.310  1.00  0.00     0.049 A 
ATOM     59  C   UNL     1      12.363  -1.395 -10.907  1.00  0.00     0.074 A 
ATOM     60  C   UNL     1      14.253  -7.407 -11.620  1.00  0.00     0.029 A 
ATOM     61  N   UNL     1      13.071  -5.560 -11.248  1.00  0.00    -0.354 N 
ATOM     62  N   UNL     1      12.663  -2.664 -11.042  1.00  0.00    -0.248 NA
ATOM     63  C   UNL     1      13.511  -0.488 -11.045  1.00  0.00     0.031 C 
ATOM     64  C   UNL     1      15.112  -6.306 -11.710  1.00  0.00     0.029 A 
ATOM     65  C   UNL     1      14.372  -5.155 -11.496  1.00  0.00     0.049 A 
ATOM     66  H   UNL     1      12.318  -4.955 -11.057  1.00  0.00     0.167 HD
ATOM     67  C   UNL     1      14.026  -2.707 -11.305  1.00  0.00     0.074 A 
ATOM     68  C   UNL     1      14.492  -1.336 -11.322  1.00  0.00     0.031 C 
ATOM     69  C   UNL     1      14.819  -3.785 -11.514  1.00  0.00     0.037 A 
BRANCH  56  70
ATOM     70  C   UNL     1      11.871  -9.197 -11.113  1.00  0.00     0.057 A 
ATOM     71  C   UNL     1      11.339  -9.950 -12.168  1.00  0.00     0.134 A 
ATOM     72  C   UNL     1      12.524  -9.893 -10.088  1.00  0.00     0.134 A 
ATOM     73  F   UNL     1      10.690  -9.345 -13.175  1.00  0.00    -0.206 F 
ATOM     74  C   UNL     1      11.432 -11.343 -12.191  1.00  0.00     0.040 A 
ATOM     75  C   UNL     1      12.646 -11.283 -10.112  1.00  0.00     0.040 A 
ATOM     76  F   UNL     1      13.061  -9.232  -9.050  1.00  0.00    -0.206 F 
ATOM     77  C   UNL     1      12.093 -12.012 -11.163  1.00  0.00     0.006 A 
ENDBRANCH  56  70
BRANCH  57  78
ATOM     78  C   UNL     1      10.896   0.712 -10.523  1.00  0.00     0.057 A 
ATOM     79  C   UNL     1      11.027   1.536 -11.647  1.00  0.00     0.134 A 
ATOM     80  C   UNL     1      10.635   1.331  -9.295  1.00  0.00     0.134 A 
ATOM     81  F   UNL     1      11.295   1.001 -12.848  1.00  0.00    -0.206 F 
ATOM     82  C   UNL     1      10.917   2.924 -11.553  1.00  0.00     0.040 A 
ATOM     83  C   UNL     1      10.501   2.716  -9.190  1.00  0.00     0.040 A 
ATOM     84  F   UNL     1      10.492   0.595  -8.183  1.00  0.00    -0.206 F 
ATOM     85  C   UNL     1      10.648   3.517 -10.321  1.00  0.00     0.006 A 
ENDBRANCH  57  78
BRANCH  69  86
ATOM     86  C   UNL     1      16.266  -3.525 -11.807  1.00  0.00     0.057 A 
ATOM     87  C   UNL     1      17.160  -3.122 -10.807  1.00  0.00     0.134 A 
ATOM     88  C   UNL     1      16.779  -3.721 -13.095  1.00  0.00     0.134 A 
ATOM     89  F   UNL     1      16.727  -2.905  -9.556  1.00  0.00    -0.206 F 
ATOM     90  C   UNL     1      18.510  -2.903 -11.084  1.00  0.00     0.040 A 
ATOM     91  C   UNL     1      18.131  -3.528 -13.379  1.00  0.00     0.040 A 
ATOM     92  F   UNL     1      15.976  -4.115 -14.095  1.00  0.00    -0.206 F 
ATOM     93  C   UNL     1      19.000  -3.114 -12.372  1.00  0.00     0.006 A 
ENDBRANCH  69  86
ENDBRANCH  43  44
ENDBRANCH  35  38
ENDBRANCH  33  34
ENDBRANCH  32  33
ENDBRANCH  31  32
ENDBRANCH   1  31
TORSDOF 19
