REMARK SMILES COc1ccc(NC(=O)[C@@H]2[C@@H](C(=O)NCCCCCCNC(=O)c3ccc(-c4c5nc(c(-c6c(F)cccc6F)c6ccc([nH]6)c(-c6c(F)cccc6F)c6nc(c(-c7c(F)cccc7F)c7ccc4[nH]7)C=C6)C=C5)cc3)[C@@H]3CC[C@H]2C3=C(C)C)cc1
REMARK SMILES IDX 17 1 16 2 15 3 14 4 12 5 13 6 11 8 10 9 81 10 78 11 80 12
REMARK SMILES IDX 82 13 79 14 83 15 84 16 85 17 8 18 7 19 9 21 6 22 3 23 4 24
REMARK SMILES IDX 87 25 5 26 86 27 2 28 1 29 18 30 19 31 20 32 21 33 22 34
REMARK SMILES IDX 23 36 24 37 25 38 77 39 26 40 76 41 27 42 28 43 29 44 70 45
REMARK SMILES IDX 30 46 75 47 69 48 71 49 31 50 74 51 68 52 67 53 32 55 58 56
REMARK SMILES IDX 41 57 57 58 42 59 45 60 56 61 72 62 43 63 44 64 55 66 73 67
REMARK SMILES IDX 46 68 33 69 34 70 39 71 35 72 36 73 38 74 40 75 37 76 59 77
REMARK SMILES IDX 60 78 65 79 61 80 62 81 64 82 66 83 63 84 47 85 48 86 53 87
REMARK SMILES IDX 49 88 50 89 52 90 54 91 51 92
REMARK H PARENT 14 7 7 20 21 35 71 54 45 65
REMARK Flexibility Score: inf
ROOT
ATOM      1  C   UNL     1      -5.441  -2.781  -4.592  1.00  0.00     0.002 C 
ENDROOT
BRANCH   1   2
ATOM      2  C   UNL     1      -4.306  -2.728  -5.619  1.00  0.00     0.021 C 
BRANCH   2   3
ATOM      3  C   UNL     1      -3.682  -1.337  -5.775  1.00  0.00     0.116 C 
BRANCH   3   4
ATOM      4  N   UNL     1      -2.397  -1.267  -5.120  1.00  0.00    -0.356 N 
ATOM      5  C   UNL     1      -1.160  -1.476  -5.639  1.00  0.00     0.224 C 
ATOM      6  O   UNL     1      -0.362  -2.060  -4.896  1.00  0.00    -0.275 OA
ATOM      7  H   UNL     1      -2.421  -1.034  -4.164  1.00  0.00     0.163 HD
BRANCH   5   8
ATOM      8  C   UNL     1      -0.673  -0.981  -7.003  1.00  0.00     0.098 C 
ATOM      9  C   UNL     1      -0.527   0.557  -7.175  1.00  0.00     0.099 C 
ATOM     10  C   UNL     1      -1.011   0.752  -8.639  1.00  0.00     0.028 C 
ATOM     11  C   UNL     1      -1.508  -1.420  -8.240  1.00  0.00     0.028 C 
ATOM     12  C   UNL     1      -0.192  -0.043  -9.691  1.00  0.00     0.009 C 
ATOM     13  C   UNL     1      -2.216  -0.139  -8.635  1.00  0.00    -0.064 C 
ATOM     14  C   UNL     1      -0.541  -1.518  -9.423  1.00  0.00     0.009 C 
ATOM     15  C   UNL     1      -3.479   0.171  -8.979  1.00  0.00    -0.077 C 
ATOM     16  C   UNL     1      -4.579  -0.838  -9.148  1.00  0.00     0.039 C 
ATOM     17  C   UNL     1      -3.905   1.596  -9.222  1.00  0.00     0.039 C 
BRANCH   9  18
ATOM     18  C   UNL     1       0.878   1.158  -7.050  1.00  0.00     0.228 C 
ATOM     19  N   UNL     1       1.651   1.076  -5.937  1.00  0.00    -0.326 N 
ATOM     20  H   UNL     1       2.595   1.291  -6.112  1.00  0.00     0.169 HD
ATOM     21  O   UNL     1       1.397   1.763  -7.998  1.00  0.00    -0.274 OA
BRANCH  19  22
ATOM     22  C   UNL     1       1.405   0.756  -4.600  1.00  0.00     0.041 A 
ATOM     23  C   UNL     1       1.076  -0.077  -1.957  1.00  0.00     0.119 A 
ATOM     24  C   UNL     1      -0.015   0.397  -2.679  1.00  0.00     0.048 A 
ATOM     25  C   UNL     1       2.347  -0.076  -2.518  1.00  0.00     0.048 A 
ATOM     26  C   UNL     1       0.156   0.840  -3.993  1.00  0.00     0.030 A 
ATOM     27  C   UNL     1       2.512   0.361  -3.834  1.00  0.00     0.030 A 
BRANCH  23  28
ATOM     28  O   UNL     1       0.852  -0.648  -0.736  1.00  0.00    -0.497 OA
ATOM     29  C   UNL     1       1.164   0.261   0.315  1.00  0.00     0.278 C 
ENDBRANCH  23  28
ENDBRANCH  19  22
ENDBRANCH   9  18
ENDBRANCH   5   8
ENDBRANCH   3   4
ENDBRANCH   2   3
ENDBRANCH   1   2
BRANCH   1  30
ATOM     30  C   UNL     1      -6.663  -1.917  -4.928  1.00  0.00     0.002 C 
BRANCH  30  31
ATOM     31  C   UNL     1      -7.297  -2.179  -6.296  1.00  0.00     0.021 C 
BRANCH  31  32
ATOM     32  C   UNL     1      -7.777  -3.609  -6.517  1.00  0.00     0.116 C 
BRANCH  32  33
ATOM     33  N   UNL     1      -8.820  -3.983  -5.574  1.00  0.00    -0.352 N 
ATOM     34  C   UNL     1     -10.140  -4.274  -5.801  1.00  0.00     0.251 C 
ATOM     35  H   UNL     1      -8.535  -4.035  -4.633  1.00  0.00     0.163 HD
ATOM     36  O   UNL     1     -10.931  -4.331  -4.859  1.00  0.00    -0.269 OA
BRANCH  34  37
ATOM     37  C   UNL     1     -10.621  -4.502  -7.178  1.00  0.00     0.039 A 
ATOM     38  C   UNL     1     -11.816  -3.907  -7.588  1.00  0.00     0.014 A 
ATOM     39  C   UNL     1      -9.896  -5.306  -8.062  1.00  0.00     0.014 A 
ATOM     40  C   UNL     1     -12.244  -4.055  -8.909  1.00  0.00     0.010 A 
ATOM     41  C   UNL     1     -10.283  -5.390  -9.395  1.00  0.00     0.010 A 
ATOM     42  C   UNL     1     -11.457  -4.760  -9.834  1.00  0.00    -0.014 A 
BRANCH  42  43
ATOM     43  C   UNL     1     -11.828  -4.831 -11.270  1.00  0.00     0.031 A 
ATOM     44  C   UNL     1     -12.143  -6.154 -11.908  1.00  0.00     0.074 A 
ATOM     45  C   UNL     1     -11.804  -3.709 -12.016  1.00  0.00     0.049 A 
ATOM     46  N   UNL     1     -12.396  -6.427 -13.163  1.00  0.00    -0.248 NA
ATOM     47  C   UNL     1     -12.152  -7.330 -11.024  1.00  0.00     0.031 C 
ATOM     48  C   UNL     1     -11.476  -2.370 -11.520  1.00  0.00     0.029 A 
ATOM     49  N   UNL     1     -12.045  -3.516 -13.353  1.00  0.00    -0.354 N 
ATOM     50  C   UNL     1     -12.583  -7.802 -13.220  1.00  0.00     0.074 A 
ATOM     51  C   UNL     1     -12.362  -8.314 -11.885  1.00  0.00     0.031 C 
ATOM     52  C   UNL     1     -11.555  -1.494 -12.534  1.00  0.00     0.029 A 
ATOM     53  C   UNL     1     -11.890  -2.212 -13.759  1.00  0.00     0.049 A 
ATOM     54  H   UNL     1     -12.303  -4.244 -13.964  1.00  0.00     0.167 HD
ATOM     55  C   UNL     1     -12.927  -8.565 -14.285  1.00  0.00     0.037 A 
ATOM     56  C   UNL     1     -11.989  -1.660 -14.983  1.00  0.00     0.037 A 
ATOM     57  C   UNL     1     -13.157  -8.047 -15.609  1.00  0.00     0.049 A 
ATOM     58  C   UNL     1     -12.331  -2.536 -16.157  1.00  0.00     0.074 A 
ATOM     59  C   UNL     1     -13.565  -8.729 -16.742  1.00  0.00     0.029 A 
ATOM     60  N   UNL     1     -12.988  -6.721 -15.980  1.00  0.00    -0.354 N 
ATOM     61  N   UNL     1     -12.575  -3.824 -16.183  1.00  0.00    -0.248 NA
ATOM     62  C   UNL     1     -12.410  -1.883 -17.471  1.00  0.00     0.031 C 
ATOM     63  C   UNL     1     -13.588  -7.828 -17.810  1.00  0.00     0.029 A 
ATOM     64  C   UNL     1     -13.250  -6.572 -17.332  1.00  0.00     0.049 A 
ATOM     65  H   UNL     1     -12.721  -5.994 -15.373  1.00  0.00     0.167 HD
ATOM     66  C   UNL     1     -12.861  -4.130 -17.508  1.00  0.00     0.074 A 
ATOM     67  C   UNL     1     -12.776  -2.890 -18.251  1.00  0.00     0.031 C 
ATOM     68  C   UNL     1     -13.164  -5.330 -18.059  1.00  0.00     0.037 A 
BRANCH  55  69
ATOM     69  C   UNL     1     -13.074 -10.043 -14.063  1.00  0.00     0.057 A 
ATOM     70  C   UNL     1     -14.126 -10.577 -13.307  1.00  0.00     0.134 A 
ATOM     71  C   UNL     1     -12.176 -10.946 -14.646  1.00  0.00     0.134 A 
ATOM     72  F   UNL     1     -15.016  -9.767 -12.714  1.00  0.00    -0.206 F 
ATOM     73  C   UNL     1     -14.264 -11.953 -13.117  1.00  0.00     0.040 A 
ATOM     74  C   UNL     1     -12.321 -12.326 -14.487  1.00  0.00     0.040 A 
ATOM     75  F   UNL     1     -11.150 -10.505 -15.389  1.00  0.00    -0.206 F 
ATOM     76  C   UNL     1     -13.364 -12.832 -13.714  1.00  0.00     0.006 A 
ENDBRANCH  55  69
BRANCH  56  77
ATOM     77  C   UNL     1     -11.764  -0.203 -15.163  1.00  0.00     0.057 A 
ATOM     78  C   UNL     1     -12.816   0.652 -15.514  1.00  0.00     0.134 A 
ATOM     79  C   UNL     1     -10.497   0.369 -15.000  1.00  0.00     0.134 A 
ATOM     80  F   UNL     1     -14.050   0.161 -15.703  1.00  0.00    -0.206 F 
ATOM     81  C   UNL     1     -12.613   2.018 -15.716  1.00  0.00     0.040 A 
ATOM     82  C   UNL     1     -10.284   1.738 -15.171  1.00  0.00     0.040 A 
ATOM     83  F   UNL     1      -9.448  -0.393 -14.656  1.00  0.00    -0.206 F 
ATOM     84  C   UNL     1     -11.344   2.565 -15.540  1.00  0.00     0.006 A 
ENDBRANCH  56  77
BRANCH  68  85
ATOM     85  C   UNL     1     -13.453  -5.361 -19.531  1.00  0.00     0.057 A 
ATOM     86  C   UNL     1     -12.442  -5.199 -20.486  1.00  0.00     0.134 A 
ATOM     87  C   UNL     1     -14.751  -5.610 -19.998  1.00  0.00     0.134 A 
ATOM     88  F   UNL     1     -11.181  -4.944 -20.105  1.00  0.00    -0.206 F 
ATOM     89  C   UNL     1     -12.713  -5.267 -21.854  1.00  0.00     0.040 A 
ATOM     90  C   UNL     1     -15.029  -5.709 -21.362  1.00  0.00     0.040 A 
ATOM     91  F   UNL     1     -15.764  -5.782 -19.137  1.00  0.00    -0.206 F 
ATOM     92  C   UNL     1     -14.009  -5.533 -22.294  1.00  0.00     0.006 A 
ENDBRANCH  68  85
ENDBRANCH  42  43
ENDBRANCH  34  37
ENDBRANCH  32  33
ENDBRANCH  31  32
ENDBRANCH  30  31
ENDBRANCH   1  30
TORSDOF 16
