REMARK SMILES CCc1cc(OCCC(=O)NCCCCCCNC(=O)c2ccc(-c3c4nc(c(-c5c(F)cccc5F)c5ccc([nH]5)c(-c5c(F)cccc5F)c5nc(c(-c6c(F)cccc6F)c6ccc3[nH]6)C=C5)C=C4)cc2)nc(-c2cnccn2)n1
REMARK SMILES IDX 13 1 12 2 11 3 9 4 10 5 8 7 7 8 6 9 5 10 3 11 4 12 83 13
REMARK SMILES IDX 76 14 75 15 2 16 1 17 77 18 78 19 82 20 79 21 81 22 80 23
REMARK SMILES IDX 14 24 15 25 16 26 17 27 18 28 19 29 20 31 21 32 22 33 74 34
REMARK SMILES IDX 23 35 73 36 24 37 25 38 26 39 67 40 27 41 72 42 66 43 68 44
REMARK SMILES IDX 28 45 71 46 65 47 64 48 29 50 55 51 38 52 54 53 39 54 42 55
REMARK SMILES IDX 53 56 69 57 40 58 41 59 52 61 70 62 43 63 30 64 31 65 36 66
REMARK SMILES IDX 32 67 33 68 35 69 37 70 34 71 56 72 57 73 62 74 58 75 59 76
REMARK SMILES IDX 61 77 63 78 60 79 44 80 45 81 50 82 46 83 47 84 49 85 51 86
REMARK SMILES IDX 48 87
REMARK H PARENT 11 6 18 30 68 49 42 60
REMARK Flexibility Score: inf
ROOT
ATOM      1  C   UNL     1       0.639  -1.482   3.191  1.00  0.00     0.021 C 
ENDROOT
BRANCH   1   2
ATOM      2  C   UNL     1       2.298  -0.075   3.525  1.00  0.00     0.116 C 
BRANCH   2   3
ATOM      3  N   UNL     1       2.981   0.915   2.533  1.00  0.00    -0.356 N 
ATOM      4  C   UNL     1       2.883   2.268   2.493  1.00  0.00     0.223 C 
ATOM      5  O   UNL     1       3.236   2.870   1.481  1.00  0.00    -0.275 OA
ATOM      6  H   UNL     1       3.557   0.506   1.847  1.00  0.00     0.163 HD
BRANCH   4   7
ATOM      7  C   UNL     1       2.375   2.968   3.732  1.00  0.00     0.141 C 
BRANCH   7   8
ATOM      8  C   UNL     1       0.861   2.883   4.007  1.00  0.00     0.241 C 
BRANCH   8   9
ATOM      9  O   UNL     1       0.321   1.757   4.748  1.00  0.00    -0.477 OA
BRANCH   9  10
ATOM     10  C   UNL     1       0.349   0.503   4.119  1.00  0.00     0.217 A 
ATOM     11  C   UNL     1       1.552  -0.617   1.625  1.00  0.00     0.048 A 
ATOM     12  C   UNL     1       0.507   0.552   2.403  1.00  0.00     0.092 A 
ATOM     13  N   UNL     1       2.454  -1.761   2.645  1.00  0.00    -0.231 NA
ATOM     14  C   UNL     1       2.082  -1.891   4.423  1.00  0.00     0.183 A 
ATOM     15  N   UNL     1       1.079  -0.698   5.138  1.00  0.00    -0.192 NA
BRANCH  11  16
ATOM     16  C   UNL     1       1.189  -0.948   0.191  1.00  0.00     0.053 C 
ATOM     17  C   UNL     1       1.246   0.240  -0.752  1.00  0.00     0.011 C 
ENDBRANCH  11  16
BRANCH  14  18
ATOM     18  C   UNL     1       1.954  -3.273   5.182  1.00  0.00     0.126 A 
ATOM     19  C   UNL     1       2.590  -3.090   6.800  1.00  0.00     0.143 A 
ATOM     20  N   UNL     1       2.295  -4.842   4.317  1.00  0.00    -0.250 NA
ATOM     21  N   UNL     1       3.744  -4.201   7.452  1.00  0.00    -0.261 NA
ATOM     22  C   UNL     1       3.492  -6.008   4.996  1.00  0.00     0.132 A 
ATOM     23  C   UNL     1       4.187  -5.641   6.582  1.00  0.00     0.131 A 
ENDBRANCH  14  18
ENDBRANCH   9  10
ENDBRANCH   8   9
ENDBRANCH   7   8
ENDBRANCH   4   7
ENDBRANCH   2   3
ENDBRANCH   1   2
BRANCH   1  24
ATOM     24  C   UNL     1       0.965  -3.241   2.533  1.00  0.00     0.002 C 
BRANCH  24  25
ATOM     25  C   UNL     1       2.582  -3.938   2.285  1.00  0.00     0.002 C 
BRANCH  25  26
ATOM     26  C   UNL     1       3.921  -3.794   3.403  1.00  0.00     0.021 C 
BRANCH  26  27
ATOM     27  C   UNL     1       3.853  -4.021   5.245  1.00  0.00     0.116 C 
BRANCH  27  28
ATOM     28  N   UNL     1       2.264  -5.006   6.188  1.00  0.00    -0.352 N 
ATOM     29  C   UNL     1       1.694  -6.234   6.691  1.00  0.00     0.251 C 
ATOM     30  H   UNL     1       1.595  -4.308   6.374  1.00  0.00     0.163 HD
ATOM     31  O   UNL     1       0.903  -6.893   6.018  1.00  0.00    -0.269 OA
BRANCH  29  32
ATOM     32  C   UNL     1       2.047  -6.735   8.006  1.00  0.00     0.039 A 
ATOM     33  C   UNL     1       2.896  -7.847   8.142  1.00  0.00     0.014 A 
ATOM     34  C   UNL     1       1.706  -5.899   9.049  1.00  0.00     0.014 A 
ATOM     35  C   UNL     1       3.575  -8.008   9.341  1.00  0.00     0.010 A 
ATOM     36  C   UNL     1       2.418  -6.032  10.211  1.00  0.00     0.010 A 
ATOM     37  C   UNL     1       3.369  -7.065  10.355  1.00  0.00    -0.014 A 
BRANCH  37  38
ATOM     38  C   UNL     1       4.047  -7.131  11.657  1.00  0.00     0.031 A 
ATOM     39  C   UNL     1       3.178  -7.343  12.855  1.00  0.00     0.074 A 
ATOM     40  C   UNL     1       5.346  -6.804  11.770  1.00  0.00     0.049 A 
ATOM     41  N   UNL     1       3.449  -7.159  14.116  1.00  0.00    -0.248 NA
ATOM     42  C   UNL     1       1.779  -7.726  12.579  1.00  0.00     0.031 C 
ATOM     43  C   UNL     1       6.257  -6.498  10.665  1.00  0.00     0.029 A 
ATOM     44  N   UNL     1       6.112  -6.634  12.892  1.00  0.00    -0.354 N 
ATOM     45  C   UNL     1       2.245  -7.356  14.773  1.00  0.00     0.074 A 
ATOM     46  C   UNL     1       1.229  -7.567  13.770  1.00  0.00     0.031 C 
ATOM     47  C   UNL     1       7.465  -6.189  11.168  1.00  0.00     0.029 A 
ATOM     48  C   UNL     1       7.400  -6.239  12.625  1.00  0.00     0.049 A 
ATOM     49  H   UNL     1       5.772  -6.780  13.804  1.00  0.00     0.167 HD
ATOM     50  C   UNL     1       2.019  -7.407  16.103  1.00  0.00     0.037 A 
ATOM     51  C   UNL     1       8.400  -5.949  13.478  1.00  0.00     0.037 A 
ATOM     52  C   UNL     1       3.055  -7.248  17.081  1.00  0.00     0.049 A 
ATOM     53  C   UNL     1       8.135  -6.045  14.959  1.00  0.00     0.074 A 
ATOM     54  C   UNL     1       2.970  -7.371  18.453  1.00  0.00     0.029 A 
ATOM     55  N   UNL     1       4.374  -6.940  16.779  1.00  0.00    -0.354 N 
ATOM     56  N   UNL     1       7.019  -6.335  15.586  1.00  0.00    -0.248 NA
ATOM     57  C   UNL     1       9.273  -5.787  15.852  1.00  0.00     0.031 C 
ATOM     58  C   UNL     1       4.233  -7.097  18.987  1.00  0.00     0.029 A 
ATOM     59  C   UNL     1       5.114  -6.857  17.942  1.00  0.00     0.049 A 
ATOM     60  H   UNL     1       4.729  -6.801  15.871  1.00  0.00     0.167 HD
ATOM     61  C   UNL     1       7.330  -6.336  16.941  1.00  0.00     0.074 A 
ATOM     62  C   UNL     1       8.742  -6.027  17.042  1.00  0.00     0.031 C 
ATOM     63  C   UNL     1       6.525  -6.573  18.007  1.00  0.00     0.037 A 
BRANCH  50  64
ATOM     64  C   UNL     1       0.612  -7.673  16.542  1.00  0.00     0.057 A 
ATOM     65  C   UNL     1      -0.027  -8.893  16.272  1.00  0.00     0.134 A 
ATOM     66  C   UNL     1      -0.126  -6.694  17.215  1.00  0.00     0.134 A 
ATOM     67  F   UNL     1       0.617  -9.867  15.609  1.00  0.00    -0.206 F 
ATOM     68  C   UNL     1      -1.361  -9.111  16.613  1.00  0.00     0.040 A 
ATOM     69  C   UNL     1      -1.450  -6.915  17.597  1.00  0.00     0.040 A 
ATOM     70  F   UNL     1       0.422  -5.504  17.504  1.00  0.00    -0.206 F 
ATOM     71  C   UNL     1      -2.074  -8.122  17.285  1.00  0.00     0.006 A 
ENDBRANCH  50  64
BRANCH  51  72
ATOM     72  C   UNL     1       9.751  -5.601  12.970  1.00  0.00     0.057 A 
ATOM     73  C   UNL     1      10.824  -6.486  13.137  1.00  0.00     0.134 A 
ATOM     74  C   UNL     1      10.018  -4.380  12.340  1.00  0.00     0.134 A 
ATOM     75  F   UNL     1      10.635  -7.666  13.746  1.00  0.00    -0.206 F 
ATOM     76  C   UNL     1      12.118  -6.158  12.730  1.00  0.00     0.040 A 
ATOM     77  C   UNL     1      11.304  -4.049  11.903  1.00  0.00     0.040 A 
ATOM     78  F   UNL     1       9.035  -3.492  12.137  1.00  0.00    -0.206 F 
ATOM     79  C   UNL     1      12.360  -4.935  12.109  1.00  0.00     0.006 A 
ENDBRANCH  51  72
BRANCH  63  80
ATOM     80  C   UNL     1       7.159  -6.564  19.366  1.00  0.00     0.057 A 
ATOM     81  C   UNL     1       7.587  -5.381  19.979  1.00  0.00     0.134 A 
ATOM     82  C   UNL     1       7.272  -7.753  20.100  1.00  0.00     0.134 A 
ATOM     83  F   UNL     1       7.515  -4.211  19.326  1.00  0.00    -0.206 F 
ATOM     84  C   UNL     1       8.125  -5.383  21.267  1.00  0.00     0.040 A 
ATOM     85  C   UNL     1       7.777  -7.763  21.399  1.00  0.00     0.040 A 
ATOM     86  F   UNL     1       6.866  -8.919  19.575  1.00  0.00    -0.206 F 
ATOM     87  C   UNL     1       8.210  -6.575  21.984  1.00  0.00     0.006 A 
ENDBRANCH  63  80
ENDBRANCH  37  38
ENDBRANCH  29  32
ENDBRANCH  27  28
ENDBRANCH  26  27
ENDBRANCH  25  26
ENDBRANCH  24  25
ENDBRANCH   1  24
TORSDOF 18
