REMARK SMILES Cc1cc(S(=O)(=O)Nc2ccc(Cl)cc2F)ccc1OCC(=O)NCCCCCCNC(=O)c1ccc(-c2c3nc(c(-c4c(F)cccc4F)c4ccc([nH]4)c(-c4c(F)cccc4F)c4nc(c(-c5c(F)cccc5F)c5ccc2[nH]5)C=C4)C=C3)cc1
REMARK SMILES IDX 26 1 25 2 24 3 22 4 23 5 21 7 20 8 19 9 1 10 2 11 3 12 4 13
REMARK SMILES IDX 18 14 17 15 5 16 6 17 7 18 8 19 9 21 10 22 15 23 11 24 14 25
REMARK SMILES IDX 16 26 12 27 13 28 27 29 28 30 29 31 30 32 31 33 32 34 33 36
REMARK SMILES IDX 34 37 35 38 87 39 36 40 86 41 37 42 38 43 39 44 80 45 40 46
REMARK SMILES IDX 85 47 79 48 81 49 41 50 84 51 78 52 77 53 42 55 68 56 51 57
REMARK SMILES IDX 67 58 52 59 55 60 66 61 82 62 53 63 54 64 65 66 83 67 56 68
REMARK SMILES IDX 43 69 44 70 49 71 45 72 46 73 48 74 50 75 47 76 69 77 70 78
REMARK SMILES IDX 75 79 71 80 72 81 74 82 76 83 73 84 57 85 58 86 63 87 59 88
REMARK SMILES IDX 60 89 62 90 64 91 61 92
REMARK H PARENT 24 6 8 20 31 35 81 54 55 65
REMARK Flexibility Score: inf
ROOT
ATOM      1  C   UNL     1       0.625   3.033   3.610  1.00  0.00     0.021 C 
ENDROOT
BRANCH   1   2
ATOM      2  C   UNL     1       1.718   3.459   2.633  1.00  0.00     0.116 C 
BRANCH   2   3
ATOM      3  N   UNL     1       2.725   2.441   2.426  1.00  0.00    -0.353 N 
ATOM      4  C   UNL     1       3.233   1.994   1.240  1.00  0.00     0.257 C 
ATOM      5  O   UNL     1       4.248   1.296   1.256  1.00  0.00    -0.271 OA
ATOM      6  H   UNL     1       3.088   2.020   3.238  1.00  0.00     0.163 HD
BRANCH   4   7
ATOM      7  C   UNL     1       2.569   2.425  -0.068  1.00  0.00     0.329 C 
BRANCH   7   8
ATOM      8  O   UNL     1       1.178   2.218  -0.201  1.00  0.00    -0.484 OA
BRANCH   8   9
ATOM      9  C   UNL     1       0.612   0.991  -0.019  1.00  0.00     0.123 A 
ATOM     10  C   UNL     1       2.512  -0.595  -0.778  1.00  0.00     0.048 C 
ATOM     11  C   UNL     1       1.111  -0.275  -0.344  1.00  0.00    -0.008 A 
ATOM     12  C   UNL     1       0.235  -1.379  -0.244  1.00  0.00     0.029 A 
ATOM     13  C   UNL     1      -1.087  -1.247   0.202  1.00  0.00     0.088 A 
ATOM     14  C   UNL     1      -0.697   1.100   0.487  1.00  0.00     0.048 A 
ATOM     15  C   UNL     1      -1.525  -0.013   0.654  1.00  0.00     0.026 A 
BRANCH  13  16
ATOM     16  S   UNL     1      -2.120  -2.684   0.012  1.00  0.00     0.262 S 
ATOM     17  O   UNL     1      -1.939  -3.175  -1.326  1.00  0.00    -0.201 OA
ATOM     18  O   UNL     1      -1.817  -3.533   1.159  1.00  0.00    -0.201 OA
BRANCH  16  19
ATOM     19  N   UNL     1      -3.740  -2.309   0.218  1.00  0.00    -0.277 N 
ATOM     20  H   UNL     1      -4.311  -2.997   0.630  1.00  0.00     0.180 HD
BRANCH  19  21
ATOM     21  C   UNL     1      -4.364  -1.085  -0.150  1.00  0.00     0.085 A 
ATOM     22  C   UNL     1      -5.316  -0.602   0.757  1.00  0.00     0.031 A 
ATOM     23  C   UNL     1      -4.049  -0.317  -1.276  1.00  0.00     0.148 A 
ATOM     24  C   UNL     1      -5.852   0.677   0.606  1.00  0.00     0.023 A 
ATOM     25  C   UNL     1      -4.580   0.965  -1.431  1.00  0.00     0.062 A 
ATOM     26  F   UNL     1      -3.165  -0.751  -2.182  1.00  0.00    -0.205 F 
ATOM     27  C   UNL     1      -5.462   1.464  -0.475  1.00  0.00     0.044 A 
ATOM     28  Cl  UNL     1      -6.054   3.073  -0.604  1.00  0.00    -0.084 Cl
ENDBRANCH  19  21
ENDBRANCH  16  19
ENDBRANCH  13  16
ENDBRANCH   8   9
ENDBRANCH   7   8
ENDBRANCH   4   7
ENDBRANCH   2   3
ENDBRANCH   1   2
BRANCH   1  29
ATOM     29  C   UNL     1       1.086   2.604   5.008  1.00  0.00     0.002 C 
BRANCH  29  30
ATOM     30  C   UNL     1       2.084   3.517   5.736  1.00  0.00     0.002 C 
BRANCH  30  31
ATOM     31  C   UNL     1       1.772   5.014   5.756  1.00  0.00     0.021 C 
BRANCH  31  32
ATOM     32  C   UNL     1       0.486   5.391   6.476  1.00  0.00     0.116 C 
BRANCH  32  33
ATOM     33  N   UNL     1       0.681   5.945   7.808  1.00  0.00    -0.352 N 
ATOM     34  C   UNL     1      -0.263   6.311   8.752  1.00  0.00     0.251 C 
ATOM     35  H   UNL     1       1.619   6.079   8.076  1.00  0.00     0.163 HD
ATOM     36  O   UNL     1       0.094   6.788   9.821  1.00  0.00    -0.269 OA
BRANCH  34  37
ATOM     37  C   UNL     1      -1.695   5.983   8.527  1.00  0.00     0.039 A 
ATOM     38  C   UNL     1      -2.397   5.399   9.588  1.00  0.00     0.014 A 
ATOM     39  C   UNL     1      -2.264   6.029   7.258  1.00  0.00     0.014 A 
ATOM     40  C   UNL     1      -3.519   4.620   9.317  1.00  0.00     0.010 A 
ATOM     41  C   UNL     1      -3.316   5.183   6.969  1.00  0.00     0.010 A 
ATOM     42  C   UNL     1      -3.890   4.421   7.987  1.00  0.00    -0.014 A 
BRANCH  42  43
ATOM     43  C   UNL     1      -4.753   3.326   7.564  1.00  0.00     0.031 A 
ATOM     44  C   UNL     1      -6.152   3.574   7.173  1.00  0.00     0.074 A 
ATOM     45  C   UNL     1      -4.234   2.082   7.471  1.00  0.00     0.049 A 
ATOM     46  N   UNL     1      -7.091   2.695   7.275  1.00  0.00    -0.248 NA
ATOM     47  C   UNL     1      -6.611   4.856   6.651  1.00  0.00     0.031 C 
ATOM     48  C   UNL     1      -4.848   0.903   6.867  1.00  0.00     0.029 A 
ATOM     49  N   UNL     1      -3.088   1.589   8.108  1.00  0.00    -0.354 N 
ATOM     50  C   UNL     1      -8.190   3.184   6.612  1.00  0.00     0.074 A 
ATOM     51  C   UNL     1      -7.861   4.553   6.285  1.00  0.00     0.031 C 
ATOM     52  C   UNL     1      -4.263  -0.195   7.371  1.00  0.00     0.029 A 
ATOM     53  C   UNL     1      -3.349   0.238   8.414  1.00  0.00     0.049 A 
ATOM     54  H   UNL     1      -2.263   2.089   8.304  1.00  0.00     0.167 HD
ATOM     55  C   UNL     1      -9.214   2.346   6.288  1.00  0.00     0.037 A 
ATOM     56  C   UNL     1      -3.376  -0.194   9.708  1.00  0.00     0.037 A 
ATOM     57  C   UNL     1      -8.976   0.991   6.770  1.00  0.00     0.049 A 
ATOM     58  C   UNL     1      -4.723  -0.722  10.148  1.00  0.00     0.074 A 
ATOM     59  C   UNL     1      -8.435  -0.132   6.165  1.00  0.00     0.029 A 
ATOM     60  N   UNL     1      -8.972   0.740   8.138  1.00  0.00    -0.354 N 
ATOM     61  N   UNL     1      -5.831  -0.533   9.486  1.00  0.00    -0.248 NA
ATOM     62  C   UNL     1      -4.936  -1.469  11.387  1.00  0.00     0.031 C 
ATOM     63  C   UNL     1      -8.028  -1.028   7.184  1.00  0.00     0.029 A 
ATOM     64  C   UNL     1      -8.347  -0.464   8.405  1.00  0.00     0.049 A 
ATOM     65  H   UNL     1      -9.359   1.335   8.819  1.00  0.00     0.167 HD
ATOM     66  C   UNL     1      -6.882  -1.055  10.194  1.00  0.00     0.074 A 
ATOM     67  C   UNL     1      -6.267  -1.659  11.361  1.00  0.00     0.031 C 
ATOM     68  C   UNL     1      -8.174  -0.926   9.774  1.00  0.00     0.037 A 
BRANCH  55  69
ATOM     69  C   UNL     1     -10.259   2.728   5.276  1.00  0.00     0.057 A 
ATOM     70  C   UNL     1     -10.691   1.822   4.291  1.00  0.00     0.134 A 
ATOM     71  C   UNL     1     -10.830   4.009   5.195  1.00  0.00     0.134 A 
ATOM     72  F   UNL     1     -10.283   0.547   4.278  1.00  0.00    -0.206 F 
ATOM     73  C   UNL     1     -11.547   2.191   3.246  1.00  0.00     0.040 A 
ATOM     74  C   UNL     1     -11.647   4.407   4.128  1.00  0.00     0.040 A 
ATOM     75  F   UNL     1     -10.620   4.921   6.157  1.00  0.00    -0.206 F 
ATOM     76  C   UNL     1     -12.000   3.498   3.140  1.00  0.00     0.006 A 
ENDBRANCH  55  69
BRANCH  56  77
ATOM     77  C   UNL     1      -2.405   0.520  10.579  1.00  0.00     0.057 A 
ATOM     78  C   UNL     1      -1.032   0.357  10.319  1.00  0.00     0.134 A 
ATOM     79  C   UNL     1      -2.778   1.615  11.361  1.00  0.00     0.134 A 
ATOM     80  F   UNL     1      -0.606  -0.677   9.575  1.00  0.00    -0.206 F 
ATOM     81  C   UNL     1      -0.086   1.307  10.713  1.00  0.00     0.040 A 
ATOM     82  C   UNL     1      -1.837   2.566  11.774  1.00  0.00     0.040 A 
ATOM     83  F   UNL     1      -4.069   1.849  11.637  1.00  0.00    -0.206 F 
ATOM     84  C   UNL     1      -0.495   2.436  11.413  1.00  0.00     0.006 A 
ENDBRANCH  56  77
BRANCH  68  85
ATOM     85  C   UNL     1      -9.394  -1.290  10.577  1.00  0.00     0.057 A 
ATOM     86  C   UNL     1      -9.483  -1.161  11.969  1.00  0.00     0.134 A 
ATOM     87  C   UNL     1     -10.594  -1.649   9.924  1.00  0.00     0.134 A 
ATOM     88  F   UNL     1      -8.445  -0.728  12.698  1.00  0.00    -0.206 F 
ATOM     89  C   UNL     1     -10.667  -1.421  12.671  1.00  0.00     0.040 A 
ATOM     90  C   UNL     1     -11.794  -1.861  10.608  1.00  0.00     0.040 A 
ATOM     91  F   UNL     1     -10.654  -1.785   8.591  1.00  0.00    -0.206 F 
ATOM     92  C   UNL     1     -11.831  -1.760  11.990  1.00  0.00     0.006 A 
ENDBRANCH  68  85
ENDBRANCH  42  43
ENDBRANCH  34  37
ENDBRANCH  32  33
ENDBRANCH  31  32
ENDBRANCH  30  31
ENDBRANCH  29  30
ENDBRANCH   1  29
TORSDOF 18
