REMARK SMILES Cn1ccc(NC(=O)[C@@H]2CCCC[C@@H]2C(=O)NCCCCCCNC(=O)c2ccc(-c3c4nc(c(-c5c(F)cccc5F)c5ccc([nH]5)c(-c5c(F)cccc5F)c5nc(c(-c6c(F)cccc6F)c6ccc3[nH]6)C=C5)C=C4)cc2)n1
REMARK SMILES IDX 20 1 19 2 18 3 17 4 15 5 16 6 14 8 9 9 10 10 11 11 13 12
REMARK SMILES IDX 12 13 7 14 6 15 8 17 5 18 1 19 2 20 3 21 81 22 4 23 21 24
REMARK SMILES IDX 22 25 23 26 24 27 25 28 26 30 27 31 28 32 80 33 29 34 79 35
REMARK SMILES IDX 30 36 31 37 32 38 73 39 33 40 78 41 72 42 74 43 34 44 77 45
REMARK SMILES IDX 71 46 70 47 35 49 61 50 44 51 60 52 45 53 48 54 59 55 75 56
REMARK SMILES IDX 46 57 47 58 58 60 76 61 49 62 36 63 37 64 42 65 38 66 39 67
REMARK SMILES IDX 41 68 43 69 40 70 62 71 63 72 68 73 64 74 65 75 67 76 69 77
REMARK SMILES IDX 66 78 50 79 51 80 56 81 52 82 53 83 55 84 57 85 54 86
REMARK H PARENT 17 7 6 16 24 29 74 48 48 59
REMARK Flexibility Score: inf
ROOT
ATOM      1  C   UNL     1       5.075   1.854   2.871  1.00  0.00     0.002 C 
ENDROOT
BRANCH   1   2
ATOM      2  C   UNL     1       4.002   2.109   1.810  1.00  0.00     0.021 C 
BRANCH   2   3
ATOM      3  C   UNL     1       2.646   1.520   2.191  1.00  0.00     0.116 C 
BRANCH   3   4
ATOM      4  N   UNL     1       1.884   2.475   2.953  1.00  0.00    -0.356 N 
ATOM      5  C   UNL     1       0.754   3.160   2.645  1.00  0.00     0.223 C 
ATOM      6  O   UNL     1       0.329   3.902   3.534  1.00  0.00    -0.275 OA
ATOM      7  H   UNL     1       2.244   2.663   3.849  1.00  0.00     0.163 HD
BRANCH   5   8
ATOM      8  C   UNL     1       0.009   2.939   1.316  1.00  0.00     0.091 C 
ATOM      9  C   UNL     1       0.585   3.597   0.036  1.00  0.00     0.091 C 
ATOM     10  C   UNL     1       0.707   5.112   0.267  1.00  0.00     0.014 C 
ATOM     11  C   UNL     1      -0.677   5.728   0.476  1.00  0.00     0.001 C 
ATOM     12  C   UNL     1      -1.442   3.472   1.450  1.00  0.00     0.014 C 
ATOM     13  C   UNL     1      -1.526   5.004   1.519  1.00  0.00     0.001 C 
BRANCH   9  14
ATOM     14  C   UNL     1       1.842   3.009  -0.610  1.00  0.00     0.229 C 
ATOM     15  N   UNL     1       1.896   1.730  -1.085  1.00  0.00    -0.309 N 
ATOM     16  H   UNL     1       2.745   1.476  -1.514  1.00  0.00     0.171 HD
ATOM     17  O   UNL     1       2.876   3.680  -0.723  1.00  0.00    -0.274 OA
BRANCH  15  18
ATOM     18  C   UNL     1       0.939   0.745  -1.052  1.00  0.00     0.154 A 
ATOM     19  C   UNL     1      -2.277  -0.390  -0.349  1.00  0.00     0.173 C 
ATOM     20  N   UNL     1      -0.885  -0.271  -0.708  1.00  0.00    -0.274 N 
ATOM     21  C   UNL     1       0.045  -1.264  -0.763  1.00  0.00     0.110 A 
ATOM     22  N   UNL     1      -0.370   0.949  -0.926  1.00  0.00    -0.155 NA
ATOM     23  C   UNL     1       1.238  -0.639  -1.050  1.00  0.00     0.068 A 
ENDBRANCH  15  18
ENDBRANCH   9  14
ENDBRANCH   5   8
ENDBRANCH   3   4
ENDBRANCH   2   3
ENDBRANCH   1   2
BRANCH   1  24
ATOM     24  C   UNL     1       5.485   0.383   3.005  1.00  0.00     0.002 C 
BRANCH  24  25
ATOM     25  C   UNL     1       6.026  -0.259   1.722  1.00  0.00     0.021 C 
BRANCH  25  26
ATOM     26  C   UNL     1       7.223   0.464   1.109  1.00  0.00     0.116 C 
BRANCH  26  27
ATOM     27  N   UNL     1       8.336   0.551   2.043  1.00  0.00    -0.352 N 
ATOM     28  C   UNL     1       9.586  -0.002   1.973  1.00  0.00     0.251 C 
ATOM     29  H   UNL     1       8.163   1.090   2.848  1.00  0.00     0.163 HD
ATOM     30  O   UNL     1      10.308  -0.026   2.970  1.00  0.00    -0.269 OA
BRANCH  28  31
ATOM     31  C   UNL     1      10.071  -0.583   0.706  1.00  0.00     0.039 A 
ATOM     32  C   UNL     1      10.731  -1.814   0.735  1.00  0.00     0.014 A 
ATOM     33  C   UNL     1       9.892   0.092  -0.505  1.00  0.00     0.014 A 
ATOM     34  C   UNL     1      11.148  -2.402  -0.460  1.00  0.00     0.010 A 
ATOM     35  C   UNL     1      10.251  -0.524  -1.701  1.00  0.00     0.010 A 
ATOM     36  C   UNL     1      10.874  -1.780  -1.689  1.00  0.00    -0.014 A 
BRANCH  36  37
ATOM     37  C   UNL     1      11.194  -2.450  -2.974  1.00  0.00     0.031 A 
ATOM     38  C   UNL     1      12.216  -1.866  -3.907  1.00  0.00     0.074 A 
ATOM     39  C   UNL     1      10.502  -3.549  -3.329  1.00  0.00     0.049 A 
ATOM     40  N   UNL     1      12.571  -2.272  -5.099  1.00  0.00    -0.248 NA
ATOM     41  C   UNL     1      12.914  -0.654  -3.451  1.00  0.00     0.031 C 
ATOM     42  C   UNL     1       9.452  -4.183  -2.529  1.00  0.00     0.029 A 
ATOM     43  N   UNL     1      10.566  -4.320  -4.462  1.00  0.00    -0.354 N 
ATOM     44  C   UNL     1      13.525  -1.364  -5.539  1.00  0.00     0.074 A 
ATOM     45  C   UNL     1      13.660  -0.360  -4.506  1.00  0.00     0.031 C 
ATOM     46  C   UNL     1       8.983  -5.254  -3.187  1.00  0.00     0.029 A 
ATOM     47  C   UNL     1       9.669  -5.361  -4.470  1.00  0.00     0.049 A 
ATOM     48  H   UNL     1      11.195  -4.145  -5.199  1.00  0.00     0.167 HD
ATOM     49  C   UNL     1      14.236  -1.378  -6.692  1.00  0.00     0.037 A 
ATOM     50  C   UNL     1       9.419  -6.290  -5.412  1.00  0.00     0.037 A 
ATOM     51  C   UNL     1      14.109  -2.388  -7.711  1.00  0.00     0.049 A 
ATOM     52  C   UNL     1      10.210  -6.272  -6.689  1.00  0.00     0.074 A 
ATOM     53  C   UNL     1      14.831  -2.525  -8.883  1.00  0.00     0.029 A 
ATOM     54  N   UNL     1      13.194  -3.430  -7.681  1.00  0.00    -0.354 N 
ATOM     55  N   UNL     1      11.160  -5.449  -7.061  1.00  0.00    -0.248 NA
ATOM     56  C   UNL     1       9.896  -7.314  -7.676  1.00  0.00     0.031 C 
ATOM     57  C   UNL     1      14.323  -3.624  -9.585  1.00  0.00     0.029 A 
ATOM     58  C   UNL     1      13.315  -4.198  -8.828  1.00  0.00     0.049 A 
ATOM     59  H   UNL     1      12.554  -3.599  -6.952  1.00  0.00     0.167 HD
ATOM     60  C   UNL     1      11.570  -5.883  -8.313  1.00  0.00     0.074 A 
ATOM     61  C   UNL     1      10.780  -7.055  -8.630  1.00  0.00     0.031 C 
ATOM     62  C   UNL     1      12.517  -5.359  -9.130  1.00  0.00     0.037 A 
BRANCH  49  63
ATOM     63  C   UNL     1      15.219  -0.266  -6.914  1.00  0.00     0.057 A 
ATOM     64  C   UNL     1      16.411  -0.179  -6.183  1.00  0.00     0.134 A 
ATOM     65  C   UNL     1      14.994   0.703  -7.900  1.00  0.00     0.134 A 
ATOM     66  F   UNL     1      16.683  -1.070  -5.218  1.00  0.00    -0.206 F 
ATOM     67  C   UNL     1      17.334   0.844  -6.409  1.00  0.00     0.040 A 
ATOM     68  C   UNL     1      15.920   1.716  -8.153  1.00  0.00     0.040 A 
ATOM     69  F   UNL     1      13.876   0.674  -8.641  1.00  0.00    -0.206 F 
ATOM     70  C   UNL     1      17.092   1.792  -7.402  1.00  0.00     0.006 A 
ENDBRANCH  49  63
BRANCH  50  71
ATOM     71  C   UNL     1       8.380  -7.323  -5.176  1.00  0.00     0.057 A 
ATOM     72  C   UNL     1       8.729  -8.661  -4.963  1.00  0.00     0.134 A 
ATOM     73  C   UNL     1       7.018  -7.001  -5.162  1.00  0.00     0.134 A 
ATOM     74  F   UNL     1      10.018  -9.034  -4.984  1.00  0.00    -0.206 F 
ATOM     75  C   UNL     1       7.761  -9.646  -4.763  1.00  0.00     0.040 A 
ATOM     76  C   UNL     1       6.040  -7.971  -4.938  1.00  0.00     0.040 A 
ATOM     77  F   UNL     1       6.619  -5.734  -5.351  1.00  0.00    -0.206 F 
ATOM     78  C   UNL     1       6.411  -9.300  -4.745  1.00  0.00     0.006 A 
ENDBRANCH  50  71
BRANCH  62  79
ATOM     79  C   UNL     1      12.758  -6.059 -10.434  1.00  0.00     0.057 A 
ATOM     80  C   UNL     1      11.840  -5.987 -11.490  1.00  0.00     0.134 A 
ATOM     81  C   UNL     1      13.934  -6.790 -10.647  1.00  0.00     0.134 A 
ATOM     82  F   UNL     1      10.687  -5.316 -11.344  1.00  0.00    -0.206 F 
ATOM     83  C   UNL     1      12.073  -6.635 -12.704  1.00  0.00     0.040 A 
ATOM     84  C   UNL     1      14.190  -7.420 -11.865  1.00  0.00     0.040 A 
ATOM     85  F   UNL     1      14.857  -6.892  -9.679  1.00  0.00    -0.206 F 
ATOM     86  C   UNL     1      13.255  -7.348 -12.896  1.00  0.00     0.006 A 
ENDBRANCH  62  79
ENDBRANCH  36  37
ENDBRANCH  28  31
ENDBRANCH  26  27
ENDBRANCH  25  26
ENDBRANCH  24  25
ENDBRANCH   1  24
TORSDOF 15
