REMARK SMILES CC(C)[C@@H](NC(=O)C1=Cc2cc(Br)ccc2OC1)C(=O)NCCCCCCNC(=O)c1ccc(-c2c3nc(c(-c4c(F)cccc4F)c4ccc([nH]4)c(-c4c(F)cccc4F)c4nc(c(-c5c(F)cccc5F)c5ccc2[nH]5)C=C4)C=C3)cc1
REMARK SMILES IDX 24 1 23 2 22 3 21 4 19 5 20 6 4 8 2 9 1 10 3 11 5 12 6 13
REMARK SMILES IDX 7 15 8 16 9 17 18 18 10 19 17 20 11 21 16 22 12 23 15 24
REMARK SMILES IDX 13 25 14 26 25 27 26 28 27 29 28 30 29 31 30 33 31 34 32 35
REMARK SMILES IDX 84 36 33 37 83 38 34 39 35 40 36 41 77 42 37 43 82 44 76 45
REMARK SMILES IDX 78 46 38 47 81 48 75 49 74 50 39 52 65 53 48 54 64 55 49 56
REMARK SMILES IDX 52 57 63 58 79 59 50 60 51 61 62 63 80 64 53 65 40 66 41 67
REMARK SMILES IDX 46 68 42 69 43 70 45 71 47 72 44 73 66 74 67 75 72 76 68 77
REMARK SMILES IDX 69 78 71 79 73 80 70 81 54 82 55 83 60 84 56 85 57 86 59 87
REMARK SMILES IDX 61 88 58 89
REMARK H PARENT 21 7 5 14 28 32 78 51 52 62
REMARK Flexibility Score: inf
ROOT
ATOM      1  C   UNL     1       0.997   3.956  -5.280  1.00  0.00     0.002 C 
ENDROOT
BRANCH   1   2
ATOM      2  C   UNL     1       1.417   3.358  -3.932  1.00  0.00     0.021 C 
BRANCH   2   3
ATOM      3  C   UNL     1       0.247   2.912  -3.062  1.00  0.00     0.116 C 
BRANCH   3   4
ATOM      4  N   UNL     1      -0.443   1.793  -3.665  1.00  0.00    -0.354 N 
ATOM      5  C   UNL     1      -0.957   0.675  -3.092  1.00  0.00     0.242 C 
ATOM      6  O   UNL     1      -1.387  -0.211  -3.837  1.00  0.00    -0.273 OA
ATOM      7  H   UNL     1      -0.557   1.851  -4.641  1.00  0.00     0.163 HD
BRANCH   5   8
ATOM      8  C   UNL     1      -0.896   0.445  -1.571  1.00  0.00     0.174 C 
BRANCH   8   9
ATOM      9  C   UNL     1       0.565   0.057  -1.163  1.00  0.00     0.015 C 
ATOM     10  C   UNL     1       0.681  -0.377   0.302  1.00  0.00     0.010 C 
ATOM     11  C   UNL     1       1.147  -1.058  -2.047  1.00  0.00     0.010 C 
ENDBRANCH   8   9
BRANCH   8  12
ATOM     12  N   UNL     1      -1.415   1.577  -0.769  1.00  0.00    -0.340 N 
ATOM     13  C   UNL     1      -2.637   2.193  -0.815  1.00  0.00     0.251 C 
ATOM     14  H   UNL     1      -0.788   1.940  -0.103  1.00  0.00     0.164 HD
ATOM     15  O   UNL     1      -3.085   2.716   0.203  1.00  0.00    -0.270 OA
BRANCH  13  16
ATOM     16  C   UNL     1      -3.288   2.432  -2.116  1.00  0.00     0.055 C 
ATOM     17  C   UNL     1      -3.186   3.672  -2.618  1.00  0.00     0.025 C 
ATOM     18  C   UNL     1      -4.057   1.373  -2.832  1.00  0.00     0.271 C 
ATOM     19  C   UNL     1      -3.637   3.874  -3.991  1.00  0.00     0.018 A 
ATOM     20  O   UNL     1      -3.991   1.480  -4.269  1.00  0.00    -0.488 OA
ATOM     21  C   UNL     1      -3.594   5.141  -4.583  1.00  0.00     0.027 A 
ATOM     22  C   UNL     1      -3.944   2.754  -4.774  1.00  0.00     0.127 A 
ATOM     23  C   UNL     1      -3.791   5.268  -5.960  1.00  0.00     0.018 A 
ATOM     24  C   UNL     1      -4.136   2.888  -6.150  1.00  0.00     0.048 A 
ATOM     25  Br  UNL     1      -3.623   6.966  -6.775  1.00  0.00    -0.051 Br
ATOM     26  C   UNL     1      -4.049   4.147  -6.748  1.00  0.00     0.019 A 
ENDBRANCH  13  16
ENDBRANCH   8  12
ENDBRANCH   5   8
ENDBRANCH   3   4
ENDBRANCH   2   3
ENDBRANCH   1   2
BRANCH   1  27
ATOM     27  C   UNL     1       0.004   5.117  -5.189  1.00  0.00     0.002 C 
BRANCH  27  28
ATOM     28  C   UNL     1       0.427   6.279  -4.292  1.00  0.00     0.021 C 
BRANCH  28  29
ATOM     29  C   UNL     1       1.772   6.886  -4.655  1.00  0.00     0.116 C 
BRANCH  29  30
ATOM     30  N   UNL     1       1.805   7.442  -5.998  1.00  0.00    -0.352 N 
ATOM     31  C   UNL     1       2.511   8.534  -6.449  1.00  0.00     0.251 C 
ATOM     32  H   UNL     1       1.252   6.980  -6.669  1.00  0.00     0.163 HD
ATOM     33  O   UNL     1       2.361   8.957  -7.585  1.00  0.00    -0.269 OA
BRANCH  31  34
ATOM     34  C   UNL     1       3.423   9.219  -5.509  1.00  0.00     0.039 A 
ATOM     35  C   UNL     1       4.319   8.480  -4.735  1.00  0.00     0.014 A 
ATOM     36  C   UNL     1       3.320  10.602  -5.347  1.00  0.00     0.014 A 
ATOM     37  C   UNL     1       4.975   9.094  -3.678  1.00  0.00     0.010 A 
ATOM     38  C   UNL     1       4.056  11.235  -4.342  1.00  0.00     0.010 A 
ATOM     39  C   UNL     1       4.846  10.477  -3.463  1.00  0.00    -0.014 A 
BRANCH  39  40
ATOM     40  C   UNL     1       5.532  11.090  -2.297  1.00  0.00     0.031 A 
ATOM     41  C   UNL     1       4.744  11.705  -1.171  1.00  0.00     0.074 A 
ATOM     42  C   UNL     1       6.875  11.015  -2.218  1.00  0.00     0.049 A 
ATOM     43  N   UNL     1       5.177  12.230  -0.052  1.00  0.00    -0.248 NA
ATOM     44  C   UNL     1       3.281  11.742  -1.321  1.00  0.00     0.031 C 
ATOM     45  C   UNL     1       7.748  10.437  -3.242  1.00  0.00     0.029 A 
ATOM     46  N   UNL     1       7.735  11.390  -1.220  1.00  0.00    -0.354 N 
ATOM     47  C   UNL     1       4.047  12.677   0.623  1.00  0.00     0.074 A 
ATOM     48  C   UNL     1       2.911  12.389  -0.225  1.00  0.00     0.031 C 
ATOM     49  C   UNL     1       9.011  10.432  -2.790  1.00  0.00     0.029 A 
ATOM     50  C   UNL     1       9.044  11.061  -1.476  1.00  0.00     0.049 A 
ATOM     51  H   UNL     1       7.444  11.850  -0.400  1.00  0.00     0.167 HD
ATOM     52  C   UNL     1       3.962  13.262   1.842  1.00  0.00     0.037 A 
ATOM     53  C   UNL     1      10.150  11.250  -0.734  1.00  0.00     0.037 A 
ATOM     54  C   UNL     1       5.091  13.532   2.695  1.00  0.00     0.049 A 
ATOM     55  C   UNL     1      10.029  11.922   0.601  1.00  0.00     0.074 A 
ATOM     56  C   UNL     1       5.109  14.114   3.951  1.00  0.00     0.029 A 
ATOM     57  N   UNL     1       6.408  13.231   2.378  1.00  0.00    -0.354 N 
ATOM     58  N   UNL     1       8.953  12.336   1.225  1.00  0.00    -0.248 NA
ATOM     59  C   UNL     1      11.281  12.161   1.331  1.00  0.00     0.031 C 
ATOM     60  C   UNL     1       6.439  14.194   4.380  1.00  0.00     0.029 A 
ATOM     61  C   UNL     1       7.246  13.626   3.408  1.00  0.00     0.049 A 
ATOM     62  H   UNL     1       6.704  12.801   1.543  1.00  0.00     0.167 HD
ATOM     63  C   UNL     1       9.395  12.871   2.426  1.00  0.00     0.074 A 
ATOM     64  C   UNL     1      10.834  12.704   2.454  1.00  0.00     0.031 C 
ATOM     65  C   UNL     1       8.676  13.454   3.417  1.00  0.00     0.037 A 
BRANCH  52  66
ATOM     66  C   UNL     1       2.596  13.668   2.317  1.00  0.00     0.057 A 
ATOM     67  C   UNL     1       2.234  15.019   2.382  1.00  0.00     0.134 A 
ATOM     68  C   UNL     1       1.643  12.724   2.724  1.00  0.00     0.134 A 
ATOM     69  F   UNL     1       3.100  15.975   2.013  1.00  0.00    -0.206 F 
ATOM     70  C   UNL     1       0.974  15.417   2.832  1.00  0.00     0.040 A 
ATOM     71  C   UNL     1       0.371  13.109   3.153  1.00  0.00     0.040 A 
ATOM     72  F   UNL     1       1.921  11.412   2.672  1.00  0.00    -0.206 F 
ATOM     73  C   UNL     1       0.035  14.460   3.212  1.00  0.00     0.006 A 
ENDBRANCH  52  66
BRANCH  53  74
ATOM     74  C   UNL     1      11.469  10.793  -1.238  1.00  0.00     0.057 A 
ATOM     75  C   UNL     1      12.089  11.416  -2.327  1.00  0.00     0.134 A 
ATOM     76  C   UNL     1      12.143   9.727  -0.632  1.00  0.00     0.134 A 
ATOM     77  F   UNL     1      11.490  12.440  -2.953  1.00  0.00    -0.206 F 
ATOM     78  C   UNL     1      13.330  10.990  -2.802  1.00  0.00     0.040 A 
ATOM     79  C   UNL     1      13.396   9.307  -1.080  1.00  0.00     0.040 A 
ATOM     80  F   UNL     1      11.605   9.102   0.426  1.00  0.00    -0.206 F 
ATOM     81  C   UNL     1      13.990   9.938  -2.172  1.00  0.00     0.006 A 
ENDBRANCH  53  74
BRANCH  65  82
ATOM     82  C   UNL     1       9.444  13.925   4.615  1.00  0.00     0.057 A 
ATOM     83  C   UNL     1       9.364  13.234   5.830  1.00  0.00     0.134 A 
ATOM     84  C   UNL     1      10.271  15.055   4.564  1.00  0.00     0.134 A 
ATOM     85  F   UNL     1       8.586  12.147   5.946  1.00  0.00    -0.206 F 
ATOM     86  C   UNL     1      10.087  13.645   6.951  1.00  0.00     0.040 A 
ATOM     87  C   UNL     1      11.018  15.460   5.671  1.00  0.00     0.040 A 
ATOM     88  F   UNL     1      10.404  15.749   3.424  1.00  0.00    -0.206 F 
ATOM     89  C   UNL     1      10.925  14.755   6.870  1.00  0.00     0.006 A 
ENDBRANCH  65  82
ENDBRANCH  39  40
ENDBRANCH  31  34
ENDBRANCH  29  30
ENDBRANCH  28  29
ENDBRANCH  27  28
ENDBRANCH   1  27
TORSDOF 16
