REMARK SMILES O=C(NCCCCCCNC(=O)[C@@H]1CSc2ccccc21)c1ccc(-c2c3nc(c(-c4c(F)cccc4F)c4ccc([nH]4)c(-c4c(F)cccc4F)c4nc(c(-c5c(F)cccc5F)c5ccc2[nH]5)C=C4)C=C3)cc1
REMARK SMILES IDX 5 1 4 2 3 3 1 4 2 5 22 7 23 8 75 9 24 10 74 11 25 12 26 13
REMARK SMILES IDX 27 14 68 15 28 16 73 17 67 18 69 19 29 20 72 21 66 22 65 23
REMARK SMILES IDX 30 25 56 26 39 27 55 28 40 29 43 30 54 31 70 32 41 33 42 34
REMARK SMILES IDX 53 36 71 37 44 38 31 39 32 40 37 41 33 42 34 43 36 44 38 45
REMARK SMILES IDX 35 46 57 47 58 48 63 49 59 50 60 51 62 52 64 53 61 54 45 55
REMARK SMILES IDX 46 56 51 57 47 58 48 59 50 60 52 61 49 62 6 63 7 64 8 65
REMARK SMILES IDX 9 66 10 67 11 68 12 70 13 71 14 72 21 73 15 74 16 75 20 76
REMARK SMILES IDX 17 77 19 78 18 79
REMARK H PARENT 3 6 69 24 43 35 10 69
REMARK Flexibility Score: inf
ROOT
ATOM      1  C   UNL     1       7.303  10.479  -2.222  1.00  0.00     0.021 C 
ENDROOT
BRANCH   1   2
ATOM      2  C   UNL     1       7.896  11.869  -2.433  1.00  0.00     0.116 C 
BRANCH   2   3
ATOM      3  N   UNL     1       8.406  12.046  -3.780  1.00  0.00    -0.352 N 
ATOM      4  O   UNL     1       8.579  12.986  -5.819  1.00  0.00    -0.269 OA
ATOM      5  C   UNL     1       8.217  13.089  -4.648  1.00  0.00     0.251 C 
ATOM      6  H   UNL     1       8.969  11.312  -4.119  1.00  0.00     0.163 HD
BRANCH   5   7
ATOM      7  C   UNL     1       7.576  14.339  -4.189  1.00  0.00     0.039 A 
ATOM      8  C   UNL     1       6.640  14.958  -5.023  1.00  0.00     0.014 A 
ATOM      9  C   UNL     1       7.943  14.939  -2.980  1.00  0.00     0.014 A 
ATOM     10  C   UNL     1       6.061  16.169  -4.642  1.00  0.00     0.010 A 
ATOM     11  C   UNL     1       7.326  16.120  -2.575  1.00  0.00     0.010 A 
ATOM     12  C   UNL     1       6.400  16.758  -3.415  1.00  0.00    -0.014 A 
BRANCH  12  13
ATOM     13  C   UNL     1       5.861  18.084  -3.030  1.00  0.00     0.031 A 
ATOM     14  C   UNL     1       6.777  19.274  -2.991  1.00  0.00     0.074 A 
ATOM     15  C   UNL     1       4.569  18.213  -2.680  1.00  0.00     0.049 A 
ATOM     16  N   UNL     1       6.526  20.502  -2.614  1.00  0.00    -0.248 NA
ATOM     17  C   UNL     1       8.169  19.044  -3.408  1.00  0.00     0.031 C 
ATOM     18  C   UNL     1       3.586  17.130  -2.653  1.00  0.00     0.029 A 
ATOM     19  N   UNL     1       3.866  19.316  -2.267  1.00  0.00    -0.354 N 
ATOM     20  C   UNL     1       7.730  21.184  -2.731  1.00  0.00     0.074 A 
ATOM     21  C   UNL     1       8.720  20.224  -3.170  1.00  0.00     0.031 C 
ATOM     22  C   UNL     1       2.403  17.625  -2.253  1.00  0.00     0.029 A 
ATOM     23  C   UNL     1       2.553  19.050  -1.971  1.00  0.00     0.049 A 
ATOM     24  H   UNL     1       4.265  20.212  -2.191  1.00  0.00     0.167 HD
ATOM     25  C   UNL     1       7.986  22.496  -2.513  1.00  0.00     0.037 A 
ATOM     26  C   UNL     1       1.583  19.863  -1.513  1.00  0.00     0.037 A 
ATOM     27  C   UNL     1       6.996  23.457  -2.106  1.00  0.00     0.049 A 
ATOM     28  C   UNL     1       1.890  21.313  -1.266  1.00  0.00     0.074 A 
ATOM     29  C   UNL     1       7.135  24.822  -1.931  1.00  0.00     0.029 A 
ATOM     30  N   UNL     1       5.677  23.148  -1.808  1.00  0.00    -0.354 N 
ATOM     31  N   UNL     1       3.020  21.958  -1.430  1.00  0.00    -0.248 NA
ATOM     32  C   UNL     1       0.787  22.147  -0.769  1.00  0.00     0.031 C 
ATOM     33  C   UNL     1       5.908  25.334  -1.492  1.00  0.00     0.029 A 
ATOM     34  C   UNL     1       4.997  24.292  -1.424  1.00  0.00     0.049 A 
ATOM     35  H   UNL     1       5.282  22.247  -1.862  1.00  0.00     0.167 HD
ATOM     36  C   UNL     1       2.765  23.272  -1.061  1.00  0.00     0.074 A 
ATOM     37  C   UNL     1       1.367  23.337  -0.686  1.00  0.00     0.031 C 
ATOM     38  C   UNL     1       3.611  24.330  -1.033  1.00  0.00     0.037 A 
BRANCH  25  39
ATOM     39  C   UNL     1       9.400  22.954  -2.709  1.00  0.00     0.057 A 
ATOM     40  C   UNL     1      10.204  23.281  -1.610  1.00  0.00     0.134 A 
ATOM     41  C   UNL     1       9.973  23.055  -3.983  1.00  0.00     0.134 A 
ATOM     42  F   UNL     1       9.716  23.208  -0.363  1.00  0.00    -0.206 F 
ATOM     43  C   UNL     1      11.532  23.680  -1.772  1.00  0.00     0.040 A 
ATOM     44  C   UNL     1      11.307  23.429  -4.156  1.00  0.00     0.040 A 
ATOM     45  F   UNL     1       9.261  22.738  -5.076  1.00  0.00    -0.206 F 
ATOM     46  C   UNL     1      12.090  23.745  -3.048  1.00  0.00     0.006 A 
ENDBRANCH  25  39
BRANCH  26  47
ATOM     47  C   UNL     1       0.226  19.322  -1.267  1.00  0.00     0.057 A 
ATOM     48  C   UNL     1      -0.042  18.496  -0.169  1.00  0.00     0.134 A 
ATOM     49  C   UNL     1      -0.833  19.613  -2.133  1.00  0.00     0.134 A 
ATOM     50  F   UNL     1       0.935  18.180   0.694  1.00  0.00    -0.206 F 
ATOM     51  C   UNL     1      -1.314  17.969   0.053  1.00  0.00     0.040 A 
ATOM     52  C   UNL     1      -2.115  19.107  -1.914  1.00  0.00     0.040 A 
ATOM     53  F   UNL     1      -0.639  20.416  -3.190  1.00  0.00    -0.206 F 
ATOM     54  C   UNL     1      -2.356  18.277  -0.820  1.00  0.00     0.006 A 
ENDBRANCH  26  47
BRANCH  38  55
ATOM     55  C   UNL     1       3.045  25.638  -0.572  1.00  0.00     0.057 A 
ATOM     56  C   UNL     1       2.775  26.667  -1.483  1.00  0.00     0.134 A 
ATOM     57  C   UNL     1       2.783  25.884   0.782  1.00  0.00     0.134 A 
ATOM     58  F   UNL     1       3.008  26.495  -2.793  1.00  0.00    -0.206 F 
ATOM     59  C   UNL     1       2.266  27.896  -1.062  1.00  0.00     0.040 A 
ATOM     60  C   UNL     1       2.255  27.102   1.212  1.00  0.00     0.040 A 
ATOM     61  F   UNL     1       3.005  24.931   1.700  1.00  0.00    -0.206 F 
ATOM     62  C   UNL     1       1.999  28.114   0.288  1.00  0.00     0.006 A 
ENDBRANCH  38  55
ENDBRANCH  12  13
ENDBRANCH   5   7
ENDBRANCH   2   3
ENDBRANCH   1   2
BRANCH   1  63
ATOM     63  C   UNL     1       8.301   9.326  -2.361  1.00  0.00     0.002 C 
BRANCH  63  64
ATOM     64  C   UNL     1       9.505   9.390  -1.417  1.00  0.00     0.002 C 
BRANCH  64  65
ATOM     65  C   UNL     1       9.163   9.482   0.077  1.00  0.00     0.021 C 
BRANCH  65  66
ATOM     66  C   UNL     1       8.269   8.353   0.593  1.00  0.00     0.116 C 
BRANCH  66  67
ATOM     67  N   UNL     1       8.913   7.066   0.424  1.00  0.00    -0.356 N 
ATOM     68  C   UNL     1       9.367   6.175   1.352  1.00  0.00     0.228 C 
ATOM     69  H   UNL     1       9.044   6.790  -0.512  1.00  0.00     0.163 HD
ATOM     70  O   UNL     1       9.977   5.193   0.929  1.00  0.00    -0.274 OA
BRANCH  68  71
ATOM     71  C   UNL     1       9.060   6.409   2.830  1.00  0.00     0.120 C 
ATOM     72  C   UNL     1       9.883   7.585   3.384  1.00  0.00     0.093 C 
ATOM     73  C   UNL     1       9.329   5.199   3.694  1.00  0.00    -0.021 A 
ATOM     74  S   UNL     1      10.912   7.022   4.771  1.00  0.00    -0.125 SA
ATOM     75  C   UNL     1      10.263   5.385   4.710  1.00  0.00     0.011 A 
ATOM     76  C   UNL     1       8.727   3.951   3.523  1.00  0.00     0.006 A 
ATOM     77  C   UNL     1      10.620   4.345   5.557  1.00  0.00     0.015 A 
ATOM     78  C   UNL     1       9.086   2.897   4.364  1.00  0.00     0.000 A 
ATOM     79  C   UNL     1      10.030   3.093   5.378  1.00  0.00     0.001 A 
ENDBRANCH  68  71
ENDBRANCH  66  67
ENDBRANCH  65  66
ENDBRANCH  64  65
ENDBRANCH  63  64
ENDBRANCH   1  63
TORSDOF 13
