REMARK SMILES Cc1nsc(NC(=O)[C@H]2Cc3[nH]cnc3C[NH2+]2)c1C(=O)NCCCCCCNC(=O)c1ccc(-c2c3nc(c(-c4c(F)cccc4F)c4ccc([nH]4)c(-c4c(F)cccc4F)c4nc(c(-c5c(F)cccc5F)c5ccc2[nH]5)C=C4)C=C3)cc1
REMARK SMILES IDX 24 1 23 2 22 3 21 4 19 5 20 6 18 8 1 9 2 10 3 11 4 12 5 13
REMARK SMILES IDX 6 14 7 15 8 17 9 18 10 19 17 20 11 21 16 22 12 25 15 26
REMARK SMILES IDX 13 27 14 29 25 30 26 31 27 32 28 33 29 34 30 36 31 37 32 38
REMARK SMILES IDX 84 39 33 40 83 41 34 42 35 43 36 44 77 45 37 46 82 47 76 48
REMARK SMILES IDX 78 49 38 50 81 51 75 52 74 53 39 55 65 56 48 57 64 58 49 59
REMARK SMILES IDX 52 60 63 61 79 62 50 63 51 64 62 66 80 67 53 68 40 69 41 70
REMARK SMILES IDX 46 71 42 72 43 73 45 74 47 75 44 76 66 77 67 78 72 79 68 80
REMARK SMILES IDX 69 81 71 82 73 83 70 84 54 85 55 86 60 87 56 88 57 89 59 90
REMARK SMILES IDX 61 91 58 92
REMARK H PARENT 21 7 6 16 17 23 17 24 12 28 28 35 78 54 52 65
REMARK Flexibility Score: inf
ROOT
ATOM      1  C   UNL     1       3.441   2.021   3.276  1.00  0.00     0.002 C 
ENDROOT
BRANCH   1   2
ATOM      2  C   UNL     1       2.937   1.318   2.013  1.00  0.00     0.021 C 
BRANCH   2   3
ATOM      3  C   UNL     1       1.547   1.788   1.589  1.00  0.00     0.116 C 
BRANCH   3   4
ATOM      4  N   UNL     1       1.633   2.798   0.579  1.00  0.00    -0.352 N 
ATOM      5  C   UNL     1       1.261   2.869  -0.727  1.00  0.00     0.256 C 
ATOM      6  O   UNL     1       1.468   3.983  -1.227  1.00  0.00    -0.269 OA
ATOM      7  H   UNL     1       2.056   3.626   0.901  1.00  0.00     0.163 HD
BRANCH   5   8
ATOM      8  C   UNL     1       0.613   1.809  -1.522  1.00  0.00     0.097 A 
ATOM      9  C   UNL     1       0.823  -0.641  -0.350  1.00  0.00     0.069 C 
ATOM     10  C   UNL     1       0.390   0.362  -1.363  1.00  0.00     0.066 A 
ATOM     11  N   UNL     1      -0.345  -0.213  -2.314  1.00  0.00    -0.195 NA
ATOM     12  S   UNL     1      -0.768   0.889  -3.415  1.00  0.00    -0.017 S 
ATOM     13  C   UNL     1       0.100   2.177  -2.785  1.00  0.00     0.129 A 
BRANCH  13  14
ATOM     14  N   UNL     1       0.200   3.412  -3.412  1.00  0.00    -0.311 N 
ATOM     15  C   UNL     1      -0.068   3.915  -4.654  1.00  0.00     0.283 C 
ATOM     16  H   UNL     1       0.555   4.103  -2.807  1.00  0.00     0.171 HD
ATOM     17  O   UNL     1       0.191   5.118  -4.816  1.00  0.00    -0.268 OA
BRANCH  15  18
ATOM     18  C   UNL     1      -0.564   3.101  -5.866  1.00  0.00     0.279 C 
ATOM     19  C   UNL     1       0.560   2.116  -6.329  1.00  0.00     0.131 C 
ATOM     20  N   UNL     1      -1.962   2.623  -5.622  1.00  0.00    -0.331 N 
ATOM     21  C   UNL     1      -0.025   0.792  -6.622  1.00  0.00     0.050 A 
ATOM     22  C   UNL     1      -2.419   1.580  -6.571  1.00  0.00     0.320 C 
ATOM     23  H   UNL     1      -2.592   3.423  -5.697  1.00  0.00     0.347 HD
ATOM     24  H   UNL     1      -1.971   2.201  -4.694  1.00  0.00     0.347 HD
ATOM     25  N   UNL     1       0.599  -0.419  -6.679  1.00  0.00    -0.348 N 
ATOM     26  C   UNL     1      -1.371   0.531  -6.714  1.00  0.00     0.116 A 
ATOM     27  C   UNL     1      -0.393  -1.363  -6.751  1.00  0.00     0.197 A 
ATOM     28  H   UNL     1       1.569  -0.583  -6.670  1.00  0.00     0.167 HD
ATOM     29  N   UNL     1      -1.591  -0.818  -6.791  1.00  0.00    -0.236 NA
ENDBRANCH  15  18
ENDBRANCH  13  14
ENDBRANCH   5   8
ENDBRANCH   3   4
ENDBRANCH   2   3
ENDBRANCH   1   2
BRANCH   1  30
ATOM     30  C   UNL     1       2.485   1.978   4.479  1.00  0.00     0.002 C 
BRANCH  30  31
ATOM     31  C   UNL     1       1.885   0.606   4.825  1.00  0.00     0.021 C 
BRANCH  31  32
ATOM     32  C   UNL     1       2.916  -0.404   5.301  1.00  0.00     0.116 C 
BRANCH  32  33
ATOM     33  N   UNL     1       3.609   0.055   6.502  1.00  0.00    -0.352 N 
ATOM     34  C   UNL     1       4.721  -0.470   7.129  1.00  0.00     0.251 C 
ATOM     35  H   UNL     1       3.227   0.856   6.927  1.00  0.00     0.163 HD
ATOM     36  O   UNL     1       4.989  -0.179   8.280  1.00  0.00    -0.269 OA
BRANCH  34  37
ATOM     37  C   UNL     1       5.579  -1.400   6.376  1.00  0.00     0.039 A 
ATOM     38  C   UNL     1       6.117  -2.535   6.986  1.00  0.00     0.014 A 
ATOM     39  C   UNL     1       5.814  -1.134   5.031  1.00  0.00     0.014 A 
ATOM     40  C   UNL     1       6.828  -3.437   6.203  1.00  0.00     0.010 A 
ATOM     41  C   UNL     1       6.350  -2.106   4.230  1.00  0.00     0.010 A 
ATOM     42  C   UNL     1       6.922  -3.226   4.817  1.00  0.00    -0.014 A 
BRANCH  42  43
ATOM     43  C   UNL     1       7.568  -4.206   3.958  1.00  0.00     0.031 A 
ATOM     44  C   UNL     1       7.080  -5.601   4.110  1.00  0.00     0.074 A 
ATOM     45  C   UNL     1       8.424  -3.877   2.967  1.00  0.00     0.049 A 
ATOM     46  N   UNL     1       7.712  -6.597   4.632  1.00  0.00    -0.248 NA
ATOM     47  C   UNL     1       5.684  -5.897   3.756  1.00  0.00     0.031 C 
ATOM     48  C   UNL     1       8.790  -2.552   2.454  1.00  0.00     0.029 A 
ATOM     49  N   UNL     1       9.102  -4.713   2.139  1.00  0.00    -0.354 N 
ATOM     50  C   UNL     1       6.875  -7.700   4.498  1.00  0.00     0.074 A 
ATOM     51  C   UNL     1       5.589  -7.182   4.109  1.00  0.00     0.031 C 
ATOM     52  C   UNL     1       9.433  -2.685   1.272  1.00  0.00     0.029 A 
ATOM     53  C   UNL     1       9.688  -4.094   1.045  1.00  0.00     0.049 A 
ATOM     54  H   UNL     1       9.171  -5.682   2.301  1.00  0.00     0.167 HD
ATOM     55  C   UNL     1       7.378  -8.967   4.505  1.00  0.00     0.037 A 
ATOM     56  C   UNL     1      10.329  -4.705   0.021  1.00  0.00     0.037 A 
ATOM     57  C   UNL     1       8.720  -8.991   5.036  1.00  0.00     0.049 A 
ATOM     58  C   UNL     1      10.735  -6.051   0.498  1.00  0.00     0.074 A 
ATOM     59  C   UNL     1       9.294  -8.605   6.233  1.00  0.00     0.029 A 
ATOM     60  N   UNL     1       9.764  -9.095   4.148  1.00  0.00    -0.354 N 
ATOM     61  N   UNL     1      11.645  -6.250   1.412  1.00  0.00    -0.248 NA
ATOM     62  C   UNL     1       9.800  -7.148   0.301  1.00  0.00     0.031 C 
ATOM     63  C   UNL     1      10.532  -7.997   5.865  1.00  0.00     0.029 A 
ATOM     64  C   UNL     1      10.671  -8.120   4.482  1.00  0.00     0.049 A 
ATOM     65  H   UNL     1       9.846  -9.744   3.413  1.00  0.00     0.167 HD
ATOM     66  C   UNL     1      11.143  -7.281   2.193  1.00  0.00     0.074 A 
ATOM     67  C   UNL     1      10.049  -7.853   1.408  1.00  0.00     0.031 C 
ATOM     68  C   UNL     1      11.463  -7.393   3.516  1.00  0.00     0.037 A 
BRANCH  55  69
ATOM     69  C   UNL     1       6.812 -10.118   3.710  1.00  0.00     0.057 A 
ATOM     70  C   UNL     1       7.342 -11.408   3.897  1.00  0.00     0.134 A 
ATOM     71  C   UNL     1       5.988  -9.970   2.576  1.00  0.00     0.134 A 
ATOM     72  F   UNL     1       8.148 -11.678   4.935  1.00  0.00    -0.206 F 
ATOM     73  C   UNL     1       7.137 -12.446   2.979  1.00  0.00     0.040 A 
ATOM     74  C   UNL     1       5.734 -11.014   1.682  1.00  0.00     0.040 A 
ATOM     75  F   UNL     1       5.469  -8.792   2.212  1.00  0.00    -0.206 F 
ATOM     76  C   UNL     1       6.338 -12.248   1.861  1.00  0.00     0.006 A 
ENDBRANCH  55  69
BRANCH  56  77
ATOM     77  C   UNL     1      10.367  -4.314  -1.403  1.00  0.00     0.057 A 
ATOM     78  C   UNL     1      11.314  -4.860  -2.279  1.00  0.00     0.134 A 
ATOM     79  C   UNL     1       9.304  -3.612  -1.998  1.00  0.00     0.134 A 
ATOM     80  F   UNL     1      12.344  -5.577  -1.807  1.00  0.00    -0.206 F 
ATOM     81  C   UNL     1      11.195  -4.742  -3.670  1.00  0.00     0.040 A 
ATOM     82  C   UNL     1       9.177  -3.482  -3.385  1.00  0.00     0.040 A 
ATOM     83  F   UNL     1       8.306  -3.106  -1.259  1.00  0.00    -0.206 F 
ATOM     84  C   UNL     1      10.116  -4.062  -4.227  1.00  0.00     0.006 A 
ENDBRANCH  56  77
BRANCH  68  85
ATOM     85  C   UNL     1      12.556  -6.512   4.061  1.00  0.00     0.057 A 
ATOM     86  C   UNL     1      12.504  -5.110   4.085  1.00  0.00     0.134 A 
ATOM     87  C   UNL     1      13.632  -7.110   4.728  1.00  0.00     0.134 A 
ATOM     88  F   UNL     1      11.466  -4.444   3.566  1.00  0.00    -0.206 F 
ATOM     89  C   UNL     1      13.496  -4.340   4.702  1.00  0.00     0.040 A 
ATOM     90  C   UNL     1      14.612  -6.354   5.378  1.00  0.00     0.040 A 
ATOM     91  F   UNL     1      13.723  -8.447   4.800  1.00  0.00    -0.206 F 
ATOM     92  C   UNL     1      14.552  -4.964   5.357  1.00  0.00     0.006 A 
ENDBRANCH  68  85
ENDBRANCH  42  43
ENDBRANCH  34  37
ENDBRANCH  32  33
ENDBRANCH  31  32
ENDBRANCH  30  31
ENDBRANCH   1  30
TORSDOF 15
