REMARK SMILES O=C(NCCCCCCNC(=O)c1c(S(=O)(=O)N2CCO[C@@H](CCO)C2)sc2c1CC[NH2+]C2)c1ccc(-c2c3nc(c(-c4c(F)cccc4F)c4ccc([nH]4)c(-c4c(F)cccc4F)c4nc(c(-c5c(F)cccc5F)c5ccc2[nH]5)C=C4)C=C3)cc1
REMARK SMILES IDX 8 1 7 2 6 3 5 4 4 5 3 6 1 7 2 8 34 10 35 11 87 12 36 13
REMARK SMILES IDX 86 14 37 15 38 16 39 17 80 18 40 19 85 20 79 21 81 22 41 23
REMARK SMILES IDX 84 24 78 25 77 26 42 28 68 29 51 30 67 31 52 32 55 33 66 34
REMARK SMILES IDX 82 35 53 36 54 37 65 39 83 40 56 41 43 42 44 43 49 44 45 45
REMARK SMILES IDX 46 46 48 47 50 48 47 49 69 50 70 51 75 52 71 53 72 54 74 55
REMARK SMILES IDX 76 56 73 57 57 58 58 59 63 60 59 61 60 62 62 63 64 64 61 65
REMARK SMILES IDX 9 66 10 67 11 68 12 70 13 71 14 72 29 73 27 74 28 75 30 76
REMARK SMILES IDX 33 77 31 78 32 79 15 82 16 83 17 84 18 85 19 86 26 87 20 88
REMARK SMILES IDX 22 89 21 90 23 91 24 92 25 93
REMARK H PARENT 3 9 81 27 55 38 10 69 32 80 32 81 25 94
REMARK Flexibility Score: inf
ROOT
ATOM      1  C   UNL     1       5.914   3.721   2.320  1.00  0.00     0.021 C 
ENDROOT
BRANCH   1   2
ATOM      2  C   UNL     1       4.434   3.748   1.936  1.00  0.00     0.002 C 
BRANCH   2   3
ATOM      3  C   UNL     1       4.089   3.474   0.467  1.00  0.00     0.002 C 
BRANCH   3   4
ATOM      4  C   UNL     1       4.708   2.229  -0.184  1.00  0.00     0.021 C 
BRANCH   4   5
ATOM      5  C   UNL     1       4.519   0.916   0.575  1.00  0.00     0.116 C 
BRANCH   5   6
ATOM      6  N   UNL     1       3.138   0.601   0.869  1.00  0.00    -0.352 N 
ATOM      7  O   UNL     1       1.044  -0.078   0.815  1.00  0.00    -0.269 OA
ATOM      8  C   UNL     1       2.093   0.058   0.177  1.00  0.00     0.251 C 
ATOM      9  H   UNL     1       2.892   0.835   1.793  1.00  0.00     0.163 HD
BRANCH   8  10
ATOM     10  C   UNL     1       2.113  -0.364  -1.255  1.00  0.00     0.039 A 
ATOM     11  C   UNL     1       3.237  -0.438  -2.077  1.00  0.00     0.014 A 
ATOM     12  C   UNL     1       0.871  -0.743  -1.803  1.00  0.00     0.014 A 
ATOM     13  C   UNL     1       3.123  -0.859  -3.407  1.00  0.00     0.010 A 
ATOM     14  C   UNL     1       0.755  -1.176  -3.125  1.00  0.00     0.010 A 
ATOM     15  C   UNL     1       1.883  -1.223  -3.941  1.00  0.00    -0.014 A 
BRANCH  15  16
ATOM     16  C   UNL     1       1.837  -1.696  -5.330  1.00  0.00     0.031 A 
ATOM     17  C   UNL     1       2.560  -2.962  -5.667  1.00  0.00     0.074 A 
ATOM     18  C   UNL     1       1.055  -1.171  -6.296  1.00  0.00     0.049 A 
ATOM     19  N   UNL     1       3.467  -3.163  -6.573  1.00  0.00    -0.248 NA
ATOM     20  C   UNL     1       2.193  -4.168  -4.910  1.00  0.00     0.031 C 
ATOM     21  C   UNL     1      -0.014  -0.181  -6.162  1.00  0.00     0.029 A 
ATOM     22  N   UNL     1       1.011  -1.510  -7.621  1.00  0.00    -0.354 N 
ATOM     23  C   UNL     1       3.697  -4.539  -6.599  1.00  0.00     0.074 A 
ATOM     24  C   UNL     1       2.920  -5.105  -5.523  1.00  0.00     0.031 C 
ATOM     25  C   UNL     1      -0.725  -0.143  -7.311  1.00  0.00     0.029 A 
ATOM     26  C   UNL     1      -0.080  -0.997  -8.297  1.00  0.00     0.049 A 
ATOM     27  H   UNL     1       1.695  -2.069  -8.054  1.00  0.00     0.167 HD
ATOM     28  C   UNL     1       4.420  -5.164  -7.569  1.00  0.00     0.037 A 
ATOM     29  C   UNL     1      -0.462  -1.279  -9.563  1.00  0.00     0.037 A 
ATOM     30  C   UNL     1       5.220  -4.264  -8.346  1.00  0.00     0.049 A 
ATOM     31  C   UNL     1       0.685  -1.857 -10.297  1.00  0.00     0.074 A 
ATOM     32  C   UNL     1       6.266  -3.403  -8.082  1.00  0.00     0.029 A 
ATOM     33  N   UNL     1       4.828  -3.980  -9.628  1.00  0.00    -0.354 N 
ATOM     34  N   UNL     1       1.738  -1.194 -10.683  1.00  0.00    -0.248 NA
ATOM     35  C   UNL     1       0.793  -3.306 -10.393  1.00  0.00     0.031 C 
ATOM     36  C   UNL     1       6.143  -2.352  -9.037  1.00  0.00     0.029 A 
ATOM     37  C   UNL     1       5.011  -2.632  -9.803  1.00  0.00     0.049 A 
ATOM     38  H   UNL     1       4.483  -4.619 -10.293  1.00  0.00     0.167 HD
ATOM     39  C   UNL     1       2.760  -2.128 -10.698  1.00  0.00     0.074 A 
ATOM     40  C   UNL     1       2.094  -3.421 -10.667  1.00  0.00     0.031 C 
ATOM     41  C   UNL     1       4.052  -1.766 -10.448  1.00  0.00     0.037 A 
BRANCH  28  42
ATOM     42  C   UNL     1       4.250  -6.606  -7.961  1.00  0.00     0.057 A 
ATOM     43  C   UNL     1       5.282  -7.295  -8.620  1.00  0.00     0.134 A 
ATOM     44  C   UNL     1       3.007  -7.265  -7.922  1.00  0.00     0.134 A 
ATOM     45  F   UNL     1       6.495  -6.742  -8.766  1.00  0.00    -0.206 F 
ATOM     46  C   UNL     1       5.089  -8.555  -9.202  1.00  0.00     0.040 A 
ATOM     47  C   UNL     1       2.813  -8.541  -8.462  1.00  0.00     0.040 A 
ATOM     48  F   UNL     1       1.913  -6.665  -7.430  1.00  0.00    -0.206 F 
ATOM     49  C   UNL     1       3.853  -9.185  -9.118  1.00  0.00     0.006 A 
ENDBRANCH  28  42
BRANCH  29  50
ATOM     50  C   UNL     1      -1.820  -1.242 -10.141  1.00  0.00     0.057 A 
ATOM     51  C   UNL     1      -2.028  -1.096 -11.518  1.00  0.00     0.134 A 
ATOM     52  C   UNL     1      -2.946  -1.587  -9.374  1.00  0.00     0.134 A 
ATOM     53  F   UNL     1      -1.003  -0.817 -12.337  1.00  0.00    -0.206 F 
ATOM     54  C   UNL     1      -3.286  -1.283 -12.101  1.00  0.00     0.040 A 
ATOM     55  C   UNL     1      -4.210  -1.767  -9.942  1.00  0.00     0.040 A 
ATOM     56  F   UNL     1      -2.837  -1.839  -8.061  1.00  0.00    -0.206 F 
ATOM     57  C   UNL     1      -4.382  -1.624 -11.313  1.00  0.00     0.006 A 
ENDBRANCH  29  50
BRANCH  41  58
ATOM     58  C   UNL     1       4.392  -0.306 -10.516  1.00  0.00     0.057 A 
ATOM     59  C   UNL     1       3.867   0.648  -9.632  1.00  0.00     0.134 A 
ATOM     60  C   UNL     1       5.379   0.127 -11.408  1.00  0.00     0.134 A 
ATOM     61  F   UNL     1       2.999   0.298  -8.674  1.00  0.00    -0.206 F 
ATOM     62  C   UNL     1       4.267   1.986  -9.673  1.00  0.00     0.040 A 
ATOM     63  C   UNL     1       5.812   1.456 -11.437  1.00  0.00     0.040 A 
ATOM     64  F   UNL     1       5.974  -0.745 -12.238  1.00  0.00    -0.206 F 
ATOM     65  C   UNL     1       5.246   2.393 -10.575  1.00  0.00     0.006 A 
ENDBRANCH  41  58
ENDBRANCH  15  16
ENDBRANCH   8  10
ENDBRANCH   5   6
ENDBRANCH   4   5
ENDBRANCH   3   4
ENDBRANCH   2   3
ENDBRANCH   1   2
BRANCH   1  66
ATOM     66  C   UNL     1       6.838   4.606   1.494  1.00  0.00     0.116 C 
BRANCH  66  67
ATOM     67  N   UNL     1       6.720   6.024   1.762  1.00  0.00    -0.352 N 
ATOM     68  C   UNL     1       7.707   6.957   1.982  1.00  0.00     0.253 C 
ATOM     69  H   UNL     1       5.799   6.372   1.792  1.00  0.00     0.163 HD
ATOM     70  O   UNL     1       7.380   8.119   2.217  1.00  0.00    -0.269 OA
BRANCH  68  71
ATOM     71  C   UNL     1       9.102   6.528   2.062  1.00  0.00     0.074 A 
ATOM     72  C   UNL     1       9.801   5.860   1.055  1.00  0.00     0.148 A 
ATOM     73  C   UNL     1       9.998   6.856   3.153  1.00  0.00    -0.009 A 
ATOM     74  S   UNL     1      11.269   5.234   1.668  1.00  0.00    -0.120 S 
ATOM     75  C   UNL     1      11.244   6.290   2.980  1.00  0.00     0.064 A 
ATOM     76  C   UNL     1       9.724   7.683   4.379  1.00  0.00     0.099 C 
ATOM     77  C   UNL     1      12.439   6.543   3.844  1.00  0.00     0.308 C 
ATOM     78  C   UNL     1      11.040   8.070   5.102  1.00  0.00     0.265 C 
ATOM     79  N   UNL     1      12.021   6.966   5.191  1.00  0.00    -0.342 N 
ATOM     80  H   UNL     1      11.595   6.176   5.676  1.00  0.00     0.346 HD
ATOM     81  H   UNL     1      12.839   7.291   5.706  1.00  0.00     0.346 HD
BRANCH  72  82
ATOM     82  S   UNL     1       9.430   5.452  -0.644  1.00  0.00     0.253 S 
ATOM     83  O   UNL     1       8.876   4.116  -0.589  1.00  0.00    -0.206 OA
ATOM     84  O   UNL     1       8.632   6.573  -1.099  1.00  0.00    -0.206 OA
BRANCH  82  85
ATOM     85  N   UNL     1      10.809   5.381  -1.599  1.00  0.00    -0.192 NA
ATOM     86  C   UNL     1      11.627   4.152  -1.702  1.00  0.00     0.131 C 
ATOM     87  C   UNL     1      11.518   6.610  -2.008  1.00  0.00     0.134 C 
ATOM     88  C   UNL     1      13.061   4.343  -1.183  1.00  0.00     0.177 C 
ATOM     89  C   UNL     1      12.848   6.713  -1.248  1.00  0.00     0.135 C 
ATOM     90  O   UNL     1      13.671   5.576  -1.589  1.00  0.00    -0.375 OA
BRANCH  89  91
ATOM     91  C   UNL     1      13.652   7.982  -1.539  1.00  0.00     0.061 C 
BRANCH  91  92
ATOM     92  C   UNL     1      12.832   9.265  -1.523  1.00  0.00     0.159 C 
BRANCH  92  93
ATOM     93  O   UNL     1      11.932   9.256  -0.425  1.00  0.00    -0.396 OA
ATOM     94  H   UNL     1      11.330   8.500  -0.506  1.00  0.00     0.210 HD
ENDBRANCH  92  93
ENDBRANCH  91  92
ENDBRANCH  89  91
ENDBRANCH  82  85
ENDBRANCH  72  82
ENDBRANCH  68  71
ENDBRANCH  66  67
ENDBRANCH   1  66
TORSDOF 18
