REMARK SMILES C[C@H]1[C@H](C(=O)NCCCCCCNC(=O)c2ccc(-c3c4nc(c(-c5c(F)cccc5F)c5ccc([nH]5)c(-c5c(F)cccc5F)c5nc(c(-c6c(F)cccc6F)c6ccc3[nH]6)C=C5)C=C4)cc2)CCN1c1nc2c(cc1C(N)=O)CCC2
REMARK SMILES IDX 9 1 8 2 7 3 6 4 4 5 5 6 3 8 1 9 2 10 72 11 70 12 71 13 73 14
REMARK SMILES IDX 74 15 78 16 75 17 77 18 76 19 84 20 82 21 83 22 79 23 80 24
REMARK SMILES IDX 81 25 10 28 11 29 12 30 13 31 14 32 15 34 16 35 17 36 69 37
REMARK SMILES IDX 18 38 68 39 19 40 20 41 21 42 62 43 22 44 67 45 61 46 63 47
REMARK SMILES IDX 23 48 66 49 60 50 59 51 24 53 50 54 33 55 49 56 34 57 37 58
REMARK SMILES IDX 48 59 64 60 35 61 36 62 47 64 65 65 38 66 25 67 26 68 31 69
REMARK SMILES IDX 27 70 28 71 30 72 32 73 29 74 51 75 52 76 57 77 53 78 54 79
REMARK SMILES IDX 56 80 58 81 55 82 39 83 40 84 45 85 41 86 42 87 44 88 46 89
REMARK SMILES IDX 43 90
REMARK H PARENT 6 7 80 26 80 27 13 33 63 52 37 63
REMARK Flexibility Score: inf
ROOT
ATOM      1  C   UNL     1      -0.605   1.581   5.409  1.00  0.00     0.002 C 
ENDROOT
BRANCH   1   2
ATOM      2  C   UNL     1      -0.295   0.766   4.152  1.00  0.00     0.021 C 
BRANCH   2   3
ATOM      3  C   UNL     1      -1.177   1.059   2.944  1.00  0.00     0.116 C 
BRANCH   3   4
ATOM      4  N   UNL     1      -0.681   2.179   2.167  1.00  0.00    -0.356 N 
ATOM      5  C   UNL     1      -0.173   2.232   0.907  1.00  0.00     0.225 C 
ATOM      6  O   UNL     1       0.192   3.338   0.495  1.00  0.00    -0.275 OA
ATOM      7  H   UNL     1      -0.720   3.047   2.630  1.00  0.00     0.163 HD
BRANCH   5   8
ATOM      8  C   UNL     1      -0.051   1.013   0.002  1.00  0.00     0.102 C 
ATOM      9  C   UNL     1       2.103  -0.249  -0.364  1.00  0.00     0.032 C 
ATOM     10  C   UNL     1       0.896  -0.073   0.565  1.00  0.00     0.093 C 
ATOM     11  N   UNL     1       0.068  -1.290   0.599  1.00  0.00    -0.352 N 
ATOM     12  C   UNL     1      -1.377   0.322  -0.316  1.00  0.00     0.037 C 
ATOM     13  C   UNL     1      -1.033  -1.162  -0.352  1.00  0.00     0.119 C 
BRANCH  11  14
ATOM     14  C   UNL     1       0.556  -2.556   0.863  1.00  0.00     0.141 A 
ATOM     15  N   UNL     1       0.280  -3.497  -0.087  1.00  0.00    -0.235 NA
ATOM     16  C   UNL     1       1.227  -2.939   2.048  1.00  0.00     0.082 A 
ATOM     17  C   UNL     1       0.652  -4.767   0.150  1.00  0.00     0.046 A 
ATOM     18  C   UNL     1       1.559  -4.289   2.280  1.00  0.00     0.023 A 
ATOM     19  C   UNL     1       1.248  -5.211   1.313  1.00  0.00    -0.025 A 
ATOM     20  C   UNL     1       0.574  -5.877  -0.859  1.00  0.00     0.057 C 
ATOM     21  C   UNL     1       1.530  -6.673   1.273  1.00  0.00     0.038 C 
ATOM     22  C   UNL     1       0.710  -7.109   0.048  1.00  0.00     0.011 C 
BRANCH  16  23
ATOM     23  C   UNL     1       1.628  -2.025   3.133  1.00  0.00     0.252 C 
ATOM     24  N   UNL     1       1.155  -2.333   4.381  1.00  0.00    -0.365 N 
ATOM     25  O   UNL     1       2.429  -1.112   2.975  1.00  0.00    -0.269 OA
ATOM     26  H   UNL     1       0.512  -3.069   4.496  1.00  0.00     0.159 HD
ATOM     27  H   UNL     1       1.459  -1.818   5.164  1.00  0.00     0.159 HD
ENDBRANCH  16  23
ENDBRANCH  11  14
ENDBRANCH   5   8
ENDBRANCH   3   4
ENDBRANCH   2   3
ENDBRANCH   1   2
BRANCH   1  28
ATOM     28  C   UNL     1      -1.981   1.329   6.039  1.00  0.00     0.002 C 
BRANCH  28  29
ATOM     29  C   UNL     1      -2.368  -0.136   6.271  1.00  0.00     0.021 C 
BRANCH  29  30
ATOM     30  C   UNL     1      -1.378  -0.966   7.087  1.00  0.00     0.116 C 
BRANCH  30  31
ATOM     31  N   UNL     1      -1.225  -0.482   8.447  1.00  0.00    -0.352 N 
ATOM     32  C   UNL     1      -1.497  -1.092   9.646  1.00  0.00     0.251 C 
ATOM     33  H   UNL     1      -0.869   0.433   8.521  1.00  0.00     0.163 HD
ATOM     34  O   UNL     1      -1.442  -0.439  10.685  1.00  0.00    -0.269 OA
BRANCH  32  35
ATOM     35  C   UNL     1      -1.875  -2.522   9.709  1.00  0.00     0.039 A 
ATOM     36  C   UNL     1      -2.931  -2.895  10.548  1.00  0.00     0.014 A 
ATOM     37  C   UNL     1      -1.173  -3.501   9.000  1.00  0.00     0.014 A 
ATOM     38  C   UNL     1      -3.320  -4.235  10.630  1.00  0.00     0.010 A 
ATOM     39  C   UNL     1      -1.599  -4.830   9.038  1.00  0.00     0.010 A 
ATOM     40  C   UNL     1      -2.677  -5.210   9.852  1.00  0.00    -0.014 A 
BRANCH  40  41
ATOM     41  C   UNL     1      -3.128  -6.626   9.876  1.00  0.00     0.031 A 
ATOM     42  C   UNL     1      -2.242  -7.703  10.438  1.00  0.00     0.074 A 
ATOM     43  C   UNL     1      -4.321  -6.953   9.342  1.00  0.00     0.049 A 
ATOM     44  N   UNL     1      -2.441  -8.996  10.486  1.00  0.00    -0.248 NA
ATOM     45  C   UNL     1      -0.954  -7.271  11.002  1.00  0.00     0.031 C 
ATOM     46  C   UNL     1      -5.262  -6.012   8.733  1.00  0.00     0.029 A 
ATOM     47  N   UNL     1      -4.942  -8.171   9.218  1.00  0.00    -0.354 N 
ATOM     48  C   UNL     1      -1.301  -9.534  11.070  1.00  0.00     0.074 A 
ATOM     49  C   UNL     1      -0.397  -8.431  11.321  1.00  0.00     0.031 C 
ATOM     50  C   UNL     1      -6.347  -6.684   8.316  1.00  0.00     0.029 A 
ATOM     51  C   UNL     1      -6.167  -8.104   8.598  1.00  0.00     0.049 A 
ATOM     52  H   UNL     1      -4.548  -9.013   9.542  1.00  0.00     0.167 HD
ATOM     53  C   UNL     1      -1.038 -10.825  11.385  1.00  0.00     0.037 A 
ATOM     54  C   UNL     1      -7.043  -9.078   8.287  1.00  0.00     0.037 A 
ATOM     55  C   UNL     1      -1.946 -11.920  11.164  1.00  0.00     0.049 A 
ATOM     56  C   UNL     1      -6.727 -10.502   8.644  1.00  0.00     0.074 A 
ATOM     57  C   UNL     1      -1.791 -13.252  11.507  1.00  0.00     0.029 A 
ATOM     58  N   UNL     1      -3.181 -11.809  10.543  1.00  0.00    -0.354 N 
ATOM     59  N   UNL     1      -5.667 -10.987   9.244  1.00  0.00    -0.248 NA
ATOM     60  C   UNL     1      -7.730 -11.515   8.282  1.00  0.00     0.031 C 
ATOM     61  C   UNL     1      -2.917 -13.954  11.061  1.00  0.00     0.029 A 
ATOM     62  C   UNL     1      -3.789 -13.052  10.474  1.00  0.00     0.049 A 
ATOM     63  H   UNL     1      -3.568 -10.971  10.201  1.00  0.00     0.167 HD
ATOM     64  C   UNL     1      -5.885 -12.354   9.352  1.00  0.00     0.074 A 
ATOM     65  C   UNL     1      -7.183 -12.621   8.767  1.00  0.00     0.031 C 
ATOM     66  C   UNL     1      -5.081 -13.303   9.890  1.00  0.00     0.037 A 
BRANCH  53  67
ATOM     67  C   UNL     1       0.292 -11.125  12.011  1.00  0.00     0.057 A 
ATOM     68  C   UNL     1       0.583 -10.763  13.333  1.00  0.00     0.134 A 
ATOM     69  C   UNL     1       1.281 -11.813  11.297  1.00  0.00     0.134 A 
ATOM     70  F   UNL     1      -0.318 -10.092  14.067  1.00  0.00    -0.206 F 
ATOM     71  C   UNL     1       1.818 -11.053  13.914  1.00  0.00     0.040 A 
ATOM     72  C   UNL     1       2.511 -12.130  11.875  1.00  0.00     0.040 A 
ATOM     73  F   UNL     1       1.065 -12.194  10.029  1.00  0.00    -0.206 F 
ATOM     74  C   UNL     1       2.785 -11.744  13.186  1.00  0.00     0.006 A 
ENDBRANCH  53  67
BRANCH  54  75
ATOM     75  C   UNL     1      -8.320  -8.734   7.614  1.00  0.00     0.057 A 
ATOM     76  C   UNL     1      -9.535  -8.796   8.305  1.00  0.00     0.134 A 
ATOM     77  C   UNL     1      -8.357  -8.341   6.272  1.00  0.00     0.134 A 
ATOM     78  F   UNL     1      -9.563  -9.185   9.588  1.00  0.00    -0.206 F 
ATOM     79  C   UNL     1     -10.746  -8.491   7.681  1.00  0.00     0.040 A 
ATOM     80  C   UNL     1      -9.558  -8.014   5.641  1.00  0.00     0.040 A 
ATOM     81  F   UNL     1      -7.224  -8.259   5.559  1.00  0.00    -0.206 F 
ATOM     82  C   UNL     1     -10.758  -8.094   6.345  1.00  0.00     0.006 A 
ENDBRANCH  54  75
BRANCH  66  83
ATOM     83  C   UNL     1      -5.591 -14.713   9.889  1.00  0.00     0.057 A 
ATOM     84  C   UNL     1      -5.627 -15.483   8.720  1.00  0.00     0.134 A 
ATOM     85  C   UNL     1      -6.021 -15.318  11.077  1.00  0.00     0.134 A 
ATOM     86  F   UNL     1      -5.242 -14.956   7.548  1.00  0.00    -0.206 F 
ATOM     87  C   UNL     1      -6.089 -16.800   8.729  1.00  0.00     0.040 A 
ATOM     88  C   UNL     1      -6.465 -16.640  11.102  1.00  0.00     0.040 A 
ATOM     89  F   UNL     1      -6.007 -14.636  12.232  1.00  0.00    -0.206 F 
ATOM     90  C   UNL     1      -6.504 -17.384   9.925  1.00  0.00     0.006 A 
ENDBRANCH  66  83
ENDBRANCH  40  41
ENDBRANCH  32  35
ENDBRANCH  30  31
ENDBRANCH  29  30
ENDBRANCH  28  29
ENDBRANCH   1  28
TORSDOF 15
