REMARK SMILES CC(C)(C)c1cc2c(cc1Cl)C=C(C(=O)NCCCCCCNC(=O)c1ccc(-c3c4nc(c(-c5c(F)cccc5F)c5ccc([nH]5)c(-c5c(F)cccc5F)c5nc(c(-c6c(F)cccc6F)c6ccc3[nH]6)C=C5)C=C4)cc1)[C@@H](C(F)(F)F)O2
REMARK SMILES IDX 20 1 19 2 18 3 17 4 16 5 14 6 15 7 13 9 5 10 6 11 10 12 7 13
REMARK SMILES IDX 9 14 11 15 8 16 85 17 12 18 80 19 2 20 1 21 3 22 4 23 81 24
REMARK SMILES IDX 82 25 83 26 84 27 21 28 22 29 23 30 24 31 25 33 26 34 27 35
REMARK SMILES IDX 79 36 28 37 78 38 29 39 30 40 31 41 72 42 32 43 77 44 71 45
REMARK SMILES IDX 73 46 33 47 76 48 70 49 69 50 34 52 60 53 43 54 59 55 44 56
REMARK SMILES IDX 47 57 58 58 74 59 45 60 46 61 57 63 75 64 48 65 35 66 36 67
REMARK SMILES IDX 41 68 37 69 38 70 40 71 42 72 39 73 61 74 62 75 67 76 63 77
REMARK SMILES IDX 64 78 66 79 68 80 65 81 49 82 50 83 55 84 51 85 52 86 54 87
REMARK SMILES IDX 56 88 53 89
REMARK H PARENT 16 8 23 32 73 51 47 62
REMARK Flexibility Score: inf
ROOT
ATOM      1  C   UNL     1       1.662  10.591   7.911  1.00  0.00     0.002 C 
ENDROOT
BRANCH   1   2
ATOM      2  C   UNL     1       0.689   9.421   8.107  1.00  0.00     0.002 C 
BRANCH   2   3
ATOM      3  C   UNL     1       0.389   8.586   6.857  1.00  0.00     0.021 C 
BRANCH   3   4
ATOM      4  C   UNL     1       1.625   8.000   6.181  1.00  0.00     0.116 C 
BRANCH   4   5
ATOM      5  N   UNL     1       2.062   6.772   6.820  1.00  0.00    -0.352 N 
ATOM      6  C   UNL     1       2.229   5.474   6.477  1.00  0.00     0.251 C 
ATOM      7  O   UNL     1       2.673   4.751   7.375  1.00  0.00    -0.270 OA
ATOM      8  H   UNL     1       2.304   6.926   7.762  1.00  0.00     0.163 HD
BRANCH   6   9
ATOM      9  C   UNL     1       1.921   4.880   5.141  1.00  0.00     0.067 C 
ATOM     10  C   UNL     1       1.021   1.603   1.332  1.00  0.00    -0.020 A 
ATOM     11  C   UNL     1       0.819   2.987   1.569  1.00  0.00     0.053 A 
ATOM     12  C   UNL     1       1.583   0.877   2.405  1.00  0.00     0.045 A 
ATOM     13  C   UNL     1       1.172   3.609   2.765  1.00  0.00     0.128 A 
ATOM     14  C   UNL     1       1.924   1.513   3.619  1.00  0.00     0.032 A 
ATOM     15  Cl  UNL     1       1.884  -0.824   2.409  1.00  0.00    -0.084 Cl
ATOM     16  C   UNL     1       1.719   2.878   3.804  1.00  0.00     0.019 A 
ATOM     17  O   UNL     1       0.896   4.940   2.858  1.00  0.00    -0.475 OA
ATOM     18  C   UNL     1       2.002   3.537   5.072  1.00  0.00     0.025 C 
ATOM     19  C   UNL     1       1.572   5.675   3.914  1.00  0.00     0.314 C 
BRANCH  10  20
ATOM     20  C   UNL     1       0.553   1.067  -0.045  1.00  0.00    -0.012 C 
ATOM     21  C   UNL     1       0.950  -0.372  -0.426  1.00  0.00     0.016 C 
ATOM     22  C   UNL     1       1.117   1.957  -1.188  1.00  0.00     0.016 C 
ATOM     23  C   UNL     1      -0.993   1.131  -0.084  1.00  0.00     0.016 C 
ENDBRANCH  10  20
BRANCH  19  24
ATOM     24  C   UNL     1       2.788   6.403   3.315  1.00  0.00     0.429 C 
ATOM     25  F   UNL     1       2.389   7.322   2.400  1.00  0.00    -0.167 F 
ATOM     26  F   UNL     1       3.500   7.080   4.247  1.00  0.00    -0.167 F 
ATOM     27  F   UNL     1       3.646   5.561   2.697  1.00  0.00    -0.167 F 
ENDBRANCH  19  24
ENDBRANCH   6   9
ENDBRANCH   4   5
ENDBRANCH   3   4
ENDBRANCH   2   3
ENDBRANCH   1   2
BRANCH   1  28
ATOM     28  C   UNL     1       1.382  11.496   6.709  1.00  0.00     0.021 C 
BRANCH  28  29
ATOM     29  C   UNL     1      -0.004  12.130   6.690  1.00  0.00     0.116 C 
BRANCH  29  30
ATOM     30  N   UNL     1      -0.202  13.076   7.776  1.00  0.00    -0.352 N 
ATOM     31  C   UNL     1      -0.608  14.387   7.715  1.00  0.00     0.251 C 
ATOM     32  H   UNL     1      -0.020  12.730   8.679  1.00  0.00     0.163 HD
ATOM     33  O   UNL     1      -0.589  15.096   8.716  1.00  0.00    -0.269 OA
BRANCH  31  34
ATOM     34  C   UNL     1      -1.034  14.951   6.417  1.00  0.00     0.039 A 
ATOM     35  C   UNL     1      -1.963  14.275   5.622  1.00  0.00     0.014 A 
ATOM     36  C   UNL     1      -0.460  16.145   5.975  1.00  0.00     0.014 A 
ATOM     37  C   UNL     1      -2.197  14.709   4.321  1.00  0.00     0.010 A 
ATOM     38  C   UNL     1      -0.750  16.617   4.693  1.00  0.00     0.010 A 
ATOM     39  C   UNL     1      -1.582  15.876   3.839  1.00  0.00    -0.014 A 
BRANCH  39  40
ATOM     40  C   UNL     1      -1.791  16.290   2.429  1.00  0.00     0.031 A 
ATOM     41  C   UNL     1      -0.650  16.263   1.448  1.00  0.00     0.074 A 
ATOM     42  C   UNL     1      -3.022  16.651   2.020  1.00  0.00     0.049 A 
ATOM     43  N   UNL     1      -0.635  16.613   0.187  1.00  0.00    -0.248 NA
ATOM     44  C   UNL     1       0.646  15.779   1.951  1.00  0.00     0.031 C 
ATOM     45  C   UNL     1      -4.214  16.697   2.868  1.00  0.00     0.029 A 
ATOM     46  N   UNL     1      -3.476  17.035   0.784  1.00  0.00    -0.354 N 
ATOM     47  C   UNL     1       0.670  16.414  -0.248  1.00  0.00     0.074 A 
ATOM     48  C   UNL     1       1.425  15.933   0.888  1.00  0.00     0.031 C 
ATOM     49  C   UNL     1      -5.270  17.051   2.120  1.00  0.00     0.029 A 
ATOM     50  C   UNL     1      -4.820  17.313   0.757  1.00  0.00     0.049 A 
ATOM     51  H   UNL     1      -2.894  17.103  -0.007  1.00  0.00     0.167 HD
ATOM     52  C   UNL     1       1.188  16.605  -1.485  1.00  0.00     0.037 A 
ATOM     53  C   UNL     1      -5.598  17.754  -0.247  1.00  0.00     0.037 A 
ATOM     54  C   UNL     1       0.433  17.062  -2.622  1.00  0.00     0.049 A 
ATOM     55  C   UNL     1      -4.984  18.017  -1.591  1.00  0.00     0.074 A 
ATOM     56  C   UNL     1       0.861  17.255  -3.925  1.00  0.00     0.029 A 
ATOM     57  N   UNL     1      -0.912  17.399  -2.591  1.00  0.00    -0.354 N 
ATOM     58  N   UNL     1      -3.751  17.823  -1.988  1.00  0.00    -0.248 NA
ATOM     59  C   UNL     1      -5.869  18.580  -2.621  1.00  0.00     0.031 C 
ATOM     60  C   UNL     1      -0.216  17.743  -4.673  1.00  0.00     0.029 A 
ATOM     61  C   UNL     1      -1.323  17.822  -3.844  1.00  0.00     0.049 A 
ATOM     62  H   UNL     1      -1.489  17.345  -1.795  1.00  0.00     0.167 HD
ATOM     63  C   UNL     1      -3.709  18.236  -3.312  1.00  0.00     0.074 A 
ATOM     64  C   UNL     1      -5.048  18.668  -3.659  1.00  0.00     0.031 C 
ATOM     65  C   UNL     1      -2.656  18.261  -4.164  1.00  0.00     0.037 A 
BRANCH  52  66
ATOM     66  C   UNL     1       2.652  16.335  -1.669  1.00  0.00     0.057 A 
ATOM     67  C   UNL     1       3.558  17.391  -1.831  1.00  0.00     0.134 A 
ATOM     68  C   UNL     1       3.163  15.032  -1.717  1.00  0.00     0.134 A 
ATOM     69  F   UNL     1       3.133  18.663  -1.799  1.00  0.00    -0.206 F 
ATOM     70  C   UNL     1       4.920  17.161  -2.034  1.00  0.00     0.040 A 
ATOM     71  C   UNL     1       4.526  14.789  -1.900  1.00  0.00     0.040 A 
ATOM     72  F   UNL     1       2.350  13.977  -1.555  1.00  0.00    -0.206 F 
ATOM     73  C   UNL     1       5.408  15.856  -2.064  1.00  0.00     0.006 A 
ENDBRANCH  52  66
BRANCH  53  74
ATOM     74  C   UNL     1      -7.041  18.000  -0.012  1.00  0.00     0.057 A 
ATOM     75  C   UNL     1      -7.478  19.067   0.781  1.00  0.00     0.134 A 
ATOM     76  C   UNL     1      -8.016  17.173  -0.580  1.00  0.00     0.134 A 
ATOM     77  F   UNL     1      -6.590  19.893   1.353  1.00  0.00    -0.206 F 
ATOM     78  C   UNL     1      -8.834  19.297   1.014  1.00  0.00     0.040 A 
ATOM     79  C   UNL     1      -9.377  17.404  -0.374  1.00  0.00     0.040 A 
ATOM     80  F   UNL     1      -7.657  16.147  -1.366  1.00  0.00    -0.206 F 
ATOM     81  C   UNL     1      -9.789  18.466   0.429  1.00  0.00     0.006 A 
ENDBRANCH  53  74
BRANCH  65  82
ATOM     82  C   UNL     1      -2.919  18.772  -5.548  1.00  0.00     0.057 A 
ATOM     83  C   UNL     1      -2.996  17.894  -6.635  1.00  0.00     0.134 A 
ATOM     84  C   UNL     1      -3.084  20.139  -5.802  1.00  0.00     0.134 A 
ATOM     85  F   UNL     1      -2.844  16.573  -6.456  1.00  0.00    -0.206 F 
ATOM     86  C   UNL     1      -3.227  18.359  -7.930  1.00  0.00     0.040 A 
ATOM     87  C   UNL     1      -3.336  20.614  -7.090  1.00  0.00     0.040 A 
ATOM     88  F   UNL     1      -3.038  21.028  -4.798  1.00  0.00    -0.206 F 
ATOM     89  C   UNL     1      -3.404  19.723  -8.159  1.00  0.00     0.006 A 
ENDBRANCH  65  82
ENDBRANCH  39  40
ENDBRANCH  31  34
ENDBRANCH  29  30
ENDBRANCH  28  29
ENDBRANCH   1  28
TORSDOF 15
