REMARK SMILES O=C(NCCCCCCNC(=O)c1ccc(-c2c3nc(c(-c4c(F)cccc4F)c4ccc([nH]4)c(-c4c(F)cccc4F)c4nc(c(-c5c(F)cccc5F)c5ccc2[nH]5)C=C4)C=C3)cc1)c1ccc(NS(=O)(=O)C2=Cc3ccccc3CC2)cc1
REMARK SMILES IDX 6 1 5 2 4 3 3 4 1 5 2 6 67 8 68 9 86 10 69 11 85 12 70 13
REMARK SMILES IDX 71 14 72 16 73 17 74 18 75 19 76 20 84 21 77 22 83 23 78 24
REMARK SMILES IDX 82 25 79 26 81 27 80 28 7 29 8 30 9 31 10 32 11 33 12 35
REMARK SMILES IDX 13 36 14 37 66 38 15 39 65 40 16 41 17 42 18 43 59 44 19 45
REMARK SMILES IDX 64 46 58 47 60 48 20 49 63 50 57 51 56 52 21 54 47 55 30 56
REMARK SMILES IDX 46 57 31 58 34 59 45 60 61 61 32 62 33 63 44 65 62 66 35 67
REMARK SMILES IDX 22 68 23 69 28 70 24 71 25 72 27 73 29 74 26 75 48 76 49 77
REMARK SMILES IDX 54 78 50 79 51 80 53 81 55 82 52 83 36 84 37 85 42 86 38 87
REMARK SMILES IDX 39 88 41 89 43 90 40 91
REMARK H PARENT 3 7 71 15 10 34 60 53 34 64
REMARK Flexibility Score: inf
ROOT
ATOM      1  C   UNL     1       4.196  -3.654  -1.696  1.00  0.00     0.002 C 
ENDROOT
BRANCH   1   2
ATOM      2  C   UNL     1       4.659  -2.762  -0.540  1.00  0.00     0.021 C 
BRANCH   2   3
ATOM      3  C   UNL     1       4.325  -1.280  -0.690  1.00  0.00     0.116 C 
BRANCH   3   4
ATOM      4  N   UNL     1       2.893  -1.044  -0.678  1.00  0.00    -0.352 N 
ATOM      5  O   UNL     1       0.949  -0.233   0.131  1.00  0.00    -0.269 OA
ATOM      6  C   UNL     1       2.174  -0.171   0.098  1.00  0.00     0.251 C 
ATOM      7  H   UNL     1       2.368  -1.582  -1.313  1.00  0.00     0.163 HD
BRANCH   6   8
ATOM      8  C   UNL     1       2.877   0.862   0.888  1.00  0.00     0.039 A 
ATOM      9  C   UNL     1       3.804   1.706   0.273  1.00  0.00     0.016 A 
ATOM     10  C   UNL     1       2.533   1.056   2.229  1.00  0.00     0.016 A 
ATOM     11  C   UNL     1       4.406   2.727   1.007  1.00  0.00     0.027 A 
ATOM     12  C   UNL     1       3.152   2.074   2.967  1.00  0.00     0.027 A 
ATOM     13  C   UNL     1       4.093   2.909   2.355  1.00  0.00     0.049 A 
BRANCH  13  14
ATOM     14  N   UNL     1       4.606   4.045   3.053  1.00  0.00    -0.280 N 
ATOM     15  H   UNL     1       3.999   4.775   3.313  1.00  0.00     0.180 HD
BRANCH  14  16
ATOM     16  S   UNL     1       6.262   4.141   3.435  1.00  0.00     0.258 S 
ATOM     17  O   UNL     1       6.461   5.531   3.793  1.00  0.00    -0.202 OA
ATOM     18  O   UNL     1       6.474   3.119   4.445  1.00  0.00    -0.202 OA
BRANCH  16  19
ATOM     19  C   UNL     1       7.198   3.735   1.990  1.00  0.00     0.066 C 
ATOM     20  C   UNL     1       7.795   4.769   1.357  1.00  0.00     0.026 C 
ATOM     21  C   UNL     1       8.016   2.470   2.108  1.00  0.00     0.055 C 
ATOM     22  C   UNL     1       9.181   5.060   1.826  1.00  0.00    -0.021 A 
ATOM     23  C   UNL     1       9.313   2.747   2.881  1.00  0.00     0.041 C 
ATOM     24  C   UNL     1       9.757   6.299   1.530  1.00  0.00     0.008 A 
ATOM     25  C   UNL     1       9.906   4.105   2.569  1.00  0.00    -0.040 A 
ATOM     26  C   UNL     1      11.028   6.612   2.014  1.00  0.00     0.001 A 
ATOM     27  C   UNL     1      11.171   4.441   3.068  1.00  0.00     0.004 A 
ATOM     28  C   UNL     1      11.725   5.691   2.794  1.00  0.00     0.000 A 
ENDBRANCH  16  19
ENDBRANCH  14  16
ENDBRANCH  13  14
ENDBRANCH   6   8
ENDBRANCH   3   4
ENDBRANCH   2   3
ENDBRANCH   1   2
BRANCH   1  29
ATOM     29  C   UNL     1       4.705  -3.258  -3.085  1.00  0.00     0.002 C 
BRANCH  29  30
ATOM     30  C   UNL     1       6.222  -3.113  -3.219  1.00  0.00     0.021 C 
BRANCH  30  31
ATOM     31  C   UNL     1       7.041  -4.319  -2.769  1.00  0.00     0.116 C 
BRANCH  31  32
ATOM     32  N   UNL     1       6.726  -5.525  -3.513  1.00  0.00    -0.352 N 
ATOM     33  C   UNL     1       7.569  -6.433  -4.104  1.00  0.00     0.251 C 
ATOM     34  H   UNL     1       5.765  -5.721  -3.608  1.00  0.00     0.163 HD
ATOM     35  O   UNL     1       7.111  -7.330  -4.806  1.00  0.00    -0.269 OA
BRANCH  33  36
ATOM     36  C   UNL     1       9.033  -6.319  -3.923  1.00  0.00     0.039 A 
ATOM     37  C   UNL     1       9.859  -6.466  -5.041  1.00  0.00     0.014 A 
ATOM     38  C   UNL     1       9.593  -6.085  -2.664  1.00  0.00     0.014 A 
ATOM     39  C   UNL     1      11.241  -6.319  -4.908  1.00  0.00     0.010 A 
ATOM     40  C   UNL     1      10.966  -5.876  -2.544  1.00  0.00     0.010 A 
ATOM     41  C   UNL     1      11.803  -5.991  -3.664  1.00  0.00    -0.014 A 
BRANCH  41  42
ATOM     42  C   UNL     1      13.262  -5.763  -3.518  1.00  0.00     0.031 A 
ATOM     43  C   UNL     1      14.095  -6.693  -2.681  1.00  0.00     0.074 A 
ATOM     44  C   UNL     1      13.827  -4.679  -4.085  1.00  0.00     0.049 A 
ATOM     45  N   UNL     1      15.367  -6.620  -2.381  1.00  0.00    -0.248 NA
ATOM     46  C   UNL     1      13.402  -7.844  -2.083  1.00  0.00     0.031 C 
ATOM     47  C   UNL     1      13.121  -3.678  -4.886  1.00  0.00     0.029 A 
ATOM     48  N   UNL     1      15.125  -4.234  -4.065  1.00  0.00    -0.354 N 
ATOM     49  C   UNL     1      15.620  -7.698  -1.543  1.00  0.00     0.074 A 
ATOM     50  C   UNL     1      14.363  -8.387  -1.350  1.00  0.00     0.031 C 
ATOM     51  C   UNL     1      13.999  -2.750  -5.302  1.00  0.00     0.029 A 
ATOM     52  C   UNL     1      15.319  -3.071  -4.769  1.00  0.00     0.049 A 
ATOM     53  H   UNL     1      15.848  -4.705  -3.591  1.00  0.00     0.167 HD
ATOM     54  C   UNL     1      16.797  -8.088  -0.998  1.00  0.00     0.037 A 
ATOM     55  C   UNL     1      16.435  -2.343  -4.960  1.00  0.00     0.037 A 
ATOM     56  C   UNL     1      18.055  -7.426  -1.222  1.00  0.00     0.049 A 
ATOM     57  C   UNL     1      17.729  -2.800  -4.347  1.00  0.00     0.074 A 
ATOM     58  C   UNL     1      19.314  -7.794  -0.780  1.00  0.00     0.029 A 
ATOM     59  N   UNL     1      18.212  -6.256  -1.949  1.00  0.00    -0.354 N 
ATOM     60  N   UNL     1      17.966  -3.860  -3.614  1.00  0.00    -0.248 NA
ATOM     61  C   UNL     1      18.910  -1.959  -4.590  1.00  0.00     0.031 C 
ATOM     62  C   UNL     1      20.228  -6.824  -1.208  1.00  0.00     0.029 A 
ATOM     63  C   UNL     1      19.544  -5.875  -1.949  1.00  0.00     0.049 A 
ATOM     64  H   UNL     1      17.485  -5.768  -2.399  1.00  0.00     0.167 HD
ATOM     65  C   UNL     1      19.326  -3.830  -3.332  1.00  0.00     0.074 A 
ATOM     66  C   UNL     1      19.862  -2.651  -3.981  1.00  0.00     0.031 C 
ATOM     67  C   UNL     1      20.064  -4.703  -2.604  1.00  0.00     0.037 A 
BRANCH  54  68
ATOM     68  C   UNL     1      16.779  -9.292  -0.103  1.00  0.00     0.057 A 
ATOM     69  C   UNL     1      16.595 -10.586  -0.607  1.00  0.00     0.134 A 
ATOM     70  C   UNL     1      16.977  -9.158   1.277  1.00  0.00     0.134 A 
ATOM     71  F   UNL     1      16.388 -10.782  -1.918  1.00  0.00    -0.206 F 
ATOM     72  C   UNL     1      16.583 -11.702   0.233  1.00  0.00     0.040 A 
ATOM     73  C   UNL     1      16.992 -10.268   2.124  1.00  0.00     0.040 A 
ATOM     74  F   UNL     1      17.165  -7.947   1.824  1.00  0.00    -0.206 F 
ATOM     75  C   UNL     1      16.788 -11.544   1.602  1.00  0.00     0.006 A 
ENDBRANCH  54  68
BRANCH  55  76
ATOM     76  C   UNL     1      16.388  -1.120  -5.798  1.00  0.00     0.057 A 
ATOM     77  C   UNL     1      16.977  -1.098  -7.068  1.00  0.00     0.134 A 
ATOM     78  C   UNL     1      15.764   0.052  -5.354  1.00  0.00     0.134 A 
ATOM     79  F   UNL     1      17.605  -2.186  -7.538  1.00  0.00    -0.206 F 
ATOM     80  C   UNL     1      16.960   0.049  -7.862  1.00  0.00     0.040 A 
ATOM     81  C   UNL     1      15.721   1.200  -6.147  1.00  0.00     0.040 A 
ATOM     82  F   UNL     1      15.177   0.092  -4.149  1.00  0.00    -0.206 F 
ATOM     83  C   UNL     1      16.326   1.202  -7.402  1.00  0.00     0.006 A 
ENDBRANCH  55  76
BRANCH  67  84
ATOM     84  C   UNL     1      21.535  -4.434  -2.499  1.00  0.00     0.057 A 
ATOM     85  C   UNL     1      22.042  -3.409  -1.691  1.00  0.00     0.134 A 
ATOM     86  C   UNL     1      22.456  -5.234  -3.187  1.00  0.00     0.134 A 
ATOM     87  F   UNL     1      21.210  -2.600  -1.018  1.00  0.00    -0.206 F 
ATOM     88  C   UNL     1      23.414  -3.177  -1.585  1.00  0.00     0.040 A 
ATOM     89  C   UNL     1      23.831  -5.026  -3.071  1.00  0.00     0.040 A 
ATOM     90  F   UNL     1      22.035  -6.236  -3.973  1.00  0.00    -0.206 F 
ATOM     91  C   UNL     1      24.313  -3.991  -2.272  1.00  0.00     0.006 A 
ENDBRANCH  67  84
ENDBRANCH  41  42
ENDBRANCH  33  36
ENDBRANCH  31  32
ENDBRANCH  30  31
ENDBRANCH  29  30
ENDBRANCH   1  29
TORSDOF 16
