REMARK SMILES O=C(NCCCCCCNC(=O)c1ccc([C@H]2CCC[N@@H+](CCN3CCCC3=O)C2)cc1)c1ccc(-c2c3nc(c(-c4c(F)cccc4F)c4ccc([nH]4)c(-c4c(F)cccc4F)c4nc(c(-c5c(F)cccc5F)c5ccc2[nH]5)C=C4)C=C3)cc1
REMARK SMILES IDX 7 1 6 2 5 3 4 4 3 5 1 6 2 7 33 9 34 10 86 11 35 12 85 13
REMARK SMILES IDX 36 14 37 15 38 16 79 17 39 18 84 19 78 20 80 21 40 22 83 23
REMARK SMILES IDX 77 24 76 25 41 27 67 28 50 29 66 30 51 31 54 32 65 33 81 34
REMARK SMILES IDX 52 35 53 36 64 38 82 39 55 40 42 41 43 42 48 43 44 44 45 45
REMARK SMILES IDX 47 46 49 47 46 48 68 49 69 50 74 51 70 52 71 53 73 54 75 55
REMARK SMILES IDX 72 56 56 57 57 58 62 59 58 60 59 61 61 62 63 63 60 64 8 65
REMARK SMILES IDX 9 66 10 67 11 68 12 70 13 71 14 72 32 73 15 74 31 75 16 76
REMARK SMILES IDX 17 77 18 78 30 79 19 80 21 81 20 82 22 84 23 85 24 86 25 87
REMARK SMILES IDX 28 88 26 89 27 90 29 91
REMARK H PARENT 3 8 80 26 54 37 10 69 21 83
REMARK Flexibility Score: inf
ROOT
ATOM      1  C   UNL     1      19.980 -10.433  -1.872  1.00  0.00     0.002 C 
ENDROOT
BRANCH   1   2
ATOM      2  C   UNL     1      20.527  -9.685  -3.092  1.00  0.00     0.002 C 
BRANCH   2   3
ATOM      3  C   UNL     1      21.283  -8.395  -2.781  1.00  0.00     0.021 C 
BRANCH   3   4
ATOM      4  C   UNL     1      22.463  -8.556  -1.830  1.00  0.00     0.116 C 
BRANCH   4   5
ATOM      5  N   UNL     1      23.537  -9.361  -2.393  1.00  0.00    -0.352 N 
ATOM      6  O   UNL     1      25.608  -9.788  -3.191  1.00  0.00    -0.269 OA
ATOM      7  C   UNL     1      24.866  -9.047  -2.555  1.00  0.00     0.251 C 
ATOM      8  H   UNL     1      23.275 -10.258  -2.702  1.00  0.00     0.163 HD
BRANCH   7   9
ATOM      9  C   UNL     1      25.395  -7.792  -1.978  1.00  0.00     0.039 A 
ATOM     10  C   UNL     1      25.055  -7.412  -0.679  1.00  0.00     0.014 A 
ATOM     11  C   UNL     1      26.238  -6.985  -2.748  1.00  0.00     0.014 A 
ATOM     12  C   UNL     1      25.428  -6.160  -0.206  1.00  0.00     0.010 A 
ATOM     13  C   UNL     1      26.695  -5.769  -2.232  1.00  0.00     0.010 A 
ATOM     14  C   UNL     1      26.270  -5.333  -0.967  1.00  0.00    -0.014 A 
BRANCH  14  15
ATOM     15  C   UNL     1      26.753  -4.057  -0.381  1.00  0.00     0.031 A 
ATOM     16  C   UNL     1      26.399  -2.729  -0.988  1.00  0.00     0.074 A 
ATOM     17  C   UNL     1      27.508  -4.111   0.734  1.00  0.00     0.049 A 
ATOM     18  N   UNL     1      26.729  -1.527  -0.587  1.00  0.00    -0.248 NA
ATOM     19  C   UNL     1      25.575  -2.749  -2.205  1.00  0.00     0.031 C 
ATOM     20  C   UNL     1      27.925  -5.344   1.407  1.00  0.00     0.029 A 
ATOM     21  N   UNL     1      28.045  -3.115   1.506  1.00  0.00    -0.354 N 
ATOM     22  C   UNL     1      26.168  -0.649  -1.506  1.00  0.00     0.074 A 
ATOM     23  C   UNL     1      25.502  -1.459  -2.505  1.00  0.00     0.031 C 
ATOM     24  C   UNL     1      28.611  -5.031   2.514  1.00  0.00     0.029 A 
ATOM     25  C   UNL     1      28.746  -3.582   2.591  1.00  0.00     0.049 A 
ATOM     26  H   UNL     1      27.939  -2.157   1.303  1.00  0.00     0.167 HD
ATOM     27  C   UNL     1      26.202   0.706  -1.510  1.00  0.00     0.037 A 
ATOM     28  C   UNL     1      29.443  -2.921   3.532  1.00  0.00     0.037 A 
ATOM     29  C   UNL     1      26.870   1.503  -0.511  1.00  0.00     0.049 A 
ATOM     30  C   UNL     1      29.503  -1.423   3.475  1.00  0.00     0.074 A 
ATOM     31  C   UNL     1      26.932   2.882  -0.408  1.00  0.00     0.029 A 
ATOM     32  N   UNL     1      27.605   0.992   0.551  1.00  0.00    -0.354 N 
ATOM     33  N   UNL     1      28.931  -0.605   2.625  1.00  0.00    -0.248 NA
ATOM     34  C   UNL     1      30.308  -0.757   4.506  1.00  0.00     0.031 C 
ATOM     35  C   UNL     1      27.752   3.205   0.678  1.00  0.00     0.029 A 
ATOM     36  C   UNL     1      28.150   2.029   1.293  1.00  0.00     0.049 A 
ATOM     37  H   UNL     1      27.721   0.035   0.748  1.00  0.00     0.167 HD
ATOM     38  C   UNL     1      29.290   0.673   3.030  1.00  0.00     0.074 A 
ATOM     39  C   UNL     1      30.110   0.521   4.214  1.00  0.00     0.031 C 
ATOM     40  C   UNL     1      28.968   1.865   2.469  1.00  0.00     0.037 A 
BRANCH  27  41
ATOM     41  C   UNL     1      25.520   1.417  -2.646  1.00  0.00     0.057 A 
ATOM     42  C   UNL     1      24.125   1.437  -2.782  1.00  0.00     0.134 A 
ATOM     43  C   UNL     1      26.268   2.128  -3.595  1.00  0.00     0.134 A 
ATOM     44  F   UNL     1      23.347   0.772  -1.916  1.00  0.00    -0.206 F 
ATOM     45  C   UNL     1      23.502   2.114  -3.834  1.00  0.00     0.040 A 
ATOM     46  C   UNL     1      25.655   2.831  -4.634  1.00  0.00     0.040 A 
ATOM     47  F   UNL     1      27.607   2.161  -3.521  1.00  0.00    -0.206 F 
ATOM     48  C   UNL     1      24.268   2.819  -4.760  1.00  0.00     0.006 A 
ENDBRANCH  27  41
BRANCH  28  49
ATOM     49  C   UNL     1      30.145  -3.679   4.597  1.00  0.00     0.057 A 
ATOM     50  C   UNL     1      29.730  -3.610   5.931  1.00  0.00     0.134 A 
ATOM     51  C   UNL     1      31.240  -4.503   4.304  1.00  0.00     0.134 A 
ATOM     52  F   UNL     1      28.696  -2.828   6.277  1.00  0.00    -0.206 F 
ATOM     53  C   UNL     1      30.386  -4.319   6.938  1.00  0.00     0.040 A 
ATOM     54  C   UNL     1      31.887  -5.241   5.295  1.00  0.00     0.040 A 
ATOM     55  F   UNL     1      31.681  -4.620   3.043  1.00  0.00    -0.206 F 
ATOM     56  C   UNL     1      31.464  -5.143   6.619  1.00  0.00     0.006 A 
ENDBRANCH  28  49
BRANCH  40  57
ATOM     57  C   UNL     1      29.482   3.099   3.152  1.00  0.00     0.057 A 
ATOM     58  C   UNL     1      30.839   3.445   3.139  1.00  0.00     0.134 A 
ATOM     59  C   UNL     1      28.601   3.965   3.814  1.00  0.00     0.134 A 
ATOM     60  F   UNL     1      31.738   2.652   2.537  1.00  0.00    -0.206 F 
ATOM     61  C   UNL     1      31.306   4.593   3.784  1.00  0.00     0.040 A 
ATOM     62  C   UNL     1      29.052   5.131   4.435  1.00  0.00     0.040 A 
ATOM     63  F   UNL     1      27.287   3.698   3.859  1.00  0.00    -0.206 F 
ATOM     64  C   UNL     1      30.409   5.443   4.428  1.00  0.00     0.006 A 
ENDBRANCH  40  57
ENDBRANCH  14  15
ENDBRANCH   7   9
ENDBRANCH   4   5
ENDBRANCH   3   4
ENDBRANCH   2   3
ENDBRANCH   1   2
BRANCH   1  65
ATOM     65  C   UNL     1      19.023  -9.635  -0.978  1.00  0.00     0.021 C 
BRANCH  65  66
ATOM     66  C   UNL     1      17.749  -9.139  -1.666  1.00  0.00     0.116 C 
BRANCH  66  67
ATOM     67  N   UNL     1      16.944 -10.234  -2.183  1.00  0.00    -0.352 N 
ATOM     68  C   UNL     1      15.636 -10.550  -1.911  1.00  0.00     0.251 C 
ATOM     69  H   UNL     1      17.402 -10.833  -2.816  1.00  0.00     0.163 HD
ATOM     70  O   UNL     1      15.160 -11.618  -2.279  1.00  0.00    -0.269 OA
BRANCH  68  71
ATOM     71  C   UNL     1      14.799  -9.588  -1.174  1.00  0.00     0.039 A 
ATOM     72  C   UNL     1      14.269  -9.938   0.065  1.00  0.00     0.014 A 
ATOM     73  C   UNL     1      14.524  -8.339  -1.725  1.00  0.00     0.014 A 
ATOM     74  C   UNL     1      13.574  -8.982   0.814  1.00  0.00     0.005 A 
ATOM     75  C   UNL     1      13.811  -7.399  -0.979  1.00  0.00     0.005 A 
ATOM     76  C   UNL     1      13.407  -7.666   0.343  1.00  0.00    -0.039 A 
BRANCH  76  77
ATOM     77  C   UNL     1      12.861  -6.557   1.272  1.00  0.00     0.074 C 
ATOM     78  C   UNL     1      13.451  -6.702   2.690  1.00  0.00     0.020 C 
ATOM     79  C   UNL     1      13.156  -5.129   0.722  1.00  0.00     0.270 C 
ATOM     80  C   UNL     1      13.121  -5.506   3.570  1.00  0.00     0.062 C 
ATOM     81  N   UNL     1      13.082  -3.979   1.631  1.00  0.00    -0.333 N 
ATOM     82  C   UNL     1      13.666  -4.230   2.948  1.00  0.00     0.262 C 
ATOM     83  H   UNL     1      12.088  -3.822   1.794  1.00  0.00     0.348 HD
BRANCH  81  84
ATOM     84  C   UNL     1      13.646  -2.752   1.009  1.00  0.00     0.284 C 
BRANCH  84  85
ATOM     85  C   UNL     1      15.191  -2.554   0.896  1.00  0.00     0.180 C 
BRANCH  85  86
ATOM     86  N   UNL     1      15.869  -3.446  -0.035  1.00  0.00    -0.337 N 
ATOM     87  C   UNL     1      16.004  -3.150  -1.438  1.00  0.00     0.120 C 
ATOM     88  C   UNL     1      16.525  -4.617   0.314  1.00  0.00     0.222 C 
ATOM     89  C   UNL     1      16.276  -4.506  -2.055  1.00  0.00     0.031 C 
ATOM     90  C   UNL     1      17.007  -5.270  -0.957  1.00  0.00     0.102 C 
ATOM     91  O   UNL     1      16.694  -5.067   1.437  1.00  0.00    -0.275 OA
ENDBRANCH  85  86
ENDBRANCH  84  85
ENDBRANCH  81  84
ENDBRANCH  76  77
ENDBRANCH  68  71
ENDBRANCH  66  67
ENDBRANCH  65  66
ENDBRANCH   1  65
TORSDOF 17
