REMARK SMILES C[C@@]1(CN2C(=O)c3ccc(C(=O)NCCCCCCNC(=O)c4ccc(-c5c6nc(c(-c7c(F)cccc7F)c7ccc([nH]7)c(-c7c(F)cccc7F)c7nc(c(-c8c(F)cccc8F)c8ccc5[nH]8)C=C7)C=C6)cc4)cc3C2=O)CCCO1
REMARK SMILES IDX 16 1 15 2 14 3 13 4 11 5 12 6 10 8 4 9 5 10 79 11 6 12 7 13
REMARK SMILES IDX 78 14 80 15 8 16 77 17 9 18 3 19 2 20 1 21 81 22 84 23 82 24
REMARK SMILES IDX 83 25 17 26 18 27 19 28 20 29 21 30 22 32 23 33 24 34 76 35
REMARK SMILES IDX 25 36 75 37 26 38 27 39 28 40 69 41 29 42 74 43 68 44 70 45
REMARK SMILES IDX 30 46 73 47 67 48 66 49 31 51 57 52 40 53 56 54 41 55 44 56
REMARK SMILES IDX 55 57 71 58 42 59 43 60 54 62 72 63 45 64 32 65 33 66 38 67
REMARK SMILES IDX 34 68 35 69 37 70 39 71 36 72 58 73 59 74 64 75 60 76 61 77
REMARK SMILES IDX 63 78 65 79 62 80 46 81 47 82 52 83 48 84 49 85 51 86 53 87
REMARK SMILES IDX 50 88
REMARK H PARENT 13 7 20 31 70 50 44 61
REMARK Flexibility Score: inf
ROOT
ATOM      1  C   UNL     1      -6.743   6.655  -4.523  1.00  0.00     0.002 C 
ENDROOT
BRANCH   1   2
ATOM      2  C   UNL     1      -5.519   5.957  -3.916  1.00  0.00     0.021 C 
BRANCH   2   3
ATOM      3  C   UNL     1      -5.869   5.034  -2.746  1.00  0.00     0.116 C 
BRANCH   3   4
ATOM      4  N   UNL     1      -6.342   3.758  -3.244  1.00  0.00    -0.352 N 
ATOM      5  C   UNL     1      -5.739   2.538  -3.394  1.00  0.00     0.251 C 
ATOM      6  O   UNL     1      -6.418   1.623  -3.859  1.00  0.00    -0.269 OA
ATOM      7  H   UNL     1      -7.284   3.770  -3.530  1.00  0.00     0.163 HD
BRANCH   5   8
ATOM      8  C   UNL     1      -4.331   2.252  -2.993  1.00  0.00     0.040 A 
ATOM      9  N   UNL     1      -0.759  -0.428  -1.860  1.00  0.00    -0.271 N 
ATOM     10  C   UNL     1      -0.480   0.901  -1.983  1.00  0.00     0.261 C 
ATOM     11  C   UNL     1      -2.085  -0.693  -2.097  1.00  0.00     0.261 C 
ATOM     12  O   UNL     1       0.590   1.482  -1.933  1.00  0.00    -0.269 OA
ATOM     13  C   UNL     1      -1.742   1.566  -2.282  1.00  0.00     0.053 A 
ATOM     14  C   UNL     1      -2.723   0.599  -2.354  1.00  0.00     0.054 A 
ATOM     15  O   UNL     1      -2.660  -1.759  -2.173  1.00  0.00    -0.269 OA
ATOM     16  C   UNL     1      -1.995   2.888  -2.571  1.00  0.00     0.015 A 
ATOM     17  C   UNL     1      -4.025   0.908  -2.700  1.00  0.00     0.028 A 
ATOM     18  C   UNL     1      -3.299   3.219  -2.960  1.00  0.00     0.015 A 
BRANCH   9  19
ATOM     19  C   UNL     1       0.244  -1.460  -1.662  1.00  0.00     0.164 C 
BRANCH  19  20
ATOM     20  C   UNL     1       0.730  -1.623  -0.197  1.00  0.00     0.084 C 
ATOM     21  C   UNL     1       1.519  -0.410   0.296  1.00  0.00     0.044 C 
ATOM     22  C   UNL     1       1.561  -2.906  -0.063  1.00  0.00     0.039 C 
ATOM     23  O   UNL     1      -0.411  -1.805   0.670  1.00  0.00    -0.373 OA
ATOM     24  C   UNL     1       0.517  -3.946   0.263  1.00  0.00     0.031 C 
ATOM     25  C   UNL     1      -0.448  -3.164   1.125  1.00  0.00     0.161 C 
ENDBRANCH  19  20
ENDBRANCH   9  19
ENDBRANCH   5   8
ENDBRANCH   3   4
ENDBRANCH   2   3
ENDBRANCH   1   2
BRANCH   1  26
ATOM     26  C   UNL     1      -7.483   7.595  -3.563  1.00  0.00     0.002 C 
BRANCH  26  27
ATOM     27  C   UNL     1      -6.608   8.672  -2.917  1.00  0.00     0.021 C 
BRANCH  27  28
ATOM     28  C   UNL     1      -5.971   9.636  -3.912  1.00  0.00     0.116 C 
BRANCH  28  29
ATOM     29  N   UNL     1      -6.976  10.424  -4.607  1.00  0.00    -0.352 N 
ATOM     30  C   UNL     1      -7.115  11.786  -4.674  1.00  0.00     0.251 C 
ATOM     31  H   UNL     1      -7.653   9.905  -5.099  1.00  0.00     0.163 HD
ATOM     32  O   UNL     1      -8.158  12.282  -5.088  1.00  0.00    -0.269 OA
BRANCH  30  33
ATOM     33  C   UNL     1      -6.003  12.657  -4.243  1.00  0.00     0.039 A 
ATOM     34  C   UNL     1      -6.286  13.788  -3.473  1.00  0.00     0.014 A 
ATOM     35  C   UNL     1      -4.689  12.373  -4.624  1.00  0.00     0.014 A 
ATOM     36  C   UNL     1      -5.243  14.614  -3.051  1.00  0.00     0.010 A 
ATOM     37  C   UNL     1      -3.644  13.156  -4.144  1.00  0.00     0.010 A 
ATOM     38  C   UNL     1      -3.912  14.292  -3.364  1.00  0.00    -0.014 A 
BRANCH  38  39
ATOM     39  C   UNL     1      -2.787  15.145  -2.909  1.00  0.00     0.031 A 
ATOM     40  C   UNL     1      -1.935  15.865  -3.919  1.00  0.00     0.074 A 
ATOM     41  C   UNL     1      -2.497  15.223  -1.596  1.00  0.00     0.049 A 
ATOM     42  N   UNL     1      -0.864  16.592  -3.728  1.00  0.00    -0.248 NA
ATOM     43  C   UNL     1      -2.321  15.726  -5.332  1.00  0.00     0.031 C 
ATOM     44  C   UNL     1      -3.223  14.537  -0.525  1.00  0.00     0.029 A 
ATOM     45  N   UNL     1      -1.505  15.907  -0.939  1.00  0.00    -0.354 N 
ATOM     46  C   UNL     1      -0.441  16.980  -4.993  1.00  0.00     0.074 A 
ATOM     47  C   UNL     1      -1.339  16.368  -5.947  1.00  0.00     0.031 C 
ATOM     48  C   UNL     1      -2.663  14.850   0.655  1.00  0.00     0.029 A 
ATOM     49  C   UNL     1      -1.520  15.726   0.423  1.00  0.00     0.049 A 
ATOM     50  H   UNL     1      -0.846  16.474  -1.401  1.00  0.00     0.167 HD
ATOM     51  C   UNL     1       0.589  17.793  -5.328  1.00  0.00     0.037 A 
ATOM     52  C   UNL     1      -0.697  16.207   1.374  1.00  0.00     0.037 A 
ATOM     53  C   UNL     1       1.459  18.428  -4.374  1.00  0.00     0.049 A 
ATOM     54  C   UNL     1       0.437  17.110   0.973  1.00  0.00     0.074 A 
ATOM     55  C   UNL     1       2.493  19.317  -4.609  1.00  0.00     0.029 A 
ATOM     56  N   UNL     1       1.393  18.242  -3.002  1.00  0.00    -0.354 N 
ATOM     57  N   UNL     1       0.784  17.522  -0.222  1.00  0.00    -0.248 NA
ATOM     58  C   UNL     1       1.290  17.622   2.055  1.00  0.00     0.031 C 
ATOM     59  C   UNL     1       3.081  19.637  -3.382  1.00  0.00     0.029 A 
ATOM     60  C   UNL     1       2.381  18.987  -2.378  1.00  0.00     0.049 A 
ATOM     61  H   UNL     1       0.742  17.667  -2.539  1.00  0.00     0.167 HD
ATOM     62  C   UNL     1       1.870  18.367  -0.033  1.00  0.00     0.074 A 
ATOM     63  C   UNL     1       2.117  18.418   1.393  1.00  0.00     0.031 C 
ATOM     64  C   UNL     1       2.599  19.041  -0.956  1.00  0.00     0.037 A 
BRANCH  51  65
ATOM     65  C   UNL     1       0.829  18.051  -6.787  1.00  0.00     0.057 A 
ATOM     66  C   UNL     1      -0.041  18.840  -7.550  1.00  0.00     0.134 A 
ATOM     67  C   UNL     1       1.971  17.548  -7.423  1.00  0.00     0.134 A 
ATOM     68  F   UNL     1      -1.159  19.342  -7.005  1.00  0.00    -0.206 F 
ATOM     69  C   UNL     1       0.206  19.105  -8.899  1.00  0.00     0.040 A 
ATOM     70  C   UNL     1       2.243  17.828  -8.764  1.00  0.00     0.040 A 
ATOM     71  F   UNL     1       2.848  16.789  -6.750  1.00  0.00    -0.206 F 
ATOM     72  C   UNL     1       1.356  18.605  -9.506  1.00  0.00     0.006 A 
ENDBRANCH  51  65
BRANCH  52  73
ATOM     73  C   UNL     1      -0.920  15.863   2.801  1.00  0.00     0.057 A 
ATOM     74  C   UNL     1      -1.337  16.832   3.721  1.00  0.00     0.134 A 
ATOM     75  C   UNL     1      -0.696  14.569   3.286  1.00  0.00     0.134 A 
ATOM     76  F   UNL     1      -1.552  18.094   3.321  1.00  0.00    -0.206 F 
ATOM     77  C   UNL     1      -1.495  16.536   5.076  1.00  0.00     0.040 A 
ATOM     78  C   UNL     1      -0.876  14.252   4.633  1.00  0.00     0.040 A 
ATOM     79  F   UNL     1      -0.304  13.592   2.455  1.00  0.00    -0.206 F 
ATOM     80  C   UNL     1      -1.266  15.240   5.535  1.00  0.00     0.006 A 
ENDBRANCH  52  73
BRANCH  64  81
ATOM     81  C   UNL     1       3.697  19.929  -0.451  1.00  0.00     0.057 A 
ATOM     82  C   UNL     1       4.886  19.412   0.077  1.00  0.00     0.134 A 
ATOM     83  C   UNL     1       3.576  21.323  -0.532  1.00  0.00     0.134 A 
ATOM     84  F   UNL     1       5.059  18.086   0.194  1.00  0.00    -0.206 F 
ATOM     85  C   UNL     1       5.907  20.249   0.528  1.00  0.00     0.040 A 
ATOM     86  C   UNL     1       4.601  22.169  -0.110  1.00  0.00     0.040 A 
ATOM     87  F   UNL     1       2.466  21.882  -1.037  1.00  0.00    -0.206 F 
ATOM     88  C   UNL     1       5.769  21.633   0.428  1.00  0.00     0.006 A 
ENDBRANCH  64  81
ENDBRANCH  38  39
ENDBRANCH  30  33
ENDBRANCH  28  29
ENDBRANCH  27  28
ENDBRANCH  26  27
ENDBRANCH   1  26
TORSDOF 15
