REMARK SMILES Cc1ccc(C(C)C)c(OCC(=O)Nc2nc(CC(=O)NCCCCCCNC(=O)c3ccc(-c4c5nc(c(-c6c(F)cccc6F)c6ccc([nH]6)c(-c6c(F)cccc6F)c6nc(c(-c7c(F)cccc7F)c7ccc4[nH]7)C=C6)C=C5)cc3)cs2)c1
REMARK SMILES IDX 22 1 21 2 19 3 20 4 18 6 17 7 15 8 16 9 86 10 85 11 14 12
REMARK SMILES IDX 12 13 13 14 11 16 10 17 9 18 1 19 2 20 3 21 87 22 4 23 5 24
REMARK SMILES IDX 6 25 7 26 8 27 23 28 24 29 25 30 26 31 27 32 28 33 29 34
REMARK SMILES IDX 30 36 31 37 32 38 84 39 33 40 83 41 34 42 35 43 36 44 77 45
REMARK SMILES IDX 37 46 82 47 76 48 78 49 38 50 81 51 75 52 74 53 39 55 65 56
REMARK SMILES IDX 48 57 64 58 49 59 52 60 63 61 79 62 50 63 51 64 62 66 80 67
REMARK SMILES IDX 53 68 40 69 41 70 46 71 42 72 43 73 45 74 47 75 44 76 66 77
REMARK SMILES IDX 67 78 72 79 68 80 69 81 71 82 73 83 70 84 54 85 55 86 60 87
REMARK SMILES IDX 56 88 57 89 59 90 61 91 58 92
REMARK H PARENT 21 5 14 15 28 35 78 54 52 65
REMARK Flexibility Score: inf
ROOT
ATOM      1  C   UNL     1      -4.243   0.147   3.675  1.00  0.00     0.116 C 
ENDROOT
BRANCH   1   2
ATOM      2  N   UNL     1      -5.632   0.548   3.783  1.00  0.00    -0.356 N 
ATOM      3  C   UNL     1      -6.327   1.452   3.027  1.00  0.00     0.226 C 
ATOM      4  O   UNL     1      -7.541   1.552   3.216  1.00  0.00    -0.275 OA
ATOM      5  H   UNL     1      -6.146   0.109   4.498  1.00  0.00     0.163 HD
BRANCH   3   6
ATOM      6  C   UNL     1      -5.626   2.288   1.969  1.00  0.00     0.157 C 
BRANCH   6   7
ATOM      7  C   UNL     1      -4.575   3.180   2.543  1.00  0.00     0.063 A 
ATOM      8  C   UNL     1      -2.505   3.927   2.618  1.00  0.00     0.189 A 
ATOM      9  N   UNL     1      -3.356   3.267   1.882  1.00  0.00    -0.224 NA
ATOM     10  S   UNL     1      -3.105   4.579   4.075  1.00  0.00    -0.105 S 
ATOM     11  C   UNL     1      -4.645   3.916   3.713  1.00  0.00     0.093 A 
BRANCH   8  12
ATOM     12  N   UNL     1      -1.177   4.142   2.416  1.00  0.00    -0.299 N 
ATOM     13  C   UNL     1      -0.463   3.844   1.297  1.00  0.00     0.264 C 
ATOM     14  O   UNL     1       0.763   4.008   1.345  1.00  0.00    -0.271 OA
ATOM     15  H   UNL     1      -0.681   4.557   3.157  1.00  0.00     0.172 HD
BRANCH  13  16
ATOM     16  C   UNL     1      -1.143   3.425  -0.018  1.00  0.00     0.329 C 
BRANCH  16  17
ATOM     17  O   UNL     1      -1.714   2.139  -0.131  1.00  0.00    -0.483 OA
BRANCH  17  18
ATOM     18  C   UNL     1      -0.917   1.033  -0.221  1.00  0.00     0.123 A 
ATOM     19  C   UNL     1       2.719  -0.107  -0.055  1.00  0.00     0.044 C 
ATOM     20  C   UNL     1       1.224  -0.133  -0.175  1.00  0.00    -0.047 A 
ATOM     21  C   UNL     1       0.557  -1.353  -0.296  1.00  0.00     0.004 A 
ATOM     22  C   UNL     1       0.480   1.055  -0.153  1.00  0.00     0.050 A 
ATOM     23  C   UNL     1      -0.831  -1.385  -0.408  1.00  0.00     0.008 A 
ATOM     24  C   UNL     1      -1.589  -0.200  -0.368  1.00  0.00    -0.003 A 
BRANCH  24  25
ATOM     25  C   UNL     1      -3.108  -0.270  -0.480  1.00  0.00     0.017 C 
ATOM     26  C   UNL     1      -3.554  -0.630  -1.898  1.00  0.00     0.012 C 
ATOM     27  C   UNL     1      -3.699  -1.260   0.526  1.00  0.00     0.012 C 
ENDBRANCH  24  25
ENDBRANCH  17  18
ENDBRANCH  16  17
ENDBRANCH  13  16
ENDBRANCH   8  12
ENDBRANCH   6   7
ENDBRANCH   3   6
ENDBRANCH   1   2
BRANCH   1  28
ATOM     28  C   UNL     1      -3.490   0.220   5.003  1.00  0.00     0.021 C 
BRANCH  28  29
ATOM     29  C   UNL     1      -3.842  -0.882   6.014  1.00  0.00     0.002 C 
BRANCH  29  30
ATOM     30  C   UNL     1      -3.768  -2.337   5.517  1.00  0.00     0.002 C 
BRANCH  30  31
ATOM     31  C   UNL     1      -2.501  -2.741   4.759  1.00  0.00     0.021 C 
BRANCH  31  32
ATOM     32  C   UNL     1      -1.232  -2.739   5.599  1.00  0.00     0.116 C 
BRANCH  32  33
ATOM     33  N   UNL     1      -0.946  -3.998   6.276  1.00  0.00    -0.352 N 
ATOM     34  C   UNL     1       0.026  -4.289   7.226  1.00  0.00     0.251 C 
ATOM     35  H   UNL     1      -1.526  -4.752   6.022  1.00  0.00     0.163 HD
ATOM     36  O   UNL     1       0.146  -5.417   7.655  1.00  0.00    -0.269 OA
BRANCH  34  37
ATOM     37  C   UNL     1       0.815  -3.175   7.819  1.00  0.00     0.039 A 
ATOM     38  C   UNL     1       0.936  -3.142   9.213  1.00  0.00     0.014 A 
ATOM     39  C   UNL     1       1.209  -2.081   7.057  1.00  0.00     0.014 A 
ATOM     40  C   UNL     1       1.169  -1.925   9.846  1.00  0.00     0.010 A 
ATOM     41  C   UNL     1       1.334  -0.856   7.678  1.00  0.00     0.010 A 
ATOM     42  C   UNL     1       1.233  -0.771   9.069  1.00  0.00    -0.014 A 
BRANCH  42  43
ATOM     43  C   UNL     1       1.085   0.570   9.619  1.00  0.00     0.031 A 
ATOM     44  C   UNL     1       2.263   1.442   9.770  1.00  0.00     0.074 A 
ATOM     45  C   UNL     1      -0.150   1.029   9.917  1.00  0.00     0.049 A 
ATOM     46  N   UNL     1       2.332   2.446  10.576  1.00  0.00    -0.248 NA
ATOM     47  C   UNL     1       3.504   1.199   9.049  1.00  0.00     0.031 C 
ATOM     48  C   UNL     1      -0.536   2.404  10.220  1.00  0.00     0.029 A 
ATOM     49  N   UNL     1      -1.290   0.271  10.217  1.00  0.00    -0.354 N 
ATOM     50  C   UNL     1       3.490   3.138  10.295  1.00  0.00     0.074 A 
ATOM     51  C   UNL     1       4.223   2.265   9.409  1.00  0.00     0.031 C 
ATOM     52  C   UNL     1      -1.685   2.387  10.914  1.00  0.00     0.029 A 
ATOM     53  C   UNL     1      -1.994   0.997  11.201  1.00  0.00     0.049 A 
ATOM     54  H   UNL     1      -1.547  -0.593   9.822  1.00  0.00     0.167 HD
ATOM     55  C   UNL     1       3.614   4.422  10.743  1.00  0.00     0.037 A 
ATOM     56  C   UNL     1      -2.188   0.487  12.452  1.00  0.00     0.037 A 
ATOM     57  C   UNL     1       2.502   4.765  11.637  1.00  0.00     0.049 A 
ATOM     58  C   UNL     1      -1.570   1.315  13.554  1.00  0.00     0.074 A 
ATOM     59  C   UNL     1       1.323   5.467  11.443  1.00  0.00     0.029 A 
ATOM     60  N   UNL     1       2.370   4.108  12.858  1.00  0.00    -0.354 N 
ATOM     61  N   UNL     1      -0.646   2.214  13.357  1.00  0.00    -0.248 NA
ATOM     62  C   UNL     1      -1.927   1.183  14.964  1.00  0.00     0.031 C 
ATOM     63  C   UNL     1       0.450   5.168  12.520  1.00  0.00     0.029 A 
ATOM     64  C   UNL     1       1.108   4.309  13.383  1.00  0.00     0.049 A 
ATOM     65  H   UNL     1       3.078   3.575  13.287  1.00  0.00     0.167 HD
ATOM     66  C   UNL     1      -0.269   2.756  14.557  1.00  0.00     0.074 A 
ATOM     67  C   UNL     1      -1.116   2.094  15.532  1.00  0.00     0.031 C 
ATOM     68  C   UNL     1       0.716   3.698  14.647  1.00  0.00     0.037 A 
BRANCH  55  69
ATOM     69  C   UNL     1       4.554   5.465  10.153  1.00  0.00     0.057 A 
ATOM     70  C   UNL     1       4.282   6.842  10.306  1.00  0.00     0.134 A 
ATOM     71  C   UNL     1       5.685   5.205   9.358  1.00  0.00     0.134 A 
ATOM     72  F   UNL     1       3.314   7.285  11.119  1.00  0.00    -0.206 F 
ATOM     73  C   UNL     1       4.992   7.850   9.633  1.00  0.00     0.040 A 
ATOM     74  C   UNL     1       6.381   6.197   8.648  1.00  0.00     0.040 A 
ATOM     75  F   UNL     1       6.230   3.991   9.268  1.00  0.00    -0.206 F 
ATOM     76  C   UNL     1       6.024   7.527   8.770  1.00  0.00     0.006 A 
ENDBRANCH  55  69
BRANCH  56  77
ATOM     77  C   UNL     1      -2.337  -0.991  12.463  1.00  0.00     0.057 A 
ATOM     78  C   UNL     1      -3.477  -1.548  11.856  1.00  0.00     0.134 A 
ATOM     79  C   UNL     1      -1.246  -1.840  12.668  1.00  0.00     0.134 A 
ATOM     80  F   UNL     1      -4.560  -0.785  11.633  1.00  0.00    -0.206 F 
ATOM     81  C   UNL     1      -3.488  -2.855  11.363  1.00  0.00     0.040 A 
ATOM     82  C   UNL     1      -1.251  -3.155  12.187  1.00  0.00     0.040 A 
ATOM     83  F   UNL     1      -0.116  -1.377  13.222  1.00  0.00    -0.206 F 
ATOM     84  C   UNL     1      -2.356  -3.651  11.495  1.00  0.00     0.006 A 
ENDBRANCH  56  77
BRANCH  68  85
ATOM     85  C   UNL     1       1.344   4.199  15.924  1.00  0.00     0.057 A 
ATOM     86  C   UNL     1       1.488   3.430  17.088  1.00  0.00     0.134 A 
ATOM     87  C   UNL     1       1.972   5.465  15.962  1.00  0.00     0.134 A 
ATOM     88  F   UNL     1       1.038   2.170  17.155  1.00  0.00    -0.206 F 
ATOM     89  C   UNL     1       2.156   3.905  18.225  1.00  0.00     0.040 A 
ATOM     90  C   UNL     1       2.686   5.928  17.071  1.00  0.00     0.040 A 
ATOM     91  F   UNL     1       1.937   6.300  14.912  1.00  0.00    -0.206 F 
ATOM     92  C   UNL     1       2.768   5.152  18.216  1.00  0.00     0.006 A 
ENDBRANCH  68  85
ENDBRANCH  42  43
ENDBRANCH  34  37
ENDBRANCH  32  33
ENDBRANCH  31  32
ENDBRANCH  30  31
ENDBRANCH  29  30
ENDBRANCH  28  29
ENDBRANCH   1  28
TORSDOF 19
