REMARK SMILES C[C@H]1Oc2ccccc2C=C1/C=C/C(=O)N[C@H](C(=O)NCCCCCCNC(=O)c1ccc(-c2c3nc(c(-c4c(F)cccc4F)c4ccc([nH]4)c(-c4c(F)cccc4F)c4nc(c(-c5c(F)cccc5F)c5ccc2[nH]5)C=C4)C=C3)cc1)c1ccccc1
REMARK SMILES IDX 23 1 22 2 21 3 20 4 18 5 19 6 17 8 16 9 14 10 15 11 13 13
REMARK SMILES IDX 12 14 11 15 1 16 2 17 3 18 4 19 10 20 5 21 9 22 6 23 8 24
REMARK SMILES IDX 7 25 84 26 85 27 89 28 86 29 88 30 87 31 24 32 25 33 26 34
REMARK SMILES IDX 27 35 28 36 29 38 30 39 31 40 83 41 32 42 82 43 33 44 34 45
REMARK SMILES IDX 35 46 76 47 36 48 81 49 75 50 77 51 37 52 80 53 74 54 73 55
REMARK SMILES IDX 38 57 64 58 47 59 63 60 48 61 51 62 62 63 78 64 49 65 50 66
REMARK SMILES IDX 61 68 79 69 52 70 39 71 40 72 45 73 41 74 42 75 44 76 46 77
REMARK SMILES IDX 43 78 65 79 66 80 71 81 67 82 68 83 70 84 72 85 69 86 53 87
REMARK SMILES IDX 54 88 59 89 55 90 56 91 58 92 60 93 57 94
REMARK H PARENT 20 7 16 12 27 37 77 56 51 67
REMARK Flexibility Score: inf
ROOT
ATOM      1  C   UNL     1       1.511  -3.864   7.245  1.00  0.00     0.002 C 
ENDROOT
BRANCH   1   2
ATOM      2  C   UNL     1       1.899  -3.245   5.895  1.00  0.00     0.021 C 
BRANCH   2   3
ATOM      3  C   UNL     1       0.923  -3.457   4.745  1.00  0.00     0.116 C 
BRANCH   3   4
ATOM      4  N   UNL     1       0.060  -2.363   4.362  1.00  0.00    -0.354 N 
ATOM      5  C   UNL     1      -0.640  -2.197   3.186  1.00  0.00     0.247 C 
ATOM      6  O   UNL     1      -1.630  -1.457   3.278  1.00  0.00    -0.272 OA
ATOM      7  H   UNL     1      -0.041  -1.644   5.026  1.00  0.00     0.163 HD
BRANCH   5   8
ATOM      8  C   UNL     1      -0.178  -2.767   1.766  1.00  0.00     0.202 C 
BRANCH   8   9
ATOM      9  N   UNL     1       0.985  -3.657   1.656  1.00  0.00    -0.337 N 
ATOM     10  C   UNL     1       1.235  -4.959   1.931  1.00  0.00     0.244 C 
ATOM     11  O   UNL     1       2.336  -5.411   1.607  1.00  0.00    -0.270 OA
ATOM     12  H   UNL     1       1.774  -3.194   1.294  1.00  0.00     0.164 HD
BRANCH  10  13
ATOM     13  C   UNL     1       0.321  -5.855   2.695  1.00  0.00     0.071 C 
ATOM     14  C   UNL     1      -0.918  -5.608   3.144  1.00  0.00     0.013 C 
BRANCH  14  15
ATOM     15  C   UNL     1      -1.708  -6.411   4.070  1.00  0.00    -0.007 C 
ATOM     16  C   UNL     1      -4.063  -6.270   3.116  1.00  0.00     0.058 C 
ATOM     17  C   UNL     1      -3.142  -5.933   4.292  1.00  0.00     0.200 C 
ATOM     18  O   UNL     1      -3.784  -6.381   5.500  1.00  0.00    -0.485 OA
ATOM     19  C   UNL     1      -3.302  -7.522   6.075  1.00  0.00     0.127 A 
ATOM     20  C   UNL     1      -1.197  -7.415   4.795  1.00  0.00     0.019 C 
ATOM     21  C   UNL     1      -4.123  -8.127   7.025  1.00  0.00     0.047 A 
ATOM     22  C   UNL     1      -2.046  -8.055   5.787  1.00  0.00     0.017 A 
ATOM     23  C   UNL     1      -3.689  -9.270   7.695  1.00  0.00     0.004 A 
ATOM     24  C   UNL     1      -1.599  -9.181   6.487  1.00  0.00     0.012 A 
ATOM     25  C   UNL     1      -2.422  -9.790   7.435  1.00  0.00     0.001 A 
ENDBRANCH  14  15
ENDBRANCH  10  13
ENDBRANCH   8   9
BRANCH   8  26
ATOM     26  C   UNL     1      -1.315  -3.161   0.787  1.00  0.00    -0.016 A 
ATOM     27  C   UNL     1      -1.341  -4.400   0.112  1.00  0.00     0.006 A 
ATOM     28  C   UNL     1      -2.353  -2.264   0.484  1.00  0.00     0.006 A 
ATOM     29  C   UNL     1      -2.390  -4.771  -0.731  1.00  0.00     0.000 A 
ATOM     30  C   UNL     1      -3.391  -2.619  -0.389  1.00  0.00     0.000 A 
ATOM     31  C   UNL     1      -3.421  -3.880  -0.978  1.00  0.00     0.000 A 
ENDBRANCH   8  26
ENDBRANCH   5   8
ENDBRANCH   3   4
ENDBRANCH   2   3
ENDBRANCH   1   2
BRANCH   1  32
ATOM     32  C   UNL     1       0.965  -5.301   7.254  1.00  0.00     0.002 C 
BRANCH  32  33
ATOM     33  C   UNL     1       1.810  -6.375   6.567  1.00  0.00     0.021 C 
BRANCH  33  34
ATOM     34  C   UNL     1       3.221  -6.568   7.109  1.00  0.00     0.116 C 
BRANCH  34  35
ATOM     35  N   UNL     1       3.248  -6.847   8.538  1.00  0.00    -0.352 N 
ATOM     36  C   UNL     1       3.825  -7.872   9.245  1.00  0.00     0.251 C 
ATOM     37  H   UNL     1       2.771  -6.187   9.092  1.00  0.00     0.163 HD
ATOM     38  O   UNL     1       3.591  -7.983  10.449  1.00  0.00    -0.269 OA
BRANCH  36  39
ATOM     39  C   UNL     1       4.706  -8.859   8.582  1.00  0.00     0.039 A 
ATOM     40  C   UNL     1       5.595  -8.475   7.579  1.00  0.00     0.014 A 
ATOM     41  C   UNL     1       4.665 -10.197   8.992  1.00  0.00     0.014 A 
ATOM     42  C   UNL     1       6.303  -9.440   6.872  1.00  0.00     0.010 A 
ATOM     43  C   UNL     1       5.461 -11.154   8.350  1.00  0.00     0.010 A 
ATOM     44  C   UNL     1       6.255 -10.791   7.252  1.00  0.00    -0.014 A 
BRANCH  44  45
ATOM     45  C   UNL     1       7.066 -11.780   6.493  1.00  0.00     0.031 A 
ATOM     46  C   UNL     1       6.411 -12.900   5.726  1.00  0.00     0.074 A 
ATOM     47  C   UNL     1       8.404 -11.621   6.441  1.00  0.00     0.049 A 
ATOM     48  N   UNL     1       6.964 -13.802   4.953  1.00  0.00    -0.248 NA
ATOM     49  C   UNL     1       4.951 -13.032   5.844  1.00  0.00     0.031 C 
ATOM     50  C   UNL     1       9.159 -10.583   7.149  1.00  0.00     0.029 A 
ATOM     51  N   UNL     1       9.364 -12.304   5.739  1.00  0.00    -0.354 N 
ATOM     52  C   UNL     1       5.926 -14.612   4.506  1.00  0.00     0.074 A 
ATOM     53  C   UNL     1       4.714 -14.117   5.120  1.00  0.00     0.031 C 
ATOM     54  C   UNL     1      10.451 -10.659   6.797  1.00  0.00     0.029 A 
ATOM     55  C   UNL     1      10.629 -11.789   5.894  1.00  0.00     0.049 A 
ATOM     56  H   UNL     1       9.167 -13.089   5.178  1.00  0.00     0.167 HD
ATOM     57  C   UNL     1       5.978 -15.663   3.652  1.00  0.00     0.037 A 
ATOM     58  C   UNL     1      11.805 -12.190   5.378  1.00  0.00     0.037 A 
ATOM     59  C   UNL     1       7.185 -16.144   3.026  1.00  0.00     0.049 A 
ATOM     60  C   UNL     1      11.829 -13.384   4.467  1.00  0.00     0.074 A 
ATOM     61  C   UNL     1       7.332 -17.179   2.117  1.00  0.00     0.029 A 
ATOM     62  N   UNL     1       8.452 -15.629   3.250  1.00  0.00    -0.354 N 
ATOM     63  N   UNL     1      10.832 -14.106   4.017  1.00  0.00    -0.248 NA
ATOM     64  C   UNL     1      13.149 -13.820   3.993  1.00  0.00     0.031 C 
ATOM     65  C   UNL     1       8.694 -17.325   1.834  1.00  0.00     0.029 A 
ATOM     66  C   UNL     1       9.389 -16.343   2.519  1.00  0.00     0.049 A 
ATOM     67  H   UNL     1       8.656 -14.868   3.840  1.00  0.00     0.167 HD
ATOM     68  C   UNL     1      11.402 -15.064   3.190  1.00  0.00     0.074 A 
ATOM     69  C   UNL     1      12.826 -14.806   3.172  1.00  0.00     0.031 C 
ATOM     70  C   UNL     1      10.804 -16.074   2.511  1.00  0.00     0.037 A 
BRANCH  57  71
ATOM     71  C   UNL     1       4.695 -16.384   3.348  1.00  0.00     0.057 A 
ATOM     72  C   UNL     1       4.489 -17.693   3.805  1.00  0.00     0.134 A 
ATOM     73  C   UNL     1       3.693 -15.816   2.552  1.00  0.00     0.134 A 
ATOM     74  F   UNL     1       5.412 -18.302   4.566  1.00  0.00    -0.206 F 
ATOM     75  C   UNL     1       3.340 -18.412   3.473  1.00  0.00     0.040 A 
ATOM     76  C   UNL     1       2.526 -16.515   2.234  1.00  0.00     0.040 A 
ATOM     77  F   UNL     1       3.820 -14.562   2.090  1.00  0.00    -0.206 F 
ATOM     78  C   UNL     1       2.352 -17.822   2.688  1.00  0.00     0.006 A 
ENDBRANCH  57  71
BRANCH  58  79
ATOM     79  C   UNL     1      13.068 -11.486   5.724  1.00  0.00     0.057 A 
ATOM     80  C   UNL     1      13.586 -11.518   7.025  1.00  0.00     0.134 A 
ATOM     81  C   UNL     1      13.826 -10.829   4.747  1.00  0.00     0.134 A 
ATOM     82  F   UNL     1      12.908 -12.124   8.010  1.00  0.00    -0.206 F 
ATOM     83  C   UNL     1      14.813 -10.934   7.339  1.00  0.00     0.040 A 
ATOM     84  C   UNL     1      15.072 -10.271   5.039  1.00  0.00     0.040 A 
ATOM     85  F   UNL     1      13.394 -10.778   3.478  1.00  0.00    -0.206 F 
ATOM     86  C   UNL     1      15.568 -10.323   6.340  1.00  0.00     0.006 A 
ENDBRANCH  58  79
BRANCH  70  87
ATOM     87  C   UNL     1      11.696 -16.939   1.668  1.00  0.00     0.057 A 
ATOM     88  C   UNL     1      11.631 -16.881   0.270  1.00  0.00     0.134 A 
ATOM     89  C   UNL     1      12.638 -17.809   2.235  1.00  0.00     0.134 A 
ATOM     90  F   UNL     1      10.745 -16.079  -0.339  1.00  0.00    -0.206 F 
ATOM     91  C   UNL     1      12.479 -17.645  -0.532  1.00  0.00     0.040 A 
ATOM     92  C   UNL     1      13.516 -18.550   1.443  1.00  0.00     0.040 A 
ATOM     93  F   UNL     1      12.764 -17.901   3.568  1.00  0.00    -0.206 F 
ATOM     94  C   UNL     1      13.436 -18.470   0.054  1.00  0.00     0.006 A 
ENDBRANCH  70  87
ENDBRANCH  44  45
ENDBRANCH  36  39
ENDBRANCH  34  35
ENDBRANCH  33  34
ENDBRANCH  32  33
ENDBRANCH   1  32
TORSDOF 17
