REMARK SMILES C[NH2+][C@@]1(C(=O)NCCCCCCNC(=O)c2ccc(-c3c4nc(c(-c5c(F)cccc5F)c5ccc([nH]5)c(-c5c(F)cccc5F)c5nc(c(-c6c(F)cccc6F)c6ccc3[nH]6)C=C5)C=C4)cc2)CC[C@@H]([N@@H+](C)C2CCCCCC2)C1
REMARK SMILES IDX 8 1 7 2 6 3 4 4 5 5 3 7 70 8 82 9 71 10 72 11 2 12 1 13
REMARK SMILES IDX 73 16 74 17 75 19 76 20 77 21 78 22 81 24 80 25 79 26 9 28
REMARK SMILES IDX 10 29 11 30 12 31 13 32 14 33 15 35 16 36 17 37 69 38 18 39
REMARK SMILES IDX 68 40 19 41 20 42 21 43 62 44 22 45 67 46 61 47 63 48 23 49
REMARK SMILES IDX 66 50 60 51 59 52 24 54 50 55 33 56 49 57 34 58 37 59 48 60
REMARK SMILES IDX 64 61 35 62 36 63 47 65 65 66 38 67 25 68 26 69 31 70 27 71
REMARK SMILES IDX 28 72 30 73 32 74 29 75 51 76 52 77 57 78 53 79 54 80 56 81
REMARK SMILES IDX 58 82 55 83 39 84 40 85 45 86 41 87 42 88 44 89 46 90 43 91
REMARK H PARENT 6 6 2 14 2 15 73 18 13 34 63 53 37 64
REMARK Flexibility Score: 90.00
ROOT
ATOM      1  C   UNL     1      -4.734  -2.384   1.202  1.00  0.00     0.021 C 
ENDROOT
BRANCH   1   2
ATOM      2  C   UNL     1      -3.832  -1.201   0.906  1.00  0.00     0.116 C 
BRANCH   2   3
ATOM      3  N   UNL     1      -2.547  -1.314   1.529  1.00  0.00    -0.351 N 
ATOM      4  C   UNL     1      -1.303  -1.339   0.970  1.00  0.00     0.281 C 
ATOM      5  O   UNL     1      -0.398  -1.623   1.762  1.00  0.00    -0.268 OA
ATOM      6  H   UNL     1      -2.564  -1.384   2.511  1.00  0.00     0.163 HD
BRANCH   4   7
ATOM      7  C   UNL     1      -1.056  -1.027  -0.570  1.00  0.00     0.181 C 
ATOM      8  C   UNL     1      -1.731   0.280  -1.044  1.00  0.00     0.085 C 
ATOM      9  C   UNL     1      -1.635  -2.155  -1.466  1.00  0.00     0.144 C 
ATOM     10  C   UNL     1      -2.837  -0.059  -2.048  1.00  0.00     0.072 C 
ATOM     11  C   UNL     1      -2.722  -1.550  -2.384  1.00  0.00     0.191 C 
BRANCH   7  12
ATOM     12  N   UNL     1       0.415  -0.984  -0.835  1.00  0.00    -0.336 N 
ATOM     13  C   UNL     1       1.167   0.045  -0.127  1.00  0.00     0.331 C 
ATOM     14  H   UNL     1       0.805  -1.889  -0.574  1.00  0.00     0.346 HD
ATOM     15  H   UNL     1       0.507  -0.756  -1.825  1.00  0.00     0.346 HD
ENDBRANCH   7  12
BRANCH  11  16
ATOM     16  N   UNL     1      -2.834  -1.992  -3.786  1.00  0.00    -0.332 N 
ATOM     17  C   UNL     1      -4.231  -1.898  -4.244  1.00  0.00     0.333 C 
ATOM     18  H   UNL     1      -2.493  -2.948  -3.683  1.00  0.00     0.348 HD
BRANCH  16  19
ATOM     19  C   UNL     1      -1.886  -1.550  -4.844  1.00  0.00     0.184 C 
BRANCH  19  20
ATOM     20  C   UNL     1      -1.955  -0.075  -5.300  1.00  0.00     0.065 C 
BRANCH  20  21
ATOM     21  C   UNL     1      -0.988   0.883  -4.610  1.00  0.00     0.006 C 
BRANCH  21  22
ATOM     22  C   UNL     1       0.374   0.989  -5.274  1.00  0.00     0.000 CG0
ATOM     23  G   UNL     1       1.240  -0.254  -5.100  1.00  0.00     0.000 G0
ENDBRANCH  21  22
ENDBRANCH  20  21
ENDBRANCH  19  20
BRANCH  19  24
ATOM     24  C   UNL     1      -0.459  -2.084  -4.628  1.00  0.00     0.065 C 
BRANCH  24  25
ATOM     25  C   UNL     1       0.602  -1.554  -5.595  1.00  0.00     0.006 C 
BRANCH  25  26
ATOM     26  C   UNL     1       1.240  -0.254  -5.100  1.00  0.00     0.000 CG0
ATOM     27  G   UNL     1       0.374   0.989  -5.274  1.00  0.00     0.000 G0
ENDBRANCH  25  26
ENDBRANCH  24  25
ENDBRANCH  19  24
ENDBRANCH  16  19
ENDBRANCH  11  16
ENDBRANCH   4   7
ENDBRANCH   2   3
ENDBRANCH   1   2
BRANCH   1  28
ATOM     28  C   UNL     1      -5.605  -2.162   2.431  1.00  0.00     0.002 C 
BRANCH  28  29
ATOM     29  C   UNL     1      -6.484  -0.905   2.362  1.00  0.00     0.002 C 
BRANCH  29  30
ATOM     30  C   UNL     1      -7.352  -0.786   1.105  1.00  0.00     0.021 C 
BRANCH  30  31
ATOM     31  C   UNL     1      -8.246  -1.994   0.845  1.00  0.00     0.116 C 
BRANCH  31  32
ATOM     32  N   UNL     1      -9.023  -2.343   2.023  1.00  0.00    -0.352 N 
ATOM     33  C   UNL     1     -10.379  -2.418   2.184  1.00  0.00     0.251 C 
ATOM     34  H   UNL     1      -8.493  -2.557   2.825  1.00  0.00     0.163 HD
ATOM     35  O   UNL     1     -10.868  -2.465   3.306  1.00  0.00    -0.269 OA
BRANCH  33  36
ATOM     36  C   UNL     1     -11.246  -2.444   0.994  1.00  0.00     0.039 A 
ATOM     37  C   UNL     1     -12.412  -1.677   0.991  1.00  0.00     0.014 A 
ATOM     38  C   UNL     1     -10.916  -3.245  -0.104  1.00  0.00     0.014 A 
ATOM     39  C   UNL     1     -13.231  -1.683  -0.136  1.00  0.00     0.010 A 
ATOM     40  C   UNL     1     -11.692  -3.189  -1.254  1.00  0.00     0.010 A 
ATOM     41  C   UNL     1     -12.864  -2.418  -1.274  1.00  0.00    -0.014 A 
BRANCH  41  42
ATOM     42  C   UNL     1     -13.702  -2.404  -2.495  1.00  0.00     0.031 A 
ATOM     43  C   UNL     1     -14.363  -3.668  -2.968  1.00  0.00     0.074 A 
ATOM     44  C   UNL     1     -13.816  -1.266  -3.204  1.00  0.00     0.049 A 
ATOM     45  N   UNL     1     -15.085  -3.870  -4.040  1.00  0.00    -0.248 NA
ATOM     46  C   UNL     1     -14.162  -4.870  -2.143  1.00  0.00     0.031 C 
ATOM     47  C   UNL     1     -13.179   0.009  -2.866  1.00  0.00     0.029 A 
ATOM     48  N   UNL     1     -14.501  -1.000  -4.362  1.00  0.00    -0.354 N 
ATOM     49  C   UNL     1     -15.412  -5.220  -4.023  1.00  0.00     0.074 A 
ATOM     50  C   UNL     1     -14.763  -5.800  -2.869  1.00  0.00     0.031 C 
ATOM     51  C   UNL     1     -13.523   0.927  -3.783  1.00  0.00     0.029 A 
ATOM     52  C   UNL     1     -14.369   0.298  -4.792  1.00  0.00     0.049 A 
ATOM     53  H   UNL     1     -15.036  -1.674  -4.839  1.00  0.00     0.167 HD
ATOM     54  C   UNL     1     -16.204  -5.907  -4.880  1.00  0.00     0.037 A 
ATOM     55  C   UNL     1     -14.869   0.907  -5.882  1.00  0.00     0.037 A 
ATOM     56  C   UNL     1     -16.862  -5.316  -6.016  1.00  0.00     0.049 A 
ATOM     57  C   UNL     1     -15.736   0.120  -6.824  1.00  0.00     0.074 A 
ATOM     58  C   UNL     1     -17.732  -5.909  -6.913  1.00  0.00     0.029 A 
ATOM     59  N   UNL     1     -16.717  -3.994  -6.412  1.00  0.00    -0.354 N 
ATOM     60  N   UNL     1     -16.099  -1.139  -6.758  1.00  0.00    -0.248 NA
ATOM     61  C   UNL     1     -16.271   0.839  -7.988  1.00  0.00     0.031 C 
ATOM     62  C   UNL     1     -18.073  -4.960  -7.882  1.00  0.00     0.029 A 
ATOM     63  C   UNL     1     -17.461  -3.760  -7.556  1.00  0.00     0.049 A 
ATOM     64  H   UNL     1     -16.166  -3.323  -5.948  1.00  0.00     0.167 HD
ATOM     65  C   UNL     1     -16.925  -1.355  -7.853  1.00  0.00     0.074 A 
ATOM     66  C   UNL     1     -17.023  -0.093  -8.557  1.00  0.00     0.031 C 
ATOM     67  C   UNL     1     -17.549  -2.495  -8.240  1.00  0.00     0.037 A 
BRANCH  54  68
ATOM     68  C   UNL     1     -16.398  -7.373  -4.621  1.00  0.00     0.057 A 
ATOM     69  C   UNL     1     -17.126  -7.841  -3.519  1.00  0.00     0.134 A 
ATOM     70  C   UNL     1     -15.873  -8.330  -5.500  1.00  0.00     0.134 A 
ATOM     71  F   UNL     1     -17.645  -6.979  -2.631  1.00  0.00    -0.206 F 
ATOM     72  C   UNL     1     -17.302  -9.206  -3.284  1.00  0.00     0.040 A 
ATOM     73  C   UNL     1     -16.067  -9.697  -5.292  1.00  0.00     0.040 A 
ATOM     74  F   UNL     1     -15.169  -7.953  -6.578  1.00  0.00    -0.206 F 
ATOM     75  C   UNL     1     -16.777 -10.139  -4.177  1.00  0.00     0.006 A 
ENDBRANCH  54  68
BRANCH  55  76
ATOM     76  C   UNL     1     -14.577   2.342  -6.131  1.00  0.00     0.057 A 
ATOM     77  C   UNL     1     -15.582   3.311  -6.029  1.00  0.00     0.134 A 
ATOM     78  C   UNL     1     -13.293   2.778  -6.479  1.00  0.00     0.134 A 
ATOM     79  F   UNL     1     -16.835   2.953  -5.713  1.00  0.00    -0.206 F 
ATOM     80  C   UNL     1     -15.326   4.659  -6.285  1.00  0.00     0.040 A 
ATOM     81  C   UNL     1     -13.017   4.126  -6.712  1.00  0.00     0.040 A 
ATOM     82  F   UNL     1     -12.284   1.901  -6.582  1.00  0.00    -0.206 F 
ATOM     83  C   UNL     1     -14.039   5.070  -6.624  1.00  0.00     0.006 A 
ENDBRANCH  55  76
BRANCH  67  84
ATOM     84  C   UNL     1     -18.419  -2.419  -9.461  1.00  0.00     0.057 A 
ATOM     85  C   UNL     1     -17.882  -2.283 -10.747  1.00  0.00     0.134 A 
ATOM     86  C   UNL     1     -19.811  -2.522  -9.349  1.00  0.00     0.134 A 
ATOM     87  F   UNL     1     -16.557  -2.165 -10.922  1.00  0.00    -0.206 F 
ATOM     88  C   UNL     1     -18.700  -2.228 -11.877  1.00  0.00     0.040 A 
ATOM     89  C   UNL     1     -20.638  -2.499 -10.472  1.00  0.00     0.040 A 
ATOM     90  F   UNL     1     -20.390  -2.664  -8.147  1.00  0.00    -0.206 F 
ATOM     91  C   UNL     1     -20.083  -2.345 -11.741  1.00  0.00     0.006 A 
ENDBRANCH  67  84
ENDBRANCH  41  42
ENDBRANCH  33  36
ENDBRANCH  31  32
ENDBRANCH  30  31
ENDBRANCH  29  30
ENDBRANCH  28  29
ENDBRANCH   1  28
TORSDOF 16
