REMARK SMILES CC(C)C[C@H](CNC(=O)c1ccc(O)cc1O)C(=O)NCCCCCCNC(=O)c1ccc(-c2c3nc(c(-c4c(F)cccc4F)c4ccc([nH]4)c(-c4c(F)cccc4F)c4nc(c(-c5c(F)cccc5F)c5ccc2[nH]5)C=C4)C=C3)cc1
REMARK SMILES IDX 22 1 21 2 20 3 18 4 19 5 5 7 4 8 2 9 1 10 3 11 6 12 7 13
REMARK SMILES IDX 8 14 9 16 10 17 11 18 16 19 12 20 15 21 13 22 17 23 14 25
REMARK SMILES IDX 23 27 24 28 25 29 26 30 27 31 28 32 29 34 30 35 31 36 83 37
REMARK SMILES IDX 32 38 82 39 33 40 34 41 35 42 76 43 36 44 81 45 75 46 77 47
REMARK SMILES IDX 37 48 80 49 74 50 73 51 38 53 64 54 47 55 63 56 48 57 51 58
REMARK SMILES IDX 62 59 78 60 49 61 50 62 61 64 79 65 52 66 39 67 40 68 45 69
REMARK SMILES IDX 41 70 42 71 44 72 46 73 43 74 65 75 66 76 71 77 67 78 68 79
REMARK SMILES IDX 70 80 72 81 69 82 53 83 54 84 59 85 55 86 56 87 58 88 60 89
REMARK SMILES IDX 57 90
REMARK H PARENT 20 6 7 15 17 24 14 26 27 33 77 52 51 63
REMARK Flexibility Score: inf
ROOT
ATOM      1  C   UNL     1      -3.798   3.774   1.093  1.00  0.00     0.021 C 
ENDROOT
BRANCH   1   2
ATOM      2  C   UNL     1      -3.239   2.748   2.076  1.00  0.00     0.116 C 
BRANCH   2   3
ATOM      3  N   UNL     1      -3.719   1.414   1.773  1.00  0.00    -0.356 N 
ATOM      4  C   UNL     1      -3.042   0.274   1.471  1.00  0.00     0.224 C 
ATOM      5  O   UNL     1      -3.701  -0.721   1.163  1.00  0.00    -0.275 OA
ATOM      6  H   UNL     1      -4.698   1.317   1.789  1.00  0.00     0.163 HD
BRANCH   4   7
ATOM      7  C   UNL     1      -1.521   0.209   1.528  1.00  0.00     0.098 C 
BRANCH   7   8
ATOM      8  C   UNL     1      -0.975   0.408   2.958  1.00  0.00     0.018 C 
BRANCH   8   9
ATOM      9  C   UNL     1      -1.591  -0.528   4.021  1.00  0.00    -0.017 C 
ATOM     10  C   UNL     1      -1.246  -1.997   3.771  1.00  0.00     0.007 C 
ATOM     11  C   UNL     1      -1.112  -0.114   5.415  1.00  0.00     0.007 C 
ENDBRANCH   8   9
ENDBRANCH   7   8
BRANCH   7  12
ATOM     12  C   UNL     1      -0.912   1.094   0.419  1.00  0.00     0.129 C 
BRANCH  12  13
ATOM     13  N   UNL     1       0.203   1.929   0.848  1.00  0.00    -0.351 N 
ATOM     14  C   UNL     1       1.503   1.930   0.415  1.00  0.00     0.255 C 
ATOM     15  H   UNL     1      -0.008   2.587   1.549  1.00  0.00     0.163 HD
ATOM     16  O   UNL     1       2.375   2.480   1.084  1.00  0.00    -0.269 OA
BRANCH  14  17
ATOM     17  C   UNL     1       1.892   1.227  -0.821  1.00  0.00     0.081 A 
ATOM     18  C   UNL     1       1.164   1.401  -2.006  1.00  0.00     0.021 A 
ATOM     19  C   UNL     1       3.028   0.410  -0.815  1.00  0.00     0.132 A 
ATOM     20  C   UNL     1       1.527   0.698  -3.156  1.00  0.00     0.047 A 
ATOM     21  C   UNL     1       3.384  -0.301  -1.956  1.00  0.00     0.093 A 
ATOM     22  C   UNL     1       2.626  -0.158  -3.115  1.00  0.00     0.119 A 
BRANCH  19  23
ATOM     23  O   UNL     1       3.832   0.271   0.285  1.00  0.00    -0.507 OA
ATOM     24  H   UNL     1       3.629   0.732   1.075  1.00  0.00     0.293 HD
ENDBRANCH  19  23
BRANCH  22  25
ATOM     25  O   UNL     1       3.002  -0.875  -4.212  1.00  0.00    -0.508 OA
ATOM     26  H   UNL     1       2.515  -0.803  -5.009  1.00  0.00     0.293 HD
ENDBRANCH  22  25
ENDBRANCH  14  17
ENDBRANCH  12  13
ENDBRANCH   7  12
ENDBRANCH   4   7
ENDBRANCH   2   3
ENDBRANCH   1   2
BRANCH   1  27
ATOM     27  C   UNL     1      -5.304   4.021   1.226  1.00  0.00     0.002 C 
BRANCH  27  28
ATOM     28  C   UNL     1      -5.772   4.464   2.616  1.00  0.00     0.002 C 
BRANCH  28  29
ATOM     29  C   UNL     1      -5.039   5.676   3.197  1.00  0.00     0.021 C 
BRANCH  29  30
ATOM     30  C   UNL     1      -5.069   6.926   2.323  1.00  0.00     0.116 C 
BRANCH  30  31
ATOM     31  N   UNL     1      -6.418   7.418   2.108  1.00  0.00    -0.352 N 
ATOM     32  C   UNL     1      -6.910   8.688   2.257  1.00  0.00     0.251 C 
ATOM     33  H   UNL     1      -7.072   6.743   1.814  1.00  0.00     0.163 HD
ATOM     34  O   UNL     1      -8.120   8.895   2.192  1.00  0.00    -0.269 OA
BRANCH  32  35
ATOM     35  C   UNL     1      -5.987   9.812   2.517  1.00  0.00     0.039 A 
ATOM     36  C   UNL     1      -6.310  10.732   3.518  1.00  0.00     0.014 A 
ATOM     37  C   UNL     1      -4.816   9.969   1.769  1.00  0.00     0.014 A 
ATOM     38  C   UNL     1      -5.434  11.781   3.805  1.00  0.00     0.010 A 
ATOM     39  C   UNL     1      -3.914  10.978   2.098  1.00  0.00     0.010 A 
ATOM     40  C   UNL     1      -4.217  11.897   3.114  1.00  0.00    -0.014 A 
BRANCH  40  41
ATOM     41  C   UNL     1      -3.256  12.983   3.429  1.00  0.00     0.031 A 
ATOM     42  C   UNL     1      -2.958  14.043   2.405  1.00  0.00     0.074 A 
ATOM     43  C   UNL     1      -2.613  12.986   4.612  1.00  0.00     0.049 A 
ATOM     44  N   UNL     1      -2.089  15.021   2.455  1.00  0.00    -0.248 NA
ATOM     45  C   UNL     1      -3.719  13.980   1.146  1.00  0.00     0.031 C 
ATOM     46  C   UNL     1      -2.786  11.993   5.674  1.00  0.00     0.029 A 
ATOM     47  N   UNL     1      -1.671  13.848   5.115  1.00  0.00    -0.354 N 
ATOM     48  C   UNL     1      -2.192  15.680   1.237  1.00  0.00     0.074 A 
ATOM     49  C   UNL     1      -3.170  14.963   0.448  1.00  0.00     0.031 C 
ATOM     50  C   UNL     1      -1.987  12.309   6.707  1.00  0.00     0.029 A 
ATOM     51  C   UNL     1      -1.222  13.505   6.368  1.00  0.00     0.049 A 
ATOM     52  H   UNL     1      -1.347  14.638   4.625  1.00  0.00     0.167 HD
ATOM     53  C   UNL     1      -1.547  16.796   0.822  1.00  0.00     0.037 A 
ATOM     54  C   UNL     1      -0.292  14.085   7.149  1.00  0.00     0.037 A 
ATOM     55  C   UNL     1      -0.594  17.525   1.617  1.00  0.00     0.049 A 
ATOM     56  C   UNL     1       0.408  15.324   6.663  1.00  0.00     0.074 A 
ATOM     57  C   UNL     1       0.086  18.687   1.297  1.00  0.00     0.029 A 
ATOM     58  N   UNL     1      -0.193  17.164   2.893  1.00  0.00    -0.354 N 
ATOM     59  N   UNL     1       0.266  15.963   5.527  1.00  0.00    -0.248 NA
ATOM     60  C   UNL     1       1.393  15.929   7.572  1.00  0.00     0.031 C 
ATOM     61  C   UNL     1       0.921  19.015   2.370  1.00  0.00     0.029 A 
ATOM     62  C   UNL     1       0.731  18.078   3.373  1.00  0.00     0.049 A 
ATOM     63  H   UNL     1      -0.516  16.375   3.386  1.00  0.00     0.167 HD
ATOM     64  C   UNL     1       1.118  17.057   5.598  1.00  0.00     0.074 A 
ATOM     65  C   UNL     1       1.764  17.004   6.893  1.00  0.00     0.031 C 
ATOM     66  C   UNL     1       1.347  18.020   4.672  1.00  0.00     0.037 A 
BRANCH  53  67
ATOM     67  C   UNL     1      -1.865  17.310  -0.551  1.00  0.00     0.057 A 
ATOM     68  C   UNL     1      -3.088  17.929  -0.837  1.00  0.00     0.134 A 
ATOM     69  C   UNL     1      -0.922  17.231  -1.584  1.00  0.00     0.134 A 
ATOM     70  F   UNL     1      -4.038  18.024   0.105  1.00  0.00    -0.206 F 
ATOM     71  C   UNL     1      -3.371  18.436  -2.106  1.00  0.00     0.040 A 
ATOM     72  C   UNL     1      -1.184  17.756  -2.851  1.00  0.00     0.040 A 
ATOM     73  F   UNL     1       0.271  16.655  -1.375  1.00  0.00    -0.206 F 
ATOM     74  C   UNL     1      -2.413  18.357  -3.115  1.00  0.00     0.006 A 
ENDBRANCH  53  67
BRANCH  54  75
ATOM     75  C   UNL     1       0.028  13.514   8.482  1.00  0.00     0.057 A 
ATOM     76  C   UNL     1      -0.330  14.181   9.659  1.00  0.00     0.134 A 
ATOM     77  C   UNL     1       0.723  12.306   8.610  1.00  0.00     0.134 A 
ATOM     78  F   UNL     1      -0.981  15.352   9.599  1.00  0.00    -0.206 F 
ATOM     79  C   UNL     1       0.015  13.683  10.916  1.00  0.00     0.040 A 
ATOM     80  C   UNL     1       1.053  11.783   9.862  1.00  0.00     0.040 A 
ATOM     81  F   UNL     1       1.087  11.614   7.521  1.00  0.00    -0.206 F 
ATOM     82  C   UNL     1       0.707  12.478  11.019  1.00  0.00     0.006 A 
ENDBRANCH  54  75
BRANCH  66  83
ATOM     83  C   UNL     1       2.300  19.116   5.044  1.00  0.00     0.057 A 
ATOM     84  C   UNL     1       3.683  18.906   5.101  1.00  0.00     0.134 A 
ATOM     85  C   UNL     1       1.828  20.408   5.310  1.00  0.00     0.134 A 
ATOM     86  F   UNL     1       4.196  17.688   4.869  1.00  0.00    -0.206 F 
ATOM     87  C   UNL     1       4.563  19.938   5.431  1.00  0.00     0.040 A 
ATOM     88  C   UNL     1       2.700  21.453   5.617  1.00  0.00     0.040 A 
ATOM     89  F   UNL     1       0.515  20.677   5.263  1.00  0.00    -0.206 F 
ATOM     90  C   UNL     1       4.072  21.217   5.683  1.00  0.00     0.006 A 
ENDBRANCH  66  83
ENDBRANCH  40  41
ENDBRANCH  32  35
ENDBRANCH  30  31
ENDBRANCH  29  30
ENDBRANCH  28  29
ENDBRANCH  27  28
ENDBRANCH   1  27
TORSDOF 20
