REMARK SMILES CCCN(C(=O)Cc1c(C(=O)NCCCCCCNC(=O)c2ccc(-c3c4nc(c(-c5c(F)cccc5F)c5ccc([nH]5)c(-c5c(F)cccc5F)c5nc(c(-c6c(F)cccc6F)c6ccc3[nH]6)C=C5)C=C4)cc2)c(C)cn1CC)c1cccc(Cl)c1
REMARK SMILES IDX 14 1 13 2 12 3 10 4 11 5 9 7 8 8 79 9 76 10 78 11 77 12 7 13
REMARK SMILES IDX 5 14 6 15 4 16 3 17 2 18 1 19 82 20 83 21 88 22 84 23 86 24
REMARK SMILES IDX 85 25 87 26 80 27 81 28 15 29 16 30 17 31 18 32 19 33 20 34
REMARK SMILES IDX 21 36 22 37 23 38 75 39 24 40 74 41 25 42 26 43 27 44 68 45
REMARK SMILES IDX 28 46 73 47 67 48 69 49 29 50 72 51 66 52 65 53 30 55 56 56
REMARK SMILES IDX 39 57 55 58 40 59 43 60 54 61 70 62 41 63 42 64 53 66 71 67
REMARK SMILES IDX 44 68 31 69 32 70 37 71 33 72 34 73 36 74 38 75 35 76 57 77
REMARK SMILES IDX 58 78 63 79 59 80 60 81 62 82 64 83 61 84 45 85 46 86 51 87
REMARK SMILES IDX 47 88 48 89 50 90 52 91 49 92
REMARK H PARENT 12 6 19 35 69 54 43 65
REMARK Flexibility Score: inf
ROOT
ATOM      1  C   UNL     1       1.315  -3.901   3.163  1.00  0.00     0.021 C 
ENDROOT
BRANCH   1   2
ATOM      2  C   UNL     1       0.351  -3.103   4.028  1.00  0.00     0.116 C 
BRANCH   2   3
ATOM      3  N   UNL     1       0.857  -1.917   4.658  1.00  0.00    -0.352 N 
ATOM      4  C   UNL     1       0.209  -0.736   4.945  1.00  0.00     0.253 C 
ATOM      5  O   UNL     1       0.839   0.053   5.654  1.00  0.00    -0.269 OA
ATOM      6  H   UNL     1       1.805  -1.953   4.923  1.00  0.00     0.163 HD
BRANCH   4   7
ATOM      7  C   UNL     1      -1.110  -0.366   4.373  1.00  0.00     0.064 A 
ATOM      8  C   UNL     1      -1.408   0.969   4.011  1.00  0.00     0.040 A 
ATOM      9  N   UNL     1      -2.747   1.036   3.691  1.00  0.00    -0.350 N 
ATOM     10  C   UNL     1      -2.322  -1.120   4.109  1.00  0.00    -0.020 A 
ATOM     11  C   UNL     1      -3.259  -0.226   3.637  1.00  0.00     0.090 A 
ATOM     12  C   UNL     1      -2.672  -2.556   4.299  1.00  0.00     0.047 C 
BRANCH   8  13
ATOM     13  C   UNL     1      -0.520   2.197   4.018  1.00  0.00     0.155 C 
BRANCH  13  14
ATOM     14  C   UNL     1      -0.362   2.826   2.632  1.00  0.00     0.232 C 
ATOM     15  O   UNL     1      -0.907   3.915   2.411  1.00  0.00    -0.274 OA
BRANCH  14  16
ATOM     16  N   UNL     1       0.387   2.155   1.660  1.00  0.00    -0.312 N 
BRANCH  16  17
ATOM     17  C   UNL     1       1.212   0.956   1.908  1.00  0.00     0.125 C 
BRANCH  17  18
ATOM     18  C   UNL     1       0.699  -0.323   1.241  1.00  0.00     0.019 C 
ATOM     19  C   UNL     1       1.580  -0.772   0.080  1.00  0.00     0.006 C 
ENDBRANCH  17  18
ENDBRANCH  16  17
BRANCH  16  20
ATOM     20  C   UNL     1       0.605   2.785   0.399  1.00  0.00     0.045 A 
ATOM     21  C   UNL     1       1.315   3.988   0.334  1.00  0.00     0.026 A 
ATOM     22  C   UNL     1       0.226   2.147  -0.785  1.00  0.00     0.046 A 
ATOM     23  C   UNL     1       1.711   4.503  -0.903  1.00  0.00     0.004 A 
ATOM     24  C   UNL     1       0.631   2.659  -2.015  1.00  0.00     0.043 A 
ATOM     25  C   UNL     1       1.386   3.826  -2.079  1.00  0.00     0.020 A 
ATOM     26  Cl  UNL     1       0.233   1.808  -3.458  1.00  0.00    -0.084 Cl
ENDBRANCH  16  20
ENDBRANCH  14  16
ENDBRANCH  13  14
ENDBRANCH   8  13
BRANCH   9  27
ATOM     27  C   UNL     1      -3.577   2.215   3.482  1.00  0.00     0.118 C 
ATOM     28  C   UNL     1      -3.942   2.918   4.780  1.00  0.00     0.027 C 
ENDBRANCH   9  27
ENDBRANCH   4   7
ENDBRANCH   2   3
ENDBRANCH   1   2
BRANCH   1  29
ATOM     29  C   UNL     1       2.553  -4.500   3.821  1.00  0.00     0.002 C 
BRANCH  29  30
ATOM     30  C   UNL     1       2.372  -5.249   5.145  1.00  0.00     0.002 C 
BRANCH  30  31
ATOM     31  C   UNL     1       1.289  -6.333   5.226  1.00  0.00     0.021 C 
BRANCH  31  32
ATOM     32  C   UNL     1       1.416  -7.455   4.210  1.00  0.00     0.116 C 
BRANCH  32  33
ATOM     33  N   UNL     1       2.648  -8.229   4.348  1.00  0.00    -0.352 N 
ATOM     34  C   UNL     1       3.095  -9.278   3.560  1.00  0.00     0.251 C 
ATOM     35  H   UNL     1       3.235  -7.973   5.096  1.00  0.00     0.163 HD
ATOM     36  O   UNL     1       3.932 -10.063   3.966  1.00  0.00    -0.269 OA
BRANCH  34  37
ATOM     37  C   UNL     1       2.536  -9.420   2.203  1.00  0.00     0.039 A 
ATOM     38  C   UNL     1       2.235 -10.670   1.655  1.00  0.00     0.014 A 
ATOM     39  C   UNL     1       2.291  -8.253   1.489  1.00  0.00     0.014 A 
ATOM     40  C   UNL     1       1.618 -10.720   0.407  1.00  0.00     0.010 A 
ATOM     41  C   UNL     1       1.506  -8.295   0.372  1.00  0.00     0.010 A 
ATOM     42  C   UNL     1       1.244  -9.522  -0.220  1.00  0.00    -0.014 A 
BRANCH  42  43
ATOM     43  C   UNL     1       0.505  -9.515  -1.473  1.00  0.00     0.031 A 
ATOM     44  C   UNL     1      -0.773 -10.273  -1.446  1.00  0.00     0.074 A 
ATOM     45  C   UNL     1       0.827  -8.691  -2.495  1.00  0.00     0.049 A 
ATOM     46  N   UNL     1      -1.061 -11.356  -2.086  1.00  0.00    -0.248 NA
ATOM     47  C   UNL     1      -1.809  -9.855  -0.486  1.00  0.00     0.031 C 
ATOM     48  C   UNL     1       1.855  -7.642  -2.545  1.00  0.00     0.029 A 
ATOM     49  N   UNL     1       0.207  -8.547  -3.694  1.00  0.00    -0.354 N 
ATOM     50  C   UNL     1      -2.390 -11.639  -1.781  1.00  0.00     0.074 A 
ATOM     51  C   UNL     1      -2.729 -10.806  -0.657  1.00  0.00     0.031 C 
ATOM     52  C   UNL     1       1.623  -6.826  -3.596  1.00  0.00     0.029 A 
ATOM     53  C   UNL     1       0.553  -7.396  -4.391  1.00  0.00     0.049 A 
ATOM     54  H   UNL     1      -0.436  -9.206  -4.043  1.00  0.00     0.167 HD
ATOM     55  C   UNL     1      -3.170 -12.349  -2.643  1.00  0.00     0.037 A 
ATOM     56  C   UNL     1      -0.033  -6.936  -5.523  1.00  0.00     0.037 A 
ATOM     57  C   UNL     1      -2.364 -13.044  -3.618  1.00  0.00     0.049 A 
ATOM     58  C   UNL     1      -0.751  -8.083  -6.138  1.00  0.00     0.074 A 
ATOM     59  C   UNL     1      -1.343 -13.974  -3.546  1.00  0.00     0.029 A 
ATOM     60  N   UNL     1      -2.287 -12.515  -4.884  1.00  0.00    -0.354 N 
ATOM     61  N   UNL     1      -0.150  -9.128  -6.639  1.00  0.00    -0.248 NA
ATOM     62  C   UNL     1      -2.138  -8.289  -5.747  1.00  0.00     0.031 C 
ATOM     63  C   UNL     1      -0.413 -13.573  -4.552  1.00  0.00     0.029 A 
ATOM     64  C   UNL     1      -0.960 -12.481  -5.227  1.00  0.00     0.049 A 
ATOM     65  H   UNL     1      -3.043 -12.217  -5.440  1.00  0.00     0.167 HD
ATOM     66  C   UNL     1      -0.919 -10.209  -6.232  1.00  0.00     0.074 A 
ATOM     67  C   UNL     1      -2.169  -9.625  -5.747  1.00  0.00     0.031 C 
ATOM     68  C   UNL     1      -0.368 -11.446  -6.044  1.00  0.00     0.037 A 
BRANCH  55  69
ATOM     69  C   UNL     1      -4.647 -12.110  -2.854  1.00  0.00     0.057 A 
ATOM     70  C   UNL     1      -5.364 -12.980  -3.697  1.00  0.00     0.134 A 
ATOM     71  C   UNL     1      -5.319 -10.916  -2.521  1.00  0.00     0.134 A 
ATOM     72  F   UNL     1      -4.835 -14.148  -4.092  1.00  0.00    -0.206 F 
ATOM     73  C   UNL     1      -6.611 -12.645  -4.239  1.00  0.00     0.040 A 
ATOM     74  C   UNL     1      -6.587 -10.596  -3.014  1.00  0.00     0.040 A 
ATOM     75  F   UNL     1      -4.755  -9.950  -1.788  1.00  0.00    -0.206 F 
ATOM     76  C   UNL     1      -7.222 -11.444  -3.906  1.00  0.00     0.006 A 
ENDBRANCH  55  69
BRANCH  56  77
ATOM     77  C   UNL     1      -0.282  -5.529  -5.915  1.00  0.00     0.057 A 
ATOM     78  C   UNL     1      -0.641  -5.194  -7.228  1.00  0.00     0.134 A 
ATOM     79  C   UNL     1      -0.441  -4.512  -4.955  1.00  0.00     0.134 A 
ATOM     80  F   UNL     1      -0.565  -6.108  -8.207  1.00  0.00    -0.206 F 
ATOM     81  C   UNL     1      -1.151  -3.932  -7.563  1.00  0.00     0.040 A 
ATOM     82  C   UNL     1      -0.942  -3.246  -5.277  1.00  0.00     0.040 A 
ATOM     83  F   UNL     1      -0.200  -4.741  -3.656  1.00  0.00    -0.206 F 
ATOM     84  C   UNL     1      -1.313  -2.957  -6.584  1.00  0.00     0.006 A 
ENDBRANCH  56  77
BRANCH  68  85
ATOM     85  C   UNL     1       1.048 -11.677  -6.501  1.00  0.00     0.057 A 
ATOM     86  C   UNL     1       2.166 -11.006  -5.980  1.00  0.00     0.134 A 
ATOM     87  C   UNL     1       1.306 -12.739  -7.373  1.00  0.00     0.134 A 
ATOM     88  F   UNL     1       2.033 -10.042  -5.062  1.00  0.00    -0.206 F 
ATOM     89  C   UNL     1       3.473 -11.353  -6.338  1.00  0.00     0.040 A 
ATOM     90  C   UNL     1       2.607 -13.118  -7.714  1.00  0.00     0.040 A 
ATOM     91  F   UNL     1       0.293 -13.467  -7.869  1.00  0.00    -0.206 F 
ATOM     92  C   UNL     1       3.697 -12.419  -7.203  1.00  0.00     0.006 A 
ENDBRANCH  68  85
ENDBRANCH  42  43
ENDBRANCH  34  37
ENDBRANCH  32  33
ENDBRANCH  31  32
ENDBRANCH  30  31
ENDBRANCH  29  30
ENDBRANCH   1  29
TORSDOF 20
