REMARK SMILES Cc1onc2c(=O)n(C)nc(C(=O)NCCCCCCNC(=O)c3ccc(-c4c5nc(c(-c6c(F)cccc6F)c6ccc([nH]6)c(-c6c(F)cccc6F)c6nc(c(-c7c(F)cccc7F)c7ccc4[nH]7)C=C6)C=C5)cc3)c12
REMARK SMILES IDX 18 1 17 2 16 3 15 4 14 5 12 6 13 7 11 9 1 10 2 11 3 12 78 13
REMARK SMILES IDX 4 14 5 15 6 16 10 17 7 18 8 19 9 20 19 21 20 22 21 23 22 24
REMARK SMILES IDX 23 26 24 27 25 28 77 29 26 30 76 31 27 32 28 33 29 34 70 35
REMARK SMILES IDX 30 36 75 37 69 38 71 39 31 40 74 41 68 42 67 43 32 45 58 46
REMARK SMILES IDX 41 47 57 48 42 49 45 50 56 51 72 52 43 53 44 54 55 56 73 57
REMARK SMILES IDX 46 58 33 59 34 60 39 61 35 62 36 63 38 64 40 65 37 66 59 67
REMARK SMILES IDX 60 68 65 69 61 70 62 71 64 72 66 73 63 74 47 75 48 76 53 77
REMARK SMILES IDX 49 78 50 79 52 80 54 81 51 82
REMARK H PARENT 14 8 21 25 71 44 45 55
REMARK Flexibility Score: inf
ROOT
ATOM      1  C   UNL     1       2.338   7.459   2.404  1.00  0.00     0.002 C 
ENDROOT
BRANCH   1   2
ATOM      2  C   UNL     1       1.061   6.613   2.437  1.00  0.00     0.002 C 
BRANCH   2   3
ATOM      3  C   UNL     1       0.495   6.233   1.066  1.00  0.00     0.021 C 
BRANCH   3   4
ATOM      4  C   UNL     1       1.472   5.500   0.147  1.00  0.00     0.116 C 
BRANCH   4   5
ATOM      5  N   UNL     1       1.774   4.159   0.622  1.00  0.00    -0.351 N 
ATOM      6  C   UNL     1       1.619   2.917   0.044  1.00  0.00     0.272 C 
ATOM      7  O   UNL     1       2.042   1.940   0.654  1.00  0.00    -0.267 OA
ATOM      8  H   UNL     1       2.162   4.133   1.526  1.00  0.00     0.163 HD
BRANCH   6   9
ATOM      9  C   UNL     1       0.960   2.716  -1.329  1.00  0.00     0.161 A 
ATOM     10  C   UNL     1       0.846  -0.540  -0.096  1.00  0.00     0.091 C 
ATOM     11  C   UNL     1       0.486   0.147  -1.352  1.00  0.00     0.144 A 
ATOM     12  O   UNL     1      -0.029  -0.669  -2.320  1.00  0.00    -0.360 OA
ATOM     13  C   UNL     1       0.523   1.435  -1.836  1.00  0.00     0.083 A 
ATOM     14  N   UNL     1      -0.353   0.074  -3.441  1.00  0.00    -0.074 NA
ATOM     15  C   UNL     1      -0.024   1.332  -3.132  1.00  0.00     0.183 A 
ATOM     16  C   UNL     1      -0.203   2.488  -3.982  1.00  0.00     0.296 A 
ATOM     17  N   UNL     1       0.806   3.758  -2.103  1.00  0.00    -0.164 NA
ATOM     18  O   UNL     1      -0.685   2.447  -5.117  1.00  0.00    -0.265 OA
ATOM     19  N   UNL     1       0.221   3.676  -3.364  1.00  0.00    -0.230 N 
ATOM     20  C   UNL     1       0.053   4.929  -4.072  1.00  0.00     0.178 C 
ENDBRANCH   6   9
ENDBRANCH   4   5
ENDBRANCH   3   4
ENDBRANCH   2   3
ENDBRANCH   1   2
BRANCH   1  21
ATOM     21  C   UNL     1       2.231   8.801   1.656  1.00  0.00     0.021 C 
BRANCH  21  22
ATOM     22  C   UNL     1       1.306   9.842   2.306  1.00  0.00     0.116 C 
BRANCH  22  23
ATOM     23  N   UNL     1       1.796  10.190   3.627  1.00  0.00    -0.352 N 
ATOM     24  C   UNL     1       2.027  11.396   4.221  1.00  0.00     0.251 C 
ATOM     25  H   UNL     1       1.998   9.414   4.198  1.00  0.00     0.163 HD
ATOM     26  O   UNL     1       2.817  11.430   5.165  1.00  0.00    -0.269 OA
BRANCH  24  27
ATOM     27  C   UNL     1       1.341  12.645   3.819  1.00  0.00     0.039 A 
ATOM     28  C   UNL     1       2.021  13.847   4.055  1.00  0.00     0.014 A 
ATOM     29  C   UNL     1       0.004  12.677   3.414  1.00  0.00     0.014 A 
ATOM     30  C   UNL     1       1.375  15.071   3.892  1.00  0.00     0.010 A 
ATOM     31  C   UNL     1      -0.644  13.909   3.245  1.00  0.00     0.010 A 
ATOM     32  C   UNL     1       0.035  15.112   3.487  1.00  0.00    -0.014 A 
BRANCH  32  33
ATOM     33  C   UNL     1      -0.563  16.440   3.238  1.00  0.00     0.031 A 
ATOM     34  C   UNL     1      -1.311  16.579   1.955  1.00  0.00     0.074 A 
ATOM     35  C   UNL     1      -0.867  17.298   4.237  1.00  0.00     0.049 A 
ATOM     36  N   UNL     1      -2.544  16.186   1.817  1.00  0.00    -0.248 NA
ATOM     37  C   UNL     1      -0.657  16.933   0.697  1.00  0.00     0.031 C 
ATOM     38  C   UNL     1      -1.305  16.868   5.570  1.00  0.00     0.029 A 
ATOM     39  N   UNL     1      -1.095  18.657   4.226  1.00  0.00    -0.354 N 
ATOM     40  C   UNL     1      -2.825  16.187   0.464  1.00  0.00     0.074 A 
ATOM     41  C   UNL     1      -1.629  16.671  -0.192  1.00  0.00     0.031 C 
ATOM     42  C   UNL     1      -1.911  17.908   6.179  1.00  0.00     0.029 A 
ATOM     43  C   UNL     1      -1.764  19.110   5.361  1.00  0.00     0.049 A 
ATOM     44  H   UNL     1      -0.813  19.247   3.490  1.00  0.00     0.167 HD
ATOM     45  C   UNL     1      -4.020  15.783  -0.039  1.00  0.00     0.037 A 
ATOM     46  C   UNL     1      -2.626  20.165   5.392  1.00  0.00     0.037 A 
ATOM     47  C   UNL     1      -4.999  15.383   0.926  1.00  0.00     0.049 A 
ATOM     48  C   UNL     1      -3.780  19.625   4.587  1.00  0.00     0.074 A 
ATOM     49  C   UNL     1      -5.432  14.213   1.510  1.00  0.00     0.029 A 
ATOM     50  N   UNL     1      -5.728  16.371   1.544  1.00  0.00    -0.354 N 
ATOM     51  N   UNL     1      -4.704  18.807   5.019  1.00  0.00    -0.248 NA
ATOM     52  C   UNL     1      -3.693  19.733   3.130  1.00  0.00     0.031 C 
ATOM     53  C   UNL     1      -6.034  14.606   2.747  1.00  0.00     0.029 A 
ATOM     54  C   UNL     1      -5.885  15.987   2.850  1.00  0.00     0.049 A 
ATOM     55  H   UNL     1      -6.072  17.195   1.128  1.00  0.00     0.167 HD
ATOM     56  C   UNL     1      -5.122  18.095   3.893  1.00  0.00     0.074 A 
ATOM     57  C   UNL     1      -4.481  18.733   2.761  1.00  0.00     0.031 C 
ATOM     58  C   UNL     1      -5.809  16.918   3.952  1.00  0.00     0.037 A 
BRANCH  45  59
ATOM     59  C   UNL     1      -4.416  15.887  -1.453  1.00  0.00     0.057 A 
ATOM     60  C   UNL     1      -5.260  16.939  -1.830  1.00  0.00     0.134 A 
ATOM     61  C   UNL     1      -4.184  14.868  -2.377  1.00  0.00     0.134 A 
ATOM     62  F   UNL     1      -5.524  17.933  -0.966  1.00  0.00    -0.206 F 
ATOM     63  C   UNL     1      -5.893  16.959  -3.070  1.00  0.00     0.040 A 
ATOM     64  C   UNL     1      -4.807  14.880  -3.628  1.00  0.00     0.040 A 
ATOM     65  F   UNL     1      -3.399  13.827  -2.064  1.00  0.00    -0.206 F 
ATOM     66  C   UNL     1      -5.677  15.918  -3.969  1.00  0.00     0.006 A 
ENDBRANCH  45  59
BRANCH  46  67
ATOM     67  C   UNL     1      -2.022  21.517   5.165  1.00  0.00     0.057 A 
ATOM     68  C   UNL     1      -0.895  21.888   5.926  1.00  0.00     0.134 A 
ATOM     69  C   UNL     1      -2.490  22.491   4.272  1.00  0.00     0.134 A 
ATOM     70  F   UNL     1      -0.439  21.085   6.900  1.00  0.00    -0.206 F 
ATOM     71  C   UNL     1      -0.206  23.088   5.720  1.00  0.00     0.040 A 
ATOM     72  C   UNL     1      -1.797  23.685   4.036  1.00  0.00     0.040 A 
ATOM     73  F   UNL     1      -3.632  22.324   3.593  1.00  0.00    -0.206 F 
ATOM     74  C   UNL     1      -0.639  23.979   4.747  1.00  0.00     0.006 A 
ENDBRANCH  46  67
BRANCH  58  75
ATOM     75  C   UNL     1      -6.274  16.498   5.302  1.00  0.00     0.057 A 
ATOM     76  C   UNL     1      -7.358  17.140   5.906  1.00  0.00     0.134 A 
ATOM     77  C   UNL     1      -5.699  15.414   5.979  1.00  0.00     0.134 A 
ATOM     78  F   UNL     1      -7.959  18.177   5.303  1.00  0.00    -0.206 F 
ATOM     79  C   UNL     1      -7.873  16.702   7.128  1.00  0.00     0.040 A 
ATOM     80  C   UNL     1      -6.219  14.953   7.190  1.00  0.00     0.040 A 
ATOM     81  F   UNL     1      -4.646  14.759   5.466  1.00  0.00    -0.206 F 
ATOM     82  C   UNL     1      -7.312  15.596   7.765  1.00  0.00     0.006 A 
ENDBRANCH  58  75
ENDBRANCH  32  33
ENDBRANCH  24  27
ENDBRANCH  22  23
ENDBRANCH  21  22
ENDBRANCH   1  21
TORSDOF 13
