REMARK SMILES CC1(C)CCC[C@H]1NS(=O)(=O)c1cccc(C(=O)NCCCCCCNC(=O)c2ccc(-c3c4nc(c(-c5c(F)cccc5F)c5ccc([nH]5)c(-c5c(F)cccc5F)c5nc(c(-c6c(F)cccc6F)c6ccc3[nH]6)C=C5)C=C4)cc2)c1
REMARK SMILES IDX 22 1 21 2 20 3 19 4 17 5 18 6 16 8 12 9 13 10 83 11 14 12
REMARK SMILES IDX 15 13 9 14 10 15 11 16 8 17 7 19 1 20 2 21 3 22 4 23 5 24
REMARK SMILES IDX 6 25 23 26 24 27 25 28 26 29 27 30 28 32 29 33 30 34 82 35
REMARK SMILES IDX 31 36 81 37 32 38 33 39 34 40 75 41 35 42 80 43 74 44 76 45
REMARK SMILES IDX 36 46 79 47 73 48 72 49 37 51 63 52 46 53 62 54 47 55 50 56
REMARK SMILES IDX 61 57 77 58 48 59 49 60 60 62 78 63 51 64 38 65 39 66 44 67
REMARK SMILES IDX 40 68 41 69 43 70 45 71 42 72 64 73 65 74 70 75 66 76 67 77
REMARK SMILES IDX 69 78 71 79 68 80 52 81 53 82 58 83 54 84 55 85 57 86 59 87
REMARK SMILES IDX 56 88
REMARK H PARENT 19 7 8 18 26 31 76 50 50 61
REMARK Flexibility Score: inf
ROOT
ATOM      1  C   UNL     1      -3.514   8.810   4.744  1.00  0.00     0.002 C 
ENDROOT
BRANCH   1   2
ATOM      2  C   UNL     1      -2.416   7.821   4.360  1.00  0.00     0.021 C 
BRANCH   2   3
ATOM      3  C   UNL     1      -2.550   7.137   3.006  1.00  0.00     0.116 C 
BRANCH   3   4
ATOM      4  N   UNL     1      -2.511   8.028   1.856  1.00  0.00    -0.352 N 
ATOM      5  C   UNL     1      -1.925   7.847   0.618  1.00  0.00     0.251 C 
ATOM      6  O   UNL     1      -1.986   8.736  -0.226  1.00  0.00    -0.269 OA
ATOM      7  H   UNL     1      -2.972   8.890   1.978  1.00  0.00     0.163 HD
BRANCH   5   8
ATOM      8  C   UNL     1      -1.161   6.608   0.321  1.00  0.00     0.041 A 
ATOM      9  C   UNL     1      -0.724   4.283   0.776  1.00  0.00     0.083 A 
ATOM     10  C   UNL     1       0.522   4.367   0.160  1.00  0.00     0.022 A 
ATOM     11  C   UNL     1      -1.602   5.369   0.767  1.00  0.00     0.035 A 
ATOM     12  C   UNL     1       0.894   5.571  -0.448  1.00  0.00     0.002 A 
ATOM     13  C   UNL     1       0.066   6.697  -0.346  1.00  0.00     0.014 A 
BRANCH   9  14
ATOM     14  S   UNL     1      -1.245   2.900   1.744  1.00  0.00     0.240 S 
ATOM     15  O   UNL     1      -2.624   2.637   1.399  1.00  0.00    -0.207 OA
ATOM     16  O   UNL     1      -0.864   3.201   3.106  1.00  0.00    -0.207 OA
BRANCH  14  17
ATOM     17  N   UNL     1      -0.305   1.597   1.291  1.00  0.00    -0.208 NA
ATOM     18  H   UNL     1       0.662   1.917   1.341  1.00  0.00     0.141 HD
BRANCH  17  19
ATOM     19  C   UNL     1      -0.446   0.930  -0.008  1.00  0.00     0.075 C 
ATOM     20  C   UNL     1       1.951   0.048   0.583  1.00  0.00     0.013 C 
ATOM     21  C   UNL     1       0.634  -0.180  -0.176  1.00  0.00    -0.019 C 
ATOM     22  C   UNL     1       0.979  -0.342  -1.671  1.00  0.00     0.013 C 
ATOM     23  C   UNL     1      -0.083  -1.431   0.358  1.00  0.00     0.008 C 
ATOM     24  C   UNL     1      -1.504  -1.298  -0.157  1.00  0.00     0.002 C 
ATOM     25  C   UNL     1      -1.794   0.198  -0.132  1.00  0.00     0.020 C 
ENDBRANCH  17  19
ENDBRANCH  14  17
ENDBRANCH   9  14
ENDBRANCH   5   8
ENDBRANCH   3   4
ENDBRANCH   2   3
ENDBRANCH   1   2
BRANCH   1  26
ATOM     26  C   UNL     1      -4.958   8.316   4.637  1.00  0.00     0.002 C 
BRANCH  26  27
ATOM     27  C   UNL     1      -5.300   7.000   5.340  1.00  0.00     0.021 C 
BRANCH  27  28
ATOM     28  C   UNL     1      -4.906   6.884   6.810  1.00  0.00     0.116 C 
BRANCH  28  29
ATOM     29  N   UNL     1      -5.496   7.913   7.646  1.00  0.00    -0.352 N 
ATOM     30  C   UNL     1      -6.174   7.813   8.835  1.00  0.00     0.251 C 
ATOM     31  H   UNL     1      -5.393   8.831   7.305  1.00  0.00     0.163 HD
ATOM     32  O   UNL     1      -6.679   8.819   9.327  1.00  0.00    -0.269 OA
BRANCH  30  33
ATOM     33  C   UNL     1      -6.334   6.511   9.525  1.00  0.00     0.039 A 
ATOM     34  C   UNL     1      -7.570   6.224  10.115  1.00  0.00     0.014 A 
ATOM     35  C   UNL     1      -5.283   5.597   9.647  1.00  0.00     0.014 A 
ATOM     36  C   UNL     1      -7.767   5.010  10.778  1.00  0.00     0.010 A 
ATOM     37  C   UNL     1      -5.498   4.359  10.256  1.00  0.00     0.010 A 
ATOM     38  C   UNL     1      -6.739   4.056  10.835  1.00  0.00    -0.014 A 
BRANCH  38  39
ATOM     39  C   UNL     1      -6.956   2.748  11.506  1.00  0.00     0.031 A 
ATOM     40  C   UNL     1      -6.217   2.405  12.770  1.00  0.00     0.074 A 
ATOM     41  C   UNL     1      -7.796   1.849  10.957  1.00  0.00     0.049 A 
ATOM     42  N   UNL     1      -6.271   1.312  13.489  1.00  0.00    -0.248 NA
ATOM     43  C   UNL     1      -5.277   3.414  13.280  1.00  0.00     0.031 C 
ATOM     44  C   UNL     1      -8.534   2.033   9.707  1.00  0.00     0.029 A 
ATOM     45  N   UNL     1      -8.166   0.597  11.381  1.00  0.00    -0.354 N 
ATOM     46  C   UNL     1      -5.365   1.495  14.525  1.00  0.00     0.074 A 
ATOM     47  C   UNL     1      -4.742   2.785  14.317  1.00  0.00     0.031 C 
ATOM     48  C   UNL     1      -9.285   0.945   9.477  1.00  0.00     0.029 A 
ATOM     49  C   UNL     1      -9.067  -0.021  10.549  1.00  0.00     0.049 A 
ATOM     50  H   UNL     1      -7.818   0.182  12.203  1.00  0.00     0.167 HD
ATOM     51  C   UNL     1      -5.089   0.674  15.568  1.00  0.00     0.037 A 
ATOM     52  C   UNL     1      -9.656  -1.228  10.643  1.00  0.00     0.037 A 
ATOM     53  C   UNL     1      -5.727  -0.597  15.795  1.00  0.00     0.049 A 
ATOM     54  C   UNL     1      -9.359  -2.107  11.825  1.00  0.00     0.074 A 
ATOM     55  C   UNL     1      -5.560  -1.470  16.856  1.00  0.00     0.029 A 
ATOM     56  N   UNL     1      -6.657  -1.175  14.944  1.00  0.00    -0.354 N 
ATOM     57  N   UNL     1      -8.551  -1.891  12.833  1.00  0.00    -0.248 NA
ATOM     58  C   UNL     1     -10.068  -3.393  11.887  1.00  0.00     0.031 C 
ATOM     59  C   UNL     1      -6.367  -2.592  16.632  1.00  0.00     0.029 A 
ATOM     60  C   UNL     1      -7.063  -2.400  15.449  1.00  0.00     0.049 A 
ATOM     61  H   UNL     1      -6.981  -0.774  14.106  1.00  0.00     0.167 HD
ATOM     62  C   UNL     1      -8.668  -3.000  13.659  1.00  0.00     0.074 A 
ATOM     63  C   UNL     1      -9.639  -3.881  13.042  1.00  0.00     0.031 C 
ATOM     64  C   UNL     1      -8.029  -3.266  14.824  1.00  0.00     0.037 A 
BRANCH  51  65
ATOM     65  C   UNL     1      -4.050   1.134  16.547  1.00  0.00     0.057 A 
ATOM     66  C   UNL     1      -4.297   2.179  17.447  1.00  0.00     0.134 A 
ATOM     67  C   UNL     1      -2.796   0.513  16.606  1.00  0.00     0.134 A 
ATOM     68  F   UNL     1      -5.474   2.823  17.434  1.00  0.00    -0.206 F 
ATOM     69  C   UNL     1      -3.325   2.609  18.351  1.00  0.00     0.040 A 
ATOM     70  C   UNL     1      -1.824   0.918  17.522  1.00  0.00     0.040 A 
ATOM     71  F   UNL     1      -2.497  -0.498  15.777  1.00  0.00    -0.206 F 
ATOM     72  C   UNL     1      -2.085   1.975  18.393  1.00  0.00     0.006 A 
ENDBRANCH  51  65
BRANCH  52  73
ATOM     73  C   UNL     1     -10.620  -1.661   9.603  1.00  0.00     0.057 A 
ATOM     74  C   UNL     1     -11.994  -1.700   9.868  1.00  0.00     0.134 A 
ATOM     75  C   UNL     1     -10.196  -2.042   8.326  1.00  0.00     0.134 A 
ATOM     76  F   UNL     1     -12.457  -1.364  11.081  1.00  0.00    -0.206 F 
ATOM     77  C   UNL     1     -12.912  -2.117   8.903  1.00  0.00     0.040 A 
ATOM     78  C   UNL     1     -11.104  -2.442   7.345  1.00  0.00     0.040 A 
ATOM     79  F   UNL     1      -8.892  -2.021   8.011  1.00  0.00    -0.206 F 
ATOM     80  C   UNL     1     -12.467  -2.485   7.635  1.00  0.00     0.006 A 
ENDBRANCH  52  73
BRANCH  64  81
ATOM     81  C   UNL     1      -8.378  -4.551  15.514  1.00  0.00     0.057 A 
ATOM     82  C   UNL     1      -7.937  -5.790  15.032  1.00  0.00     0.134 A 
ATOM     83  C   UNL     1      -9.151  -4.547  16.682  1.00  0.00     0.134 A 
ATOM     84  F   UNL     1      -7.205  -5.861  13.910  1.00  0.00    -0.206 F 
ATOM     85  C   UNL     1      -8.273  -6.983  15.674  1.00  0.00     0.040 A 
ATOM     86  C   UNL     1      -9.475  -5.732  17.345  1.00  0.00     0.040 A 
ATOM     87  F   UNL     1      -9.600  -3.394  17.198  1.00  0.00    -0.206 F 
ATOM     88  C   UNL     1      -9.041  -6.955  16.837  1.00  0.00     0.006 A 
ENDBRANCH  64  81
ENDBRANCH  38  39
ENDBRANCH  30  33
ENDBRANCH  28  29
ENDBRANCH  27  28
ENDBRANCH  26  27
ENDBRANCH   1  26
TORSDOF 16
