REMARK SMILES CCC(CC)(CC(=O)Nc1cccc(C#N)c1)C(=O)NCCCCCCNC(=O)c1ccc(-c2c3nc(c(-c4c(F)cccc4F)c4ccc([nH]4)c(-c4c(F)cccc4F)c4nc(c(-c5c(F)cccc5F)c5ccc2[nH]5)C=C4)C=C3)cc1
REMARK SMILES IDX 22 1 21 2 20 3 18 4 19 5 3 7 2 8 1 9 4 10 5 11 6 12 7 13
REMARK SMILES IDX 8 14 9 15 10 17 11 18 17 19 12 20 14 21 13 22 15 23 16 24
REMARK SMILES IDX 23 25 24 26 25 27 26 28 27 29 28 30 29 32 30 33 31 34 83 35
REMARK SMILES IDX 32 36 82 37 33 38 34 39 35 40 76 41 36 42 81 43 75 44 77 45
REMARK SMILES IDX 37 46 80 47 74 48 73 49 38 51 64 52 47 53 63 54 48 55 51 56
REMARK SMILES IDX 62 57 78 58 49 59 50 60 61 62 79 63 52 64 39 65 40 66 45 67
REMARK SMILES IDX 41 68 42 69 44 70 46 71 43 72 65 73 66 74 71 75 67 76 68 77
REMARK SMILES IDX 70 78 72 79 69 80 53 81 54 82 59 83 55 84 56 85 58 86 60 87
REMARK SMILES IDX 57 88
REMARK H PARENT 20 6 9 16 27 31 77 50 51 61
REMARK Flexibility Score: inf
ROOT
ATOM      1  C   UNL     1       3.102  -4.742   3.946  1.00  0.00     0.021 C 
ENDROOT
BRANCH   1   2
ATOM      2  C   UNL     1       2.422  -3.381   3.913  1.00  0.00     0.116 C 
BRANCH   2   3
ATOM      3  N   UNL     1       3.016  -2.547   2.899  1.00  0.00    -0.356 N 
ATOM      4  C   UNL     1       2.490  -1.914   1.833  1.00  0.00     0.226 C 
ATOM      5  O   UNL     1       3.310  -1.522   0.996  1.00  0.00    -0.274 OA
ATOM      6  H   UNL     1       3.986  -2.415   3.006  1.00  0.00     0.163 HD
BRANCH   4   7
ATOM      7  C   UNL     1       0.973  -1.679   1.668  1.00  0.00     0.057 C 
BRANCH   7   8
ATOM      8  C   UNL     1       0.823  -0.594   0.582  1.00  0.00     0.014 C 
ATOM      9  C   UNL     1       1.309   0.822   0.839  1.00  0.00     0.005 C 
ENDBRANCH   7   8
BRANCH   7  10
ATOM     10  C   UNL     1       0.319  -1.133   2.978  1.00  0.00     0.014 C 
ATOM     11  C   UNL     1      -1.203  -1.035   2.964  1.00  0.00     0.005 C 
ENDBRANCH   7  10
BRANCH   7  12
ATOM     12  C   UNL     1       0.264  -2.964   1.131  1.00  0.00     0.117 C 
BRANCH  12  13
ATOM     13  C   UNL     1       0.882  -3.740  -0.048  1.00  0.00     0.225 C 
ATOM     14  O   UNL     1       1.778  -4.564   0.164  1.00  0.00    -0.275 OA
ATOM     15  N   UNL     1       0.316  -3.700  -1.308  1.00  0.00    -0.326 N 
ATOM     16  H   UNL     1       0.549  -4.453  -1.898  1.00  0.00     0.169 HD
BRANCH  15  17
ATOM     17  C   UNL     1      -0.544  -2.745  -1.870  1.00  0.00     0.042 A 
ATOM     18  C   UNL     1      -0.099  -1.448  -2.105  1.00  0.00     0.026 A 
ATOM     19  C   UNL     1      -1.805  -3.097  -2.337  1.00  0.00     0.045 A 
ATOM     20  C   UNL     1      -0.986  -0.426  -2.439  1.00  0.00     0.004 A 
ATOM     21  C   UNL     1      -2.677  -2.094  -2.795  1.00  0.00     0.054 A 
ATOM     22  C   UNL     1      -2.298  -0.748  -2.747  1.00  0.00     0.019 A 
BRANCH  21  23
ATOM     23  C   UNL     1      -3.946  -2.431  -3.375  1.00  0.00     0.099 C 
ATOM     24  N   UNL     1      -4.949  -2.677  -3.892  1.00  0.00    -0.192 NA
ENDBRANCH  21  23
ENDBRANCH  15  17
ENDBRANCH  12  13
ENDBRANCH   7  12
ENDBRANCH   4   7
ENDBRANCH   2   3
ENDBRANCH   1   2
BRANCH   1  25
ATOM     25  C   UNL     1       4.610  -4.684   4.211  1.00  0.00     0.002 C 
BRANCH  25  26
ATOM     26  C   UNL     1       5.021  -3.849   5.428  1.00  0.00     0.002 C 
BRANCH  26  27
ATOM     27  C   UNL     1       4.300  -4.218   6.724  1.00  0.00     0.021 C 
BRANCH  27  28
ATOM     28  C   UNL     1       4.392  -5.692   7.079  1.00  0.00     0.116 C 
BRANCH  28  29
ATOM     29  N   UNL     1       5.766  -6.106   7.295  1.00  0.00    -0.352 N 
ATOM     30  C   UNL     1       6.308  -6.732   8.386  1.00  0.00     0.251 C 
ATOM     31  H   UNL     1       6.392  -5.912   6.560  1.00  0.00     0.163 HD
ATOM     32  O   UNL     1       7.523  -6.803   8.525  1.00  0.00    -0.269 OA
BRANCH  30  33
ATOM     33  C   UNL     1       5.405  -7.305   9.404  1.00  0.00     0.039 A 
ATOM     34  C   UNL     1       5.700  -7.110  10.753  1.00  0.00     0.014 A 
ATOM     35  C   UNL     1       4.268  -8.026   9.024  1.00  0.00     0.014 A 
ATOM     36  C   UNL     1       4.833  -7.610  11.722  1.00  0.00     0.010 A 
ATOM     37  C   UNL     1       3.355  -8.435   9.987  1.00  0.00     0.010 A 
ATOM     38  C   UNL     1       3.640  -8.253  11.348  1.00  0.00    -0.014 A 
BRANCH  38  39
ATOM     39  C   UNL     1       2.700  -8.771  12.373  1.00  0.00     0.031 A 
ATOM     40  C   UNL     1       2.410 -10.246  12.450  1.00  0.00     0.074 A 
ATOM     41  C   UNL     1       2.092  -7.914  13.215  1.00  0.00     0.049 A 
ATOM     42  N   UNL     1       1.601 -10.887  13.254  1.00  0.00    -0.248 NA
ATOM     43  C   UNL     1       3.101 -11.112  11.480  1.00  0.00     0.031 C 
ATOM     44  C   UNL     1       2.258  -6.459  13.210  1.00  0.00     0.029 A 
ATOM     45  N   UNL     1       1.210  -8.143  14.240  1.00  0.00    -0.354 N 
ATOM     46  C   UNL     1       1.692 -12.225  12.892  1.00  0.00     0.074 A 
ATOM     47  C   UNL     1       2.568 -12.295  11.744  1.00  0.00     0.031 C 
ATOM     48  C   UNL     1       1.528  -5.929  14.203  1.00  0.00     0.029 A 
ATOM     49  C   UNL     1       0.806  -6.999  14.885  1.00  0.00     0.049 A 
ATOM     50  H   UNL     1       0.896  -9.042  14.490  1.00  0.00     0.167 HD
ATOM     51  C   UNL     1       1.127 -13.304  13.484  1.00  0.00     0.037 A 
ATOM     52  C   UNL     1      -0.058  -6.832  15.904  1.00  0.00     0.037 A 
ATOM     53  C   UNL     1       0.256 -13.231  14.626  1.00  0.00     0.049 A 
ATOM     54  C   UNL     1      -0.709  -8.045  16.513  1.00  0.00     0.074 A 
ATOM     55  C   UNL     1      -0.357 -14.266  15.311  1.00  0.00     0.029 A 
ATOM     56  N   UNL     1      -0.130 -12.054  15.252  1.00  0.00    -0.354 N 
ATOM     57  N   UNL     1      -0.570  -9.310  16.195  1.00  0.00    -0.248 NA
ATOM     58  C   UNL     1      -1.629  -7.808  17.633  1.00  0.00     0.031 C 
ATOM     59  C   UNL     1      -1.156 -13.712  16.316  1.00  0.00     0.029 A 
ATOM     60  C   UNL     1      -0.985 -12.337  16.304  1.00  0.00     0.049 A 
ATOM     61  H   UNL     1       0.162 -11.152  14.987  1.00  0.00     0.167 HD
ATOM     62  C   UNL     1      -1.349 -10.019  17.101  1.00  0.00     0.074 A 
ATOM     63  C   UNL     1      -1.944  -9.043  17.991  1.00  0.00     0.031 C 
ATOM     64  C   UNL     1      -1.556 -11.356  17.191  1.00  0.00     0.037 A 
BRANCH  51  65
ATOM     65  C   UNL     1       1.446 -14.655  12.909  1.00  0.00     0.057 A 
ATOM     66  C   UNL     1       2.732 -15.208  12.995  1.00  0.00     0.134 A 
ATOM     67  C   UNL     1       0.454 -15.430  12.296  1.00  0.00     0.134 A 
ATOM     68  F   UNL     1       3.734 -14.516  13.559  1.00  0.00    -0.206 F 
ATOM     69  C   UNL     1       3.025 -16.468  12.469  1.00  0.00     0.040 A 
ATOM     70  C   UNL     1       0.726 -16.704  11.795  1.00  0.00     0.040 A 
ATOM     71  F   UNL     1      -0.800 -14.967  12.183  1.00  0.00    -0.206 F 
ATOM     72  C   UNL     1       2.017 -17.223  11.874  1.00  0.00     0.006 A 
ENDBRANCH  51  65
BRANCH  52  73
ATOM     73  C   UNL     1      -0.362  -5.471  16.419  1.00  0.00     0.057 A 
ATOM     74  C   UNL     1      -0.013  -5.088  17.720  1.00  0.00     0.134 A 
ATOM     75  C   UNL     1      -1.053  -4.535  15.639  1.00  0.00     0.134 A 
ATOM     76  F   UNL     1       0.638  -5.943  18.524  1.00  0.00    -0.206 F 
ATOM     77  C   UNL     1      -0.377  -3.845  18.241  1.00  0.00     0.040 A 
ATOM     78  C   UNL     1      -1.392  -3.276  16.135  1.00  0.00     0.040 A 
ATOM     79  F   UNL     1      -1.407  -4.831  14.380  1.00  0.00    -0.206 F 
ATOM     80  C   UNL     1      -1.068  -2.934  17.446  1.00  0.00     0.006 A 
ENDBRANCH  52  73
BRANCH  64  81
ATOM     81  C   UNL     1      -2.407 -11.846  18.329  1.00  0.00     0.057 A 
ATOM     82  C   UNL     1      -3.783 -11.592  18.400  1.00  0.00     0.134 A 
ATOM     83  C   UNL     1      -1.838 -12.603  19.362  1.00  0.00     0.134 A 
ATOM     84  F   UNL     1      -4.391 -10.865  17.450  1.00  0.00    -0.206 F 
ATOM     85  C   UNL     1      -4.553 -12.037  19.477  1.00  0.00     0.040 A 
ATOM     86  C   UNL     1      -2.604 -13.085  20.424  1.00  0.00     0.040 A 
ATOM     87  F   UNL     1      -0.529 -12.896  19.352  1.00  0.00    -0.206 F 
ATOM     88  C   UNL     1      -3.964 -12.791  20.489  1.00  0.00     0.006 A 
ENDBRANCH  64  81
ENDBRANCH  38  39
ENDBRANCH  30  33
ENDBRANCH  28  29
ENDBRANCH  27  28
ENDBRANCH  26  27
ENDBRANCH  25  26
ENDBRANCH   1  25
TORSDOF 19
