REMARK SMILES Cc1ccc(NC(=O)c2ccccc2NC(=O)[C@H]2CCCC[C@H]2C(=O)NCCCCCCNC(=O)c2ccc(-c3c4nc(c(-c5c(F)cccc5F)c5ccc([nH]5)c(-c5c(F)cccc5F)c5nc(c(-c6c(F)cccc6F)c6ccc3[nH]6)C=C5)C=C4)cc2)cc1
REMARK SMILES IDX 28 1 27 2 26 3 24 4 25 5 23 7 18 8 19 9 20 10 22 11 21 12
REMARK SMILES IDX 16 13 15 14 17 16 14 17 9 18 10 19 11 20 13 21 12 22 7 23
REMARK SMILES IDX 6 24 8 26 5 27 1 28 2 29 3 30 91 31 4 32 90 33 29 34 30 35
REMARK SMILES IDX 31 36 32 37 33 38 34 39 35 41 36 42 37 43 89 44 38 45 88 46
REMARK SMILES IDX 39 47 40 48 41 49 82 50 42 51 87 52 81 53 83 54 43 55 86 56
REMARK SMILES IDX 80 57 79 58 44 60 70 61 53 62 69 63 54 64 57 65 68 66 84 67
REMARK SMILES IDX 55 68 56 69 67 71 85 72 58 73 45 74 46 75 51 76 47 77 48 78
REMARK SMILES IDX 50 79 52 80 49 81 71 82 72 83 77 84 73 85 74 86 76 87 78 88
REMARK SMILES IDX 75 89 59 90 60 91 65 92 61 93 62 94 64 95 66 96 63 97
REMARK H PARENT 26 6 15 15 6 25 33 40 83 59 57 70
REMARK Flexibility Score: inf
ROOT
ATOM      1  C   UNL     1       1.706   0.042   6.676  1.00  0.00     0.021 C 
ENDROOT
BRANCH   1   2
ATOM      2  C   UNL     1       0.486  -0.780   7.111  1.00  0.00     0.116 C 
BRANCH   2   3
ATOM      3  N   UNL     1      -0.749  -0.257   6.556  1.00  0.00    -0.356 N 
ATOM      4  C   UNL     1      -1.678  -0.748   5.702  1.00  0.00     0.223 C 
ATOM      5  O   UNL     1      -2.623   0.009   5.445  1.00  0.00    -0.275 OA
ATOM      6  H   UNL     1      -0.957   0.653   6.869  1.00  0.00     0.163 HD
BRANCH   4   7
ATOM      7  C   UNL     1      -1.618  -2.103   4.990  1.00  0.00     0.091 C 
ATOM      8  C   UNL     1      -0.810  -2.043   3.677  1.00  0.00     0.091 C 
ATOM      9  C   UNL     1      -0.900  -3.366   2.895  1.00  0.00     0.014 C 
ATOM     10  C   UNL     1      -0.683  -4.612   3.760  1.00  0.00     0.001 C 
ATOM     11  C   UNL     1      -1.397  -3.355   5.838  1.00  0.00     0.014 C 
ATOM     12  C   UNL     1      -1.578  -4.620   4.997  1.00  0.00     0.001 C 
BRANCH   8  13
ATOM     13  C   UNL     1       0.643  -1.717   3.920  1.00  0.00     0.228 C 
ATOM     14  N   UNL     1       1.292  -0.662   3.379  1.00  0.00    -0.325 N 
ATOM     15  H   UNL     1       2.130  -0.485   3.865  1.00  0.00     0.169 HD
ATOM     16  O   UNL     1       1.312  -2.421   4.688  1.00  0.00    -0.274 OA
BRANCH  14  17
ATOM     17  C   UNL     1       1.128   0.258   2.328  1.00  0.00     0.054 A 
ATOM     18  C   UNL     1       2.100   1.277   2.149  1.00  0.00     0.063 A 
ATOM     19  C   UNL     1       1.912   2.267   1.165  1.00  0.00     0.016 A 
ATOM     20  C   UNL     1       0.804   2.237   0.326  1.00  0.00     0.001 A 
ATOM     21  C   UNL     1       0.066   0.206   1.419  1.00  0.00     0.027 A 
ATOM     22  C   UNL     1      -0.107   1.196   0.443  1.00  0.00     0.002 A 
BRANCH  18  23
ATOM     23  C   UNL     1       3.279   1.517   3.026  1.00  0.00     0.257 C 
ATOM     24  N   UNL     1       4.155   0.554   3.471  1.00  0.00    -0.322 N 
ATOM     25  H   UNL     1       4.812   0.905   4.115  1.00  0.00     0.170 HD
ATOM     26  O   UNL     1       3.438   2.662   3.458  1.00  0.00    -0.269 OA
BRANCH  24  27
ATOM     27  C   UNL     1       4.325  -0.813   3.214  1.00  0.00     0.041 A 
ATOM     28  C   UNL     1       3.979  -5.095   3.155  1.00  0.00     0.044 C 
ATOM     29  C   UNL     1       4.222  -3.614   3.135  1.00  0.00    -0.051 A 
ATOM     30  C   UNL     1       3.866  -2.854   2.012  1.00  0.00     0.005 A 
ATOM     31  C   UNL     1       4.725  -2.964   4.263  1.00  0.00     0.005 A 
ATOM     32  C   UNL     1       3.926  -1.455   2.047  1.00  0.00     0.026 A 
ATOM     33  C   UNL     1       4.794  -1.572   4.293  1.00  0.00     0.026 A 
ENDBRANCH  24  27
ENDBRANCH  18  23
ENDBRANCH  14  17
ENDBRANCH   8  13
ENDBRANCH   4   7
ENDBRANCH   2   3
ENDBRANCH   1   2
BRANCH   1  34
ATOM     34  C   UNL     1       2.197   1.099   7.672  1.00  0.00     0.002 C 
BRANCH  34  35
ATOM     35  C   UNL     1       2.510   0.619   9.097  1.00  0.00     0.002 C 
BRANCH  35  36
ATOM     36  C   UNL     1       3.327  -0.669   9.210  1.00  0.00     0.021 C 
BRANCH  36  37
ATOM     37  C   UNL     1       4.793  -0.522   8.820  1.00  0.00     0.116 C 
BRANCH  37  38
ATOM     38  N   UNL     1       5.660  -0.170   9.940  1.00  0.00    -0.352 N 
ATOM     39  C   UNL     1       7.013   0.133   9.954  1.00  0.00     0.251 C 
ATOM     40  H   UNL     1       5.216  -0.145  10.818  1.00  0.00     0.163 HD
ATOM     41  O   UNL     1       7.568   0.422  10.992  1.00  0.00    -0.269 OA
BRANCH  39  42
ATOM     42  C   UNL     1       7.744   0.222   8.664  1.00  0.00     0.039 A 
ATOM     43  C   UNL     1       8.535   1.355   8.440  1.00  0.00     0.014 A 
ATOM     44  C   UNL     1       7.522  -0.693   7.639  1.00  0.00     0.014 A 
ATOM     45  C   UNL     1       8.880   1.697   7.134  1.00  0.00     0.010 A 
ATOM     46  C   UNL     1       7.805  -0.322   6.339  1.00  0.00     0.010 A 
ATOM     47  C   UNL     1       8.407   0.912   6.083  1.00  0.00    -0.014 A 
BRANCH  47  48
ATOM     48  C   UNL     1       8.366   1.385   4.704  1.00  0.00     0.031 A 
ATOM     49  C   UNL     1       9.322   0.886   3.696  1.00  0.00     0.074 A 
ATOM     50  C   UNL     1       7.416   2.274   4.335  1.00  0.00     0.049 A 
ATOM     51  N   UNL     1       9.732   1.586   2.691  1.00  0.00    -0.248 NA
ATOM     52  C   UNL     1       9.914  -0.446   3.759  1.00  0.00     0.031 C 
ATOM     53  C   UNL     1       7.092   2.701   2.977  1.00  0.00     0.029 A 
ATOM     54  N   UNL     1       6.694   3.149   5.160  1.00  0.00    -0.354 N 
ATOM     55  C   UNL     1      10.411   0.738   1.852  1.00  0.00     0.074 A 
ATOM     56  C   UNL     1      10.556  -0.499   2.587  1.00  0.00     0.031 C 
ATOM     57  C   UNL     1       6.506   3.907   3.035  1.00  0.00     0.029 A 
ATOM     58  C   UNL     1       6.548   4.343   4.420  1.00  0.00     0.049 A 
ATOM     59  H   UNL     1       6.357   2.969   6.068  1.00  0.00     0.167 HD
ATOM     60  C   UNL     1      10.667   1.102   0.565  1.00  0.00     0.037 A 
ATOM     61  C   UNL     1       7.048   5.531   4.857  1.00  0.00     0.037 A 
ATOM     62  C   UNL     1      10.146   2.425   0.253  1.00  0.00     0.049 A 
ATOM     63  C   UNL     1       8.011   6.171   3.890  1.00  0.00     0.074 A 
ATOM     64  C   UNL     1       8.958   2.841  -0.326  1.00  0.00     0.029 A 
ATOM     65  N   UNL     1      10.713   3.550   0.841  1.00  0.00    -0.354 N 
ATOM     66  N   UNL     1       8.633   5.517   2.949  1.00  0.00    -0.248 NA
ATOM     67  C   UNL     1       8.371   7.586   3.918  1.00  0.00     0.031 C 
ATOM     68  C   UNL     1       8.783   4.214  -0.037  1.00  0.00     0.029 A 
ATOM     69  C   UNL     1       9.877   4.640   0.694  1.00  0.00     0.049 A 
ATOM     70  H   UNL     1      11.586   3.568   1.296  1.00  0.00     0.167 HD
ATOM     71  C   UNL     1       9.454   6.373   2.264  1.00  0.00     0.074 A 
ATOM     72  C   UNL     1       9.248   7.660   2.901  1.00  0.00     0.031 C 
ATOM     73  C   UNL     1      10.233   5.945   1.228  1.00  0.00     0.037 A 
BRANCH  60  74
ATOM     74  C   UNL     1      11.111   0.089  -0.451  1.00  0.00     0.057 A 
ATOM     75  C   UNL     1      10.518   0.009  -1.724  1.00  0.00     0.134 A 
ATOM     76  C   UNL     1      12.092  -0.881  -0.186  1.00  0.00     0.134 A 
ATOM     77  F   UNL     1       9.612   0.903  -2.137  1.00  0.00    -0.206 F 
ATOM     78  C   UNL     1      10.808  -1.020  -2.628  1.00  0.00     0.040 A 
ATOM     79  C   UNL     1      12.359  -1.942  -1.062  1.00  0.00     0.040 A 
ATOM     80  F   UNL     1      12.817  -0.835   0.942  1.00  0.00    -0.206 F 
ATOM     81  C   UNL     1      11.706  -2.020  -2.285  1.00  0.00     0.006 A 
ENDBRANCH  60  74
BRANCH  61  82
ATOM     82  C   UNL     1       7.109   5.646   6.335  1.00  0.00     0.057 A 
ATOM     83  C   UNL     1       5.904   5.668   7.059  1.00  0.00     0.134 A 
ATOM     84  C   UNL     1       8.275   5.363   7.050  1.00  0.00     0.134 A 
ATOM     85  F   UNL     1       4.747   5.939   6.434  1.00  0.00    -0.206 F 
ATOM     86  C   UNL     1       5.845   5.310   8.408  1.00  0.00     0.040 A 
ATOM     87  C   UNL     1       8.230   5.016   8.406  1.00  0.00     0.040 A 
ATOM     88  F   UNL     1       9.461   5.303   6.427  1.00  0.00    -0.206 F 
ATOM     89  C   UNL     1       7.009   4.950   9.078  1.00  0.00     0.006 A 
ENDBRANCH  61  82
BRANCH  73  90
ATOM     90  C   UNL     1      11.316   6.739   0.544  1.00  0.00     0.057 A 
ATOM     91  C   UNL     1      12.088   7.724   1.176  1.00  0.00     0.134 A 
ATOM     92  C   UNL     1      11.720   6.414  -0.772  1.00  0.00     0.134 A 
ATOM     93  F   UNL     1      11.886   8.056   2.458  1.00  0.00    -0.206 F 
ATOM     94  C   UNL     1      13.147   8.377   0.530  1.00  0.00     0.040 A 
ATOM     95  C   UNL     1      12.805   7.022  -1.407  1.00  0.00     0.040 A 
ATOM     96  F   UNL     1      11.090   5.472  -1.491  1.00  0.00    -0.206 F 
ATOM     97  C   UNL     1      13.517   8.020  -0.760  1.00  0.00     0.006 A 
ENDBRANCH  73  90
ENDBRANCH  47  48
ENDBRANCH  39  42
ENDBRANCH  37  38
ENDBRANCH  36  37
ENDBRANCH  35  36
ENDBRANCH  34  35
ENDBRANCH   1  34
TORSDOF 17
