REMARK SMILES C[C@@H](C(=O)NCCCCCCNC(=O)c1ccc(-c2c3nc(c(-c4c(F)cccc4F)c4ccc([nH]4)c(-c4c(F)cccc4F)c4nc(c(-c5c(F)cccc5F)c5ccc2[nH]5)C=C4)C=C3)cc1)[N@@H+]1CCc2n[nH]c(C(c3ccccc3)c3ccccc3)c2C1
REMARK SMILES IDX 8 1 7 2 6 3 5 4 3 5 4 6 2 8 1 9 69 10 70 11 90 12 71 14
REMARK SMILES IDX 89 15 72 16 75 17 73 18 74 19 76 21 77 22 78 23 82 24 79 25
REMARK SMILES IDX 81 26 80 27 83 28 84 29 88 30 85 31 87 32 86 33 9 34 10 35
REMARK SMILES IDX 11 36 12 37 13 38 14 40 15 41 16 42 68 43 17 44 67 45 18 46
REMARK SMILES IDX 19 47 20 48 61 49 21 50 66 51 60 52 62 53 22 54 65 55 59 56
REMARK SMILES IDX 58 57 23 59 49 60 32 61 48 62 33 63 36 64 47 65 63 66 34 67
REMARK SMILES IDX 35 68 46 70 64 71 37 72 24 73 25 74 30 75 26 76 27 77 29 78
REMARK SMILES IDX 31 79 28 80 50 81 51 82 56 83 52 84 53 85 55 86 57 87 54 88
REMARK SMILES IDX 38 89 39 90 44 91 40 92 41 93 43 94 45 95 42 96
REMARK H PARENT 5 7 69 13 74 20 12 39 62 58 36 69
REMARK Flexibility Score: inf
ROOT
ATOM      1  C   UNL     1       4.553   3.056   0.390  1.00  0.00     0.002 C 
ENDROOT
BRANCH   1   2
ATOM      2  C   UNL     1       3.728   2.193  -0.649  1.00  0.00     0.021 C 
BRANCH   2   3
ATOM      3  C   UNL     1       2.236   1.669  -0.485  1.00  0.00     0.116 C 
BRANCH   3   4
ATOM      4  N   UNL     1       2.057   0.216  -0.366  1.00  0.00    -0.351 N 
ATOM      5  C   UNL     1       1.068  -0.662  -0.042  1.00  0.00     0.278 C 
ATOM      6  O   UNL     1       1.387  -1.860   0.017  1.00  0.00    -0.268 OA
ATOM      7  H   UNL     1       2.891  -0.260  -0.583  1.00  0.00     0.163 HD
BRANCH   5   8
ATOM      8  C   UNL     1      -0.415  -0.346   0.159  1.00  0.00     0.271 C 
ATOM      9  C   UNL     1      -1.029   0.010  -1.188  1.00  0.00     0.086 C 
BRANCH   8  10
ATOM     10  N   UNL     1      -0.740   0.450   1.345  1.00  0.00    -0.321 N 
ATOM     11  C   UNL     1      -1.044   1.876   1.167  1.00  0.00     0.269 C 
ATOM     12  C   UNL     1      -0.002   0.033   2.545  1.00  0.00     0.303 C 
ATOM     13  H   UNL     1      -1.701   0.184   1.558  1.00  0.00     0.349 HD
ATOM     14  C   UNL     1      -0.398   2.883   2.153  1.00  0.00     0.120 C 
ATOM     15  C   UNL     1       1.148   0.940   2.736  1.00  0.00     0.052 A 
ATOM     16  C   UNL     1       0.887   2.334   2.659  1.00  0.00     0.077 A 
ATOM     17  C   UNL     1       2.525   0.830   2.909  1.00  0.00     0.056 A 
ATOM     18  N   UNL     1       1.944   3.061   2.993  1.00  0.00    -0.180 NA
ATOM     19  N   UNL     1       2.831   2.115   3.338  1.00  0.00    -0.281 N 
ATOM     20  H   UNL     1       3.642   2.317   3.859  1.00  0.00     0.190 HD
BRANCH  17  21
ATOM     21  C   UNL     1       3.639  -0.234   2.931  1.00  0.00     0.098 C 
BRANCH  21  22
ATOM     22  C   UNL     1       3.733  -0.963   4.258  1.00  0.00    -0.035 A 
ATOM     23  C   UNL     1       4.895  -0.825   5.037  1.00  0.00     0.005 A 
ATOM     24  C   UNL     1       2.751  -1.881   4.644  1.00  0.00     0.005 A 
ATOM     25  C   UNL     1       5.102  -1.651   6.135  1.00  0.00     0.000 A 
ATOM     26  C   UNL     1       2.977  -2.728   5.722  1.00  0.00     0.000 A 
ATOM     27  C   UNL     1       4.155  -2.620   6.459  1.00  0.00     0.000 A 
ENDBRANCH  21  22
BRANCH  21  28
ATOM     28  C   UNL     1       3.990  -1.145   1.713  1.00  0.00    -0.035 A 
ATOM     29  C   UNL     1       3.797  -2.532   1.662  1.00  0.00     0.005 A 
ATOM     30  C   UNL     1       4.681  -0.627   0.606  1.00  0.00     0.005 A 
ATOM     31  C   UNL     1       4.188  -3.305   0.547  1.00  0.00     0.000 A 
ATOM     32  C   UNL     1       5.077  -1.373  -0.517  1.00  0.00     0.000 A 
ATOM     33  C   UNL     1       4.804  -2.724  -0.554  1.00  0.00     0.000 A 
ENDBRANCH  21  28
ENDBRANCH  17  21
ENDBRANCH   8  10
ENDBRANCH   5   8
ENDBRANCH   3   4
ENDBRANCH   2   3
ENDBRANCH   1   2
BRANCH   1  34
ATOM     34  C   UNL     1       5.554   2.713   1.556  1.00  0.00     0.002 C 
BRANCH  34  35
ATOM     35  C   UNL     1       6.744   1.731   1.621  1.00  0.00     0.021 C 
BRANCH  35  36
ATOM     36  C   UNL     1       7.886   1.904   0.637  1.00  0.00     0.116 C 
BRANCH  36  37
ATOM     37  N   UNL     1       8.883   2.840   1.151  1.00  0.00    -0.352 N 
ATOM     38  C   UNL     1      10.232   2.686   1.307  1.00  0.00     0.251 C 
ATOM     39  H   UNL     1       8.529   3.717   1.426  1.00  0.00     0.163 HD
ATOM     40  O   UNL     1      10.853   3.517   2.003  1.00  0.00    -0.269 OA
BRANCH  38  41
ATOM     41  C   UNL     1      10.985   1.569   0.692  1.00  0.00     0.039 A 
ATOM     42  C   UNL     1      12.089   1.029   1.368  1.00  0.00     0.014 A 
ATOM     43  C   UNL     1      10.656   1.079  -0.577  1.00  0.00     0.014 A 
ATOM     44  C   UNL     1      12.816  -0.028   0.807  1.00  0.00     0.010 A 
ATOM     45  C   UNL     1      11.345  -0.014  -1.109  1.00  0.00     0.010 A 
ATOM     46  C   UNL     1      12.430  -0.581  -0.424  1.00  0.00    -0.014 A 
BRANCH  46  47
ATOM     47  C   UNL     1      13.122  -1.764  -0.999  1.00  0.00     0.031 A 
ATOM     48  C   UNL     1      13.880  -1.653  -2.294  1.00  0.00     0.074 A 
ATOM     49  C   UNL     1      12.988  -2.965  -0.401  1.00  0.00     0.049 A 
ATOM     50  N   UNL     1      14.444  -2.598  -3.006  1.00  0.00    -0.248 NA
ATOM     51  C   UNL     1      14.001  -0.309  -2.881  1.00  0.00     0.031 C 
ATOM     52  C   UNL     1      12.239  -3.217   0.831  1.00  0.00     0.029 A 
ATOM     53  N   UNL     1      13.454  -4.205  -0.764  1.00  0.00    -0.354 N 
ATOM     54  C   UNL     1      14.964  -1.968  -4.130  1.00  0.00     0.074 A 
ATOM     55  C   UNL     1      14.626  -0.565  -4.022  1.00  0.00     0.031 C 
ATOM     56  C   UNL     1      12.294  -4.527   1.120  1.00  0.00     0.029 A 
ATOM     57  C   UNL     1      13.049  -5.214   0.078  1.00  0.00     0.049 A 
ATOM     58  H   UNL     1      14.024  -4.357  -1.552  1.00  0.00     0.167 HD
ATOM     59  C   UNL     1      15.670  -2.510  -5.151  1.00  0.00     0.037 A 
ATOM     60  C   UNL     1      13.243  -6.545   0.006  1.00  0.00     0.037 A 
ATOM     61  C   UNL     1      16.043  -3.898  -5.236  1.00  0.00     0.049 A 
ATOM     62  C   UNL     1      14.031  -7.116  -1.139  1.00  0.00     0.074 A 
ATOM     63  C   UNL     1      16.847  -4.516  -6.179  1.00  0.00     0.029 A 
ATOM     64  N   UNL     1      15.634  -4.883  -4.352  1.00  0.00    -0.354 N 
ATOM     65  N   UNL     1      14.591  -6.494  -2.148  1.00  0.00    -0.248 NA
ATOM     66  C   UNL     1      14.212  -8.575  -1.158  1.00  0.00     0.031 C 
ATOM     67  C   UNL     1      16.887  -5.884  -5.890  1.00  0.00     0.029 A 
ATOM     68  C   UNL     1      16.140  -6.110  -4.747  1.00  0.00     0.049 A 
ATOM     69  H   UNL     1      15.068  -4.732  -3.560  1.00  0.00     0.167 HD
ATOM     70  C   UNL     1      15.201  -7.481  -2.910  1.00  0.00     0.074 A 
ATOM     71  C   UNL     1      14.963  -8.740  -2.238  1.00  0.00     0.031 C 
ATOM     72  C   UNL     1      15.893  -7.355  -4.069  1.00  0.00     0.037 A 
BRANCH  59  73
ATOM     73  C   UNL     1      16.101  -1.606  -6.267  1.00  0.00     0.057 A 
ATOM     74  C   UNL     1      17.149  -0.691  -6.112  1.00  0.00     0.134 A 
ATOM     75  C   UNL     1      15.517  -1.713  -7.536  1.00  0.00     0.134 A 
ATOM     76  F   UNL     1      17.746  -0.536  -4.921  1.00  0.00    -0.206 F 
ATOM     77  C   UNL     1      17.596   0.093  -7.178  1.00  0.00     0.040 A 
ATOM     78  C   UNL     1      15.969  -0.950  -8.614  1.00  0.00     0.040 A 
ATOM     79  F   UNL     1      14.513  -2.576  -7.753  1.00  0.00    -0.206 F 
ATOM     80  C   UNL     1      17.012  -0.043  -8.436  1.00  0.00     0.006 A 
ENDBRANCH  59  73
BRANCH  60  81
ATOM     81  C   UNL     1      12.671  -7.439   1.043  1.00  0.00     0.057 A 
ATOM     82  C   UNL     1      13.494  -8.107   1.957  1.00  0.00     0.134 A 
ATOM     83  C   UNL     1      11.292  -7.672   1.126  1.00  0.00     0.134 A 
ATOM     84  F   UNL     1      14.824  -7.942   1.912  1.00  0.00    -0.206 F 
ATOM     85  C   UNL     1      12.971  -8.991   2.902  1.00  0.00     0.040 A 
ATOM     86  C   UNL     1      10.753  -8.534   2.082  1.00  0.00     0.040 A 
ATOM     87  F   UNL     1      10.450  -7.061   0.280  1.00  0.00    -0.206 F 
ATOM     88  C   UNL     1      11.595  -9.204   2.968  1.00  0.00     0.006 A 
ENDBRANCH  60  81
BRANCH  72  89
ATOM     89  C   UNL     1      16.448  -8.609  -4.674  1.00  0.00     0.057 A 
ATOM     90  C   UNL     1      15.623  -9.538  -5.320  1.00  0.00     0.134 A 
ATOM     91  C   UNL     1      17.823  -8.873  -4.643  1.00  0.00     0.134 A 
ATOM     92  F   UNL     1      14.296  -9.349  -5.370  1.00  0.00    -0.206 F 
ATOM     93  C   UNL     1      16.145 -10.695  -5.900  1.00  0.00     0.040 A 
ATOM     94  C   UNL     1      18.359 -10.015  -5.239  1.00  0.00     0.040 A 
ATOM     95  F   UNL     1      18.668  -8.019  -4.045  1.00  0.00    -0.206 F 
ATOM     96  C   UNL     1      17.517 -10.932  -5.866  1.00  0.00     0.006 A 
ENDBRANCH  72  89
ENDBRANCH  46  47
ENDBRANCH  38  41
ENDBRANCH  36  37
ENDBRANCH  35  36
ENDBRANCH  34  35
ENDBRANCH   1  34
TORSDOF 17
