REMARK SMILES Cc1n[nH]c(C)c1CC(=O)N1CC[C@H](C(=O)NCCCCCCNC(=O)c2ccc(-c3c4nc(c(-c5c(F)cccc5F)c5ccc([nH]5)c(-c5c(F)cccc5F)c5nc(c(-c6c(F)cccc6F)c6ccc3[nH]6)C=C5)C=C4)cc2)[C@H]1C
REMARK SMILES IDX 20 1 19 2 18 3 17 4 15 5 16 6 14 8 11 9 12 10 81 11 13 12
REMARK SMILES IDX 82 13 9 14 10 15 8 16 7 17 1 18 2 19 3 20 4 21 5 22 6 24
REMARK SMILES IDX 21 25 22 26 23 27 24 28 25 29 26 31 27 32 28 33 80 34 29 35
REMARK SMILES IDX 79 36 30 37 31 38 32 39 73 40 33 41 78 42 72 43 74 44 34 45
REMARK SMILES IDX 77 46 71 47 70 48 35 50 61 51 44 52 60 53 45 54 48 55 59 56
REMARK SMILES IDX 75 57 46 58 47 59 58 61 76 62 49 63 36 64 37 65 42 66 38 67
REMARK SMILES IDX 39 68 41 69 43 70 40 71 62 72 63 73 68 74 64 75 65 76 67 77
REMARK SMILES IDX 69 78 66 79 50 80 51 81 56 82 52 83 53 84 55 85 57 86 54 87
REMARK H PARENT 17 7 4 23 24 30 74 49 48 60
REMARK Flexibility Score: inf
ROOT
ATOM      1  C   UNL     1      -3.766   1.287   3.263  1.00  0.00     0.002 C 
ENDROOT
BRANCH   1   2
ATOM      2  C   UNL     1      -2.322   0.877   2.947  1.00  0.00     0.021 C 
BRANCH   2   3
ATOM      3  C   UNL     1      -1.378   0.918   4.149  1.00  0.00     0.116 C 
BRANCH   3   4
ATOM      4  N   UNL     1      -1.708  -0.162   5.051  1.00  0.00    -0.356 N 
ATOM      5  C   UNL     1      -1.181  -1.406   5.168  1.00  0.00     0.225 C 
ATOM      6  O   UNL     1      -1.824  -2.207   5.852  1.00  0.00    -0.275 OA
ATOM      7  H   UNL     1      -2.434   0.038   5.685  1.00  0.00     0.163 HD
BRANCH   5   8
ATOM      8  C   UNL     1       0.210  -1.742   4.627  1.00  0.00     0.102 C 
ATOM      9  N   UNL     1       0.086  -2.932   2.562  1.00  0.00    -0.339 N 
ATOM     10  C   UNL     1      -0.136  -3.884   3.642  1.00  0.00     0.120 C 
ATOM     11  C   UNL     1       0.453  -1.623   3.105  1.00  0.00     0.094 C 
ATOM     12  C   UNL     1       0.506  -3.235   4.860  1.00  0.00     0.037 C 
ATOM     13  C   UNL     1       1.926  -1.290   2.864  1.00  0.00     0.032 C 
BRANCH   9  14
ATOM     14  C   UNL     1      -0.377  -3.214   1.288  1.00  0.00     0.227 C 
ATOM     15  O   UNL     1      -1.173  -4.144   1.110  1.00  0.00    -0.275 OA
BRANCH  14  16
ATOM     16  C   UNL     1       0.246  -2.540   0.067  1.00  0.00     0.139 C 
BRANCH  16  17
ATOM     17  C   UNL     1       0.113  -1.062  -0.099  1.00  0.00     0.005 A 
ATOM     18  C   UNL     1      -2.487  -0.744  -0.230  1.00  0.00     0.069 C 
ATOM     19  C   UNL     1      -1.075  -0.283  -0.203  1.00  0.00     0.063 A 
ATOM     20  N   UNL     1      -0.805   1.021  -0.340  1.00  0.00    -0.181 NA
ATOM     21  N   UNL     1       0.527   1.071  -0.450  1.00  0.00    -0.282 N 
ATOM     22  C   UNL     1       1.126  -0.154  -0.377  1.00  0.00     0.036 A 
ATOM     23  H   UNL     1       1.028   1.910  -0.572  1.00  0.00     0.190 HD
ATOM     24  C   UNL     1       2.578  -0.318  -0.649  1.00  0.00     0.066 C 
ENDBRANCH  16  17
ENDBRANCH  14  16
ENDBRANCH   9  14
ENDBRANCH   5   8
ENDBRANCH   3   4
ENDBRANCH   2   3
ENDBRANCH   1   2
BRANCH   1  25
ATOM     25  C   UNL     1      -3.928   2.735   3.733  1.00  0.00     0.002 C 
BRANCH  25  26
ATOM     26  C   UNL     1      -3.368   3.786   2.770  1.00  0.00     0.021 C 
BRANCH  26  27
ATOM     27  C   UNL     1      -4.003   3.768   1.382  1.00  0.00     0.116 C 
BRANCH  27  28
ATOM     28  N   UNL     1      -5.415   4.125   1.433  1.00  0.00    -0.352 N 
ATOM     29  C   UNL     1      -6.058   5.219   0.910  1.00  0.00     0.251 C 
ATOM     30  H   UNL     1      -5.993   3.488   1.912  1.00  0.00     0.163 HD
ATOM     31  O   UNL     1      -7.208   5.486   1.250  1.00  0.00    -0.269 OA
BRANCH  29  32
ATOM     32  C   UNL     1      -5.354   6.093  -0.050  1.00  0.00     0.039 A 
ATOM     33  C   UNL     1      -5.406   7.478   0.127  1.00  0.00     0.014 A 
ATOM     34  C   UNL     1      -4.637   5.545  -1.117  1.00  0.00     0.014 A 
ATOM     35  C   UNL     1      -4.664   8.310  -0.715  1.00  0.00     0.010 A 
ATOM     36  C   UNL     1      -3.847   6.370  -1.914  1.00  0.00     0.010 A 
ATOM     37  C   UNL     1      -3.839   7.758  -1.709  1.00  0.00    -0.014 A 
BRANCH  37  38
ATOM     38  C   UNL     1      -2.915   8.605  -2.506  1.00  0.00     0.031 A 
ATOM     39  C   UNL     1      -3.081   8.720  -3.995  1.00  0.00     0.074 A 
ATOM     40  C   UNL     1      -1.869   9.195  -1.894  1.00  0.00     0.049 A 
ATOM     41  N   UNL     1      -2.308   9.316  -4.868  1.00  0.00    -0.248 NA
ATOM     42  C   UNL     1      -4.259   8.065  -4.586  1.00  0.00     0.031 C 
ATOM     43  C   UNL     1      -1.580   9.130  -0.459  1.00  0.00     0.029 A 
ATOM     44  N   UNL     1      -0.840   9.949  -2.402  1.00  0.00    -0.354 N 
ATOM     45  C   UNL     1      -2.893   9.094  -6.107  1.00  0.00     0.074 A 
ATOM     46  C   UNL     1      -4.070   8.282  -5.880  1.00  0.00     0.031 C 
ATOM     47  C   UNL     1      -0.459   9.823  -0.202  1.00  0.00     0.029 A 
ATOM     48  C   UNL     1       0.079  10.337  -1.457  1.00  0.00     0.049 A 
ATOM     49  H   UNL     1      -0.768  10.189  -3.354  1.00  0.00     0.167 HD
ATOM     50  C   UNL     1      -2.490   9.537  -7.321  1.00  0.00     0.037 A 
ATOM     51  C   UNL     1       1.239  11.009  -1.588  1.00  0.00     0.037 A 
ATOM     52  C   UNL     1      -1.332  10.365  -7.539  1.00  0.00     0.049 A 
ATOM     53  C   UNL     1       1.678  11.453  -2.958  1.00  0.00     0.074 A 
ATOM     54  C   UNL     1      -0.889  10.927  -8.724  1.00  0.00     0.029 A 
ATOM     55  N   UNL     1      -0.428  10.738  -6.557  1.00  0.00    -0.354 N 
ATOM     56  N   UNL     1       1.070  11.306  -4.110  1.00  0.00    -0.248 NA
ATOM     57  C   UNL     1       2.967  12.154  -3.046  1.00  0.00     0.031 C 
ATOM     58  C   UNL     1       0.317  11.587  -8.471  1.00  0.00     0.029 A 
ATOM     59  C   UNL     1       0.593  11.488  -7.118  1.00  0.00     0.049 A 
ATOM     60  H   UNL     1      -0.501  10.505  -5.603  1.00  0.00     0.167 HD
ATOM     61  C   UNL     1       1.886  11.922  -5.051  1.00  0.00     0.074 A 
ATOM     62  C   UNL     1       3.021  12.461  -4.333  1.00  0.00     0.031 C 
ATOM     63  C   UNL     1       1.713  12.027  -6.391  1.00  0.00     0.037 A 
BRANCH  50  64
ATOM     64  C   UNL     1      -3.296   9.139  -8.523  1.00  0.00     0.057 A 
ATOM     65  C   UNL     1      -4.560   9.684  -8.781  1.00  0.00     0.134 A 
ATOM     66  C   UNL     1      -2.760   8.269  -9.481  1.00  0.00     0.134 A 
ATOM     67  F   UNL     1      -5.134  10.518  -7.900  1.00  0.00    -0.206 F 
ATOM     68  C   UNL     1      -5.265   9.371  -9.944  1.00  0.00     0.040 A 
ATOM     69  C   UNL     1      -3.444   7.969 -10.660  1.00  0.00     0.040 A 
ATOM     70  F   UNL     1      -1.550   7.718  -9.299  1.00  0.00    -0.206 F 
ATOM     71  C   UNL     1      -4.701   8.520 -10.893  1.00  0.00     0.006 A 
ENDBRANCH  50  64
BRANCH  51  72
ATOM     72  C   UNL     1       2.089  11.294  -0.402  1.00  0.00     0.057 A 
ATOM     73  C   UNL     1       2.307  12.608   0.030  1.00  0.00     0.134 A 
ATOM     74  C   UNL     1       2.746  10.271   0.293  1.00  0.00     0.134 A 
ATOM     75  F   UNL     1       1.723  13.634  -0.606  1.00  0.00    -0.206 F 
ATOM     76  C   UNL     1       3.177  12.898   1.084  1.00  0.00     0.040 A 
ATOM     77  C   UNL     1       3.593  10.544   1.369  1.00  0.00     0.040 A 
ATOM     78  F   UNL     1       2.577   8.990  -0.065  1.00  0.00    -0.206 F 
ATOM     79  C   UNL     1       3.821  11.863   1.757  1.00  0.00     0.006 A 
ENDBRANCH  51  72
BRANCH  63  80
ATOM     80  C   UNL     1       2.757  12.782  -7.163  1.00  0.00     0.057 A 
ATOM     81  C   UNL     1       4.043  12.266  -7.368  1.00  0.00     0.134 A 
ATOM     82  C   UNL     1       2.459  14.023  -7.740  1.00  0.00     0.134 A 
ATOM     83  F   UNL     1       4.397  11.089  -6.830  1.00  0.00    -0.206 F 
ATOM     84  C   UNL     1       5.002  12.969  -8.098  1.00  0.00     0.040 A 
ATOM     85  C   UNL     1       3.400  14.720  -8.498  1.00  0.00     0.040 A 
ATOM     86  F   UNL     1       1.243  14.570  -7.590  1.00  0.00    -0.206 F 
ATOM     87  C   UNL     1       4.679  14.196  -8.672  1.00  0.00     0.006 A 
ENDBRANCH  63  80
ENDBRANCH  37  38
ENDBRANCH  29  32
ENDBRANCH  27  28
ENDBRANCH  26  27
ENDBRANCH  25  26
ENDBRANCH   1  25
TORSDOF 16
