REMARK SMILES C[C@@H](C(=O)NCCCCCCNC(=O)c1ccc(-c2c3nc(c(-c4c(F)cccc4F)c4ccc([nH]4)c(-c4c(F)cccc4F)c4nc(c(-c5c(F)cccc5F)c5ccc2[nH]5)C=C4)C=C3)cc1)c1ccc(N[C@H]2CCC[C@@H]2O)cc1F
REMARK SMILES IDX 7 1 6 2 5 3 3 4 4 5 2 7 1 8 69 9 70 10 81 11 71 12 80 13
REMARK SMILES IDX 82 14 72 15 73 16 74 18 75 19 78 20 76 21 77 22 79 23 8 25
REMARK SMILES IDX 9 26 10 27 11 28 12 29 13 30 14 32 15 33 16 34 68 35 17 36
REMARK SMILES IDX 67 37 18 38 19 39 20 40 61 41 21 42 66 43 60 44 62 45 22 46
REMARK SMILES IDX 65 47 59 48 58 49 23 51 49 52 32 53 48 54 33 55 36 56 47 57
REMARK SMILES IDX 63 58 34 59 35 60 46 62 64 63 37 64 24 65 25 66 30 67 26 68
REMARK SMILES IDX 27 69 29 70 31 71 28 72 50 73 51 74 56 75 52 76 53 77 55 78
REMARK SMILES IDX 57 79 54 80 38 81 39 82 44 83 40 84 41 85 43 86 45 87 42 88
REMARK H PARENT 5 6 73 17 79 24 12 31 62 50 36 61
REMARK Flexibility Score: inf
ROOT
ATOM      1  C   UNL     1       4.302  -0.974   1.109  1.00  0.00     0.021 C 
ENDROOT
BRANCH   1   2
ATOM      2  C   UNL     1       3.511  -2.018   0.314  1.00  0.00     0.116 C 
BRANCH   2   3
ATOM      3  N   UNL     1       2.396  -2.482   1.108  1.00  0.00    -0.356 N 
ATOM      4  C   UNL     1       1.109  -2.030   1.124  1.00  0.00     0.227 C 
ATOM      5  O   UNL     1       0.428  -2.323   2.108  1.00  0.00    -0.274 OA
ATOM      6  H   UNL     1       2.592  -3.227   1.722  1.00  0.00     0.163 HD
BRANCH   4   7
ATOM      7  C   UNL     1       0.568  -1.228  -0.074  1.00  0.00     0.108 C 
ATOM      8  C   UNL     1       1.157   0.192  -0.111  1.00  0.00     0.023 C 
BRANCH   7   9
ATOM      9  C   UNL     1      -0.955  -1.221  -0.071  1.00  0.00     0.000 A 
ATOM     10  C   UNL     1      -1.693  -0.051   0.104  1.00  0.00     0.009 A 
ATOM     11  C   UNL     1      -1.671  -2.416  -0.200  1.00  0.00     0.129 A 
ATOM     12  C   UNL     1      -3.083  -0.086   0.159  1.00  0.00     0.026 A 
ATOM     13  C   UNL     1      -3.068  -2.447  -0.130  1.00  0.00     0.065 A 
ATOM     14  F   UNL     1      -1.012  -3.569  -0.393  1.00  0.00    -0.207 F 
ATOM     15  C   UNL     1      -3.805  -1.275   0.062  1.00  0.00     0.037 A 
BRANCH  15  16
ATOM     16  N   UNL     1      -5.184  -1.327   0.091  1.00  0.00    -0.380 N 
ATOM     17  H   UNL     1      -5.585  -2.226   0.050  1.00  0.00     0.160 HD
BRANCH  16  18
ATOM     18  C   UNL     1      -6.121  -0.207   0.177  1.00  0.00     0.107 C 
ATOM     19  C   UNL     1      -5.994   0.638   1.452  1.00  0.00     0.027 C 
ATOM     20  C   UNL     1      -6.021   0.775  -1.006  1.00  0.00     0.136 C 
ATOM     21  C   UNL     1      -6.008   2.098   0.990  1.00  0.00     0.005 C 
ATOM     22  C   UNL     1      -6.565   2.072  -0.427  1.00  0.00     0.034 C 
BRANCH  20  23
ATOM     23  O   UNL     1      -6.790   0.340  -2.119  1.00  0.00    -0.391 OA
ATOM     24  H   UNL     1      -7.716   0.232  -1.849  1.00  0.00     0.211 HD
ENDBRANCH  20  23
ENDBRANCH  16  18
ENDBRANCH  15  16
ENDBRANCH   7   9
ENDBRANCH   4   7
ENDBRANCH   2   3
ENDBRANCH   1   2
BRANCH   1  25
ATOM     25  C   UNL     1       5.041  -1.563   2.317  1.00  0.00     0.002 C 
BRANCH  25  26
ATOM     26  C   UNL     1       6.029  -2.680   1.971  1.00  0.00     0.002 C 
BRANCH  26  27
ATOM     27  C   UNL     1       7.062  -2.299   0.911  1.00  0.00     0.021 C 
BRANCH  27  28
ATOM     28  C   UNL     1       7.945  -1.124   1.312  1.00  0.00     0.116 C 
BRANCH  28  29
ATOM     29  N   UNL     1       8.797  -1.455   2.445  1.00  0.00    -0.352 N 
ATOM     30  C   UNL     1      10.164  -1.385   2.535  1.00  0.00     0.251 C 
ATOM     31  H   UNL     1       8.330  -1.770   3.252  1.00  0.00     0.163 HD
ATOM     32  O   UNL     1      10.762  -1.902   3.473  1.00  0.00    -0.269 OA
BRANCH  30  33
ATOM     33  C   UNL     1      10.910  -0.688   1.471  1.00  0.00     0.039 A 
ATOM     34  C   UNL     1      12.009  -1.315   0.880  1.00  0.00     0.014 A 
ATOM     35  C   UNL     1      10.489   0.572   1.037  1.00  0.00     0.014 A 
ATOM     36  C   UNL     1      12.653  -0.701  -0.195  1.00  0.00     0.010 A 
ATOM     37  C   UNL     1      11.080   1.143  -0.082  1.00  0.00     0.010 A 
ATOM     38  C   UNL     1      12.171   0.515  -0.705  1.00  0.00    -0.014 A 
BRANCH  38  39
ATOM     39  C   UNL     1      12.790   1.173  -1.881  1.00  0.00     0.031 A 
ATOM     40  C   UNL     1      13.408   2.533  -1.728  1.00  0.00     0.074 A 
ATOM     41  C   UNL     1      12.695   0.604  -3.097  1.00  0.00     0.049 A 
ATOM     42  N   UNL     1      13.853   3.349  -2.648  1.00  0.00    -0.248 NA
ATOM     43  C   UNL     1      13.499   3.061  -0.358  1.00  0.00     0.031 C 
ATOM     44  C   UNL     1      12.080  -0.693  -3.379  1.00  0.00     0.029 A 
ATOM     45  N   UNL     1      13.089   1.062  -4.329  1.00  0.00    -0.354 N 
ATOM     46  C   UNL     1      14.249   4.495  -1.971  1.00  0.00     0.074 A 
ATOM     47  C   UNL     1      13.941   4.289  -0.573  1.00  0.00     0.031 C 
ATOM     48  C   UNL     1      12.134  -0.926  -4.699  1.00  0.00     0.029 A 
ATOM     49  C   UNL     1      12.745   0.224  -5.361  1.00  0.00     0.049 A 
ATOM     50  H   UNL     1      13.571   1.910  -4.461  1.00  0.00     0.167 HD
ATOM     51  C   UNL     1      14.832   5.612  -2.469  1.00  0.00     0.037 A 
ATOM     52  C   UNL     1      12.881   0.375  -6.692  1.00  0.00     0.037 A 
ATOM     53  C   UNL     1      15.151   5.798  -3.859  1.00  0.00     0.049 A 
ATOM     54  C   UNL     1      13.525   1.623  -7.230  1.00  0.00     0.074 A 
ATOM     55  C   UNL     1      15.808   6.859  -4.457  1.00  0.00     0.029 A 
ATOM     56  N   UNL     1      14.826   4.905  -4.870  1.00  0.00    -0.354 N 
ATOM     57  N   UNL     1      13.962   2.671  -6.575  1.00  0.00    -0.248 NA
ATOM     58  C   UNL     1      13.699   1.709  -8.686  1.00  0.00     0.031 C 
ATOM     59  C   UNL     1      15.828   6.635  -5.837  1.00  0.00     0.029 A 
ATOM     60  C   UNL     1      15.241   5.405  -6.093  1.00  0.00     0.049 A 
ATOM     61  H   UNL     1      14.369   4.044  -4.737  1.00  0.00     0.167 HD
ATOM     62  C   UNL     1      14.490   3.528  -7.532  1.00  0.00     0.074 A 
ATOM     63  C   UNL     1      14.317   2.876  -8.815  1.00  0.00     0.031 C 
ATOM     64  C   UNL     1      15.070   4.740  -7.361  1.00  0.00     0.037 A 
BRANCH  51  65
ATOM     65  C   UNL     1      15.136   6.719  -1.500  1.00  0.00     0.057 A 
ATOM     66  C   UNL     1      16.103   6.583  -0.493  1.00  0.00     0.134 A 
ATOM     67  C   UNL     1      14.448   7.937  -1.571  1.00  0.00     0.134 A 
ATOM     68  F   UNL     1      16.792   5.440  -0.361  1.00  0.00    -0.206 F 
ATOM     69  C   UNL     1      16.338   7.599   0.436  1.00  0.00     0.040 A 
ATOM     70  C   UNL     1      14.700   8.973  -0.670  1.00  0.00     0.040 A 
ATOM     71  F   UNL     1      13.517   8.140  -2.515  1.00  0.00    -0.206 F 
ATOM     72  C   UNL     1      15.638   8.800   0.346  1.00  0.00     0.006 A 
ENDBRANCH  51  65
BRANCH  52  73
ATOM     73  C   UNL     1      12.398  -0.696  -7.600  1.00  0.00     0.057 A 
ATOM     74  C   UNL     1      13.294  -1.526  -8.282  1.00  0.00     0.134 A 
ATOM     75  C   UNL     1      11.030  -0.943  -7.772  1.00  0.00     0.134 A 
ATOM     76  F   UNL     1      14.616  -1.329  -8.169  1.00  0.00    -0.206 F 
ATOM     77  C   UNL     1      12.849  -2.560  -9.107  1.00  0.00     0.040 A 
ATOM     78  C   UNL     1      10.571  -1.988  -8.574  1.00  0.00     0.040 A 
ATOM     79  F   UNL     1      10.121  -0.190  -7.136  1.00  0.00    -0.206 F 
ATOM     80  C   UNL     1      11.483  -2.799  -9.247  1.00  0.00     0.006 A 
ENDBRANCH  52  73
BRANCH  64  81
ATOM     81  C   UNL     1      15.606   5.436  -8.578  1.00  0.00     0.057 A 
ATOM     82  C   UNL     1      14.764   6.045  -9.517  1.00  0.00     0.134 A 
ATOM     83  C   UNL     1      16.988   5.577  -8.761  1.00  0.00     0.134 A 
ATOM     84  F   UNL     1      13.432   5.937  -9.406  1.00  0.00    -0.206 F 
ATOM     85  C   UNL     1      15.279   6.765 -10.596  1.00  0.00     0.040 A 
ATOM     86  C   UNL     1      17.514   6.316  -9.820  1.00  0.00     0.040 A 
ATOM     87  F   UNL     1      17.849   5.025  -7.892  1.00  0.00    -0.206 F 
ATOM     88  C   UNL     1      16.657   6.913 -10.743  1.00  0.00     0.006 A 
ENDBRANCH  64  81
ENDBRANCH  38  39
ENDBRANCH  30  33
ENDBRANCH  28  29
ENDBRANCH  27  28
ENDBRANCH  26  27
ENDBRANCH  25  26
ENDBRANCH   1  25
TORSDOF 17
