REMARK SMILES O=C(NCCCCCCNC(=O)c1cccc(Oc2ncc([N+](=O)[O-])cc2Br)c1)c1ccc(-c2c3nc(c(-c4c(F)cccc4F)c4ccc([nH]4)c(-c4c(F)cccc4F)c4nc(c(-c5c(F)cccc5F)c5ccc2[nH]5)C=C4)C=C3)cc1
REMARK SMILES IDX 7 1 6 2 5 3 4 4 3 5 1 6 2 7 30 9 31 10 83 11 32 12 82 13
REMARK SMILES IDX 33 14 34 15 35 16 76 17 36 18 81 19 75 20 77 21 37 22 80 23
REMARK SMILES IDX 74 24 73 25 38 27 64 28 47 29 63 30 48 31 51 32 62 33 78 34
REMARK SMILES IDX 49 35 50 36 61 38 79 39 52 40 39 41 40 42 45 43 41 44 42 45
REMARK SMILES IDX 44 46 46 47 43 48 65 49 66 50 71 51 67 52 68 53 70 54 72 55
REMARK SMILES IDX 69 56 53 57 54 58 59 59 55 60 56 61 58 62 60 63 57 64 8 65
REMARK SMILES IDX 9 66 10 67 11 68 12 70 13 71 14 72 29 73 15 74 17 75 16 76
REMARK SMILES IDX 18 77 19 78 20 79 27 80 21 81 26 82 28 83 22 84 23 85 24 86
REMARK SMILES IDX 25 87
REMARK H PARENT 3 8 77 26 51 37 10 69
REMARK Flexibility Score: inf
ROOT
ATOM      1  C   UNL     1       4.678   0.379  -4.428  1.00  0.00     0.002 C 
ENDROOT
BRANCH   1   2
ATOM      2  C   UNL     1       4.174  -0.946  -3.848  1.00  0.00     0.002 C 
BRANCH   2   3
ATOM      3  C   UNL     1       4.655  -1.268  -2.434  1.00  0.00     0.021 C 
BRANCH   3   4
ATOM      4  C   UNL     1       4.399  -0.178  -1.402  1.00  0.00     0.116 C 
BRANCH   4   5
ATOM      5  N   UNL     1       2.984   0.078  -1.193  1.00  0.00    -0.352 N 
ATOM      6  O   UNL     1       1.052   0.200  -0.028  1.00  0.00    -0.269 OA
ATOM      7  C   UNL     1       2.278   0.111  -0.017  1.00  0.00     0.251 C 
ATOM      8  H   UNL     1       2.459   0.251  -2.008  1.00  0.00     0.163 HD
BRANCH   7   9
ATOM      9  C   UNL     1       2.998   0.016   1.270  1.00  0.00     0.039 A 
ATOM     10  C   UNL     1       4.150   0.773   1.498  1.00  0.00     0.014 A 
ATOM     11  C   UNL     1       2.514  -0.842   2.261  1.00  0.00     0.014 A 
ATOM     12  C   UNL     1       4.889   0.573   2.657  1.00  0.00     0.010 A 
ATOM     13  C   UNL     1       3.212  -0.977   3.464  1.00  0.00     0.010 A 
ATOM     14  C   UNL     1       4.418  -0.288   3.662  1.00  0.00    -0.014 A 
BRANCH  14  15
ATOM     15  C   UNL     1       5.167  -0.391   4.939  1.00  0.00     0.031 A 
ATOM     16  C   UNL     1       5.814  -1.677   5.365  1.00  0.00     0.074 A 
ATOM     17  C   UNL     1       5.274   0.710   5.708  1.00  0.00     0.049 A 
ATOM     18  N   UNL     1       6.510  -1.929   6.446  1.00  0.00    -0.248 NA
ATOM     19  C   UNL     1       5.659  -2.833   4.469  1.00  0.00     0.031 C 
ATOM     20  C   UNL     1       4.676   2.012   5.402  1.00  0.00     0.029 A 
ATOM     21  N   UNL     1       5.931   0.918   6.893  1.00  0.00    -0.354 N 
ATOM     22  C   UNL     1       6.864  -3.270   6.368  1.00  0.00     0.074 A 
ATOM     23  C   UNL     1       6.282  -3.788   5.147  1.00  0.00     0.031 C 
ATOM     24  C   UNL     1       5.029   2.893   6.349  1.00  0.00     0.029 A 
ATOM     25  C   UNL     1       5.821   2.205   7.361  1.00  0.00     0.049 A 
ATOM     26  H   UNL     1       6.433   0.213   7.364  1.00  0.00     0.167 HD
ATOM     27  C   UNL     1       7.612  -3.998   7.233  1.00  0.00     0.037 A 
ATOM     28  C   UNL     1       6.288   2.767   8.490  1.00  0.00     0.037 A 
ATOM     29  C   UNL     1       8.191  -3.473   8.445  1.00  0.00     0.049 A 
ATOM     30  C   UNL     1       7.082   1.927   9.446  1.00  0.00     0.074 A 
ATOM     31  C   UNL     1       8.986  -4.124   9.373  1.00  0.00     0.029 A 
ATOM     32  N   UNL     1       8.031  -2.172   8.900  1.00  0.00    -0.354 N 
ATOM     33  N   UNL     1       7.436   0.669   9.342  1.00  0.00    -0.248 NA
ATOM     34  C   UNL     1       7.537   2.583  10.678  1.00  0.00     0.031 C 
ATOM     35  C   UNL     1       9.270  -3.230  10.411  1.00  0.00     0.029 A 
ATOM     36  C   UNL     1       8.694  -2.008  10.106  1.00  0.00     0.049 A 
ATOM     37  H   UNL     1       7.522  -1.470   8.435  1.00  0.00     0.167 HD
ATOM     38  C   UNL     1       8.171   0.387  10.485  1.00  0.00     0.074 A 
ATOM     39  C   UNL     1       8.229   1.612  11.257  1.00  0.00     0.031 C 
ATOM     40  C   UNL     1       8.743  -0.782  10.862  1.00  0.00     0.037 A 
BRANCH  27  41
ATOM     41  C   UNL     1       7.836  -5.447   6.911  1.00  0.00     0.057 A 
ATOM     42  C   UNL     1       8.679  -5.852   5.868  1.00  0.00     0.134 A 
ATOM     43  C   UNL     1       7.242  -6.452   7.686  1.00  0.00     0.134 A 
ATOM     44  F   UNL     1       9.274  -4.942   5.082  1.00  0.00    -0.206 F 
ATOM     45  C   UNL     1       8.905  -7.203   5.594  1.00  0.00     0.040 A 
ATOM     46  C   UNL     1       7.480  -7.805   7.437  1.00  0.00     0.040 A 
ATOM     47  F   UNL     1       6.430  -6.135   8.706  1.00  0.00    -0.206 F 
ATOM     48  C   UNL     1       8.310  -8.184   6.385  1.00  0.00     0.006 A 
ENDBRANCH  27  41
BRANCH  28  49
ATOM     49  C   UNL     1       6.005   4.195   8.775  1.00  0.00     0.057 A 
ATOM     50  C   UNL     1       7.025   5.153   8.759  1.00  0.00     0.134 A 
ATOM     51  C   UNL     1       4.708   4.637   9.062  1.00  0.00     0.134 A 
ATOM     52  F   UNL     1       8.290   4.788   8.506  1.00  0.00    -0.206 F 
ATOM     53  C   UNL     1       6.768   6.497   9.034  1.00  0.00     0.040 A 
ATOM     54  C   UNL     1       4.432   5.982   9.310  1.00  0.00     0.040 A 
ATOM     55  F   UNL     1       3.685   3.769   9.083  1.00  0.00    -0.206 F 
ATOM     56  C   UNL     1       5.466   6.915   9.304  1.00  0.00     0.006 A 
ENDBRANCH  28  49
BRANCH  40  57
ATOM     57  C   UNL     1       9.506  -0.777  12.153  1.00  0.00     0.057 A 
ATOM     58  C   UNL     1       8.860  -0.710  13.394  1.00  0.00     0.134 A 
ATOM     59  C   UNL     1      10.905  -0.861  12.155  1.00  0.00     0.134 A 
ATOM     60  F   UNL     1       7.523  -0.612  13.460  1.00  0.00    -0.206 F 
ATOM     61  C   UNL     1       9.579  -0.700  14.590  1.00  0.00     0.040 A 
ATOM     62  C   UNL     1      11.633  -0.878  13.345  1.00  0.00     0.040 A 
ATOM     63  F   UNL     1      11.584  -0.934  11.001  1.00  0.00    -0.206 F 
ATOM     64  C   UNL     1      10.969  -0.790  14.567  1.00  0.00     0.006 A 
ENDBRANCH  40  57
ENDBRANCH  14  15
ENDBRANCH   7   9
ENDBRANCH   4   5
ENDBRANCH   3   4
ENDBRANCH   2   3
ENDBRANCH   1   2
BRANCH   1  65
ATOM     65  C   UNL     1       6.196   0.582  -4.394  1.00  0.00     0.021 C 
BRANCH  65  66
ATOM     66  C   UNL     1       7.007  -0.506  -5.090  1.00  0.00     0.116 C 
BRANCH  66  67
ATOM     67  N   UNL     1       6.728  -0.557  -6.514  1.00  0.00    -0.352 N 
ATOM     68  C   UNL     1       7.608  -0.525  -7.565  1.00  0.00     0.251 C 
ATOM     69  H   UNL     1       5.777  -0.625  -6.759  1.00  0.00     0.163 HD
ATOM     70  O   UNL     1       7.199  -0.353  -8.710  1.00  0.00    -0.269 OA
BRANCH  68  71
ATOM     71  C   UNL     1       9.052  -0.721  -7.322  1.00  0.00     0.043 A 
ATOM     72  C   UNL     1       9.976   0.117  -7.949  1.00  0.00     0.014 A 
ATOM     73  C   UNL     1       9.488  -1.790  -6.532  1.00  0.00     0.061 A 
ATOM     74  C   UNL     1      11.339  -0.089  -7.743  1.00  0.00     0.005 A 
ATOM     75  C   UNL     1      10.852  -2.008  -6.334  1.00  0.00     0.130 A 
ATOM     76  C   UNL     1      11.774  -1.145  -6.935  1.00  0.00     0.047 A 
BRANCH  75  77
ATOM     77  O   UNL     1      11.392  -3.054  -5.611  1.00  0.00    -0.438 OA
BRANCH  77  78
ATOM     78  C   UNL     1      10.517  -3.876  -4.935  1.00  0.00     0.234 A 
ATOM     79  N   UNL     1      10.351  -3.586  -3.618  1.00  0.00    -0.214 NA
ATOM     80  C   UNL     1       9.865  -4.933  -5.577  1.00  0.00     0.087 A 
ATOM     81  C   UNL     1       9.481  -4.355  -2.920  1.00  0.00     0.200 A 
ATOM     82  C   UNL     1       8.941  -5.683  -4.850  1.00  0.00     0.108 A 
ATOM     83  Br  UNL     1      10.149  -5.359  -7.399  1.00  0.00    -0.045 Br
ATOM     84  C   UNL     1       8.751  -5.383  -3.498  1.00  0.00     0.288 A 
BRANCH  84  85
ATOM     85  N   UNL     1       7.784  -6.121  -2.699  1.00  0.00     0.064 N 
ATOM     86  O   UNL     1       7.797  -5.945  -1.474  1.00  0.00    -0.258 OA
ATOM     87  O   UNL     1       6.999  -6.867  -3.299  1.00  0.00    -0.258 OA
ENDBRANCH  84  85
ENDBRANCH  77  78
ENDBRANCH  75  77
ENDBRANCH  68  71
ENDBRANCH  66  67
ENDBRANCH  65  66
ENDBRANCH   1  65
TORSDOF 16
