REMARK SMILES CCc1ccc(N(C)C(=O)N2CC[C@@H](C(=O)NCCCCCCNC(=O)c3ccc(-c4c5nc(c(-c6c(F)cccc6F)c6ccc([nH]6)c(-c6c(F)cccc6F)c6nc(c(-c7c(F)cccc7F)c7ccc4[nH]7)C=C6)C=C5)cc3)[C@@H]2C)cc1
REMARK SMILES IDX 19 1 18 2 17 3 15 4 16 5 14 7 11 8 12 9 81 10 13 11 82 12
REMARK SMILES IDX 9 13 10 14 7 15 8 16 6 17 3 18 4 19 84 20 5 21 83 22 2 23
REMARK SMILES IDX 1 24 20 25 21 26 22 27 23 28 24 29 25 30 26 32 27 33 28 34
REMARK SMILES IDX 80 35 29 36 79 37 30 38 31 39 32 40 73 41 33 42 78 43 72 44
REMARK SMILES IDX 74 45 34 46 77 47 71 48 70 49 35 51 61 52 44 53 60 54 45 55
REMARK SMILES IDX 48 56 59 57 75 58 46 59 47 60 58 62 76 63 49 64 36 65 37 66
REMARK SMILES IDX 42 67 38 68 39 69 41 70 43 71 40 72 62 73 63 74 68 75 64 76
REMARK SMILES IDX 65 77 67 78 69 79 66 80 50 81 51 82 56 83 52 84 53 85 55 86
REMARK SMILES IDX 57 87 54 88
REMARK H PARENT 17 6 24 31 74 50 48 61
REMARK Flexibility Score: inf
ROOT
ATOM      1  C   UNL     1       1.640  -0.748  10.021  1.00  0.00     0.021 C 
ENDROOT
BRANCH   1   2
ATOM      2  C   UNL     1       1.413   0.679  10.525  1.00  0.00     0.116 C 
BRANCH   2   3
ATOM      3  N   UNL     1       2.533   1.146  11.325  1.00  0.00    -0.356 N 
ATOM      4  C   UNL     1       3.383   2.198  11.178  1.00  0.00     0.225 C 
ATOM      5  O   UNL     1       4.269   2.316  12.031  1.00  0.00    -0.275 OA
ATOM      6  H   UNL     1       2.711   0.597  12.123  1.00  0.00     0.163 HD
BRANCH   4   7
ATOM      7  C   UNL     1       3.307   3.206  10.034  1.00  0.00     0.102 C 
ATOM      8  N   UNL     1       2.364   2.879   7.852  1.00  0.00    -0.321 N 
ATOM      9  C   UNL     1       1.706   4.039   8.441  1.00  0.00     0.122 C 
ATOM     10  C   UNL     1       3.575   2.584   8.647  1.00  0.00     0.096 C 
ATOM     11  C   UNL     1       1.972   3.940   9.931  1.00  0.00     0.037 C 
ATOM     12  C   UNL     1       4.813   3.201   7.990  1.00  0.00     0.032 C 
BRANCH   8  13
ATOM     13  C   UNL     1       1.871   2.427   6.627  1.00  0.00     0.324 C 
ATOM     14  O   UNL     1       1.030   3.139   6.067  1.00  0.00    -0.248 OA
BRANCH  13  15
ATOM     15  N   UNL     1       2.256   1.174   6.114  1.00  0.00    -0.297 N 
ATOM     16  C   UNL     1       2.928   0.199   6.947  1.00  0.00     0.155 C 
BRANCH  15  17
ATOM     17  C   UNL     1       1.853   0.730   4.778  1.00  0.00     0.045 A 
ATOM     18  C   UNL     1       0.972  -0.187   2.198  1.00  0.00    -0.048 A 
ATOM     19  C   UNL     1       1.445  -1.080   3.153  1.00  0.00     0.006 A 
ATOM     20  C   UNL     1       0.954   1.168   2.530  1.00  0.00     0.006 A 
ATOM     21  C   UNL     1       1.889  -0.628   4.404  1.00  0.00     0.027 A 
ATOM     22  C   UNL     1       1.398   1.615   3.789  1.00  0.00     0.027 A 
BRANCH  18  23
ATOM     23  C   UNL     1       0.459  -0.707   0.878  1.00  0.00     0.032 C 
ATOM     24  C   UNL     1       1.070  -0.019  -0.333  1.00  0.00     0.009 C 
ENDBRANCH  18  23
ENDBRANCH  15  17
ENDBRANCH  13  15
ENDBRANCH   8  13
ENDBRANCH   4   7
ENDBRANCH   2   3
ENDBRANCH   1   2
BRANCH   1  25
ATOM     25  C   UNL     1       1.231  -1.871  10.972  1.00  0.00     0.002 C 
BRANCH  25  26
ATOM     26  C   UNL     1      -0.265  -1.962  11.286  1.00  0.00     0.002 C 
BRANCH  26  27
ATOM     27  C   UNL     1      -1.216  -1.937  10.084  1.00  0.00     0.021 C 
BRANCH  27  28
ATOM     28  C   UNL     1      -0.947  -2.973   8.994  1.00  0.00     0.116 C 
BRANCH  28  29
ATOM     29  N   UNL     1      -1.058  -4.338   9.478  1.00  0.00    -0.352 N 
ATOM     30  C   UNL     1      -1.904  -5.348   9.094  1.00  0.00     0.251 C 
ATOM     31  H   UNL     1      -0.427  -4.575  10.195  1.00  0.00     0.163 HD
ATOM     32  O   UNL     1      -1.946  -6.388   9.745  1.00  0.00    -0.269 OA
BRANCH  30  33
ATOM     33  C   UNL     1      -2.783  -5.192   7.913  1.00  0.00     0.039 A 
ATOM     34  C   UNL     1      -4.116  -5.602   8.014  1.00  0.00     0.014 A 
ATOM     35  C   UNL     1      -2.297  -4.692   6.702  1.00  0.00     0.014 A 
ATOM     36  C   UNL     1      -4.976  -5.454   6.922  1.00  0.00     0.010 A 
ATOM     37  C   UNL     1      -3.169  -4.493   5.631  1.00  0.00     0.010 A 
ATOM     38  C   UNL     1      -4.517  -4.871   5.731  1.00  0.00    -0.014 A 
BRANCH  38  39
ATOM     39  C   UNL     1      -5.432  -4.650   4.582  1.00  0.00     0.031 A 
ATOM     40  C   UNL     1      -5.236  -5.409   3.298  1.00  0.00     0.074 A 
ATOM     41  C   UNL     1      -6.413  -3.732   4.676  1.00  0.00     0.049 A 
ATOM     42  N   UNL     1      -5.877  -5.294   2.163  1.00  0.00    -0.248 NA
ATOM     43  C   UNL     1      -4.166  -6.419   3.285  1.00  0.00     0.031 C 
ATOM     44  C   UNL     1      -6.697  -2.913   5.856  1.00  0.00     0.029 A 
ATOM     45  N   UNL     1      -7.350  -3.326   3.758  1.00  0.00    -0.354 N 
ATOM     46  C   UNL     1      -5.288  -6.210   1.300  1.00  0.00     0.074 A 
ATOM     47  C   UNL     1      -4.207  -6.840   2.028  1.00  0.00     0.031 C 
ATOM     48  C   UNL     1      -7.745  -2.115   5.596  1.00  0.00     0.029 A 
ATOM     49  C   UNL     1      -8.184  -2.337   4.222  1.00  0.00     0.049 A 
ATOM     50  H   UNL     1      -7.417  -3.706   2.853  1.00  0.00     0.167 HD
ATOM     51  C   UNL     1      -5.630  -6.515   0.025  1.00  0.00     0.037 A 
ATOM     52  C   UNL     1      -9.183  -1.678   3.606  1.00  0.00     0.037 A 
ATOM     53  C   UNL     1      -6.714  -5.902  -0.696  1.00  0.00     0.049 A 
ATOM     54  C   UNL     1      -9.518  -2.013   2.179  1.00  0.00     0.074 A 
ATOM     55  C   UNL     1      -7.149  -6.160  -1.985  1.00  0.00     0.029 A 
ATOM     56  N   UNL     1      -7.539  -4.910  -0.188  1.00  0.00    -0.354 N 
ATOM     57  N   UNL     1      -8.973  -2.905   1.388  1.00  0.00    -0.248 NA
ATOM     58  C   UNL     1     -10.611  -1.249   1.559  1.00  0.00     0.031 C 
ATOM     59  C   UNL     1      -8.220  -5.306  -2.266  1.00  0.00     0.029 A 
ATOM     60  C   UNL     1      -8.474  -4.541  -1.140  1.00  0.00     0.049 A 
ATOM     61  H   UNL     1      -7.470  -4.526   0.716  1.00  0.00     0.167 HD
ATOM     62  C   UNL     1      -9.676  -2.832   0.192  1.00  0.00     0.074 A 
ATOM     63  C   UNL     1     -10.693  -1.816   0.364  1.00  0.00     0.031 C 
ATOM     64  C   UNL     1      -9.493  -3.543  -0.947  1.00  0.00     0.037 A 
BRANCH  51  65
ATOM     65  C   UNL     1      -4.827  -7.573  -0.671  1.00  0.00     0.057 A 
ATOM     66  C   UNL     1      -4.957  -8.928  -0.337  1.00  0.00     0.134 A 
ATOM     67  C   UNL     1      -3.953  -7.245  -1.714  1.00  0.00     0.134 A 
ATOM     68  F   UNL     1      -5.769  -9.306   0.662  1.00  0.00    -0.206 F 
ATOM     69  C   UNL     1      -4.233  -9.917  -1.004  1.00  0.00     0.040 A 
ATOM     70  C   UNL     1      -3.241  -8.227  -2.405  1.00  0.00     0.040 A 
ATOM     71  F   UNL     1      -3.787  -5.968  -2.088  1.00  0.00    -0.206 F 
ATOM     72  C   UNL     1      -3.377  -9.568  -2.047  1.00  0.00     0.006 A 
ENDBRANCH  51  65
BRANCH  52  73
ATOM     73  C   UNL     1      -9.955  -0.639   4.332  1.00  0.00     0.057 A 
ATOM     74  C   UNL     1     -11.291  -0.854   4.689  1.00  0.00     0.134 A 
ATOM     75  C   UNL     1      -9.392   0.601   4.655  1.00  0.00     0.134 A 
ATOM     76  F   UNL     1     -11.892  -2.015   4.386  1.00  0.00    -0.206 F 
ATOM     77  C   UNL     1     -12.048   0.134   5.321  1.00  0.00     0.040 A 
ATOM     78  C   UNL     1     -10.129   1.589   5.309  1.00  0.00     0.040 A 
ATOM     79  F   UNL     1      -8.115   0.867   4.343  1.00  0.00    -0.206 F 
ATOM     80  C   UNL     1     -11.465   1.360   5.635  1.00  0.00     0.006 A 
ENDBRANCH  52  73
BRANCH  64  81
ATOM     81  C   UNL     1     -10.442  -3.280  -2.077  1.00  0.00     0.057 A 
ATOM     82  C   UNL     1     -10.363  -2.117  -2.853  1.00  0.00     0.134 A 
ATOM     83  C   UNL     1     -11.426  -4.218  -2.412  1.00  0.00     0.134 A 
ATOM     84  F   UNL     1      -9.451  -1.174  -2.573  1.00  0.00    -0.206 F 
ATOM     85  C   UNL     1     -11.243  -1.887  -3.912  1.00  0.00     0.040 A 
ATOM     86  C   UNL     1     -12.297  -4.010  -3.483  1.00  0.00     0.040 A 
ATOM     87  F   UNL     1     -11.550  -5.356  -1.712  1.00  0.00    -0.206 F 
ATOM     88  C   UNL     1     -12.210  -2.839  -4.233  1.00  0.00     0.006 A 
ENDBRANCH  64  81
ENDBRANCH  38  39
ENDBRANCH  30  33
ENDBRANCH  28  29
ENDBRANCH  27  28
ENDBRANCH  26  27
ENDBRANCH  25  26
ENDBRANCH   1  25
TORSDOF 17
