REMARK SMILES CC(C)(C[NH2+][C@H]1CCc2ccccc21)C(=O)NCCCCCCNC(=O)c1ccc(-c2c3nc(c(-c4c(F)cccc4F)c4ccc([nH]4)c(-c4c(F)cccc4F)c4nc(c(-c5c(F)cccc5F)c5ccc2[nH]5)C=C4)C=C3)cc1
REMARK SMILES IDX 20 1 19 2 18 3 17 4 15 5 16 6 2 8 1 9 3 10 4 11 5 12 6 15
REMARK SMILES IDX 7 16 14 17 8 18 9 19 13 20 10 21 12 22 11 23 21 24 22 25
REMARK SMILES IDX 23 26 24 27 25 28 26 30 27 31 28 32 80 33 29 34 79 35 30 36
REMARK SMILES IDX 31 37 32 38 73 39 33 40 78 41 72 42 74 43 34 44 77 45 71 46
REMARK SMILES IDX 70 47 35 49 61 50 44 51 60 52 45 53 48 54 59 55 75 56 46 57
REMARK SMILES IDX 47 58 58 60 76 61 49 62 36 63 37 64 42 65 38 66 39 67 41 68
REMARK SMILES IDX 43 69 40 70 62 71 63 72 68 73 64 74 65 75 67 76 69 77 66 78
REMARK SMILES IDX 50 79 51 80 56 81 52 82 53 83 55 84 57 85 54 86
REMARK H PARENT 17 7 5 13 5 14 24 29 74 48 48 59
REMARK Flexibility Score: inf
ROOT
ATOM      1  C   UNL     1      -3.658   3.293   2.567  1.00  0.00     0.002 C 
ENDROOT
BRANCH   1   2
ATOM      2  C   UNL     1      -2.730   2.213   2.002  1.00  0.00     0.021 C 
BRANCH   2   3
ATOM      3  C   UNL     1      -2.128   1.275   3.044  1.00  0.00     0.116 C 
BRANCH   3   4
ATOM      4  N   UNL     1      -3.119   0.343   3.537  1.00  0.00    -0.355 N 
ATOM      5  C   UNL     1      -3.300  -0.990   3.346  1.00  0.00     0.231 C 
ATOM      6  O   UNL     1      -4.329  -1.461   3.846  1.00  0.00    -0.274 OA
ATOM      7  H   UNL     1      -3.793   0.755   4.125  1.00  0.00     0.163 HD
BRANCH   5   8
ATOM      8  C   UNL     1      -2.267  -1.897   2.642  1.00  0.00     0.092 C 
ATOM      9  C   UNL     1      -2.795  -3.355   2.704  1.00  0.00     0.027 C 
ATOM     10  C   UNL     1      -0.952  -1.888   3.450  1.00  0.00     0.027 C 
BRANCH   8  11
ATOM     11  C   UNL     1      -1.987  -1.525   1.160  1.00  0.00     0.277 C 
BRANCH  11  12
ATOM     12  N   UNL     1      -3.167  -1.503   0.292  1.00  0.00    -0.339 N 
ATOM     13  H   UNL     1      -3.791  -0.760   0.608  1.00  0.00     0.346 HD
ATOM     14  H   UNL     1      -3.612  -2.419   0.353  1.00  0.00     0.346 HD
BRANCH  12  15
ATOM     15  C   UNL     1      -2.829  -1.266  -1.116  1.00  0.00     0.214 C 
ATOM     16  C   UNL     1      -3.607  -2.218  -2.056  1.00  0.00     0.075 C 
ATOM     17  C   UNL     1      -3.376   0.055  -1.593  1.00  0.00     0.012 A 
ATOM     18  C   UNL     1      -4.969  -1.562  -2.326  1.00  0.00     0.042 C 
ATOM     19  C   UNL     1      -4.596  -0.115  -2.264  1.00  0.00    -0.039 A 
ATOM     20  C   UNL     1      -2.835   1.320  -1.426  1.00  0.00     0.010 A 
ATOM     21  C   UNL     1      -5.314   0.970  -2.737  1.00  0.00     0.004 A 
ATOM     22  C   UNL     1      -3.548   2.422  -1.906  1.00  0.00     0.001 A 
ATOM     23  C   UNL     1      -4.782   2.248  -2.552  1.00  0.00     0.000 A 
ENDBRANCH  12  15
ENDBRANCH  11  12
ENDBRANCH   8  11
ENDBRANCH   5   8
ENDBRANCH   3   4
ENDBRANCH   2   3
ENDBRANCH   1   2
BRANCH   1  24
ATOM     24  C   UNL     1      -3.030   4.220   3.613  1.00  0.00     0.002 C 
BRANCH  24  25
ATOM     25  C   UNL     1      -1.710   4.878   3.201  1.00  0.00     0.021 C 
BRANCH  25  26
ATOM     26  C   UNL     1      -1.773   5.705   1.921  1.00  0.00     0.116 C 
BRANCH  26  27
ATOM     27  N   UNL     1      -2.674   6.840   2.041  1.00  0.00    -0.352 N 
ATOM     28  C   UNL     1      -2.428   8.175   1.855  1.00  0.00     0.251 C 
ATOM     29  H   UNL     1      -3.599   6.616   2.294  1.00  0.00     0.163 HD
ATOM     30  O   UNL     1      -3.271   9.009   2.183  1.00  0.00    -0.269 OA
BRANCH  28  31
ATOM     31  C   UNL     1      -1.145   8.625   1.275  1.00  0.00     0.039 A 
ATOM     32  C   UNL     1      -0.487   9.713   1.856  1.00  0.00     0.014 A 
ATOM     33  C   UNL     1      -0.602   7.997   0.151  1.00  0.00     0.014 A 
ATOM     34  C   UNL     1       0.743  10.135   1.345  1.00  0.00     0.010 A 
ATOM     35  C   UNL     1       0.655   8.376  -0.317  1.00  0.00     0.010 A 
ATOM     36  C   UNL     1       1.338   9.450   0.273  1.00  0.00    -0.014 A 
BRANCH  36  37
ATOM     37  C   UNL     1       2.673   9.844  -0.243  1.00  0.00     0.031 A 
ATOM     38  C   UNL     1       2.817  10.380  -1.640  1.00  0.00     0.074 A 
ATOM     39  C   UNL     1       3.765   9.657   0.523  1.00  0.00     0.049 A 
ATOM     40  N   UNL     1       3.905  10.706  -2.292  1.00  0.00    -0.248 NA
ATOM     41  C   UNL     1       1.578  10.550  -2.415  1.00  0.00     0.031 C 
ATOM     42  C   UNL     1       3.764   9.104   1.879  1.00  0.00     0.029 A 
ATOM     43  N   UNL     1       5.091   9.902   0.266  1.00  0.00    -0.354 N 
ATOM     44  C   UNL     1       3.483  11.102  -3.555  1.00  0.00     0.074 A 
ATOM     45  C   UNL     1       2.046  10.932  -3.594  1.00  0.00     0.031 C 
ATOM     46  C   UNL     1       5.024   9.068   2.340  1.00  0.00     0.029 A 
ATOM     47  C   UNL     1       5.925   9.562   1.303  1.00  0.00     0.049 A 
ATOM     48  H   UNL     1       5.413  10.284  -0.582  1.00  0.00     0.167 HD
ATOM     49  C   UNL     1       4.223  11.583  -4.583  1.00  0.00     0.037 A 
ATOM     50  C   UNL     1       7.266   9.633   1.404  1.00  0.00     0.037 A 
ATOM     51  C   UNL     1       5.648  11.779  -4.534  1.00  0.00     0.049 A 
ATOM     52  C   UNL     1       8.064  10.172   0.250  1.00  0.00     0.074 A 
ATOM     53  C   UNL     1       6.478  12.319  -5.502  1.00  0.00     0.029 A 
ATOM     54  N   UNL     1       6.454  11.443  -3.457  1.00  0.00    -0.354 N 
ATOM     55  N   UNL     1       7.645  10.600  -0.916  1.00  0.00    -0.248 NA
ATOM     56  C   UNL     1       9.521  10.242   0.428  1.00  0.00     0.031 C 
ATOM     57  C   UNL     1       7.793  12.273  -5.025  1.00  0.00     0.029 A 
ATOM     58  C   UNL     1       7.775  11.745  -3.744  1.00  0.00     0.049 A 
ATOM     59  H   UNL     1       6.135  11.048  -2.614  1.00  0.00     0.167 HD
ATOM     60  C   UNL     1       8.781  11.016  -1.599  1.00  0.00     0.074 A 
ATOM     61  C   UNL     1       9.905  10.799  -0.712  1.00  0.00     0.031 C 
ATOM     62  C   UNL     1       8.883  11.531  -2.848  1.00  0.00     0.037 A 
BRANCH  49  63
ATOM     63  C   UNL     1       3.500  11.937  -5.849  1.00  0.00     0.057 A 
ATOM     64  C   UNL     1       2.659  13.056  -5.931  1.00  0.00     0.134 A 
ATOM     65  C   UNL     1       3.673  11.173  -7.010  1.00  0.00     0.134 A 
ATOM     66  F   UNL     1       2.442  13.822  -4.852  1.00  0.00    -0.206 F 
ATOM     67  C   UNL     1       1.998  13.386  -7.115  1.00  0.00     0.040 A 
ATOM     68  C   UNL     1       3.037  11.509  -8.207  1.00  0.00     0.040 A 
ATOM     69  F   UNL     1       4.469  10.094  -7.003  1.00  0.00    -0.206 F 
ATOM     70  C   UNL     1       2.192  12.616  -8.259  1.00  0.00     0.006 A 
ENDBRANCH  49  63
BRANCH  50  71
ATOM     71  C   UNL     1       7.940   9.202   2.654  1.00  0.00     0.057 A 
ATOM     72  C   UNL     1       8.527  10.137   3.514  1.00  0.00     0.134 A 
ATOM     73  C   UNL     1       8.020   7.852   3.015  1.00  0.00     0.134 A 
ATOM     74  F   UNL     1       8.498  11.443   3.211  1.00  0.00    -0.206 F 
ATOM     75  C   UNL     1       9.186   9.745   4.680  1.00  0.00     0.040 A 
ATOM     76  C   UNL     1       8.655   7.448   4.190  1.00  0.00     0.040 A 
ATOM     77  F   UNL     1       7.471   6.909   2.236  1.00  0.00    -0.206 F 
ATOM     78  C   UNL     1       9.247   8.396   5.023  1.00  0.00     0.006 A 
ENDBRANCH  50  71
BRANCH  62  79
ATOM     79  C   UNL     1      10.251  11.926  -3.317  1.00  0.00     0.057 A 
ATOM     80  C   UNL     1      11.214  10.974  -3.673  1.00  0.00     0.134 A 
ATOM     81  C   UNL     1      10.596  13.277  -3.449  1.00  0.00     0.134 A 
ATOM     82  F   UNL     1      10.950   9.664  -3.557  1.00  0.00    -0.206 F 
ATOM     83  C   UNL     1      12.479  11.352  -4.125  1.00  0.00     0.040 A 
ATOM     84  C   UNL     1      11.849  13.667  -3.923  1.00  0.00     0.040 A 
ATOM     85  F   UNL     1       9.716  14.239  -3.132  1.00  0.00    -0.206 F 
ATOM     86  C   UNL     1      12.797  12.703  -4.258  1.00  0.00     0.006 A 
ENDBRANCH  62  79
ENDBRANCH  36  37
ENDBRANCH  28  31
ENDBRANCH  26  27
ENDBRANCH  25  26
ENDBRANCH  24  25
ENDBRANCH   1  24
TORSDOF 16
