REMARK SMILES Cc1cc2c(c(C)c1Br)C=C(C(=O)NCCCCCCNC(=O)c1ccc(-c3c4nc(c(-c5c(F)cccc5F)c5ccc([nH]5)c(-c5c(F)cccc5F)c5nc(c(-c6c(F)cccc6F)c6ccc3[nH]6)C=C5)C=C4)cc1)[C@@H](C(F)(F)F)O2
REMARK SMILES IDX 18 1 17 2 16 3 15 4 14 5 12 6 13 7 11 9 1 10 2 11 3 12 8 13
REMARK SMILES IDX 4 14 6 15 9 16 5 17 83 18 7 19 10 20 78 21 79 22 80 23 81 24
REMARK SMILES IDX 82 25 19 26 20 27 21 28 22 29 23 31 24 32 25 33 77 34 26 35
REMARK SMILES IDX 76 36 27 37 28 38 29 39 70 40 30 41 75 42 69 43 71 44 31 45
REMARK SMILES IDX 74 46 68 47 67 48 32 50 58 51 41 52 57 53 42 54 45 55 56 56
REMARK SMILES IDX 72 57 43 58 44 59 55 61 73 62 46 63 33 64 34 65 39 66 35 67
REMARK SMILES IDX 36 68 38 69 40 70 37 71 59 72 60 73 65 74 61 75 62 76 64 77
REMARK SMILES IDX 66 78 63 79 47 80 48 81 53 82 49 83 50 84 52 85 54 86 51 87
REMARK H PARENT 14 8 21 30 71 49 45 60
REMARK Flexibility Score: inf
ROOT
ATOM      1  C   UNL     1      -5.887   7.634   6.159  1.00  0.00     0.002 C 
ENDROOT
BRANCH   1   2
ATOM      2  C   UNL     1      -4.388   7.512   6.466  1.00  0.00     0.002 C 
BRANCH   2   3
ATOM      3  C   UNL     1      -3.722   6.239   5.940  1.00  0.00     0.021 C 
BRANCH   3   4
ATOM      4  C   UNL     1      -3.901   6.035   4.440  1.00  0.00     0.116 C 
BRANCH   4   5
ATOM      5  N   UNL     1      -2.922   6.783   3.675  1.00  0.00    -0.352 N 
ATOM      6  C   UNL     1      -1.953   6.513   2.771  1.00  0.00     0.251 C 
ATOM      7  O   UNL     1      -1.345   7.498   2.341  1.00  0.00    -0.270 OA
ATOM      8  H   UNL     1      -2.977   7.748   3.866  1.00  0.00     0.163 HD
BRANCH   6   9
ATOM      9  C   UNL     1      -1.588   5.148   2.283  1.00  0.00     0.067 C 
ATOM     10  C   UNL     1       1.142  -0.212  -0.205  1.00  0.00     0.046 C 
ATOM     11  C   UNL     1       0.775   1.196   0.182  1.00  0.00    -0.033 A 
ATOM     12  C   UNL     1      -0.288   1.366   1.070  1.00  0.00     0.051 A 
ATOM     13  C   UNL     1       1.429   2.340  -0.324  1.00  0.00     0.024 A 
ATOM     14  C   UNL     1      -0.686   2.637   1.464  1.00  0.00     0.128 A 
ATOM     15  C   UNL     1       1.042   3.644   0.083  1.00  0.00    -0.026 A 
ATOM     16  Br  UNL     1       2.853   2.084  -1.578  1.00  0.00    -0.050 Br
ATOM     17  C   UNL     1      -0.029   3.780   1.002  1.00  0.00     0.021 A 
ATOM     18  O   UNL     1      -1.719   2.659   2.352  1.00  0.00    -0.475 OA
ATOM     19  C   UNL     1       1.732   4.890  -0.423  1.00  0.00     0.046 C 
ATOM     20  C   UNL     1      -0.468   5.072   1.540  1.00  0.00     0.026 C 
ATOM     21  C   UNL     1      -2.400   3.919   2.549  1.00  0.00     0.314 C 
BRANCH  21  22
ATOM     22  C   UNL     1      -3.731   3.899   1.777  1.00  0.00     0.429 C 
ATOM     23  F   UNL     1      -4.583   2.997   2.327  1.00  0.00    -0.167 F 
ATOM     24  F   UNL     1      -4.373   5.091   1.807  1.00  0.00    -0.167 F 
ATOM     25  F   UNL     1      -3.573   3.569   0.476  1.00  0.00    -0.167 F 
ENDBRANCH  21  22
ENDBRANCH   6   9
ENDBRANCH   4   5
ENDBRANCH   3   4
ENDBRANCH   2   3
ENDBRANCH   1   2
BRANCH   1  26
ATOM     26  C   UNL     1      -6.726   6.404   6.514  1.00  0.00     0.021 C 
BRANCH  26  27
ATOM     27  C   UNL     1      -6.625   5.980   7.974  1.00  0.00     0.116 C 
BRANCH  27  28
ATOM     28  N   UNL     1      -7.079   7.029   8.871  1.00  0.00    -0.352 N 
ATOM     29  C   UNL     1      -8.130   7.021   9.750  1.00  0.00     0.251 C 
ATOM     30  H   UNL     1      -6.558   7.864   8.843  1.00  0.00     0.163 HD
ATOM     31  O   UNL     1      -8.520   8.066  10.264  1.00  0.00    -0.269 OA
BRANCH  29  32
ATOM     32  C   UNL     1      -8.799   5.746  10.067  1.00  0.00     0.039 A 
ATOM     33  C   UNL     1     -10.194   5.696  10.075  1.00  0.00     0.014 A 
ATOM     34  C   UNL     1      -8.046   4.605  10.364  1.00  0.00     0.014 A 
ATOM     35  C   UNL     1     -10.836   4.487  10.338  1.00  0.00     0.010 A 
ATOM     36  C   UNL     1      -8.686   3.385  10.549  1.00  0.00     0.010 A 
ATOM     37  C   UNL     1     -10.086   3.318  10.555  1.00  0.00    -0.014 A 
BRANCH  37  38
ATOM     38  C   UNL     1     -10.757   2.026  10.831  1.00  0.00     0.031 A 
ATOM     39  C   UNL     1     -10.600   1.376  12.177  1.00  0.00     0.074 A 
ATOM     40  C   UNL     1     -11.485   1.431   9.868  1.00  0.00     0.049 A 
ATOM     41  N   UNL     1     -11.088   0.241  12.607  1.00  0.00    -0.248 NA
ATOM     42  C   UNL     1      -9.767   2.083  13.164  1.00  0.00     0.031 C 
ATOM     43  C   UNL     1     -11.684   1.953   8.515  1.00  0.00     0.029 A 
ATOM     44  N   UNL     1     -12.197   0.258   9.880  1.00  0.00    -0.354 N 
ATOM     45  C   UNL     1     -10.626   0.102  13.909  1.00  0.00     0.074 A 
ATOM     46  C   UNL     1      -9.762   1.230  14.177  1.00  0.00     0.031 C 
ATOM     47  C   UNL     1     -12.497   1.124   7.840  1.00  0.00     0.029 A 
ATOM     48  C   UNL     1     -12.845  -0.005   8.698  1.00  0.00     0.049 A 
ATOM     49  H   UNL     1     -12.240  -0.338  10.663  1.00  0.00     0.167 HD
ATOM     50  C   UNL     1     -10.923  -0.860  14.812  1.00  0.00     0.037 A 
ATOM     51  C   UNL     1     -13.632  -1.040   8.348  1.00  0.00     0.037 A 
ATOM     52  C   UNL     1     -11.800  -1.969  14.547  1.00  0.00     0.049 A 
ATOM     53  C   UNL     1     -13.911  -2.122   9.355  1.00  0.00     0.074 A 
ATOM     54  C   UNL     1     -12.199  -2.974  15.409  1.00  0.00     0.029 A 
ATOM     55  N   UNL     1     -12.414  -2.216  13.328  1.00  0.00    -0.354 N 
ATOM     56  N   UNL     1     -13.514  -2.211  10.602  1.00  0.00    -0.248 NA
ATOM     57  C   UNL     1     -14.744  -3.247   8.909  1.00  0.00     0.031 C 
ATOM     58  C   UNL     1     -13.014  -3.859  14.698  1.00  0.00     0.029 A 
ATOM     59  C   UNL     1     -13.164  -3.377  13.407  1.00  0.00     0.049 A 
ATOM     60  H   UNL     1     -12.328  -1.651  12.527  1.00  0.00     0.167 HD
ATOM     61  C   UNL     1     -14.062  -3.389  11.094  1.00  0.00     0.074 A 
ATOM     62  C   UNL     1     -14.837  -3.970  10.017  1.00  0.00     0.031 C 
ATOM     63  C   UNL     1     -13.930  -3.942  12.324  1.00  0.00     0.037 A 
BRANCH  50  64
ATOM     64  C   UNL     1     -10.312  -0.747  16.177  1.00  0.00     0.057 A 
ATOM     65  C   UNL     1     -10.714   0.245  17.082  1.00  0.00     0.134 A 
ATOM     66  C   UNL     1      -9.354  -1.670  16.615  1.00  0.00     0.134 A 
ATOM     67  F   UNL     1     -11.618   1.168  16.721  1.00  0.00    -0.206 F 
ATOM     68  C   UNL     1     -10.172   0.325  18.366  1.00  0.00     0.040 A 
ATOM     69  C   UNL     1      -8.826  -1.617  17.906  1.00  0.00     0.040 A 
ATOM     70  F   UNL     1      -8.927  -2.648  15.801  1.00  0.00    -0.206 F 
ATOM     71  C   UNL     1      -9.232  -0.614  18.784  1.00  0.00     0.006 A 
ENDBRANCH  50  64
BRANCH  51  72
ATOM     72  C   UNL     1     -14.238  -1.085   6.993  1.00  0.00     0.057 A 
ATOM     73  C   UNL     1     -15.615  -0.915   6.814  1.00  0.00     0.134 A 
ATOM     74  C   UNL     1     -13.459  -1.283   5.846  1.00  0.00     0.134 A 
ATOM     75  F   UNL     1     -16.416  -0.740   7.875  1.00  0.00    -0.206 F 
ATOM     76  C   UNL     1     -16.200  -0.950   5.547  1.00  0.00     0.040 A 
ATOM     77  C   UNL     1     -14.026  -1.295   4.570  1.00  0.00     0.040 A 
ATOM     78  F   UNL     1     -12.132  -1.447   5.947  1.00  0.00    -0.206 F 
ATOM     79  C   UNL     1     -15.402  -1.134   4.419  1.00  0.00     0.006 A 
ENDBRANCH  51  72
BRANCH  63  80
ATOM     80  C   UNL     1     -14.636  -5.240  12.582  1.00  0.00     0.057 A 
ATOM     81  C   UNL     1     -14.183  -6.443  12.026  1.00  0.00     0.134 A 
ATOM     82  C   UNL     1     -15.723  -5.302  13.463  1.00  0.00     0.134 A 
ATOM     83  F   UNL     1     -13.153  -6.449  11.167  1.00  0.00    -0.206 F 
ATOM     84  C   UNL     1     -14.793  -7.661  12.329  1.00  0.00     0.040 A 
ATOM     85  C   UNL     1     -16.323  -6.517  13.796  1.00  0.00     0.040 A 
ATOM     86  F   UNL     1     -16.198  -4.188  14.040  1.00  0.00    -0.206 F 
ATOM     87  C   UNL     1     -15.859  -7.701  13.226  1.00  0.00     0.006 A 
ENDBRANCH  63  80
ENDBRANCH  37  38
ENDBRANCH  29  32
ENDBRANCH  27  28
ENDBRANCH  26  27
ENDBRANCH   1  26
TORSDOF 14
