REMARK SMILES CC(C)(C)OC(=O)N1C[C@H](Cc2ccccc2)[C@H](C(=O)NCCCCCCNC(=O)c2ccc(-c3c4nc(c(-c5c(F)cccc5F)c5ccc([nH]5)c(-c5c(F)cccc5F)c5nc(c(-c6c(F)cccc6F)c6ccc3[nH]6)C=C5)C=C4)cc2)C1
REMARK SMILES IDX 24 1 23 2 22 3 21 4 19 5 20 6 18 8 8 9 9 10 85 11 10 12 6 13
REMARK SMILES IDX 7 14 5 15 2 16 1 17 3 18 4 19 11 20 12 21 13 22 17 23 14 24
REMARK SMILES IDX 16 25 15 26 25 27 26 28 27 29 28 30 29 31 30 33 31 34 32 35
REMARK SMILES IDX 84 36 33 37 83 38 34 39 35 40 36 41 77 42 37 43 82 44 76 45
REMARK SMILES IDX 78 46 38 47 81 48 75 49 74 50 39 52 65 53 48 54 64 55 49 56
REMARK SMILES IDX 52 57 63 58 79 59 50 60 51 61 62 63 80 64 53 65 40 66 41 67
REMARK SMILES IDX 46 68 42 69 43 70 45 71 47 72 44 73 66 74 67 75 72 76 68 77
REMARK SMILES IDX 69 78 71 79 73 80 70 81 54 82 55 83 60 84 56 85 57 86 59 87
REMARK SMILES IDX 61 88 58 89
REMARK H PARENT 21 7 28 32 78 51 52 62
REMARK Flexibility Score: inf
ROOT
ATOM      1  C   UNL     1      -1.168  -3.417  -6.900  1.00  0.00     0.002 C 
ENDROOT
BRANCH   1   2
ATOM      2  C   UNL     1      -0.294  -3.472  -5.649  1.00  0.00     0.021 C 
BRANCH   2   3
ATOM      3  C   UNL     1      -0.748  -4.485  -4.587  1.00  0.00     0.116 C 
BRANCH   3   4
ATOM      4  N   UNL     1      -0.212  -5.807  -4.872  1.00  0.00    -0.356 N 
ATOM      5  C   UNL     1       0.731  -6.585  -4.282  1.00  0.00     0.225 C 
ATOM      6  O   UNL     1       1.007  -7.638  -4.870  1.00  0.00    -0.275 OA
ATOM      7  H   UNL     1      -0.621  -6.228  -5.663  1.00  0.00     0.163 HD
BRANCH   5   8
ATOM      8  C   UNL     1       1.460  -6.256  -2.979  1.00  0.00     0.103 C 
ATOM      9  N   UNL     1       1.106  -4.717  -1.240  1.00  0.00    -0.307 N 
ATOM     10  C   UNL     1       2.508  -4.593  -1.577  1.00  0.00     0.128 C 
ATOM     11  C   UNL     1       0.531  -5.909  -1.817  1.00  0.00     0.137 C 
ATOM     12  C   UNL     1       2.605  -5.191  -2.980  1.00  0.00     0.027 C 
BRANCH   9  13
ATOM     13  C   UNL     1       0.377  -3.874  -0.441  1.00  0.00     0.410 C 
ATOM     14  O   UNL     1      -0.704  -4.181   0.034  1.00  0.00    -0.224 OA
BRANCH  13  15
ATOM     15  O   UNL     1       0.976  -2.665  -0.322  1.00  0.00    -0.444 OA
BRANCH  15  16
ATOM     16  C   UNL     1       0.426  -1.609   0.508  1.00  0.00     0.106 C 
ATOM     17  C   UNL     1       1.084  -0.319  -0.007  1.00  0.00     0.056 C 
ATOM     18  C   UNL     1       0.862  -1.867   1.950  1.00  0.00     0.056 C 
ATOM     19  C   UNL     1      -1.095  -1.433   0.400  1.00  0.00     0.056 C 
ENDBRANCH  15  16
ENDBRANCH  13  15
ENDBRANCH   9  13
BRANCH  12  20
ATOM     20  C   UNL     1       2.456  -4.113  -4.048  1.00  0.00     0.041 C 
BRANCH  20  21
ATOM     21  C   UNL     1       3.436  -2.970  -4.096  1.00  0.00    -0.048 A 
ATOM     22  C   UNL     1       2.993  -1.673  -3.779  1.00  0.00     0.004 A 
ATOM     23  C   UNL     1       4.739  -3.148  -4.564  1.00  0.00     0.004 A 
ATOM     24  C   UNL     1       3.828  -0.573  -3.951  1.00  0.00     0.000 A 
ATOM     25  C   UNL     1       5.576  -2.042  -4.735  1.00  0.00     0.000 A 
ATOM     26  C   UNL     1       5.119  -0.758  -4.437  1.00  0.00     0.000 A 
ENDBRANCH  20  21
ENDBRANCH  12  20
ENDBRANCH   5   8
ENDBRANCH   3   4
ENDBRANCH   2   3
ENDBRANCH   1   2
BRANCH   1  27
ATOM     27  C   UNL     1      -2.585  -2.897  -6.661  1.00  0.00     0.002 C 
BRANCH  27  28
ATOM     28  C   UNL     1      -2.666  -1.550  -5.937  1.00  0.00     0.021 C 
BRANCH  28  29
ATOM     29  C   UNL     1      -1.878  -0.423  -6.600  1.00  0.00     0.116 C 
BRANCH  29  30
ATOM     30  N   UNL     1      -2.351  -0.161  -7.949  1.00  0.00    -0.352 N 
ATOM     31  C   UNL     1      -2.962   0.957  -8.456  1.00  0.00     0.251 C 
ATOM     32  H   UNL     1      -2.213  -0.893  -8.594  1.00  0.00     0.163 HD
ATOM     33  O   UNL     1      -3.538   0.910  -9.538  1.00  0.00    -0.269 OA
BRANCH  31  34
ATOM     34  C   UNL     1      -2.932   2.221  -7.691  1.00  0.00     0.039 A 
ATOM     35  C   UNL     1      -4.095   2.989  -7.609  1.00  0.00     0.014 A 
ATOM     36  C   UNL     1      -1.753   2.660  -7.082  1.00  0.00     0.014 A 
ATOM     37  C   UNL     1      -4.088   4.175  -6.875  1.00  0.00     0.010 A 
ATOM     38  C   UNL     1      -1.769   3.801  -6.285  1.00  0.00     0.010 A 
ATOM     39  C   UNL     1      -2.933   4.576  -6.182  1.00  0.00    -0.014 A 
BRANCH  39  40
ATOM     40  C   UNL     1      -2.934   5.806  -5.350  1.00  0.00     0.031 A 
ATOM     41  C   UNL     1      -2.042   6.965  -5.703  1.00  0.00     0.074 A 
ATOM     42  C   UNL     1      -3.711   5.861  -4.250  1.00  0.00     0.049 A 
ATOM     43  N   UNL     1      -1.887   8.106  -5.082  1.00  0.00    -0.248 NA
ATOM     44  C   UNL     1      -1.194   6.814  -6.897  1.00  0.00     0.031 C 
ATOM     45  C   UNL     1      -4.582   4.784  -3.775  1.00  0.00     0.029 A 
ATOM     46  N   UNL     1      -3.890   6.862  -3.328  1.00  0.00    -0.354 N 
ATOM     47  C   UNL     1      -0.922   8.801  -5.801  1.00  0.00     0.074 A 
ATOM     48  C   UNL     1      -0.487   7.934  -6.872  1.00  0.00     0.031 C 
ATOM     49  C   UNL     1      -5.222   5.191  -2.667  1.00  0.00     0.029 A 
ATOM     50  C   UNL     1      -4.777   6.539  -2.329  1.00  0.00     0.049 A 
ATOM     51  H   UNL     1      -3.428   7.730  -3.378  1.00  0.00     0.167 HD
ATOM     52  C   UNL     1      -0.459  10.058  -5.599  1.00  0.00     0.037 A 
ATOM     53  C   UNL     1      -5.179   7.246  -1.256  1.00  0.00     0.037 A 
ATOM     54  C   UNL     1      -0.912  10.925  -4.543  1.00  0.00     0.049 A 
ATOM     55  C   UNL     1      -4.639   8.636  -1.051  1.00  0.00     0.074 A 
ATOM     56  C   UNL     1      -0.551  12.238  -4.295  1.00  0.00     0.029 A 
ATOM     57  N   UNL     1      -1.819  10.566  -3.558  1.00  0.00    -0.354 N 
ATOM     58  N   UNL     1      -3.788   9.309  -1.786  1.00  0.00    -0.248 NA
ATOM     59  C   UNL     1      -5.122   9.367   0.129  1.00  0.00     0.031 C 
ATOM     60  C   UNL     1      -1.192  12.653  -3.124  1.00  0.00     0.029 A 
ATOM     61  C   UNL     1      -2.005  11.623  -2.681  1.00  0.00     0.049 A 
ATOM     62  H   UNL     1      -2.265   9.691  -3.491  1.00  0.00     0.167 HD
ATOM     63  C   UNL     1      -3.658  10.551  -1.177  1.00  0.00     0.074 A 
ATOM     64  C   UNL     1      -4.531  10.543  -0.022  1.00  0.00     0.031 C 
ATOM     65  C   UNL     1      -2.884  11.603  -1.540  1.00  0.00     0.037 A 
BRANCH  52  66
ATOM     66  C   UNL     1       0.594  10.575  -6.537  1.00  0.00     0.057 A 
ATOM     67  C   UNL     1       0.310  10.880  -7.875  1.00  0.00     0.134 A 
ATOM     68  C   UNL     1       1.893  10.831  -6.079  1.00  0.00     0.134 A 
ATOM     69  F   UNL     1      -0.911  10.650  -8.381  1.00  0.00    -0.206 F 
ATOM     70  C   UNL     1       1.285  11.400  -8.728  1.00  0.00     0.040 A 
ATOM     71  C   UNL     1       2.868  11.378  -6.915  1.00  0.00     0.040 A 
ATOM     72  F   UNL     1       2.232  10.569  -4.808  1.00  0.00    -0.206 F 
ATOM     73  C   UNL     1       2.566  11.660  -8.245  1.00  0.00     0.006 A 
ENDBRANCH  52  66
BRANCH  53  74
ATOM     74  C   UNL     1      -6.147   6.660  -0.293  1.00  0.00     0.057 A 
ATOM     75  C   UNL     1      -7.438   7.182  -0.150  1.00  0.00     0.134 A 
ATOM     76  C   UNL     1      -5.795   5.581   0.528  1.00  0.00     0.134 A 
ATOM     77  F   UNL     1      -7.830   8.226  -0.894  1.00  0.00    -0.206 F 
ATOM     78  C   UNL     1      -8.333   6.674   0.794  1.00  0.00     0.040 A 
ATOM     79  C   UNL     1      -6.691   5.043   1.454  1.00  0.00     0.040 A 
ATOM     80  F   UNL     1      -4.577   5.027   0.435  1.00  0.00    -0.206 F 
ATOM     81  C   UNL     1      -7.960   5.598   1.597  1.00  0.00     0.006 A 
ENDBRANCH  53  74
BRANCH  65  82
ATOM     82  C   UNL     1      -2.978  12.849  -0.706  1.00  0.00     0.057 A 
ATOM     83  C   UNL     1      -2.466  12.912   0.596  1.00  0.00     0.134 A 
ATOM     84  C   UNL     1      -3.555  14.013  -1.230  1.00  0.00     0.134 A 
ATOM     85  F   UNL     1      -1.911  11.830   1.163  1.00  0.00    -0.206 F 
ATOM     86  C   UNL     1      -2.549  14.081   1.356  1.00  0.00     0.040 A 
ATOM     87  C   UNL     1      -3.614  15.196  -0.492  1.00  0.00     0.040 A 
ATOM     88  F   UNL     1      -4.055  14.025  -2.475  1.00  0.00    -0.206 F 
ATOM     89  C   UNL     1      -3.117  15.229   0.808  1.00  0.00     0.006 A 
ENDBRANCH  65  82
ENDBRANCH  39  40
ENDBRANCH  31  34
ENDBRANCH  29  30
ENDBRANCH  28  29
ENDBRANCH  27  28
ENDBRANCH   1  27
TORSDOF 18
