REMARK SMILES Cc1n[nH]c(CN(C)C(=O)N[C@](C)(C(=O)NCCCCCCNC(=O)c2ccc(-c3c4nc(c(-c5c(F)cccc5F)c5ccc([nH]5)c(-c5c(F)cccc5F)c5nc(c(-c6c(F)cccc6F)c6ccc3[nH]6)C=C5)C=C4)cc2)C(F)(F)F)n1
REMARK SMILES IDX 18 1 17 2 16 3 14 4 15 5 12 7 13 8 11 9 9 10 10 11 7 13 8 14
REMARK SMILES IDX 6 15 5 16 1 17 2 18 3 19 84 20 4 21 80 23 81 24 82 25 83 26
REMARK SMILES IDX 19 27 20 28 21 29 22 30 23 31 24 32 25 34 26 35 27 36 79 37
REMARK SMILES IDX 28 38 78 39 29 40 30 41 31 42 72 43 32 44 77 45 71 46 73 47
REMARK SMILES IDX 33 48 76 49 70 50 69 51 34 53 60 54 43 55 59 56 44 57 47 58
REMARK SMILES IDX 58 59 74 60 45 61 46 62 57 64 75 65 48 66 35 67 36 68 41 69
REMARK SMILES IDX 37 70 38 71 40 72 42 73 39 74 61 75 62 76 67 77 63 78 64 79
REMARK SMILES IDX 66 80 68 81 65 82 49 83 50 84 55 85 51 86 52 87 54 88 56 89
REMARK SMILES IDX 53 90
REMARK H PARENT 16 6 11 12 4 22 23 33 73 52 47 63
REMARK Flexibility Score: inf
ROOT
ATOM      1  C   UNL     1      -2.323   3.158   6.723  1.00  0.00     0.021 C 
ENDROOT
BRANCH   1   2
ATOM      2  C   UNL     1      -1.260   4.267   6.621  1.00  0.00     0.116 C 
BRANCH   2   3
ATOM      3  N   UNL     1      -0.122   3.991   5.725  1.00  0.00    -0.354 N 
ATOM      4  C   UNL     1       0.885   4.826   5.282  1.00  0.00     0.255 C 
ATOM      5  O   UNL     1       1.952   4.607   5.876  1.00  0.00    -0.272 OA
ATOM      6  H   UNL     1      -0.073   3.066   5.390  1.00  0.00     0.163 HD
BRANCH   4   7
ATOM      7  C   UNL     1       0.831   5.899   4.093  1.00  0.00     0.213 C 
ATOM      8  C   UNL     1       0.029   5.525   2.822  1.00  0.00     0.056 C 
BRANCH   7   9
ATOM      9  N   UNL     1       0.587   7.335   4.458  1.00  0.00    -0.316 N 
ATOM     10  C   UNL     1      -0.386   7.974   5.132  1.00  0.00     0.318 C 
ATOM     11  O   UNL     1      -0.323   9.189   5.298  1.00  0.00    -0.249 OA
ATOM     12  H   UNL     1       1.292   7.941   4.133  1.00  0.00     0.166 HD
BRANCH  10  13
ATOM     13  N   UNL     1      -1.391   7.222   5.655  1.00  0.00    -0.320 N 
ATOM     14  C   UNL     1      -2.369   6.673   4.716  1.00  0.00     0.149 C 
BRANCH  13  15
ATOM     15  C   UNL     1      -1.906   7.611   6.963  1.00  0.00     0.197 C 
BRANCH  15  16
ATOM     16  C   UNL     1      -0.892   7.853   8.040  1.00  0.00     0.144 A 
ATOM     17  C   UNL     1       1.698   7.420  10.451  1.00  0.00     0.092 C 
ATOM     18  C   UNL     1       0.557   7.822   9.595  1.00  0.00     0.147 A 
ATOM     19  N   UNL     1      -0.207   8.870   9.918  1.00  0.00    -0.159 NA
ATOM     20  N   UNL     1       0.146   7.147   8.459  1.00  0.00    -0.215 NA
ATOM     21  N   UNL     1      -1.078   8.893   8.906  1.00  0.00    -0.262 N 
ATOM     22  H   UNL     1      -1.775   9.580   8.797  1.00  0.00     0.192 HD
ENDBRANCH  15  16
ENDBRANCH  13  15
ENDBRANCH  10  13
ENDBRANCH   7   9
BRANCH   7  23
ATOM     23  C   UNL     1       2.328   5.844   3.578  1.00  0.00     0.420 C 
ATOM     24  F   UNL     1       2.662   4.628   3.088  1.00  0.00    -0.168 F 
ATOM     25  F   UNL     1       2.488   6.727   2.545  1.00  0.00    -0.168 F 
ATOM     26  F   UNL     1       3.247   6.217   4.492  1.00  0.00    -0.168 F 
ENDBRANCH   7  23
ENDBRANCH   4   7
ENDBRANCH   2   3
ENDBRANCH   1   2
BRANCH   1  27
ATOM     27  C   UNL     1      -2.642   2.622   8.131  1.00  0.00     0.002 C 
BRANCH  27  28
ATOM     28  C   UNL     1      -2.783   3.606   9.305  1.00  0.00     0.002 C 
BRANCH  28  29
ATOM     29  C   UNL     1      -3.813   4.737   9.210  1.00  0.00     0.021 C 
BRANCH  29  30
ATOM     30  C   UNL     1      -5.268   4.305   9.143  1.00  0.00     0.116 C 
BRANCH  30  31
ATOM     31  N   UNL     1      -5.673   3.472  10.272  1.00  0.00    -0.352 N 
ATOM     32  C   UNL     1      -6.855   2.778  10.467  1.00  0.00     0.251 C 
ATOM     33  H   UNL     1      -5.013   3.393  10.998  1.00  0.00     0.163 HD
ATOM     34  O   UNL     1      -7.198   2.420  11.579  1.00  0.00    -0.269 OA
BRANCH  32  35
ATOM     35  C   UNL     1      -7.694   2.470   9.295  1.00  0.00     0.039 A 
ATOM     36  C   UNL     1      -9.089   2.486   9.369  1.00  0.00     0.014 A 
ATOM     37  C   UNL     1      -7.050   2.168   8.099  1.00  0.00     0.014 A 
ATOM     38  C   UNL     1      -9.818   2.251   8.208  1.00  0.00     0.010 A 
ATOM     39  C   UNL     1      -7.753   2.153   6.929  1.00  0.00     0.010 A 
ATOM     40  C   UNL     1      -9.135   2.099   6.989  1.00  0.00    -0.014 A 
BRANCH  40  41
ATOM     41  C   UNL     1      -9.847   1.984   5.729  1.00  0.00     0.031 A 
ATOM     42  C   UNL     1     -10.762   3.121   5.471  1.00  0.00     0.074 A 
ATOM     43  C   UNL     1      -9.550   1.048   4.801  1.00  0.00     0.049 A 
ATOM     44  N   UNL     1     -12.049   3.106   5.533  1.00  0.00    -0.248 NA
ATOM     45  C   UNL     1     -10.188   4.470   5.320  1.00  0.00     0.031 C 
ATOM     46  C   UNL     1      -8.457   0.068   4.799  1.00  0.00     0.029 A 
ATOM     47  N   UNL     1     -10.134   0.834   3.592  1.00  0.00    -0.354 N 
ATOM     48  C   UNL     1     -12.460   4.388   5.191  1.00  0.00     0.074 A 
ATOM     49  C   UNL     1     -11.291   5.223   5.286  1.00  0.00     0.031 C 
ATOM     50  C   UNL     1      -8.321  -0.465   3.563  1.00  0.00     0.029 A 
ATOM     51  C   UNL     1      -9.417  -0.000   2.736  1.00  0.00     0.049 A 
ATOM     52  H   UNL     1     -10.997   1.237   3.340  1.00  0.00     0.167 HD
ATOM     53  C   UNL     1     -13.666   4.589   4.596  1.00  0.00     0.037 A 
ATOM     54  C   UNL     1      -9.711  -0.254   1.435  1.00  0.00     0.037 A 
ATOM     55  C   UNL     1     -14.497   3.414   4.714  1.00  0.00     0.049 A 
ATOM     56  C   UNL     1     -11.138   0.107   1.233  1.00  0.00     0.074 A 
ATOM     57  C   UNL     1     -15.011   2.692   5.773  1.00  0.00     0.029 A 
ATOM     58  N   UNL     1     -14.559   2.580   3.623  1.00  0.00    -0.354 N 
ATOM     59  N   UNL     1     -12.129  -0.546   1.772  1.00  0.00    -0.248 NA
ATOM     60  C   UNL     1     -11.431   1.476   0.840  1.00  0.00     0.031 C 
ATOM     61  C   UNL     1     -14.900   1.326   5.375  1.00  0.00     0.029 A 
ATOM     62  C   UNL     1     -14.415   1.291   4.067  1.00  0.00     0.049 A 
ATOM     63  H   UNL     1     -14.684   2.860   2.688  1.00  0.00     0.167 HD
ATOM     64  C   UNL     1     -13.006   0.439   2.200  1.00  0.00     0.074 A 
ATOM     65  C   UNL     1     -12.559   1.661   1.531  1.00  0.00     0.031 C 
ATOM     66  C   UNL     1     -13.813   0.237   3.283  1.00  0.00     0.037 A 
BRANCH  53  67
ATOM     67  C   UNL     1     -13.943   5.657   3.569  1.00  0.00     0.057 A 
ATOM     68  C   UNL     1     -15.267   5.855   3.135  1.00  0.00     0.134 A 
ATOM     69  C   UNL     1     -12.955   6.283   2.782  1.00  0.00     0.134 A 
ATOM     70  F   UNL     1     -16.296   5.298   3.791  1.00  0.00    -0.206 F 
ATOM     71  C   UNL     1     -15.575   6.558   1.964  1.00  0.00     0.040 A 
ATOM     72  C   UNL     1     -13.256   7.030   1.641  1.00  0.00     0.040 A 
ATOM     73  F   UNL     1     -11.646   6.121   3.006  1.00  0.00    -0.206 F 
ATOM     74  C   UNL     1     -14.566   7.142   1.209  1.00  0.00     0.006 A 
ENDBRANCH  53  67
BRANCH  54  75
ATOM     75  C   UNL     1      -8.794  -0.459   0.288  1.00  0.00     0.057 A 
ATOM     76  C   UNL     1      -9.273  -0.943  -0.940  1.00  0.00     0.134 A 
ATOM     77  C   UNL     1      -7.506   0.103   0.266  1.00  0.00     0.134 A 
ATOM     78  F   UNL     1     -10.504  -1.467  -1.031  1.00  0.00    -0.206 F 
ATOM     79  C   UNL     1      -8.535  -0.834  -2.127  1.00  0.00     0.040 A 
ATOM     80  C   UNL     1      -6.757   0.214  -0.912  1.00  0.00     0.040 A 
ATOM     81  F   UNL     1      -6.971   0.651   1.366  1.00  0.00    -0.206 F 
ATOM     82  C   UNL     1      -7.279  -0.238  -2.118  1.00  0.00     0.006 A 
ENDBRANCH  54  75
BRANCH  66  83
ATOM     83  C   UNL     1     -13.926  -1.164   3.825  1.00  0.00     0.057 A 
ATOM     84  C   UNL     1     -12.860  -1.905   4.361  1.00  0.00     0.134 A 
ATOM     85  C   UNL     1     -15.200  -1.733   3.927  1.00  0.00     0.134 A 
ATOM     86  F   UNL     1     -11.617  -1.409   4.401  1.00  0.00    -0.206 F 
ATOM     87  C   UNL     1     -13.052  -3.171   4.927  1.00  0.00     0.040 A 
ATOM     88  C   UNL     1     -15.410  -2.978   4.521  1.00  0.00     0.040 A 
ATOM     89  F   UNL     1     -16.275  -1.061   3.485  1.00  0.00    -0.206 F 
ATOM     90  C   UNL     1     -14.333  -3.709   5.012  1.00  0.00     0.006 A 
ENDBRANCH  66  83
ENDBRANCH  40  41
ENDBRANCH  32  35
ENDBRANCH  30  31
ENDBRANCH  29  30
ENDBRANCH  28  29
ENDBRANCH  27  28
ENDBRANCH   1  27
TORSDOF 18
