REMARK SMILES CCOc1ccc(-c2cc(Cl)cc3c2O[C@H](C(F)(F)F)C(C(=O)NCCCCCCNC(=O)c2ccc(-c4c5nc(c(-c6c(F)cccc6F)c6ccc([nH]6)c(-c6c(F)cccc6F)c6nc(c(-c7c(F)cccc7F)c7ccc4[nH]7)C=C6)C=C5)cc2)=C3)cc1
REMARK SMILES IDX 27 1 26 2 25 3 24 4 22 5 23 6 21 8 8 9 9 10 14 11 10 12
REMARK SMILES IDX 13 13 15 14 11 15 12 16 88 17 16 18 7 19 4 20 5 21 90 22
REMARK SMILES IDX 6 23 89 24 3 25 2 26 1 27 17 28 18 29 19 30 20 31 28 32
REMARK SMILES IDX 29 33 30 34 31 35 32 36 33 38 34 39 35 40 87 41 36 42 86 43
REMARK SMILES IDX 37 44 38 45 39 46 80 47 40 48 85 49 79 50 81 51 41 52 84 53
REMARK SMILES IDX 78 54 77 55 42 57 68 58 51 59 67 60 52 61 55 62 66 63 82 64
REMARK SMILES IDX 53 65 54 66 65 68 83 69 56 70 43 71 44 72 49 73 45 74 46 75
REMARK SMILES IDX 48 76 50 77 47 78 69 79 70 80 75 81 71 82 72 83 74 84 76 85
REMARK SMILES IDX 73 86 57 87 58 88 63 89 59 90 60 91 62 92 64 93 61 94
REMARK H PARENT 24 7 31 37 81 56 55 67
REMARK Flexibility Score: inf
ROOT
ATOM      1  C   UNL     1      14.751   7.146   0.459  1.00  0.00     0.002 C 
ENDROOT
BRANCH   1   2
ATOM      2  C   UNL     1      13.682   7.173  -0.646  1.00  0.00     0.021 C 
BRANCH   2   3
ATOM      3  C   UNL     1      13.085   5.803  -0.998  1.00  0.00     0.116 C 
BRANCH   3   4
ATOM      4  N   UNL     1      12.454   5.227   0.172  1.00  0.00    -0.352 N 
ATOM      5  C   UNL     1      11.121   4.992   0.273  1.00  0.00     0.251 C 
ATOM      6  O   UNL     1      10.474   5.449   1.206  1.00  0.00    -0.270 OA
ATOM      7  H   UNL     1      13.026   4.991   0.938  1.00  0.00     0.163 HD
BRANCH   5   8
ATOM      8  C   UNL     1      10.552   4.032  -0.719  1.00  0.00     0.067 C 
ATOM      9  C   UNL     1       6.977   3.309   1.076  1.00  0.00     0.026 A 
ATOM     10  C   UNL     1       7.214   3.071   2.453  1.00  0.00     0.033 A 
ATOM     11  C   UNL     1       8.099   3.294   0.234  1.00  0.00     0.135 A 
ATOM     12  C   UNL     1       8.463   2.683   2.936  1.00  0.00     0.042 A 
ATOM     13  C   UNL     1       9.330   2.791   0.720  1.00  0.00     0.019 A 
ATOM     14  O   UNL     1       8.069   3.789  -1.062  1.00  0.00    -0.475 OA
ATOM     15  Cl  UNL     1       8.682   2.424   4.621  1.00  0.00    -0.084 Cl
ATOM     16  C   UNL     1       9.514   2.476   2.062  1.00  0.00     0.032 A 
ATOM     17  C   UNL     1      10.481   2.785  -0.210  1.00  0.00     0.025 C 
ATOM     18  C   UNL     1       9.300   4.541  -1.425  1.00  0.00     0.314 C 
BRANCH   9  19
ATOM     19  C   UNL     1       5.555   3.319   0.660  1.00  0.00    -0.014 A 
ATOM     20  C   UNL     1       2.818   2.621   0.559  1.00  0.00     0.119 A 
ATOM     21  C   UNL     1       3.230   3.709   1.323  1.00  0.00     0.047 A 
ATOM     22  C   UNL     1       3.736   1.967  -0.256  1.00  0.00     0.047 A 
ATOM     23  C   UNL     1       4.587   4.060   1.368  1.00  0.00     0.013 A 
ATOM     24  C   UNL     1       5.092   2.315  -0.208  1.00  0.00     0.013 A 
BRANCH  20  25
ATOM     25  O   UNL     1       1.495   2.280   0.582  1.00  0.00    -0.494 OA
BRANCH  25  26
ATOM     26  C   UNL     1       1.241   0.971   1.116  1.00  0.00     0.226 C 
ATOM     27  C   UNL     1       1.012  -0.041   0.004  1.00  0.00     0.049 C 
ENDBRANCH  25  26
ENDBRANCH  20  25
ENDBRANCH   9  19
BRANCH  18  28
ATOM     28  C   UNL     1       9.553   4.526  -2.947  1.00  0.00     0.429 C 
ATOM     29  F   UNL     1       8.882   3.538  -3.579  1.00  0.00    -0.167 F 
ATOM     30  F   UNL     1       9.191   5.701  -3.516  1.00  0.00    -0.167 F 
ATOM     31  F   UNL     1      10.869   4.353  -3.249  1.00  0.00    -0.167 F 
ENDBRANCH  18  28
ENDBRANCH   5   8
ENDBRANCH   3   4
ENDBRANCH   2   3
ENDBRANCH   1   2
BRANCH   1  32
ATOM     32  C   UNL     1      15.922   6.195   0.201  1.00  0.00     0.002 C 
BRANCH  32  33
ATOM     33  C   UNL     1      16.699   6.478  -1.084  1.00  0.00     0.021 C 
BRANCH  33  34
ATOM     34  C   UNL     1      17.255   7.892  -1.188  1.00  0.00     0.116 C 
BRANCH  34  35
ATOM     35  N   UNL     1      18.227   8.192  -0.147  1.00  0.00    -0.352 N 
ATOM     36  C   UNL     1      19.449   8.806  -0.274  1.00  0.00     0.251 C 
ATOM     37  H   UNL     1      17.976   7.920   0.765  1.00  0.00     0.163 HD
ATOM     38  O   UNL     1      20.226   8.869   0.674  1.00  0.00    -0.269 OA
BRANCH  36  39
ATOM     39  C   UNL     1      19.832   9.365  -1.585  1.00  0.00     0.039 A 
ATOM     40  C   UNL     1      21.056   8.999  -2.149  1.00  0.00     0.014 A 
ATOM     41  C   UNL     1      18.951  10.202  -2.276  1.00  0.00     0.014 A 
ATOM     42  C   UNL     1      21.367   9.414  -3.445  1.00  0.00     0.010 A 
ATOM     43  C   UNL     1      19.232  10.556  -3.591  1.00  0.00     0.010 A 
ATOM     44  C   UNL     1      20.439  10.161  -4.189  1.00  0.00    -0.014 A 
BRANCH  44  45
ATOM     45  C   UNL     1      20.698  10.541  -5.600  1.00  0.00     0.031 A 
ATOM     46  C   UNL     1      20.810  11.992  -5.972  1.00  0.00     0.074 A 
ATOM     47  C   UNL     1      20.737   9.592  -6.554  1.00  0.00     0.049 A 
ATOM     48  N   UNL     1      20.892  12.539  -7.158  1.00  0.00    -0.248 NA
ATOM     49  C   UNL     1      20.796  12.959  -4.862  1.00  0.00     0.031 C 
ATOM     50  C   UNL     1      20.603   8.152  -6.324  1.00  0.00     0.029 A 
ATOM     51  N   UNL     1      20.877   9.699  -7.915  1.00  0.00    -0.354 N 
ATOM     52  C   UNL     1      20.921  13.909  -6.938  1.00  0.00     0.074 A 
ATOM     53  C   UNL     1      20.798  14.113  -5.511  1.00  0.00     0.031 C 
ATOM     54  C   UNL     1      20.677   7.510  -7.502  1.00  0.00     0.029 A 
ATOM     55  C   UNL     1      20.819   8.493  -8.572  1.00  0.00     0.049 A 
ATOM     56  H   UNL     1      21.008  10.558  -8.378  1.00  0.00     0.167 HD
ATOM     57  C   UNL     1      21.059  14.907  -7.843  1.00  0.00     0.037 A 
ATOM     58  C   UNL     1      20.856   8.214  -9.889  1.00  0.00     0.037 A 
ATOM     59  C   UNL     1      21.205  14.699  -9.259  1.00  0.00     0.049 A 
ATOM     60  C   UNL     1      20.993   9.340 -10.876  1.00  0.00     0.074 A 
ATOM     61  C   UNL     1      21.402  15.641 -10.253  1.00  0.00     0.029 A 
ATOM     62  N   UNL     1      21.169  13.460  -9.882  1.00  0.00    -0.354 N 
ATOM     63  N   UNL     1      21.073  10.629 -10.652  1.00  0.00    -0.248 NA
ATOM     64  C   UNL     1      21.047   8.973 -12.298  1.00  0.00     0.031 C 
ATOM     65  C   UNL     1      21.445  14.976 -11.482  1.00  0.00     0.029 A 
ATOM     66  C   UNL     1      21.322  13.616 -11.249  1.00  0.00     0.049 A 
ATOM     67  H   UNL     1      21.052  12.598  -9.420  1.00  0.00     0.167 HD
ATOM     68  C   UNL     1      21.218  11.224 -11.898  1.00  0.00     0.074 A 
ATOM     69  C   UNL     1      21.221  10.155 -12.875  1.00  0.00     0.031 C 
ATOM     70  C   UNL     1      21.339  12.538 -12.206  1.00  0.00     0.037 A 
BRANCH  57  71
ATOM     71  C   UNL     1      21.061  16.315  -7.323  1.00  0.00     0.057 A 
ATOM     72  C   UNL     1      22.129  16.823  -6.572  1.00  0.00     0.134 A 
ATOM     73  C   UNL     1      19.995  17.181  -7.598  1.00  0.00     0.134 A 
ATOM     74  F   UNL     1      23.175  16.041  -6.263  1.00  0.00    -0.206 F 
ATOM     75  C   UNL     1      22.125  18.132  -6.089  1.00  0.00     0.040 A 
ATOM     76  C   UNL     1      19.992  18.501  -7.145  1.00  0.00     0.040 A 
ATOM     77  F   UNL     1      18.943  16.761  -8.316  1.00  0.00    -0.206 F 
ATOM     78  C   UNL     1      21.056  18.978  -6.381  1.00  0.00     0.006 A 
ENDBRANCH  57  71
BRANCH  58  79
ATOM     79  C   UNL     1      20.772   6.806 -10.351  1.00  0.00     0.057 A 
ATOM     80  C   UNL     1      21.883   6.162 -10.908  1.00  0.00     0.134 A 
ATOM     81  C   UNL     1      19.584   6.071 -10.253  1.00  0.00     0.134 A 
ATOM     82  F   UNL     1      23.044   6.820 -11.046  1.00  0.00    -0.206 F 
ATOM     83  C   UNL     1      21.813   4.846 -11.367  1.00  0.00     0.040 A 
ATOM     84  C   UNL     1      19.506   4.746 -10.685  1.00  0.00     0.040 A 
ATOM     85  F   UNL     1      18.485   6.628  -9.722  1.00  0.00    -0.206 F 
ATOM     86  C   UNL     1      20.622   4.132 -11.251  1.00  0.00     0.006 A 
ENDBRANCH  58  79
BRANCH  70  87
ATOM     87  C   UNL     1      21.529  12.895 -13.650  1.00  0.00     0.057 A 
ATOM     88  C   UNL     1      20.478  12.835 -14.572  1.00  0.00     0.134 A 
ATOM     89  C   UNL     1      22.768  13.365 -14.107  1.00  0.00     0.134 A 
ATOM     90  F   UNL     1      19.272  12.382 -14.200  1.00  0.00    -0.206 F 
ATOM     91  C   UNL     1      20.655  13.218 -15.903  1.00  0.00     0.040 A 
ATOM     92  C   UNL     1      22.950  13.774 -15.428  1.00  0.00     0.040 A 
ATOM     93  F   UNL     1      23.813  13.454 -13.271  1.00  0.00    -0.206 F 
ATOM     94  C   UNL     1      21.892  13.698 -16.331  1.00  0.00     0.006 A 
ENDBRANCH  70  87
ENDBRANCH  44  45
ENDBRANCH  36  39
ENDBRANCH  34  35
ENDBRANCH  33  34
ENDBRANCH  32  33
ENDBRANCH   1  32
TORSDOF 17
