REMARK SMILES Cc1c(N[C@@H](C)C[C@@H]2CCCCC[NH2+]2)cccc1C(=O)NCCCCCCNC(=O)c1ccc(-c2c3nc(c(-c4c(F)cccc4F)c4ccc([nH]4)c(-c4c(F)cccc4F)c4nc(c(-c5c(F)cccc5F)c5ccc2[nH]5)C=C4)C=C3)cc1
REMARK SMILES IDX 22 1 21 2 19 3 20 4 18 6 1 7 2 8 3 9 15 10 17 11 16 12 4 13
REMARK SMILES IDX 5 15 6 16 7 17 8 18 9 19 10 20 11 21 14 23 13 26 12 27 23 29
REMARK SMILES IDX 24 30 25 31 26 32 27 33 28 34 29 35 30 37 31 38 32 39 84 40
REMARK SMILES IDX 33 41 83 42 34 43 35 44 36 45 77 46 37 47 82 48 76 49 78 50
REMARK SMILES IDX 38 51 81 52 75 53 74 54 39 56 65 57 48 58 64 59 49 60 52 61
REMARK SMILES IDX 63 62 79 63 50 64 51 65 62 67 80 68 53 69 40 70 41 71 46 72
REMARK SMILES IDX 42 73 43 74 45 75 47 76 44 77 66 78 67 79 72 80 68 81 69 82
REMARK SMILES IDX 71 83 73 84 70 85 54 86 55 87 60 88 56 89 57 90 59 91 61 92
REMARK SMILES IDX 58 93
REMARK H PARENT 21 5 4 14 14 24 14 25 28 36 78 55 52 66
REMARK Flexibility Score: 90.00
ROOT
ATOM      1  C   UNL     1       3.231   1.941   0.365  1.00  0.00     0.116 C 
ENDROOT
BRANCH   1   2
ATOM      2  N   UNL     1       2.135   2.713  -0.184  1.00  0.00    -0.352 N 
ATOM      3  C   UNL     1       0.874   2.410  -0.626  1.00  0.00     0.251 C 
ATOM      4  O   UNL     1       0.228   3.356  -1.088  1.00  0.00    -0.269 OA
ATOM      5  H   UNL     1       2.343   3.672  -0.254  1.00  0.00     0.163 HD
BRANCH   3   6
ATOM      6  C   UNL     1       0.189   1.083  -0.500  1.00  0.00     0.044 A 
ATOM      7  C   UNL     1       2.048  -0.427  -1.390  1.00  0.00     0.047 C 
ATOM      8  C   UNL     1       0.713  -0.210  -0.735  1.00  0.00    -0.015 A 
ATOM      9  C   UNL     1      -0.082  -1.361  -0.466  1.00  0.00     0.038 A 
ATOM     10  C   UNL     1      -1.460  -1.178  -0.284  1.00  0.00     0.026 A 
ATOM     11  C   UNL     1      -1.184   1.202  -0.205  1.00  0.00     0.014 A 
ATOM     12  C   UNL     1      -2.011   0.090  -0.150  1.00  0.00     0.003 A 
BRANCH   9  13
ATOM     13  N   UNL     1       0.520  -2.608  -0.331  1.00  0.00    -0.382 N 
ATOM     14  H   UNL     1       1.500  -2.628  -0.428  1.00  0.00     0.160 HD
BRANCH  13  15
ATOM     15  C   UNL     1      -0.125  -3.893  -0.060  1.00  0.00     0.082 C 
ATOM     16  C   UNL     1       0.231  -4.825  -1.228  1.00  0.00     0.031 C 
BRANCH  15  17
ATOM     17  C   UNL     1       0.358  -4.536   1.266  1.00  0.00     0.089 C 
BRANCH  17  18
ATOM     18  C   UNL     1       0.205  -3.779   2.627  1.00  0.00     0.184 C 
BRANCH  18  19
ATOM     19  C   UNL     1      -0.398  -4.734   3.683  1.00  0.00     0.065 C 
BRANCH  19  20
ATOM     20  C   UNL     1      -0.348  -4.269   5.144  1.00  0.00     0.006 C 
BRANCH  20  21
ATOM     21  C   UNL     1      -0.841  -2.852   5.437  1.00  0.00     0.006 CG0
ATOM     22  G   UNL     1       0.080  -1.789   4.846  1.00  0.00     0.000 G0
ENDBRANCH  20  21
ENDBRANCH  19  20
ENDBRANCH  18  19
BRANCH  18  23
ATOM     23  N   UNL     1      -0.660  -2.609   2.570  1.00  0.00    -0.344 N 
ATOM     24  H   UNL     1      -1.587  -2.882   2.895  1.00  0.00     0.346 HD
ATOM     25  H   UNL     1      -0.655  -2.291   1.601  1.00  0.00     0.346 HD
BRANCH  23  26
ATOM     26  C   UNL     1      -0.205  -1.481   3.380  1.00  0.00     0.260 C 
BRANCH  26  27
ATOM     27  C   UNL     1       0.080  -1.789   4.846  1.00  0.00     0.061 CG0
ATOM     28  G   UNL     1      -0.841  -2.852   5.437  1.00  0.00     0.000 G0
ENDBRANCH  26  27
ENDBRANCH  23  26
ENDBRANCH  18  23
ENDBRANCH  17  18
ENDBRANCH  15  17
ENDBRANCH  13  15
ENDBRANCH   9  13
ENDBRANCH   3   6
ENDBRANCH   1   2
BRANCH   1  29
ATOM     29  C   UNL     1       4.346   1.798  -0.684  1.00  0.00     0.021 C 
BRANCH  29  30
ATOM     30  C   UNL     1       5.402   2.911  -0.688  1.00  0.00     0.002 C 
BRANCH  30  31
ATOM     31  C   UNL     1       6.274   3.034   0.570  1.00  0.00     0.002 C 
BRANCH  31  32
ATOM     32  C   UNL     1       6.836   1.726   1.130  1.00  0.00     0.021 C 
BRANCH  32  33
ATOM     33  C   UNL     1       7.852   1.036   0.225  1.00  0.00     0.116 C 
BRANCH  33  34
ATOM     34  N   UNL     1       9.238   1.388   0.515  1.00  0.00    -0.352 N 
ATOM     35  C   UNL     1      10.388   1.087  -0.186  1.00  0.00     0.251 C 
ATOM     36  H   UNL     1       9.372   1.920   1.332  1.00  0.00     0.163 HD
ATOM     37  O   UNL     1      11.479   1.461   0.242  1.00  0.00    -0.269 OA
BRANCH  35  38
ATOM     38  C   UNL     1      10.305   0.427  -1.511  1.00  0.00     0.039 A 
ATOM     39  C   UNL     1      11.100   0.931  -2.549  1.00  0.00     0.014 A 
ATOM     40  C   UNL     1       9.357  -0.557  -1.779  1.00  0.00     0.014 A 
ATOM     41  C   UNL     1      10.779   0.628  -3.871  1.00  0.00     0.010 A 
ATOM     42  C   UNL     1       8.984  -0.797  -3.089  1.00  0.00     0.010 A 
ATOM     43  C   UNL     1       9.650  -0.148  -4.133  1.00  0.00    -0.014 A 
BRANCH  43  44
ATOM     44  C   UNL     1       9.019  -0.218  -5.447  1.00  0.00     0.031 A 
ATOM     45  C   UNL     1       9.174  -1.406  -6.311  1.00  0.00     0.074 A 
ATOM     46  C   UNL     1       8.233   0.806  -5.849  1.00  0.00     0.049 A 
ATOM     47  N   UNL     1       8.998  -1.401  -7.590  1.00  0.00    -0.248 NA
ATOM     48  C   UNL     1       9.577  -2.705  -5.788  1.00  0.00     0.031 C 
ATOM     49  C   UNL     1       7.334   0.844  -6.998  1.00  0.00     0.029 A 
ATOM     50  N   UNL     1       8.285   2.134  -5.403  1.00  0.00    -0.354 N 
ATOM     51  C   UNL     1       9.036  -2.703  -8.029  1.00  0.00     0.074 A 
ATOM     52  C   UNL     1       9.431  -3.476  -6.872  1.00  0.00     0.031 C 
ATOM     53  C   UNL     1       7.165   2.123  -7.366  1.00  0.00     0.029 A 
ATOM     54  C   UNL     1       8.058   2.928  -6.550  1.00  0.00     0.049 A 
ATOM     55  H   UNL     1       8.447   2.448  -4.484  1.00  0.00     0.167 HD
ATOM     56  C   UNL     1       8.635  -3.002  -9.298  1.00  0.00     0.037 A 
ATOM     57  C   UNL     1       9.030   3.759  -7.025  1.00  0.00     0.037 A 
ATOM     58  C   UNL     1       8.294  -1.804 -10.058  1.00  0.00     0.049 A 
ATOM     59  C   UNL     1       9.499   3.449  -8.431  1.00  0.00     0.074 A 
ATOM     60  C   UNL     1       7.110  -1.137 -10.326  1.00  0.00     0.029 A 
ATOM     61  N   UNL     1       9.311  -0.947 -10.431  1.00  0.00    -0.354 N 
ATOM     62  N   UNL     1       9.118   2.412  -9.123  1.00  0.00    -0.248 NA
ATOM     63  C   UNL     1      10.519   4.239  -9.126  1.00  0.00     0.031 C 
ATOM     64  C   UNL     1       7.434   0.157 -10.823  1.00  0.00     0.029 A 
ATOM     65  C   UNL     1       8.812   0.267 -10.861  1.00  0.00     0.049 A 
ATOM     66  H   UNL     1      10.269  -1.172 -10.395  1.00  0.00     0.167 HD
ATOM     67  C   UNL     1       9.845   2.355 -10.281  1.00  0.00     0.074 A 
ATOM     68  C   UNL     1      10.703   3.523 -10.247  1.00  0.00     0.031 C 
ATOM     69  C   UNL     1       9.738   1.336 -11.175  1.00  0.00     0.037 A 
BRANCH  56  70
ATOM     70  C   UNL     1       8.347  -4.403  -9.772  1.00  0.00     0.057 A 
ATOM     71  C   UNL     1       7.314  -4.654 -10.696  1.00  0.00     0.134 A 
ATOM     72  C   UNL     1       9.025  -5.549  -9.328  1.00  0.00     0.134 A 
ATOM     73  F   UNL     1       6.636  -3.658 -11.282  1.00  0.00    -0.206 F 
ATOM     74  C   UNL     1       6.914  -5.946 -11.056  1.00  0.00     0.040 A 
ATOM     75  C   UNL     1       8.600  -6.850  -9.633  1.00  0.00     0.040 A 
ATOM     76  F   UNL     1      10.156  -5.458  -8.615  1.00  0.00    -0.206 F 
ATOM     77  C   UNL     1       7.529  -7.053 -10.492  1.00  0.00     0.006 A 
ENDBRANCH  56  70
BRANCH  57  78
ATOM     78  C   UNL     1       9.894   4.322  -5.953  1.00  0.00     0.057 A 
ATOM     79  C   UNL     1       9.304   5.112  -4.950  1.00  0.00     0.134 A 
ATOM     80  C   UNL     1      11.178   3.832  -5.705  1.00  0.00     0.134 A 
ATOM     81  F   UNL     1       8.071   5.615  -5.124  1.00  0.00    -0.206 F 
ATOM     82  C   UNL     1       9.917   5.309  -3.711  1.00  0.00     0.040 A 
ATOM     83  C   UNL     1      11.810   4.040  -4.475  1.00  0.00     0.040 A 
ATOM     84  F   UNL     1      11.799   3.053  -6.603  1.00  0.00    -0.206 F 
ATOM     85  C   UNL     1      11.164   4.745  -3.461  1.00  0.00     0.006 A 
ENDBRANCH  57  78
BRANCH  69  86
ATOM     86  C   UNL     1      10.524   1.297 -12.442  1.00  0.00     0.057 A 
ATOM     87  C   UNL     1      10.487   2.351 -13.363  1.00  0.00     0.134 A 
ATOM     88  C   UNL     1      11.236   0.150 -12.827  1.00  0.00     0.134 A 
ATOM     89  F   UNL     1       9.810   3.477 -13.089  1.00  0.00    -0.206 F 
ATOM     90  C   UNL     1      11.134   2.273 -14.599  1.00  0.00     0.040 A 
ATOM     91  C   UNL     1      11.857   0.045 -14.073  1.00  0.00     0.040 A 
ATOM     92  F   UNL     1      11.363  -0.899 -12.000  1.00  0.00    -0.206 F 
ATOM     93  C   UNL     1      11.809   1.111 -14.963  1.00  0.00     0.006 A 
ENDBRANCH  69  86
ENDBRANCH  43  44
ENDBRANCH  35  38
ENDBRANCH  33  34
ENDBRANCH  32  33
ENDBRANCH  31  32
ENDBRANCH  30  31
ENDBRANCH  29  30
ENDBRANCH   1  29
TORSDOF 17
