REMARK SMILES CCC(CC)(NC(=O)CC1([NH3+])CCCC1)C(=O)NCCCCCCNC(=O)c1ccc(-c2c3nc(c(-c4c(F)cccc4F)c4ccc([nH]4)c(-c4c(F)cccc4F)c4nc(c(-c5c(F)cccc5F)c5ccc2[nH]5)C=C4)C=C3)cc1
REMARK SMILES IDX 20 1 19 2 18 3 16 4 17 5 3 7 2 8 1 9 4 10 5 11 6 12 7 13
REMARK SMILES IDX 8 15 9 16 10 17 12 18 15 19 13 20 14 21 11 22 21 26 22 27
REMARK SMILES IDX 23 28 24 29 25 30 26 31 27 33 28 34 29 35 81 36 30 37 80 38
REMARK SMILES IDX 31 39 32 40 33 41 74 42 34 43 79 44 73 45 75 46 35 47 78 48
REMARK SMILES IDX 72 49 71 50 36 52 62 53 45 54 61 55 46 56 49 57 60 58 76 59
REMARK SMILES IDX 47 60 48 61 59 63 77 64 50 65 37 66 38 67 43 68 39 69 40 70
REMARK SMILES IDX 42 71 44 72 41 73 63 74 64 75 69 76 65 77 66 78 68 79 70 80
REMARK SMILES IDX 67 81 51 82 52 83 57 84 53 85 54 86 56 87 58 88 55 89
REMARK H PARENT 18 6 6 14 11 23 11 24 11 25 25 32 75 51 49 62
REMARK Flexibility Score: inf
ROOT
ATOM      1  C   UNL     1       2.900   4.633  -4.169  1.00  0.00     0.021 C 
ENDROOT
BRANCH   1   2
ATOM      2  C   UNL     1       2.227   3.265  -4.274  1.00  0.00     0.116 C 
BRANCH   2   3
ATOM      3  N   UNL     1       2.772   2.253  -3.385  1.00  0.00    -0.354 N 
ATOM      4  C   UNL     1       2.225   1.586  -2.322  1.00  0.00     0.245 C 
ATOM      5  O   UNL     1       2.866   0.622  -1.896  1.00  0.00    -0.272 OA
ATOM      6  H   UNL     1       3.704   2.002  -3.583  1.00  0.00     0.163 HD
BRANCH   4   7
ATOM      7  C   UNL     1       0.792   1.916  -1.810  1.00  0.00     0.118 C 
BRANCH   7   8
ATOM      8  C   UNL     1       0.456   1.315  -0.419  1.00  0.00     0.035 C 
ATOM      9  C   UNL     1       0.482  -0.199  -0.250  1.00  0.00     0.007 C 
ENDBRANCH   7   8
BRANCH   7  10
ATOM     10  C   UNL     1      -0.153   1.299  -2.896  1.00  0.00     0.035 C 
ATOM     11  C   UNL     1      -1.652   1.427  -2.657  1.00  0.00     0.007 C 
ENDBRANCH   7  10
BRANCH   7  12
ATOM     12  N   UNL     1       0.593   3.390  -1.694  1.00  0.00    -0.342 N 
ATOM     13  C   UNL     1       1.245   4.324  -0.935  1.00  0.00     0.227 C 
ATOM     14  H   UNL     1      -0.129   3.752  -2.258  1.00  0.00     0.164 HD
ATOM     15  O   UNL     1       0.563   5.271  -0.528  1.00  0.00    -0.275 OA
BRANCH  13  16
ATOM     16  C   UNL     1       2.758   4.336  -0.722  1.00  0.00     0.168 C 
BRANCH  16  17
ATOM     17  C   UNL     1       3.377   3.937   0.633  1.00  0.00     0.103 C 
ATOM     18  C   UNL     1       2.392   3.768   1.800  1.00  0.00     0.069 C 
ATOM     19  C   UNL     1       4.160   2.599   0.552  1.00  0.00     0.069 C 
ATOM     20  C   UNL     1       2.941   2.614   2.630  1.00  0.00     0.007 C 
ATOM     21  C   UNL     1       3.587   1.682   1.621  1.00  0.00     0.007 C 
BRANCH  17  22
ATOM     22  N   UNL     1       4.392   4.956   0.992  1.00  0.00    -0.352 N 
ATOM     23  H   UNL     1       3.945   5.870   1.064  1.00  0.00     0.344 HD
ATOM     24  H   UNL     1       5.114   4.986   0.272  1.00  0.00     0.344 HD
ATOM     25  H   UNL     1       4.815   4.713   1.888  1.00  0.00     0.344 HD
ENDBRANCH  17  22
ENDBRANCH  16  17
ENDBRANCH  13  16
ENDBRANCH   7  12
ENDBRANCH   4   7
ENDBRANCH   2   3
ENDBRANCH   1   2
BRANCH   1  26
ATOM     26  C   UNL     1       4.429   4.622  -4.229  1.00  0.00     0.002 C 
BRANCH  26  27
ATOM     27  C   UNL     1       5.019   3.974  -5.483  1.00  0.00     0.002 C 
BRANCH  27  28
ATOM     28  C   UNL     1       4.433   4.475  -6.802  1.00  0.00     0.021 C 
BRANCH  28  29
ATOM     29  C   UNL     1       4.484   5.986  -6.984  1.00  0.00     0.116 C 
BRANCH  29  30
ATOM     30  N   UNL     1       5.843   6.472  -7.139  1.00  0.00    -0.352 N 
ATOM     31  C   UNL     1       6.378   7.197  -8.178  1.00  0.00     0.251 C 
ATOM     32  H   UNL     1       6.462   6.255  -6.405  1.00  0.00     0.163 HD
ATOM     33  O   UNL     1       7.583   7.373  -8.267  1.00  0.00    -0.269 OA
BRANCH  31  34
ATOM     34  C   UNL     1       5.468   7.739  -9.210  1.00  0.00     0.039 A 
ATOM     35  C   UNL     1       5.756   7.502 -10.555  1.00  0.00     0.014 A 
ATOM     36  C   UNL     1       4.316   8.441  -8.842  1.00  0.00     0.014 A 
ATOM     37  C   UNL     1       4.851   7.917 -11.534  1.00  0.00     0.010 A 
ATOM     38  C   UNL     1       3.381   8.785  -9.813  1.00  0.00     0.010 A 
ATOM     39  C   UNL     1       3.640   8.528 -11.168  1.00  0.00    -0.014 A 
BRANCH  39  40
ATOM     40  C   UNL     1       2.628   8.898 -12.189  1.00  0.00     0.031 A 
ATOM     41  C   UNL     1       2.258  10.339 -12.398  1.00  0.00     0.074 A 
ATOM     42  C   UNL     1       1.993   7.931 -12.880  1.00  0.00     0.049 A 
ATOM     43  N   UNL     1       1.353  10.854 -13.191  1.00  0.00    -0.248 NA
ATOM     44  C   UNL     1       2.982  11.331 -11.588  1.00  0.00     0.031 C 
ATOM     45  C   UNL     1       2.225   6.493 -12.730  1.00  0.00     0.029 A 
ATOM     46  N   UNL     1       1.011   8.011 -13.835  1.00  0.00    -0.354 N 
ATOM     47  C   UNL     1       1.392  12.224 -12.968  1.00  0.00     0.074 A 
ATOM     48  C   UNL     1       2.367  12.455 -11.924  1.00  0.00     0.031 C 
ATOM     49  C   UNL     1       1.420   5.828 -13.574  1.00  0.00     0.029 A 
ATOM     50  C   UNL     1       0.589   6.787 -14.294  1.00  0.00     0.049 A 
ATOM     51  H   UNL     1       0.644   8.865 -14.160  1.00  0.00     0.167 HD
ATOM     52  C   UNL     1       0.695  13.204 -13.592  1.00  0.00     0.037 A 
ATOM     53  C   UNL     1      -0.370   6.472 -15.186  1.00  0.00     0.037 A 
ATOM     54  C   UNL     1      -0.264  12.971 -14.640  1.00  0.00     0.049 A 
ATOM     55  C   UNL     1      -1.140   7.575 -15.857  1.00  0.00     0.074 A 
ATOM     56  C   UNL     1      -0.976  13.899 -15.380  1.00  0.00     0.029 A 
ATOM     57  N   UNL     1      -0.653  11.717 -15.091  1.00  0.00    -0.354 N 
ATOM     58  N   UNL     1      -1.038   8.872 -15.694  1.00  0.00    -0.248 NA
ATOM     59  C   UNL     1      -2.155   7.172 -16.841  1.00  0.00     0.031 C 
ATOM     60  C   UNL     1      -1.833  13.207 -16.240  1.00  0.00     0.029 A 
ATOM     61  C   UNL     1      -1.617  11.848 -16.077  1.00  0.00     0.049 A 
ATOM     62  H   UNL     1      -0.296  10.862 -14.758  1.00  0.00     0.167 HD
ATOM     63  C   UNL     1      -1.956   9.440 -16.567  1.00  0.00     0.074 A 
ATOM     64  C   UNL     1      -2.595   8.347 -17.271  1.00  0.00     0.031 C 
ATOM     65  C   UNL     1      -2.245  10.749 -16.768  1.00  0.00     0.037 A 
BRANCH  52  66
ATOM     66  C   UNL     1       0.946  14.617 -13.151  1.00  0.00     0.057 A 
ATOM     67  C   UNL     1       2.162  15.267 -13.404  1.00  0.00     0.134 A 
ATOM     68  C   UNL     1      -0.047  15.346 -12.484  1.00  0.00     0.134 A 
ATOM     69  F   UNL     1       3.160  14.624 -14.029  1.00  0.00    -0.206 F 
ATOM     70  C   UNL     1       2.393  16.577 -12.980  1.00  0.00     0.040 A 
ATOM     71  C   UNL     1       0.162  16.667 -12.082  1.00  0.00     0.040 A 
ATOM     72  F   UNL     1      -1.237  14.789 -12.216  1.00  0.00    -0.206 F 
ATOM     73  C   UNL     1       1.388  17.283 -12.322  1.00  0.00     0.006 A 
ENDBRANCH  52  66
BRANCH  53  74
ATOM     74  C   UNL     1      -0.647   5.048 -15.501  1.00  0.00     0.057 A 
ATOM     75  C   UNL     1      -0.318   4.503 -16.747  1.00  0.00     0.134 A 
ATOM     76  C   UNL     1      -1.244   4.196 -14.563  1.00  0.00     0.134 A 
ATOM     77  F   UNL     1       0.240   5.272 -17.694  1.00  0.00    -0.206 F 
ATOM     78  C   UNL     1      -0.586   3.168 -17.056  1.00  0.00     0.040 A 
ATOM     79  C   UNL     1      -1.494   2.853 -14.848  1.00  0.00     0.040 A 
ATOM     80  F   UNL     1      -1.576   4.654 -13.347  1.00  0.00    -0.206 F 
ATOM     81  C   UNL     1      -1.170   2.337 -16.102  1.00  0.00     0.006 A 
ENDBRANCH  53  74
BRANCH  65  82
ATOM     82  C   UNL     1      -3.279  11.075 -17.806  1.00  0.00     0.057 A 
ATOM     83  C   UNL     1      -4.641  10.823 -17.597  1.00  0.00     0.134 A 
ATOM     84  C   UNL     1      -2.912  11.688 -19.010  1.00  0.00     0.134 A 
ATOM     85  F   UNL     1      -5.058  10.226 -16.470  1.00  0.00    -0.206 F 
ATOM     86  C   UNL     1      -5.599  11.153 -18.558  1.00  0.00     0.040 A 
ATOM     87  C   UNL     1      -3.863  12.048 -19.966  1.00  0.00     0.040 A 
ATOM     88  F   UNL     1      -1.625  11.965 -19.270  1.00  0.00    -0.206 F 
ATOM     89  C   UNL     1      -5.211  11.775 -19.743  1.00  0.00     0.006 A 
ENDBRANCH  65  82
ENDBRANCH  39  40
ENDBRANCH  31  34
ENDBRANCH  29  30
ENDBRANCH  28  29
ENDBRANCH  27  28
ENDBRANCH  26  27
ENDBRANCH   1  26
TORSDOF 19
