REMARK SMILES CC(C)C[C@H](NC(=O)[C@H](Cc1ccccc1)NC(=O)CNC(=O)CNC(=O)OCc1ccccc1)C(=O)NCCCCCCNC(=O)c1ccc(-c2c3nc(c(-c4c(F)cccc4F)c4ccc([nH]4)c(-c4c(F)cccc4F)c4nc(c(-c5c(F)cccc5F)c5ccc2[nH]5)C=C4)C=C3)cc1
REMARK SMILES IDX 36 1 37 2 38 3 5 5 4 6 2 7 1 8 3 9 6 10 7 11 8 13 9 14 17 15
REMARK SMILES IDX 18 16 19 18 20 19 21 20 22 21 23 23 24 24 25 25 26 26 27 28
REMARK SMILES IDX 28 29 29 30 30 31 31 32 35 33 32 34 34 35 33 36 10 37 11 38
REMARK SMILES IDX 12 39 16 40 13 41 15 42 14 43 39 44 40 45 41 46 42 47 43 48
REMARK SMILES IDX 44 49 45 50 46 51 47 53 48 54 49 55 101 56 50 57 100 58
REMARK SMILES IDX 51 59 52 60 53 61 94 62 54 63 99 64 93 65 95 66 55 67 98 68
REMARK SMILES IDX 92 69 91 70 56 72 82 73 65 74 81 75 66 76 69 77 80 78 96 79
REMARK SMILES IDX 67 80 68 81 79 83 97 84 70 85 57 86 58 87 63 88 59 89 60 90
REMARK SMILES IDX 62 91 64 92 61 93 83 94 84 95 89 96 85 97 86 98 88 99 90 100
REMARK SMILES IDX 87 101 71 102 72 103 77 104 73 105 74 106 76 107 78 108
REMARK SMILES IDX 75 109
REMARK H PARENT 38 4 6 12 17 17 21 22 25 27 45 52 95 71 69 82
REMARK Flexibility Score: inf
ROOT
ATOM      1  C   UNL     1       0.473  -5.718  -0.149  1.00  0.00     0.242 C 
ATOM      2  O   UNL     1       0.324  -6.335  -1.207  1.00  0.00    -0.273 OA
ATOM      3  N   UNL     1       0.475  -6.444   1.011  1.00  0.00    -0.354 N 
ATOM      4  H   UNL     1       0.348  -7.416   0.918  1.00  0.00     0.163 HD
ENDROOT
BRANCH   1   5
ATOM      5  C   UNL     1       0.718  -4.174  -0.150  1.00  0.00     0.171 C 
BRANCH   5   6
ATOM      6  C   UNL     1       2.171  -3.745   0.020  1.00  0.00     0.038 C 
BRANCH   6   7
ATOM      7  C   UNL     1       3.340  -4.613  -0.476  1.00  0.00    -0.015 C 
ATOM      8  C   UNL     1       3.256  -4.984  -1.954  1.00  0.00     0.007 C 
ATOM      9  C   UNL     1       4.645  -3.829  -0.245  1.00  0.00     0.007 C 
ENDBRANCH   6   7
ENDBRANCH   5   6
BRANCH   5  10
ATOM     10  N   UNL     1      -0.247  -3.553   0.793  1.00  0.00    -0.343 N 
ATOM     11  C   UNL     1      -0.458  -2.421   1.503  1.00  0.00     0.243 C 
ATOM     12  H   UNL     1      -0.987  -4.181   0.958  1.00  0.00     0.164 HD
ATOM     13  O   UNL     1      -1.561  -2.416   2.075  1.00  0.00    -0.273 OA
BRANCH  11  14
ATOM     14  C   UNL     1       0.580  -1.310   1.861  1.00  0.00     0.175 C 
BRANCH  14  15
ATOM     15  N   UNL     1       1.642  -1.009   0.898  1.00  0.00    -0.342 N 
ATOM     16  C   UNL     1       2.981  -0.801   1.106  1.00  0.00     0.240 C 
ATOM     17  H   UNL     1       1.350  -0.946  -0.040  1.00  0.00     0.164 HD
ATOM     18  O   UNL     1       3.645  -0.271   0.214  1.00  0.00    -0.273 OA
BRANCH  16  19
ATOM     19  C   UNL     1       3.638  -1.199   2.432  1.00  0.00     0.216 C 
BRANCH  19  20
ATOM     20  N   UNL     1       3.636  -0.119   3.398  1.00  0.00    -0.346 N 
ATOM     21  C   UNL     1       3.602  -0.137   4.760  1.00  0.00     0.239 C 
ATOM     22  H   UNL     1       3.665   0.782   3.002  1.00  0.00     0.164 HD
ATOM     23  O   UNL     1       3.619   0.946   5.348  1.00  0.00    -0.273 OA
BRANCH  21  24
ATOM     24  C   UNL     1       3.597  -1.453   5.546  1.00  0.00     0.219 C 
BRANCH  24  25
ATOM     25  N   UNL     1       2.397  -2.214   5.283  1.00  0.00    -0.312 N 
ATOM     26  C   UNL     1       2.327  -3.401   4.633  1.00  0.00     0.407 C 
ATOM     27  H   UNL     1       1.549  -1.834   5.609  1.00  0.00     0.167 HD
ATOM     28  O   UNL     1       1.261  -3.763   4.162  1.00  0.00    -0.225 OA
BRANCH  26  29
ATOM     29  O   UNL     1       3.521  -4.032   4.509  1.00  0.00    -0.445 OA
BRANCH  29  30
ATOM     30  C   UNL     1       3.618  -5.122   3.572  1.00  0.00     0.270 C 
BRANCH  30  31
ATOM     31  C   UNL     1       2.737  -6.317   3.863  1.00  0.00    -0.011 A 
ATOM     32  C   UNL     1       2.486  -7.583   2.573  1.00  0.00     0.007 A 
ATOM     33  C   UNL     1       1.855  -6.450   5.424  1.00  0.00     0.007 A 
ATOM     34  C   UNL     1       1.301  -8.915   2.836  1.00  0.00     0.000 A 
ATOM     35  C   UNL     1       0.660  -7.782   5.677  1.00  0.00     0.000 A 
ATOM     36  C   UNL     1       0.416  -9.027   4.414  1.00  0.00     0.000 A 
ENDBRANCH  30  31
ENDBRANCH  29  30
ENDBRANCH  26  29
ENDBRANCH  24  25
ENDBRANCH  21  24
ENDBRANCH  19  20
ENDBRANCH  16  19
ENDBRANCH  14  15
BRANCH  14  37
ATOM     37  C   UNL     1      -0.183  -0.006   2.312  1.00  0.00     0.070 C 
BRANCH  37  38
ATOM     38  C   UNL     1       0.175   1.237   1.525  1.00  0.00    -0.045 A 
ATOM     39  C   UNL     1       1.325   1.964   1.861  1.00  0.00     0.004 A 
ATOM     40  C   UNL     1      -0.543   1.592   0.378  1.00  0.00     0.004 A 
ATOM     41  C   UNL     1       1.832   2.928   0.993  1.00  0.00     0.000 A 
ATOM     42  C   UNL     1      -0.062   2.596  -0.465  1.00  0.00     0.000 A 
ATOM     43  C   UNL     1       1.144   3.235  -0.177  1.00  0.00     0.000 A 
ENDBRANCH  37  38
ENDBRANCH  14  37
ENDBRANCH  11  14
ENDBRANCH   5  10
ENDBRANCH   1   5
BRANCH   3  44
ATOM     44  C   UNL     1       0.641  -5.943   2.361  1.00  0.00     0.116 C 
BRANCH  44  45
ATOM     45  C   UNL     1       0.806  -7.055   3.669  1.00  0.00     0.021 C 
BRANCH  45  46
ATOM     46  C   UNL     1       2.410  -8.268   4.522  1.00  0.00     0.002 C 
BRANCH  46  47
ATOM     47  C   UNL     1       4.141  -8.292   4.443  1.00  0.00     0.002 C 
BRANCH  47  48
ATOM     48  C   UNL     1       4.962  -7.559   5.517  1.00  0.00     0.021 C 
BRANCH  48  49
ATOM     49  C   UNL     1       4.590  -7.805   6.965  1.00  0.00     0.116 C 
BRANCH  49  50
ATOM     50  N   UNL     1       4.810  -9.166   7.410  1.00  0.00    -0.352 N 
ATOM     51  C   UNL     1       5.186  -9.557   8.674  1.00  0.00     0.251 C 
ATOM     52  H   UNL     1       4.677  -9.880   6.744  1.00  0.00     0.163 HD
ATOM     53  O   UNL     1       5.442 -10.725   8.939  1.00  0.00    -0.269 OA
BRANCH  51  54
ATOM     54  C   UNL     1       5.311  -8.508   9.707  1.00  0.00     0.039 A 
ATOM     55  C   UNL     1       6.537  -8.332  10.349  1.00  0.00     0.014 A 
ATOM     56  C   UNL     1       4.239  -7.646   9.960  1.00  0.00     0.014 A 
ATOM     57  C   UNL     1       6.695  -7.267  11.236  1.00  0.00     0.010 A 
ATOM     58  C   UNL     1       4.425  -6.540  10.781  1.00  0.00     0.010 A 
ATOM     59  C   UNL     1       5.645  -6.358  11.449  1.00  0.00    -0.014 A 
BRANCH  59  60
ATOM     60  C   UNL     1       5.790  -5.259  12.433  1.00  0.00     0.031 A 
ATOM     61  C   UNL     1       4.967  -5.282  13.691  1.00  0.00     0.074 A 
ATOM     62  C   UNL     1       6.646  -4.247  12.197  1.00  0.00     0.049 A 
ATOM     63  N   UNL     1       4.974  -4.452  14.702  1.00  0.00    -0.248 NA
ATOM     64  C   UNL     1       3.984  -6.371  13.819  1.00  0.00     0.031 C 
ATOM     65  C   UNL     1       7.462  -4.091  10.992  1.00  0.00     0.029 A 
ATOM     66  N   UNL     1       6.982  -3.164  12.970  1.00  0.00    -0.354 N 
ATOM     67  C   UNL     1       3.996  -4.913  15.574  1.00  0.00     0.074 A 
ATOM     68  C   UNL     1       3.367  -6.051  14.945  1.00  0.00     0.031 C 
ATOM     69  C   UNL     1       8.239  -3.003  11.127  1.00  0.00     0.029 A 
ATOM     70  C   UNL     1       7.960  -2.375  12.415  1.00  0.00     0.049 A 
ATOM     71  H   UNL     1       6.562  -2.971  13.839  1.00  0.00     0.167 HD
ATOM     72  C   UNL     1       3.674  -4.452  16.805  1.00  0.00     0.037 A 
ATOM     73  C   UNL     1       8.573  -1.281  12.905  1.00  0.00     0.037 A 
ATOM     74  C   UNL     1       4.325  -3.339  17.439  1.00  0.00     0.049 A 
ATOM     75  C   UNL     1       8.197  -0.785  14.275  1.00  0.00     0.074 A 
ATOM     76  C   UNL     1       4.127  -2.831  18.710  1.00  0.00     0.029 A 
ATOM     77  N   UNL     1       5.304  -2.558  16.841  1.00  0.00    -0.354 N 
ATOM     78  N   UNL     1       7.334  -1.283  15.128  1.00  0.00    -0.248 NA
ATOM     79  C   UNL     1       8.888   0.421  14.754  1.00  0.00     0.031 C 
ATOM     80  C   UNL     1       4.953  -1.712  18.864  1.00  0.00     0.029 A 
ATOM     81  C   UNL     1       5.700  -1.554  17.707  1.00  0.00     0.049 A 
ATOM     82  H   UNL     1       5.663  -2.698  15.936  1.00  0.00     0.167 HD
ATOM     83  C   UNL     1       7.399  -0.472  16.254  1.00  0.00     0.074 A 
ATOM     84  C   UNL     1       8.396   0.543  15.979  1.00  0.00     0.031 C 
ATOM     85  C   UNL     1       6.700  -0.558  17.413  1.00  0.00     0.037 A 
BRANCH  72  86
ATOM     86  C   UNL     1       2.568  -5.159  17.534  1.00  0.00     0.057 A 
ATOM     87  C   UNL     1       2.715  -6.468  18.015  1.00  0.00     0.134 A 
ATOM     88  C   UNL     1       1.338  -4.527  17.752  1.00  0.00     0.134 A 
ATOM     89  F   UNL     1       3.862  -7.138  17.825  1.00  0.00    -0.206 F 
ATOM     90  C   UNL     1       1.666  -7.136  18.651  1.00  0.00     0.040 A 
ATOM     91  C   UNL     1       0.292  -5.174  18.413  1.00  0.00     0.040 A 
ATOM     92  F   UNL     1       1.129  -3.274  17.321  1.00  0.00    -0.206 F 
ATOM     93  C   UNL     1       0.451  -6.486  18.855  1.00  0.00     0.006 A 
ENDBRANCH  72  86
BRANCH  73  94
ATOM     94  C   UNL     1       9.646  -0.613  12.124  1.00  0.00     0.057 A 
ATOM     95  C   UNL     1      10.982  -0.676  12.537  1.00  0.00     0.134 A 
ATOM     96  C   UNL     1       9.366   0.106  10.957  1.00  0.00     0.134 A 
ATOM     97  F   UNL     1      11.311  -1.337  13.657  1.00  0.00    -0.206 F 
ATOM     98  C   UNL     1      11.999  -0.035  11.828  1.00  0.00     0.040 A 
ATOM     99  C   UNL     1      10.376   0.734  10.225  1.00  0.00     0.040 A 
ATOM    100  F   UNL     1       8.107   0.198  10.503  1.00  0.00    -0.206 F 
ATOM    101  C   UNL     1      11.697   0.669  10.665  1.00  0.00     0.006 A 
ENDBRANCH  73  94
BRANCH  85 102
ATOM    102  C   UNL     1       7.011   0.452  18.477  1.00  0.00     0.057 A 
ATOM    103  C   UNL     1       6.615   1.790  18.363  1.00  0.00     0.134 A 
ATOM    104  C   UNL     1       7.678   0.070  19.648  1.00  0.00     0.134 A 
ATOM    105  F   UNL     1       5.983   2.222  17.262  1.00  0.00    -0.206 F 
ATOM    106  C   UNL     1       6.894   2.719  19.367  1.00  0.00     0.040 A 
ATOM    107  C   UNL     1       7.938   0.983  20.670  1.00  0.00     0.040 A 
ATOM    108  F   UNL     1       8.075  -1.200  19.823  1.00  0.00    -0.206 F 
ATOM    109  C   UNL     1       7.551   2.314  20.528  1.00  0.00     0.006 A 
ENDBRANCH  85 102
ENDBRANCH  59  60
ENDBRANCH  51  54
ENDBRANCH  49  50
ENDBRANCH  48  49
ENDBRANCH  47  48
ENDBRANCH  46  47
ENDBRANCH  45  46
ENDBRANCH  44  45
ENDBRANCH   3  44
TORSDOF 27
