REMARK SMILES O=C(C[NH2+]CC[NH+]1CCCCCC1)NCCCCCCNC(=O)c1ccc(-c2c3nc(c(-c4c(F)cccc4F)c4ccc([nH]4)c(-c4c(F)cccc4F)c4nc(c(-c5c(F)cccc5F)c5ccc2[nH]5)C=C4)C=C3)cc1
REMARK SMILES IDX 15 1 14 2 1 3 2 4 3 6 4 7 5 10 6 11 7 12 8 14 9 15 10 16
REMARK SMILES IDX 13 18 12 19 11 20 16 22 17 23 18 24 19 25 20 26 21 27 22 28
REMARK SMILES IDX 23 30 24 31 25 32 77 33 26 34 76 35 27 36 28 37 29 38 70 39
REMARK SMILES IDX 30 40 75 41 69 42 71 43 31 44 74 45 68 46 67 47 32 49 58 50
REMARK SMILES IDX 41 51 57 52 42 53 45 54 56 55 72 56 43 57 44 58 55 60 73 61
REMARK SMILES IDX 46 62 33 63 34 64 39 65 35 66 36 67 38 68 40 69 37 70 59 71
REMARK SMILES IDX 60 72 65 73 61 74 62 75 64 76 66 77 63 78 47 79 48 80 53 81
REMARK SMILES IDX 49 82 50 83 52 84 54 85 51 86
REMARK H PARENT 14 5 4 8 4 9 7 13 21 29 71 48 45 59
REMARK Flexibility Score: 90.00
ROOT
ATOM      1  C   UNL     1       2.207  -1.086   2.053  1.00  0.00     0.116 C 
ENDROOT
BRANCH   1   2
ATOM      2  N   UNL     1       2.856  -0.409   0.954  1.00  0.00    -0.351 N 
ATOM      3  O   UNL     1       1.038  -0.429  -0.444  1.00  0.00    -0.269 OA
ATOM      4  C   UNL     1       2.227  -0.197  -0.250  1.00  0.00     0.275 C 
ATOM      5  H   UNL     1       3.780  -0.090   1.071  1.00  0.00     0.163 HD
BRANCH   4   6
ATOM      6  C   UNL     1       3.156   0.296  -1.363  1.00  0.00     0.361 C 
BRANCH   6   7
ATOM      7  N   UNL     1       4.140   1.274  -0.848  1.00  0.00    -0.334 N 
ATOM      8  H   UNL     1       4.949   0.768  -0.487  1.00  0.00     0.346 HD
ATOM      9  H   UNL     1       3.688   1.819  -0.115  1.00  0.00     0.346 HD
BRANCH   7  10
ATOM     10  C   UNL     1       4.594   2.210  -1.897  1.00  0.00     0.323 C 
BRANCH  10  11
ATOM     11  C   UNL     1       3.530   3.068  -2.660  1.00  0.00     0.324 C 
BRANCH  11  12
ATOM     12  N   UNL     1       2.818   4.149  -1.946  1.00  0.00    -0.330 N 
ATOM     13  H   UNL     1       1.918   4.294  -2.404  1.00  0.00     0.348 HD
BRANCH  12  14
ATOM     14  C   UNL     1       2.324   3.795  -0.625  1.00  0.00     0.262 C 
BRANCH  14  15
ATOM     15  C   UNL     1       1.052   4.518  -0.184  1.00  0.00     0.061 C 
BRANCH  15  16
ATOM     16  C   UNL     1       1.246   5.951   0.275  1.00  0.00     0.006 CG0
ATOM     17  G   UNL     1       1.799   6.863  -0.809  1.00  0.00     0.000 G0
ENDBRANCH  15  16
ENDBRANCH  14  15
ENDBRANCH  12  14
BRANCH  12  18
ATOM     18  C   UNL     1       3.498   5.431  -2.115  1.00  0.00     0.262 C 
BRANCH  18  19
ATOM     19  C   UNL     1       3.260   6.561  -1.114  1.00  0.00     0.061 C 
BRANCH  19  20
ATOM     20  C   UNL     1       1.799   6.863  -0.809  1.00  0.00     0.006 CG0
ATOM     21  G   UNL     1       1.246   5.951   0.275  1.00  0.00     0.000 G0
ENDBRANCH  19  20
ENDBRANCH  18  19
ENDBRANCH  12  18
ENDBRANCH  11  12
ENDBRANCH  10  11
ENDBRANCH   7  10
ENDBRANCH   6   7
ENDBRANCH   4   6
ENDBRANCH   1   2
BRANCH   1  22
ATOM     22  C   UNL     1       2.676  -2.538   2.139  1.00  0.00     0.021 C 
BRANCH  22  23
ATOM     23  C   UNL     1       4.179  -2.685   2.411  1.00  0.00     0.002 C 
BRANCH  23  24
ATOM     24  C   UNL     1       4.668  -2.016   3.700  1.00  0.00     0.002 C 
BRANCH  24  25
ATOM     25  C   UNL     1       3.971  -2.495   4.975  1.00  0.00     0.021 C 
BRANCH  25  26
ATOM     26  C   UNL     1       4.087  -3.992   5.234  1.00  0.00     0.116 C 
BRANCH  26  27
ATOM     27  N   UNL     1       5.464  -4.410   5.438  1.00  0.00    -0.352 N 
ATOM     28  C   UNL     1       6.005  -5.162   6.451  1.00  0.00     0.251 C 
ATOM     29  H   UNL     1       6.101  -4.110   4.751  1.00  0.00     0.163 HD
ATOM     30  O   UNL     1       7.221  -5.264   6.562  1.00  0.00    -0.269 OA
BRANCH  28  31
ATOM     31  C   UNL     1       5.116  -5.837   7.423  1.00  0.00     0.039 A 
ATOM     32  C   UNL     1       5.455  -5.807   8.778  1.00  0.00     0.014 A 
ATOM     33  C   UNL     1       3.966  -6.511   7.003  1.00  0.00     0.014 A 
ATOM     34  C   UNL     1       4.616  -6.413   9.715  1.00  0.00     0.010 A 
ATOM     35  C   UNL     1       3.090  -7.043   7.944  1.00  0.00     0.010 A 
ATOM     36  C   UNL     1       3.413  -7.013   9.309  1.00  0.00    -0.014 A 
BRANCH  36  37
ATOM     37  C   UNL     1       2.498  -7.641  10.298  1.00  0.00     0.031 A 
ATOM     38  C   UNL     1       2.224  -9.120  10.238  1.00  0.00     0.074 A 
ATOM     39  C   UNL     1       1.886  -6.878  11.224  1.00  0.00     0.049 A 
ATOM     40  N   UNL     1       1.420  -9.843  10.977  1.00  0.00    -0.248 NA
ATOM     41  C   UNL     1       2.927  -9.884   9.195  1.00  0.00     0.031 C 
ATOM     42  C   UNL     1       2.033  -5.427  11.360  1.00  0.00     0.029 A 
ATOM     43  N   UNL     1       1.010  -7.217  12.225  1.00  0.00    -0.354 N 
ATOM     44  C   UNL     1       1.523 -11.140  10.490  1.00  0.00     0.074 A 
ATOM     45  C   UNL     1       2.409 -11.093   9.348  1.00  0.00     0.031 C 
ATOM     46  C   UNL     1       1.290  -5.005  12.396  1.00  0.00     0.029 A 
ATOM     47  C   UNL     1       0.587  -6.145  12.974  1.00  0.00     0.049 A 
ATOM     48  H   UNL     1       0.714  -8.141  12.391  1.00  0.00     0.167 HD
ATOM     49  C   UNL     1       0.960 -12.275  10.969  1.00  0.00     0.037 A 
ATOM     50  C   UNL     1      -0.277  -6.089  14.006  1.00  0.00     0.037 A 
ATOM     51  C   UNL     1       0.085 -12.323  12.110  1.00  0.00     0.049 A 
ATOM     52  C   UNL     1      -0.907  -7.362  14.504  1.00  0.00     0.074 A 
ATOM     53  C   UNL     1      -0.527 -13.425  12.683  1.00  0.00     0.029 A 
ATOM     54  N   UNL     1      -0.300 -11.220  12.857  1.00  0.00    -0.354 N 
ATOM     55  N   UNL     1      -0.760  -8.588  14.064  1.00  0.00    -0.248 NA
ATOM     56  C   UNL     1      -1.813  -7.244  15.655  1.00  0.00     0.031 C 
ATOM     57  C   UNL     1      -1.312 -12.983  13.753  1.00  0.00     0.029 A 
ATOM     58  C   UNL     1      -1.145 -11.614  13.881  1.00  0.00     0.049 A 
ATOM     59  H   UNL     1      -0.015 -10.293  12.684  1.00  0.00     0.167 HD
ATOM     60  C   UNL     1      -1.520  -9.389  14.907  1.00  0.00     0.074 A 
ATOM     61  C   UNL     1      -2.114  -8.512  15.893  1.00  0.00     0.031 C 
ATOM     62  C   UNL     1      -1.710 -10.731  14.869  1.00  0.00     0.037 A 
BRANCH  49  63
ATOM     63  C   UNL     1       1.290 -13.561  10.267  1.00  0.00     0.057 A 
ATOM     64  C   UNL     1       2.572 -14.125  10.335  1.00  0.00     0.134 A 
ATOM     65  C   UNL     1       0.315 -14.263   9.549  1.00  0.00     0.134 A 
ATOM     66  F   UNL     1       3.557 -13.497  10.995  1.00  0.00    -0.206 F 
ATOM     67  C   UNL     1       2.878 -15.327   9.694  1.00  0.00     0.040 A 
ATOM     68  C   UNL     1       0.601 -15.482   8.929  1.00  0.00     0.040 A 
ATOM     69  F   UNL     1      -0.934 -13.785   9.447  1.00  0.00    -0.206 F 
ATOM     70  C   UNL     1       1.887 -16.013   8.996  1.00  0.00     0.006 A 
ENDBRANCH  49  63
BRANCH  50  71
ATOM     71  C   UNL     1      -0.595  -4.788  14.650  1.00  0.00     0.057 A 
ATOM     72  C   UNL     1      -0.208  -4.516  15.968  1.00  0.00     0.134 A 
ATOM     73  C   UNL     1      -1.330  -3.803  13.980  1.00  0.00     0.134 A 
ATOM     74  F   UNL     1       0.484  -5.426  16.670  1.00  0.00    -0.206 F 
ATOM     75  C   UNL     1      -0.572  -3.330  16.609  1.00  0.00     0.040 A 
ATOM     76  C   UNL     1      -1.675  -2.599  14.598  1.00  0.00     0.040 A 
ATOM     77  F   UNL     1      -1.723  -3.995  12.713  1.00  0.00    -0.206 F 
ATOM     78  C   UNL     1      -1.307  -2.367  15.922  1.00  0.00     0.006 A 
ENDBRANCH  50  71
BRANCH  62  79
ATOM     79  C   UNL     1      -2.542 -11.338  15.962  1.00  0.00     0.057 A 
ATOM     80  C   UNL     1      -3.925 -11.135  16.049  1.00  0.00     0.134 A 
ATOM     81  C   UNL     1      -1.948 -12.157  16.932  1.00  0.00     0.134 A 
ATOM     82  F   UNL     1      -4.556 -10.353  15.160  1.00  0.00    -0.206 F 
ATOM     83  C   UNL     1      -4.681 -11.696  17.081  1.00  0.00     0.040 A 
ATOM     84  C   UNL     1      -2.698 -12.749  17.949  1.00  0.00     0.040 A 
ATOM     85  F   UNL     1      -0.629 -12.403  16.901  1.00  0.00    -0.206 F 
ATOM     86  C   UNL     1      -4.068 -12.510  18.031  1.00  0.00     0.006 A 
ENDBRANCH  62  79
ENDBRANCH  36  37
ENDBRANCH  28  31
ENDBRANCH  26  27
ENDBRANCH  25  26
ENDBRANCH  24  25
ENDBRANCH  23  24
ENDBRANCH  22  23
ENDBRANCH   1  22
TORSDOF 17
