REMARK SMILES CC[C@]1(C(=O)NCCCCCCNC(=O)c2ccc(-c3c4nc(c(-c5c(F)cccc5F)c5ccc([nH]5)c(-c5c(F)cccc5F)c5nc(c(-c6c(F)cccc6F)c6ccc3[nH]6)C=C5)C=C4)cc2)CC[N@H+](Cc2ccc(CC(C)C)cc2)C1
REMARK SMILES IDX 8 1 7 2 6 3 4 4 5 5 3 7 70 8 84 9 71 10 72 11 2 13 1 14
REMARK SMILES IDX 73 15 74 16 75 17 83 18 76 19 82 20 77 21 78 22 79 23 80 24
REMARK SMILES IDX 81 25 9 26 10 27 11 28 12 29 13 30 14 31 15 33 16 34 17 35
REMARK SMILES IDX 69 36 18 37 68 38 19 39 20 40 21 41 62 42 22 43 67 44 61 45
REMARK SMILES IDX 63 46 23 47 66 48 60 49 59 50 24 52 50 53 33 54 49 55 34 56
REMARK SMILES IDX 37 57 48 58 64 59 35 60 36 61 47 63 65 64 38 65 25 66 26 67
REMARK SMILES IDX 31 68 27 69 28 70 30 71 32 72 29 73 51 74 52 75 57 76 53 77
REMARK SMILES IDX 54 78 56 79 58 80 55 81 39 82 40 83 45 84 41 85 42 86 44 87
REMARK SMILES IDX 46 88 43 89
REMARK H PARENT 6 6 72 12 13 32 63 51 37 62
REMARK Flexibility Score: inf
ROOT
ATOM      1  C   UNL     1      -0.302   4.732   4.269  1.00  0.00     0.021 C 
ENDROOT
BRANCH   1   2
ATOM      2  C   UNL     1       0.774   3.766   3.776  1.00  0.00     0.116 C 
BRANCH   2   3
ATOM      3  N   UNL     1       0.454   2.369   3.977  1.00  0.00    -0.355 N 
ATOM      4  C   UNL     1       0.509   1.292   3.150  1.00  0.00     0.232 C 
ATOM      5  O   UNL     1       0.537   0.206   3.749  1.00  0.00    -0.274 OA
ATOM      6  H   UNL     1       0.135   2.159   4.885  1.00  0.00     0.163 HD
BRANCH   4   7
ATOM      7  C   UNL     1       0.585   1.328   1.586  1.00  0.00     0.103 C 
ATOM      8  C   UNL     1      -0.207   2.478   0.919  1.00  0.00     0.084 C 
ATOM      9  C   UNL     1       2.034   1.586   1.151  1.00  0.00     0.279 C 
ATOM     10  C   UNL     1       0.850   3.388   0.268  1.00  0.00     0.263 C 
ATOM     11  N   UNL     1       2.046   3.032   1.004  1.00  0.00    -0.330 N 
ATOM     12  H   UNL     1       1.990   3.481   1.918  1.00  0.00     0.348 HD
BRANCH   7  13
ATOM     13  C   UNL     1       0.060  -0.060   1.099  1.00  0.00     0.020 C 
ATOM     14  C   UNL     1       0.281  -0.420  -0.364  1.00  0.00     0.005 C 
ENDBRANCH   7  13
BRANCH  11  15
ATOM     15  C   UNL     1       3.309   3.694   0.727  1.00  0.00     0.299 C 
BRANCH  15  16
ATOM     16  C   UNL     1       4.016   3.969   2.052  1.00  0.00     0.006 A 
ATOM     17  C   UNL     1       3.910   5.214   2.681  1.00  0.00     0.010 A 
ATOM     18  C   UNL     1       4.598   2.922   2.775  1.00  0.00     0.010 A 
ATOM     19  C   UNL     1       4.240   5.363   4.040  1.00  0.00     0.004 A 
ATOM     20  C   UNL     1       4.879   3.062   4.139  1.00  0.00     0.004 A 
ATOM     21  C   UNL     1       4.656   4.272   4.813  1.00  0.00    -0.048 A 
BRANCH  21  22
ATOM     22  C   UNL     1       4.577   4.231   6.330  1.00  0.00     0.038 C 
BRANCH  22  23
ATOM     23  C   UNL     1       5.141   5.300   7.295  1.00  0.00    -0.013 C 
ATOM     24  C   UNL     1       5.135   6.756   6.851  1.00  0.00     0.008 C 
ATOM     25  C   UNL     1       4.371   5.204   8.628  1.00  0.00     0.008 C 
ENDBRANCH  22  23
ENDBRANCH  21  22
ENDBRANCH  15  16
ENDBRANCH  11  15
ENDBRANCH   4   7
ENDBRANCH   2   3
ENDBRANCH   1   2
BRANCH   1  26
ATOM     26  C   UNL     1      -0.200   5.134   5.744  1.00  0.00     0.002 C 
BRANCH  26  27
ATOM     27  C   UNL     1       1.122   5.790   6.150  1.00  0.00     0.002 C 
BRANCH  27  28
ATOM     28  C   UNL     1       1.401   7.146   5.512  1.00  0.00     0.021 C 
BRANCH  28  29
ATOM     29  C   UNL     1       0.769   8.310   6.254  1.00  0.00     0.116 C 
BRANCH  29  30
ATOM     30  N   UNL     1       1.315   8.484   7.603  1.00  0.00    -0.352 N 
ATOM     31  C   UNL     1       2.220   9.379   8.127  1.00  0.00     0.251 C 
ATOM     32  H   UNL     1       0.968   7.838   8.260  1.00  0.00     0.163 HD
ATOM     33  O   UNL     1       2.667   9.200   9.259  1.00  0.00    -0.269 OA
BRANCH  31  34
ATOM     34  C   UNL     1       2.681  10.540   7.337  1.00  0.00     0.039 A 
ATOM     35  C   UNL     1       3.997  11.005   7.455  1.00  0.00     0.014 A 
ATOM     36  C   UNL     1       1.806  11.181   6.470  1.00  0.00     0.014 A 
ATOM     37  C   UNL     1       4.449  12.040   6.625  1.00  0.00     0.010 A 
ATOM     38  C   UNL     1       2.295  12.077   5.538  1.00  0.00     0.010 A 
ATOM     39  C   UNL     1       3.615  12.546   5.618  1.00  0.00    -0.014 A 
BRANCH  39  40
ATOM     40  C   UNL     1       4.009  13.610   4.656  1.00  0.00     0.031 A 
ATOM     41  C   UNL     1       3.113  14.816   4.519  1.00  0.00     0.074 A 
ATOM     42  C   UNL     1       5.036  13.431   3.804  1.00  0.00     0.049 A 
ATOM     43  N   UNL     1       3.016  15.677   3.540  1.00  0.00    -0.248 NA
ATOM     44  C   UNL     1       2.129  15.023   5.597  1.00  0.00     0.031 C 
ATOM     45  C   UNL     1       5.963  12.299   3.803  1.00  0.00     0.029 A 
ATOM     46  N   UNL     1       5.446  14.195   2.740  1.00  0.00    -0.354 N 
ATOM     47  C   UNL     1       1.917  16.470   3.850  1.00  0.00     0.074 A 
ATOM     48  C   UNL     1       1.341  15.943   5.066  1.00  0.00     0.031 C 
ATOM     49  C   UNL     1       6.844  12.451   2.800  1.00  0.00     0.029 A 
ATOM     50  C   UNL     1       6.506  13.656   2.050  1.00  0.00     0.049 A 
ATOM     51  H   UNL     1       5.022  15.049   2.494  1.00  0.00     0.167 HD
ATOM     52  C   UNL     1       1.445  17.558   3.196  1.00  0.00     0.037 A 
ATOM     53  C   UNL     1       7.115  14.076   0.924  1.00  0.00     0.037 A 
ATOM     54  C   UNL     1       2.083  18.124   2.039  1.00  0.00     0.049 A 
ATOM     55  C   UNL     1       6.607  15.314   0.236  1.00  0.00     0.074 A 
ATOM     56  C   UNL     1       1.751  19.273   1.345  1.00  0.00     0.029 A 
ATOM     57  N   UNL     1       3.206  17.590   1.423  1.00  0.00    -0.354 N 
ATOM     58  N   UNL     1       5.584  16.074   0.549  1.00  0.00    -0.248 NA
ATOM     59  C   UNL     1       7.335  15.754  -0.962  1.00  0.00     0.031 C 
ATOM     60  C   UNL     1       2.656  19.418   0.289  1.00  0.00     0.029 A 
ATOM     61  C   UNL     1       3.579  18.386   0.356  1.00  0.00     0.049 A 
ATOM     62  H   UNL     1       3.668  16.767   1.705  1.00  0.00     0.167 HD
ATOM     63  C   UNL     1       5.573  17.103  -0.385  1.00  0.00     0.074 A 
ATOM     64  C   UNL     1       6.690  16.869  -1.276  1.00  0.00     0.031 C 
ATOM     65  C   UNL     1       4.718  18.149  -0.494  1.00  0.00     0.037 A 
BRANCH  52  66
ATOM     66  C   UNL     1       0.201  18.209   3.732  1.00  0.00     0.057 A 
ATOM     67  C   UNL     1       0.174  18.849   4.979  1.00  0.00     0.134 A 
ATOM     68  C   UNL     1      -0.986  18.202   2.989  1.00  0.00     0.134 A 
ATOM     69  F   UNL     1       1.272  18.885   5.749  1.00  0.00    -0.206 F 
ATOM     70  C   UNL     1      -0.996  19.417   5.486  1.00  0.00     0.040 A 
ATOM     71  C   UNL     1      -2.154  18.800   3.469  1.00  0.00     0.040 A 
ATOM     72  F   UNL     1      -1.034  17.616   1.783  1.00  0.00    -0.206 F 
ATOM     73  C   UNL     1      -2.164  19.398   4.727  1.00  0.00     0.006 A 
ENDBRANCH  52  66
BRANCH  53  74
ATOM     74  C   UNL     1       8.293  13.341   0.395  1.00  0.00     0.057 A 
ATOM     75  C   UNL     1       9.573  13.906   0.461  1.00  0.00     0.134 A 
ATOM     76  C   UNL     1       8.180  12.072  -0.184  1.00  0.00     0.134 A 
ATOM     77  F   UNL     1       9.744  15.127   0.989  1.00  0.00    -0.206 F 
ATOM     78  C   UNL     1      10.694  13.247  -0.047  1.00  0.00     0.040 A 
ATOM     79  C   UNL     1       9.296  11.389  -0.672  1.00  0.00     0.040 A 
ATOM     80  F   UNL     1       6.985  11.470  -0.269  1.00  0.00    -0.206 F 
ATOM     81  C   UNL     1      10.557  11.981  -0.612  1.00  0.00     0.006 A 
ENDBRANCH  53  74
BRANCH  65  82
ATOM     82  C   UNL     1       4.993  19.161  -1.566  1.00  0.00     0.057 A 
ATOM     83  C   UNL     1       4.743  18.899  -2.917  1.00  0.00     0.134 A 
ATOM     84  C   UNL     1       5.441  20.444  -1.223  1.00  0.00     0.134 A 
ATOM     85  F   UNL     1       4.323  17.687  -3.309  1.00  0.00    -0.206 F 
ATOM     86  C   UNL     1       4.938  19.877  -3.894  1.00  0.00     0.040 A 
ATOM     87  C   UNL     1       5.614  21.437  -2.187  1.00  0.00     0.040 A 
ATOM     88  F   UNL     1       5.688  20.760   0.057  1.00  0.00    -0.206 F 
ATOM     89  C   UNL     1       5.365  21.153  -3.528  1.00  0.00     0.006 A 
ENDBRANCH  65  82
ENDBRANCH  39  40
ENDBRANCH  31  34
ENDBRANCH  29  30
ENDBRANCH  28  29
ENDBRANCH  27  28
ENDBRANCH  26  27
ENDBRANCH   1  26
TORSDOF 18
