REMARK SMILES O=C(CNc1ccccc1C(=O)N1CCCC1)NCCCCCCNC(=O)c1ccc(-c2c3nc(c(-c4c(F)cccc4F)c4ccc([nH]4)c(-c4c(F)cccc4F)c4nc(c(-c5c(F)cccc5F)c5ccc2[nH]5)C=C4)C=C3)cc1
REMARK SMILES IDX 21 1 20 2 19 3 18 4 1 5 2 6 3 8 4 9 5 11 6 12 10 13 7 14
REMARK SMILES IDX 9 15 8 16 11 17 12 18 13 19 14 20 17 21 15 22 16 23 22 24
REMARK SMILES IDX 23 25 24 26 25 27 26 28 27 30 28 31 29 32 81 33 30 34 80 35
REMARK SMILES IDX 31 36 32 37 33 38 74 39 34 40 79 41 73 42 75 43 35 44 78 45
REMARK SMILES IDX 72 46 71 47 36 49 62 50 45 51 61 52 46 53 49 54 60 55 76 56
REMARK SMILES IDX 47 57 48 58 59 60 77 61 50 62 37 63 38 64 43 65 39 66 40 67
REMARK SMILES IDX 42 68 44 69 41 70 63 71 64 72 69 73 65 74 66 75 68 76 70 77
REMARK SMILES IDX 67 78 51 79 52 80 57 81 53 82 54 83 56 84 58 85 55 86
REMARK H PARENT 18 7 4 10 25 29 75 48 49 59
REMARK Flexibility Score: inf
ROOT
ATOM      1  C   UNL     1       4.027  -2.941   2.404  1.00  0.00     0.002 C 
ENDROOT
BRANCH   1   2
ATOM      2  C   UNL     1       2.493  -2.840   2.331  1.00  0.00     0.021 C 
BRANCH   2   3
ATOM      3  C   UNL     1       1.923  -1.451   2.648  1.00  0.00     0.116 C 
BRANCH   3   4
ATOM      4  N   UNL     1       2.605  -0.456   1.862  1.00  0.00    -0.355 N 
ATOM      5  O   UNL     1       1.129  -0.494   0.104  1.00  0.00    -0.273 OA
ATOM      6  C   UNL     1       2.254  -0.276   0.542  1.00  0.00     0.239 C 
ATOM      7  H   UNL     1       3.318   0.091   2.264  1.00  0.00     0.163 HD
BRANCH   6   8
ATOM      8  C   UNL     1       3.447   0.079  -0.330  1.00  0.00     0.213 C 
BRANCH   8   9
ATOM      9  N   UNL     1       3.860   1.467  -0.153  1.00  0.00    -0.376 N 
ATOM     10  H   UNL     1       3.299   2.107   0.341  1.00  0.00     0.161 HD
BRANCH   9  11
ATOM     11  C   UNL     1       5.082   1.853  -0.710  1.00  0.00     0.047 A 
ATOM     12  C   UNL     1       6.042   2.366   0.185  1.00  0.00     0.026 A 
ATOM     13  C   UNL     1       5.484   1.614  -2.046  1.00  0.00     0.063 A 
ATOM     14  C   UNL     1       7.366   2.585  -0.202  1.00  0.00     0.002 A 
ATOM     15  C   UNL     1       6.821   1.846  -2.426  1.00  0.00     0.016 A 
ATOM     16  C   UNL     1       7.758   2.320  -1.508  1.00  0.00     0.001 A 
BRANCH  13  17
ATOM     17  C   UNL     1       4.635   0.957  -3.081  1.00  0.00     0.255 C 
ATOM     18  O   UNL     1       5.139   0.018  -3.701  1.00  0.00    -0.269 OA
ATOM     19  N   UNL     1       3.318   1.328  -3.281  1.00  0.00    -0.339 N 
ATOM     20  C   UNL     1       2.616   2.528  -2.874  1.00  0.00     0.120 C 
ATOM     21  C   UNL     1       2.392   0.415  -3.920  1.00  0.00     0.120 C 
ATOM     22  C   UNL     1       1.225   2.031  -2.506  1.00  0.00     0.023 C 
ATOM     23  C   UNL     1       1.044   0.715  -3.271  1.00  0.00     0.023 C 
ENDBRANCH  13  17
ENDBRANCH   9  11
ENDBRANCH   8   9
ENDBRANCH   6   8
ENDBRANCH   3   4
ENDBRANCH   2   3
ENDBRANCH   1   2
BRANCH   1  24
ATOM     24  C   UNL     1       4.667  -2.387   3.680  1.00  0.00     0.002 C 
BRANCH  24  25
ATOM     25  C   UNL     1       4.082  -2.936   4.978  1.00  0.00     0.021 C 
BRANCH  25  26
ATOM     26  C   UNL     1       4.153  -4.449   5.097  1.00  0.00     0.116 C 
BRANCH  26  27
ATOM     27  N   UNL     1       5.522  -4.922   5.209  1.00  0.00    -0.352 N 
ATOM     28  C   UNL     1       6.053  -5.771   6.145  1.00  0.00     0.251 C 
ATOM     29  H   UNL     1       6.148  -4.591   4.524  1.00  0.00     0.163 HD
ATOM     30  O   UNL     1       7.268  -5.924   6.231  1.00  0.00    -0.269 OA
BRANCH  28  31
ATOM     31  C   UNL     1       5.147  -6.485   7.069  1.00  0.00     0.039 A 
ATOM     32  C   UNL     1       5.465  -6.532   8.427  1.00  0.00     0.014 A 
ATOM     33  C   UNL     1       3.984  -7.098   6.593  1.00  0.00     0.014 A 
ATOM     34  C   UNL     1       4.595  -7.165   9.315  1.00  0.00     0.010 A 
ATOM     35  C   UNL     1       3.078  -7.652   7.489  1.00  0.00     0.010 A 
ATOM     36  C   UNL     1       3.386  -7.713   8.856  1.00  0.00    -0.014 A 
BRANCH  36  37
ATOM     37  C   UNL     1       2.458  -8.406   9.784  1.00  0.00     0.031 A 
ATOM     38  C   UNL     1       2.194  -9.877   9.611  1.00  0.00     0.074 A 
ATOM     39  C   UNL     1       1.831  -7.712  10.753  1.00  0.00     0.049 A 
ATOM     40  N   UNL     1       1.381 -10.657  10.278  1.00  0.00    -0.248 NA
ATOM     41  C   UNL     1       2.919 -10.558   8.524  1.00  0.00     0.031 C 
ATOM     42  C   UNL     1       1.968  -6.274  10.992  1.00  0.00     0.029 A 
ATOM     43  N   UNL     1       0.946  -8.126  11.715  1.00  0.00    -0.354 N 
ATOM     44  C   UNL     1       1.497 -11.911   9.692  1.00  0.00     0.074 A 
ATOM     45  C   UNL     1       2.400 -11.775   8.572  1.00  0.00     0.031 C 
ATOM     46  C   UNL     1       1.210  -5.930  12.046  1.00  0.00     0.029 A 
ATOM     47  C   UNL     1       0.512  -7.114  12.537  1.00  0.00     0.049 A 
ATOM     48  H   UNL     1       0.649  -9.060  11.809  1.00  0.00     0.167 HD
ATOM     49  C   UNL     1       0.930 -13.080  10.073  1.00  0.00     0.037 A 
ATOM     50  C   UNL     1      -0.354  -7.141  13.568  1.00  0.00     0.037 A 
ATOM     51  C   UNL     1       0.047 -13.218  11.199  1.00  0.00     0.049 A 
ATOM     52  C   UNL     1      -0.969  -8.454  13.972  1.00  0.00     0.074 A 
ATOM     53  C   UNL     1      -0.572 -14.360  11.678  1.00  0.00     0.029 A 
ATOM     54  N   UNL     1      -0.336 -12.177  12.031  1.00  0.00    -0.354 N 
ATOM     55  N   UNL     1      -0.815  -9.641  13.435  1.00  0.00    -0.248 NA
ATOM     56  C   UNL     1      -1.865  -8.434  15.136  1.00  0.00     0.031 C 
ATOM     57  C   UNL     1      -1.350 -14.004  12.784  1.00  0.00     0.029 A 
ATOM     58  C   UNL     1      -1.179 -12.650  13.021  1.00  0.00     0.049 A 
ATOM     59  H   UNL     1      -0.050 -11.240  11.932  1.00  0.00     0.167 HD
ATOM     60  C   UNL     1      -1.562 -10.512  14.218  1.00  0.00     0.074 A 
ATOM     61  C   UNL     1      -2.157  -9.719  15.273  1.00  0.00     0.031 C 
ATOM     62  C   UNL     1      -1.741 -11.848  14.077  1.00  0.00     0.037 A 
BRANCH  49  63
ATOM     63  C   UNL     1       1.272 -14.304   9.275  1.00  0.00     0.057 A 
ATOM     64  C   UNL     1       2.550 -14.878   9.325  1.00  0.00     0.134 A 
ATOM     65  C   UNL     1       0.312 -14.935   8.473  1.00  0.00     0.134 A 
ATOM     66  F   UNL     1       3.520 -14.313  10.060  1.00  0.00    -0.206 F 
ATOM     67  C   UNL     1       2.868 -16.020   8.589  1.00  0.00     0.040 A 
ATOM     68  C   UNL     1       0.611 -16.095   7.755  1.00  0.00     0.040 A 
ATOM     69  F   UNL     1      -0.931 -14.441   8.382  1.00  0.00    -0.206 F 
ATOM     70  C   UNL     1       1.894 -16.637   7.807  1.00  0.00     0.006 A 
ENDBRANCH  49  63
BRANCH  50  71
ATOM     71  C   UNL     1      -0.678  -5.896  14.310  1.00  0.00     0.057 A 
ATOM     72  C   UNL     1      -0.264  -5.712  15.635  1.00  0.00     0.134 A 
ATOM     73  C   UNL     1      -1.438  -4.876  13.726  1.00  0.00     0.134 A 
ATOM     74  F   UNL     1       0.453  -6.661  16.255  1.00  0.00    -0.206 F 
ATOM     75  C   UNL     1      -0.624  -4.578  16.363  1.00  0.00     0.040 A 
ATOM     76  C   UNL     1      -1.782  -3.723  14.433  1.00  0.00     0.040 A 
ATOM     77  F   UNL     1      -1.856  -4.985  12.456  1.00  0.00    -0.206 F 
ATOM     78  C   UNL     1      -1.384  -3.577  15.761  1.00  0.00     0.006 A 
ENDBRANCH  50  71
BRANCH  62  79
ATOM     79  C   UNL     1      -2.562 -12.543  15.123  1.00  0.00     0.057 A 
ATOM     80  C   UNL     1      -3.950 -12.380  15.209  1.00  0.00     0.134 A 
ATOM     81  C   UNL     1      -1.954 -13.409  16.041  1.00  0.00     0.134 A 
ATOM     82  F   UNL     1      -4.591 -11.555  14.366  1.00  0.00    -0.206 F 
ATOM     83  C   UNL     1      -4.700 -13.029  16.191  1.00  0.00     0.040 A 
ATOM     84  C   UNL     1      -2.697 -14.085  17.009  1.00  0.00     0.040 A 
ATOM     85  F   UNL     1      -0.629 -13.618  16.006  1.00  0.00    -0.206 F 
ATOM     86  C   UNL     1      -4.074 -13.889  17.091  1.00  0.00     0.006 A 
ENDBRANCH  62  79
ENDBRANCH  36  37
ENDBRANCH  28  31
ENDBRANCH  26  27
ENDBRANCH  25  26
ENDBRANCH  24  25
ENDBRANCH   1  24
TORSDOF 16
