REMARK SMILES COc1ccc2c(c1)c(CC(=O)NCCCCCCNC(=O)c1ccc(-c3c4nc(c(-c5c(F)cccc5F)c5ccc([nH]5)c(-c5c(F)cccc5F)c5nc(c(-c6c(F)cccc6F)c6ccc3[nH]6)C=C5)C=C4)cc1)c(C)n2Cc1ccn(C(F)F)c(=O)c1
REMARK SMILES IDX 15 1 14 2 13 3 11 4 12 5 10 7 9 8 3 9 4 10 8 11 5 12 7 13
REMARK SMILES IDX 6 14 79 15 77 16 78 17 2 18 1 19 80 20 81 21 82 22 90 23
REMARK SMILES IDX 83 24 88 25 84 26 89 27 85 28 86 29 87 30 16 31 17 32 18 33
REMARK SMILES IDX 19 34 20 35 21 36 22 38 23 39 24 40 76 41 25 42 75 43 26 44
REMARK SMILES IDX 27 45 28 46 69 47 29 48 74 49 68 50 70 51 30 52 73 53 67 54
REMARK SMILES IDX 66 55 31 57 57 58 40 59 56 60 41 61 44 62 55 63 71 64 42 65
REMARK SMILES IDX 43 66 54 68 72 69 45 70 32 71 33 72 38 73 34 74 35 75 37 76
REMARK SMILES IDX 39 77 36 78 58 79 59 80 64 81 60 82 61 83 63 84 65 85 62 86
REMARK SMILES IDX 46 87 47 88 52 89 48 90 49 91 51 92 53 93 50 94
REMARK H PARENT 13 6 20 37 70 56 44 67
REMARK Flexibility Score: inf
ROOT
ATOM      1  C   UNL     1       0.576   6.178   4.595  1.00  0.00     0.021 C 
ENDROOT
BRANCH   1   2
ATOM      2  C   UNL     1      -0.755   5.910   5.298  1.00  0.00     0.116 C 
BRANCH   2   3
ATOM      3  N   UNL     1      -1.766   5.453   4.363  1.00  0.00    -0.356 N 
ATOM      4  C   UNL     1      -2.308   4.210   4.205  1.00  0.00     0.224 C 
ATOM      5  O   UNL     1      -3.112   4.042   3.284  1.00  0.00    -0.275 OA
ATOM      6  H   UNL     1      -2.112   6.142   3.751  1.00  0.00     0.163 HD
BRANCH   4   7
ATOM      7  C   UNL     1      -2.004   3.096   5.196  1.00  0.00     0.138 C 
BRANCH   7   8
ATOM      8  C   UNL     1      -0.556   2.710   5.246  1.00  0.00    -0.010 A 
ATOM      9  C   UNL     1       0.960   1.525   1.956  1.00  0.00     0.119 A 
ATOM     10  C   UNL     1       2.256   1.369   2.433  1.00  0.00     0.048 A 
ATOM     11  C   UNL     1      -0.041   2.014   2.795  1.00  0.00     0.057 A 
ATOM     12  C   UNL     1       2.578   1.675   3.766  1.00  0.00     0.031 A 
ATOM     13  C   UNL     1       0.245   2.281   4.150  1.00  0.00     0.007 A 
ATOM     14  C   UNL     1       1.552   2.120   4.621  1.00  0.00     0.049 A 
ATOM     15  N   UNL     1       1.547   2.487   5.963  1.00  0.00    -0.340 N 
ATOM     16  C   UNL     1       0.234   2.622   6.384  1.00  0.00     0.020 A 
ATOM     17  C   UNL     1      -0.218   2.708   7.801  1.00  0.00     0.065 C 
BRANCH   9  18
ATOM     18  O   UNL     1       0.592   1.296   0.657  1.00  0.00    -0.497 OA
ATOM     19  C   UNL     1       1.027   0.039   0.146  1.00  0.00     0.278 C 
ENDBRANCH   9  18
BRANCH  15  20
ATOM     20  C   UNL     1       2.744   2.601   6.810  1.00  0.00     0.158 C 
BRANCH  20  21
ATOM     21  C   UNL     1       3.148   4.026   7.158  1.00  0.00    -0.021 A 
ATOM     22  C   UNL     1       2.409   4.745   8.179  1.00  0.00     0.024 A 
ATOM     23  C   UNL     1       4.238   4.623   6.639  1.00  0.00     0.077 A 
ATOM     24  C   UNL     1       2.731   5.995   8.525  1.00  0.00     0.095 A 
ATOM     25  C   UNL     1       4.653   5.998   7.063  1.00  0.00     0.255 A 
ATOM     26  N   UNL     1       3.817   6.636   7.962  1.00  0.00    -0.258 N 
ATOM     27  O   UNL     1       5.691   6.465   6.596  1.00  0.00    -0.269 OA
BRANCH  26  28
ATOM     28  C   UNL     1       4.208   7.932   8.464  1.00  0.00     0.451 C 
ATOM     29  F   UNL     1       5.190   7.807   9.388  1.00  0.00    -0.185 F 
ATOM     30  F   UNL     1       4.659   8.750   7.485  1.00  0.00    -0.185 F 
ENDBRANCH  26  28
ENDBRANCH  20  21
ENDBRANCH  15  20
ENDBRANCH   7   8
ENDBRANCH   4   7
ENDBRANCH   2   3
ENDBRANCH   1   2
BRANCH   1  31
ATOM     31  C   UNL     1       0.542   7.400   3.668  1.00  0.00     0.002 C 
BRANCH  31  32
ATOM     32  C   UNL     1       0.287   8.736   4.377  1.00  0.00     0.002 C 
BRANCH  32  33
ATOM     33  C   UNL     1       1.325   9.109   5.442  1.00  0.00     0.021 C 
BRANCH  33  34
ATOM     34  C   UNL     1       2.757   9.167   4.907  1.00  0.00     0.116 C 
BRANCH  34  35
ATOM     35  N   UNL     1       2.947  10.159   3.874  1.00  0.00    -0.352 N 
ATOM     36  C   UNL     1       3.322  11.472   3.875  1.00  0.00     0.251 C 
ATOM     37  H   UNL     1       2.766   9.812   2.970  1.00  0.00     0.163 HD
ATOM     38  O   UNL     1       3.563  11.972   2.773  1.00  0.00    -0.269 OA
BRANCH  36  39
ATOM     39  C   UNL     1       3.361  12.348   5.078  1.00  0.00     0.039 A 
ATOM     40  C   UNL     1       3.159  11.942   6.398  1.00  0.00     0.014 A 
ATOM     41  C   UNL     1       3.522  13.722   4.815  1.00  0.00     0.014 A 
ATOM     42  C   UNL     1       2.965  12.882   7.401  1.00  0.00     0.010 A 
ATOM     43  C   UNL     1       3.357  14.666   5.817  1.00  0.00     0.010 A 
ATOM     44  C   UNL     1       3.002  14.241   7.091  1.00  0.00    -0.014 A 
BRANCH  44  45
ATOM     45  C   UNL     1       2.722  15.195   8.157  1.00  0.00     0.031 A 
ATOM     46  C   UNL     1       3.668  15.140   9.306  1.00  0.00     0.074 A 
ATOM     47  C   UNL     1       1.746  16.119   8.050  1.00  0.00     0.049 A 
ATOM     48  N   UNL     1       3.404  14.898  10.549  1.00  0.00    -0.248 NA
ATOM     49  C   UNL     1       5.107  15.238   9.011  1.00  0.00     0.031 C 
ATOM     50  C   UNL     1       0.914  16.423   6.882  1.00  0.00     0.029 A 
ATOM     51  N   UNL     1       1.357  17.065   8.948  1.00  0.00    -0.354 N 
ATOM     52  C   UNL     1       4.618  15.006  11.229  1.00  0.00     0.074 A 
ATOM     53  C   UNL     1       5.641  15.058  10.219  1.00  0.00     0.031 C 
ATOM     54  C   UNL     1       0.310  17.619   7.062  1.00  0.00     0.029 A 
ATOM     55  C   UNL     1       0.607  18.098   8.399  1.00  0.00     0.049 A 
ATOM     56  H   UNL     1       1.587  17.020   9.904  1.00  0.00     0.167 HD
ATOM     57  C   UNL     1       4.659  15.281  12.562  1.00  0.00     0.037 A 
ATOM     58  C   UNL     1       0.328  19.291   8.984  1.00  0.00     0.037 A 
ATOM     59  C   UNL     1       3.409  14.949  13.198  1.00  0.00     0.049 A 
ATOM     60  C   UNL     1       0.528  19.129  10.446  1.00  0.00     0.074 A 
ATOM     61  C   UNL     1       2.670  13.792  13.352  1.00  0.00     0.029 A 
ATOM     62  N   UNL     1       2.552  15.975  13.514  1.00  0.00    -0.354 N 
ATOM     63  N   UNL     1      -0.242  18.396  11.202  1.00  0.00    -0.248 NA
ATOM     64  C   UNL     1       1.859  19.388  10.977  1.00  0.00     0.031 C 
ATOM     65  C   UNL     1       1.309  14.207  13.250  1.00  0.00     0.029 A 
ATOM     66  C   UNL     1       1.302  15.595  13.105  1.00  0.00     0.049 A 
ATOM     67  H   UNL     1       2.791  16.823  13.952  1.00  0.00     0.167 HD
ATOM     68  C   UNL     1       0.628  17.745  12.066  1.00  0.00     0.074 A 
ATOM     69  C   UNL     1       1.900  18.454  11.932  1.00  0.00     0.031 C 
ATOM     70  C   UNL     1       0.325  16.518  12.584  1.00  0.00     0.037 A 
BRANCH  57  71
ATOM     71  C   UNL     1       5.649  16.240  13.197  1.00  0.00     0.057 A 
ATOM     72  C   UNL     1       6.429  17.174  12.485  1.00  0.00     0.134 A 
ATOM     73  C   UNL     1       5.560  16.480  14.583  1.00  0.00     0.134 A 
ATOM     74  F   UNL     1       6.627  17.099  11.165  1.00  0.00    -0.206 F 
ATOM     75  C   UNL     1       6.982  18.310  13.081  1.00  0.00     0.040 A 
ATOM     76  C   UNL     1       6.072  17.638  15.181  1.00  0.00     0.040 A 
ATOM     77  F   UNL     1       4.878  15.648  15.386  1.00  0.00    -0.206 F 
ATOM     78  C   UNL     1       6.764  18.572  14.423  1.00  0.00     0.006 A 
ENDBRANCH  57  71
BRANCH  58  79
ATOM     79  C   UNL     1       0.222  20.617   8.330  1.00  0.00     0.057 A 
ATOM     80  C   UNL     1       0.897  20.904   7.128  1.00  0.00     0.134 A 
ATOM     81  C   UNL     1      -0.335  21.720   8.993  1.00  0.00     0.134 A 
ATOM     82  F   UNL     1       1.546  19.947   6.451  1.00  0.00    -0.206 F 
ATOM     83  C   UNL     1       1.011  22.200   6.617  1.00  0.00     0.040 A 
ATOM     84  C   UNL     1      -0.220  23.027   8.496  1.00  0.00     0.040 A 
ATOM     85  F   UNL     1      -0.955  21.564  10.172  1.00  0.00    -0.206 F 
ATOM     86  C   UNL     1       0.462  23.271   7.307  1.00  0.00     0.006 A 
ENDBRANCH  58  79
BRANCH  70  87
ATOM     87  C   UNL     1      -1.065  15.989  12.370  1.00  0.00     0.057 A 
ATOM     88  C   UNL     1      -1.828  15.621  13.483  1.00  0.00     0.134 A 
ATOM     89  C   UNL     1      -1.605  15.698  11.108  1.00  0.00     0.134 A 
ATOM     90  F   UNL     1      -1.348  15.806  14.723  1.00  0.00    -0.206 F 
ATOM     91  C   UNL     1      -3.077  15.011  13.350  1.00  0.00     0.040 A 
ATOM     92  C   UNL     1      -2.869  15.120  10.960  1.00  0.00     0.040 A 
ATOM     93  F   UNL     1      -0.902  15.907   9.989  1.00  0.00    -0.206 F 
ATOM     94  C   UNL     1      -3.608  14.770  12.085  1.00  0.00     0.006 A 
ENDBRANCH  70  87
ENDBRANCH  44  45
ENDBRANCH  36  39
ENDBRANCH  34  35
ENDBRANCH  33  34
ENDBRANCH  32  33
ENDBRANCH  31  32
ENDBRANCH   1  31
TORSDOF 18
