REMARK SMILES C/C(=N\Nc1nc(-c2ccc(Cl)cc2)cs1)c1nnn(-c2ccc(C(=O)NCCCCCCNC(=O)c3ccc(-c4c5nc(c(-c6c(F)cccc6F)c6ccc([nH]6)c(-c6c(F)cccc6F)c6nc(c(-c7c(F)cccc7F)c7ccc4[nH]7)C=C6)C=C5)cc3)cc2)c1C
REMARK SMILES IDX 29 1 28 2 27 3 25 4 26 5 24 7 21 8 22 9 92 10 23 11 91 12
REMARK SMILES IDX 20 13 17 14 18 15 93 16 19 17 94 18 2 19 1 20 3 21 4 22 5 24
REMARK SMILES IDX 6 25 16 26 7 27 15 28 8 29 9 30 14 31 10 32 13 33 11 34
REMARK SMILES IDX 12 35 30 36 31 37 32 38 33 39 34 40 35 41 36 43 37 44 38 45
REMARK SMILES IDX 90 46 39 47 89 48 40 49 41 50 42 51 83 52 43 53 88 54 82 55
REMARK SMILES IDX 84 56 44 57 87 58 81 59 80 60 45 62 71 63 54 64 70 65 55 66
REMARK SMILES IDX 58 67 69 68 85 69 56 70 57 71 68 73 86 74 59 75 46 76 47 77
REMARK SMILES IDX 52 78 48 79 49 80 51 81 53 82 50 83 72 84 73 85 78 86 74 87
REMARK SMILES IDX 75 88 77 89 79 90 76 91 60 92 61 93 66 94 62 95 63 96 65 97
REMARK SMILES IDX 67 98 64 99
REMARK H PARENT 27 6 4 23 34 42 84 61 58 72
REMARK Flexibility Score: inf
ROOT
ATOM      1  C   UNL     1       8.585  -3.734   6.044  1.00  0.00     0.021 C 
ENDROOT
BRANCH   1   2
ATOM      2  C   UNL     1       8.335  -3.807   4.535  1.00  0.00     0.116 C 
BRANCH   2   3
ATOM      3  N   UNL     1       8.043  -5.172   4.136  1.00  0.00    -0.352 N 
ATOM      4  C   UNL     1       6.880  -5.828   3.820  1.00  0.00     0.251 C 
ATOM      5  O   UNL     1       6.963  -7.011   3.491  1.00  0.00    -0.269 OA
ATOM      6  H   UNL     1       8.843  -5.744   4.082  1.00  0.00     0.163 HD
BRANCH   4   7
ATOM      7  C   UNL     1       5.549  -5.158   3.780  1.00  0.00     0.039 A 
ATOM      8  C   UNL     1       3.138  -3.821   3.347  1.00  0.00     0.067 A 
ATOM      9  C   UNL     1       3.359  -5.038   2.704  1.00  0.00     0.029 A 
ATOM     10  C   UNL     1       4.044  -3.333   4.290  1.00  0.00     0.029 A 
ATOM     11  C   UNL     1       4.582  -5.688   2.904  1.00  0.00     0.016 A 
ATOM     12  C   UNL     1       5.220  -4.036   4.543  1.00  0.00     0.016 A 
BRANCH   8  13
ATOM     13  N   UNL     1       2.074  -2.997   2.942  1.00  0.00    -0.217 N 
ATOM     14  C   UNL     1       0.889  -1.425   2.020  1.00  0.00     0.132 A 
ATOM     15  N   UNL     1       0.053  -2.442   2.388  1.00  0.00    -0.128 NA
ATOM     16  C   UNL     1       2.191  -1.746   2.370  1.00  0.00     0.071 A 
ATOM     17  N   UNL     1       0.799  -3.431   2.871  1.00  0.00    -0.061 NA
ATOM     18  C   UNL     1       3.480  -1.085   2.032  1.00  0.00     0.069 C 
BRANCH  14  19
ATOM     19  C   UNL     1       0.507  -0.316   1.161  1.00  0.00     0.087 C 
ATOM     20  C   UNL     1       1.176  -0.336  -0.193  1.00  0.00     0.071 C 
ATOM     21  N   UNL     1      -0.286   0.583   1.675  1.00  0.00    -0.176 NA
BRANCH  21  22
ATOM     22  N   UNL     1      -0.612   1.760   1.037  1.00  0.00    -0.252 N 
ATOM     23  H   UNL     1      -0.961   2.467   1.627  1.00  0.00     0.193 HD
BRANCH  22  24
ATOM     24  C   UNL     1      -0.528   2.101  -0.274  1.00  0.00     0.203 A 
ATOM     25  N   UNL     1      -0.750   1.303  -1.292  1.00  0.00    -0.219 NA
ATOM     26  S   UNL     1       0.042   3.668  -0.735  1.00  0.00    -0.103 S 
ATOM     27  C   UNL     1      -0.145   1.794  -2.431  1.00  0.00     0.084 A 
ATOM     28  C   UNL     1       0.353   3.074  -2.320  1.00  0.00     0.097 A 
BRANCH  27  29
ATOM     29  C   UNL     1       0.014   0.925  -3.583  1.00  0.00     0.001 A 
ATOM     30  C   UNL     1      -1.090   0.201  -4.050  1.00  0.00     0.012 A 
ATOM     31  C   UNL     1       1.276   0.699  -4.151  1.00  0.00     0.012 A 
ATOM     32  C   UNL     1      -0.945  -0.713  -5.096  1.00  0.00     0.021 A 
ATOM     33  C   UNL     1       1.423  -0.226  -5.190  1.00  0.00     0.021 A 
ATOM     34  C   UNL     1       0.311  -0.922  -5.662  1.00  0.00     0.041 A 
ATOM     35  Cl  UNL     1       0.493  -2.057  -6.942  1.00  0.00    -0.084 Cl
ENDBRANCH  27  29
ENDBRANCH  22  24
ENDBRANCH  21  22
ENDBRANCH  14  19
ENDBRANCH   8  13
ENDBRANCH   4   7
ENDBRANCH   2   3
ENDBRANCH   1   2
BRANCH   1  36
ATOM     36  C   UNL     1      10.001  -4.166   6.449  1.00  0.00     0.002 C 
BRANCH  36  37
ATOM     37  C   UNL     1      11.144  -3.342   5.834  1.00  0.00     0.002 C 
BRANCH  37  38
ATOM     38  C   UNL     1      11.035  -1.817   5.981  1.00  0.00     0.021 C 
BRANCH  38  39
ATOM     39  C   UNL     1      11.107  -1.335   7.422  1.00  0.00     0.116 C 
BRANCH  39  40
ATOM     40  N   UNL     1      12.417  -1.576   8.017  1.00  0.00    -0.352 N 
ATOM     41  C   UNL     1      12.850  -1.316   9.302  1.00  0.00     0.251 C 
ATOM     42  H   UNL     1      13.086  -1.980   7.419  1.00  0.00     0.163 HD
ATOM     43  O   UNL     1      14.041  -1.196   9.540  1.00  0.00    -0.269 OA
BRANCH  41  44
ATOM     44  C   UNL     1      11.859  -1.185  10.388  1.00  0.00     0.039 A 
ATOM     45  C   UNL     1      12.074  -0.292  11.440  1.00  0.00     0.014 A 
ATOM     46  C   UNL     1      10.714  -1.980  10.361  1.00  0.00     0.014 A 
ATOM     47  C   UNL     1      11.092  -0.160  12.418  1.00  0.00     0.010 A 
ATOM     48  C   UNL     1       9.682  -1.741  11.235  1.00  0.00     0.010 A 
ATOM     49  C   UNL     1       9.883  -0.870  12.295  1.00  0.00    -0.014 A 
BRANCH  49  50
ATOM     50  C   UNL     1       8.755  -0.559  13.169  1.00  0.00     0.031 A 
ATOM     51  C   UNL     1       8.440   0.891  13.179  1.00  0.00     0.074 A 
ATOM     52  C   UNL     1       7.957  -1.480  13.755  1.00  0.00     0.049 A 
ATOM     53  N   UNL     1       8.710   1.731  14.120  1.00  0.00    -0.248 NA
ATOM     54  C   UNL     1       7.977   1.526  11.932  1.00  0.00     0.031 C 
ATOM     55  C   UNL     1       7.986  -2.936  13.577  1.00  0.00     0.029 A 
ATOM     56  N   UNL     1       6.879  -1.306  14.576  1.00  0.00    -0.354 N 
ATOM     57  C   UNL     1       8.185   2.946  13.694  1.00  0.00     0.074 A 
ATOM     58  C   UNL     1       7.983   2.817  12.277  1.00  0.00     0.031 C 
ATOM     59  C   UNL     1       6.853  -3.481  14.073  1.00  0.00     0.029 A 
ATOM     60  C   UNL     1       6.093  -2.447  14.750  1.00  0.00     0.049 A 
ATOM     61  H   UNL     1       6.673  -0.447  15.010  1.00  0.00     0.167 HD
ATOM     62  C   UNL     1       7.635   3.792  14.607  1.00  0.00     0.037 A 
ATOM     63  C   UNL     1       4.903  -2.534  15.399  1.00  0.00     0.037 A 
ATOM     64  C   UNL     1       8.054   3.426  15.944  1.00  0.00     0.049 A 
ATOM     65  C   UNL     1       4.818  -1.366  16.302  1.00  0.00     0.074 A 
ATOM     66  C   UNL     1       9.252   3.295  16.617  1.00  0.00     0.029 A 
ATOM     67  N   UNL     1       7.127   2.723  16.668  1.00  0.00    -0.354 N 
ATOM     68  N   UNL     1       5.555  -1.216  17.364  1.00  0.00    -0.248 NA
ATOM     69  C   UNL     1       4.178  -0.159  15.807  1.00  0.00     0.031 C 
ATOM     70  C   UNL     1       9.065   2.204  17.522  1.00  0.00     0.029 A 
ATOM     71  C   UNL     1       7.743   1.767  17.422  1.00  0.00     0.049 A 
ATOM     72  H   UNL     1       6.156   2.884  16.648  1.00  0.00     0.167 HD
ATOM     73  C   UNL     1       5.860   0.134  17.377  1.00  0.00     0.074 A 
ATOM     74  C   UNL     1       4.863   0.750  16.505  1.00  0.00     0.031 C 
ATOM     75  C   UNL     1       7.075   0.554  17.841  1.00  0.00     0.037 A 
BRANCH  62  76
ATOM     76  C   UNL     1       6.332   4.547  14.379  1.00  0.00     0.057 A 
ATOM     77  C   UNL     1       5.851   5.370  15.418  1.00  0.00     0.134 A 
ATOM     78  C   UNL     1       5.381   4.243  13.382  1.00  0.00     0.134 A 
ATOM     79  F   UNL     1       6.650   5.734  16.433  1.00  0.00    -0.206 F 
ATOM     80  C   UNL     1       4.507   5.753  15.516  1.00  0.00     0.040 A 
ATOM     81  C   UNL     1       4.049   4.663  13.447  1.00  0.00     0.040 A 
ATOM     82  F   UNL     1       5.642   3.448  12.340  1.00  0.00    -0.206 F 
ATOM     83  C   UNL     1       3.597   5.387  14.535  1.00  0.00     0.006 A 
ENDBRANCH  62  76
BRANCH  63  84
ATOM     84  C   UNL     1       3.725  -3.406  15.165  1.00  0.00     0.057 A 
ATOM     85  C   UNL     1       2.687  -3.492  16.110  1.00  0.00     0.134 A 
ATOM     86  C   UNL     1       3.438  -3.924  13.893  1.00  0.00     0.134 A 
ATOM     87  F   UNL     1       2.846  -2.998  17.347  1.00  0.00    -0.206 F 
ATOM     88  C   UNL     1       1.425  -4.014  15.794  1.00  0.00     0.040 A 
ATOM     89  C   UNL     1       2.183  -4.454  13.566  1.00  0.00     0.040 A 
ATOM     90  F   UNL     1       4.331  -3.844  12.897  1.00  0.00    -0.206 F 
ATOM     91  C   UNL     1       1.164  -4.482  14.511  1.00  0.00     0.006 A 
ENDBRANCH  63  84
BRANCH  75  92
ATOM     92  C   UNL     1       7.849  -0.394  18.715  1.00  0.00     0.057 A 
ATOM     93  C   UNL     1       8.330  -1.651  18.321  1.00  0.00     0.134 A 
ATOM     94  C   UNL     1       8.189   0.037  20.003  1.00  0.00     0.134 A 
ATOM     95  F   UNL     1       8.136  -2.116  17.079  1.00  0.00    -0.206 F 
ATOM     96  C   UNL     1       9.069  -2.461  19.191  1.00  0.00     0.040 A 
ATOM     97  C   UNL     1       8.958  -0.744  20.866  1.00  0.00     0.040 A 
ATOM     98  F   UNL     1       7.802   1.248  20.434  1.00  0.00    -0.206 F 
ATOM     99  C   UNL     1       9.388  -2.005  20.467  1.00  0.00     0.006 A 
ENDBRANCH  75  92
ENDBRANCH  49  50
ENDBRANCH  41  44
ENDBRANCH  39  40
ENDBRANCH  38  39
ENDBRANCH  37  38
ENDBRANCH  36  37
ENDBRANCH   1  36
TORSDOF 18
