REMARK SMILES Cc1c(CC(=O)NCCCCCCNC(=O)c2ccc(-c3c4nc(c(-c5c(F)cccc5F)c5ccc([nH]5)c(-c5c(F)cccc5F)c5nc(c(-c6c(F)cccc6F)c6ccc3[nH]6)C=C5)C=C4)cc2)c(O)oc2cc(=O)cc(O)c1-2
REMARK SMILES IDX 10 1 9 2 8 3 7 4 5 5 6 6 4 8 3 9 1 10 2 11 81 12 71 13 74 14
REMARK SMILES IDX 79 15 73 16 75 17 78 18 76 19 77 20 72 21 80 23 11 25 12 26
REMARK SMILES IDX 13 27 14 28 15 29 16 31 17 32 18 33 70 34 19 35 69 36 20 37
REMARK SMILES IDX 21 38 22 39 63 40 23 41 68 42 62 43 64 44 24 45 67 46 61 47
REMARK SMILES IDX 60 48 25 50 51 51 34 52 50 53 35 54 38 55 49 56 65 57 36 58
REMARK SMILES IDX 37 59 48 61 66 62 39 63 26 64 27 65 32 66 28 67 29 68 31 69
REMARK SMILES IDX 33 70 30 71 52 72 53 73 58 74 54 75 55 76 57 77 59 78 56 79
REMARK SMILES IDX 40 80 41 81 46 82 42 83 43 84 45 85 47 86 44 87
REMARK H PARENT 7 7 72 22 80 24 14 30 64 49 38 60
REMARK Flexibility Score: inf
ROOT
ATOM      1  C   UNL     1       4.636   1.424   3.759  1.00  0.00     0.002 C 
ENDROOT
BRANCH   1   2
ATOM      2  C   UNL     1       3.132   1.167   3.936  1.00  0.00     0.021 C 
BRANCH   2   3
ATOM      3  C   UNL     1       2.268   2.411   3.735  1.00  0.00     0.116 C 
BRANCH   3   4
ATOM      4  N   UNL     1       2.280   2.831   2.349  1.00  0.00    -0.356 N 
ATOM      5  C   UNL     1       1.320   2.681   1.395  1.00  0.00     0.224 C 
ATOM      6  O   UNL     1       1.581   3.041   0.245  1.00  0.00    -0.275 OA
ATOM      7  H   UNL     1       3.099   3.290   2.054  1.00  0.00     0.163 HD
BRANCH   5   8
ATOM      8  C   UNL     1      -0.071   2.168   1.767  1.00  0.00     0.143 C 
BRANCH   8   9
ATOM      9  C   UNL     1      -0.157   0.715   2.208  1.00  0.00     0.046 A 
ATOM     10  C   UNL     1       0.642   0.001  -0.113  1.00  0.00     0.046 C 
ATOM     11  C   UNL     1       0.317  -0.376   1.318  1.00  0.00    -0.026 A 
ATOM     12  C   UNL     1       0.411  -1.653   1.793  1.00  0.00     0.063 A 
ATOM     13  C   UNL     1      -0.639   0.386   3.429  1.00  0.00     0.286 A 
ATOM     14  C   UNL     1      -0.078  -1.929   3.157  1.00  0.00     0.146 A 
ATOM     15  C   UNL     1       0.963  -2.805   1.043  1.00  0.00     0.130 A 
ATOM     16  O   UNL     1      -0.613  -0.903   3.909  1.00  0.00    -0.425 OA
ATOM     17  C   UNL     1      -0.068  -3.159   3.683  1.00  0.00     0.100 A 
ATOM     18  C   UNL     1       0.970  -4.041   1.561  1.00  0.00     0.099 A 
ATOM     19  C   UNL     1       0.445  -4.303   2.915  1.00  0.00     0.186 A 
ATOM     20  O   UNL     1       0.452  -5.434   3.384  1.00  0.00    -0.290 OA
BRANCH  13  21
ATOM     21  O   UNL     1      -1.157   1.314   4.308  1.00  0.00    -0.480 OA
ATOM     22  H   UNL     1      -1.211   2.216   4.060  1.00  0.00     0.297 HD
ENDBRANCH  13  21
BRANCH  15  23
ATOM     23  O   UNL     1       1.528  -2.563  -0.191  1.00  0.00    -0.507 OA
ATOM     24  H   UNL     1       1.886  -3.271  -0.690  1.00  0.00     0.293 HD
ENDBRANCH  15  23
ENDBRANCH   8   9
ENDBRANCH   5   8
ENDBRANCH   3   4
ENDBRANCH   2   3
ENDBRANCH   1   2
BRANCH   1  25
ATOM     25  C   UNL     1       5.223   2.505   4.674  1.00  0.00     0.002 C 
BRANCH  25  26
ATOM     26  C   UNL     1       4.952   2.304   6.166  1.00  0.00     0.021 C 
BRANCH  26  27
ATOM     27  C   UNL     1       5.485   0.992   6.730  1.00  0.00     0.116 C 
BRANCH  27  28
ATOM     28  N   UNL     1       6.939   0.936   6.695  1.00  0.00    -0.352 N 
ATOM     29  C   UNL     1       7.824   0.799   7.734  1.00  0.00     0.251 C 
ATOM     30  H   UNL     1       7.344   1.007   5.801  1.00  0.00     0.163 HD
ATOM     31  O   UNL     1       9.026   0.975   7.557  1.00  0.00    -0.269 OA
BRANCH  29  32
ATOM     32  C   UNL     1       7.319   0.457   9.079  1.00  0.00     0.039 A 
ATOM     33  C   UNL     1       7.767   1.192  10.178  1.00  0.00     0.014 A 
ATOM     34  C   UNL     1       6.400  -0.583   9.249  1.00  0.00     0.014 A 
ATOM     35  C   UNL     1       7.245   0.923  11.444  1.00  0.00     0.010 A 
ATOM     36  C   UNL     1       5.829  -0.803  10.498  1.00  0.00     0.010 A 
ATOM     37  C   UNL     1       6.251  -0.056  11.608  1.00  0.00    -0.014 A 
BRANCH  37  38
ATOM     38  C   UNL     1       5.654  -0.318  12.941  1.00  0.00     0.031 A 
ATOM     39  C   UNL     1       5.882  -1.637  13.622  1.00  0.00     0.074 A 
ATOM     40  C   UNL     1       4.879   0.619  13.520  1.00  0.00     0.049 A 
ATOM     41  N   UNL     1       5.434  -2.057  14.777  1.00  0.00    -0.248 NA
ATOM     42  C   UNL     1       6.707  -2.622  12.903  1.00  0.00     0.031 C 
ATOM     43  C   UNL     1       4.551   1.923  12.939  1.00  0.00     0.029 A 
ATOM     44  N   UNL     1       4.228   0.621  14.728  1.00  0.00    -0.354 N 
ATOM     45  C   UNL     1       5.921  -3.349  14.922  1.00  0.00     0.074 A 
ATOM     46  C   UNL     1       6.646  -3.669  13.712  1.00  0.00     0.031 C 
ATOM     47  C   UNL     1       3.793   2.612  13.807  1.00  0.00     0.029 A 
ATOM     48  C   UNL     1       3.554   1.789  14.989  1.00  0.00     0.049 A 
ATOM     49  H   UNL     1       4.244  -0.143  15.349  1.00  0.00     0.167 HD
ATOM     50  C   UNL     1       5.803  -4.182  15.982  1.00  0.00     0.037 A 
ATOM     51  C   UNL     1       2.829   2.156  16.063  1.00  0.00     0.037 A 
ATOM     52  C   UNL     1       5.100  -3.854  17.193  1.00  0.00     0.049 A 
ATOM     53  C   UNL     1       2.687   1.201  17.216  1.00  0.00     0.074 A 
ATOM     54  C   UNL     1       4.965  -4.612  18.342  1.00  0.00     0.029 A 
ATOM     55  N   UNL     1       4.414  -2.668  17.410  1.00  0.00    -0.354 N 
ATOM     56  N   UNL     1       3.204   0.006  17.365  1.00  0.00    -0.248 NA
ATOM     57  C   UNL     1       1.861   1.644  18.349  1.00  0.00     0.031 C 
ATOM     58  C   UNL     1       4.163  -3.903  19.241  1.00  0.00     0.029 A 
ATOM     59  C   UNL     1       3.834  -2.685  18.667  1.00  0.00     0.049 A 
ATOM     60  H   UNL     1       4.349  -1.926  16.767  1.00  0.00     0.167 HD
ATOM     61  C   UNL     1       2.785  -0.438  18.612  1.00  0.00     0.074 A 
ATOM     62  C   UNL     1       1.982   0.622  19.186  1.00  0.00     0.031 C 
ATOM     63  C   UNL     1       3.041  -1.619  19.225  1.00  0.00     0.037 A 
BRANCH  50  64
ATOM     64  C   UNL     1       6.468  -5.523  15.889  1.00  0.00     0.057 A 
ATOM     65  C   UNL     1       7.861  -5.654  15.944  1.00  0.00     0.134 A 
ATOM     66  C   UNL     1       5.710  -6.697  15.796  1.00  0.00     0.134 A 
ATOM     67  F   UNL     1       8.644  -4.567  16.021  1.00  0.00    -0.206 F 
ATOM     68  C   UNL     1       8.480  -6.904  15.892  1.00  0.00     0.040 A 
ATOM     69  C   UNL     1       6.316  -7.955  15.768  1.00  0.00     0.040 A 
ATOM     70  F   UNL     1       4.371  -6.642  15.745  1.00  0.00    -0.206 F 
ATOM     71  C   UNL     1       7.705  -8.060  15.812  1.00  0.00     0.006 A 
ENDBRANCH  50  64
BRANCH  51  72
ATOM     72  C   UNL     1       2.217   3.507  16.114  1.00  0.00     0.057 A 
ATOM     73  C   UNL     1       2.717   4.489  16.977  1.00  0.00     0.134 A 
ATOM     74  C   UNL     1       1.135   3.857  15.297  1.00  0.00     0.134 A 
ATOM     75  F   UNL     1       3.741   4.208  17.797  1.00  0.00    -0.206 F 
ATOM     76  C   UNL     1       2.159   5.767  17.033  1.00  0.00     0.040 A 
ATOM     77  C   UNL     1       0.581   5.138  15.326  1.00  0.00     0.040 A 
ATOM     78  F   UNL     1       0.614   2.962  14.444  1.00  0.00    -0.206 F 
ATOM     79  C   UNL     1       1.091   6.096  16.200  1.00  0.00     0.006 A 
ENDBRANCH  51  72
BRANCH  63  80
ATOM     80  C   UNL     1       2.461  -1.835  20.590  1.00  0.00     0.057 A 
ATOM     81  C   UNL     1       1.100  -2.108  20.773  1.00  0.00     0.134 A 
ATOM     82  C   UNL     1       3.285  -1.857  21.722  1.00  0.00     0.134 A 
ATOM     83  F   UNL     1       0.257  -2.091  19.729  1.00  0.00    -0.206 F 
ATOM     84  C   UNL     1       0.578  -2.393  22.035  1.00  0.00     0.040 A 
ATOM     85  C   UNL     1       2.780  -2.164  22.986  1.00  0.00     0.040 A 
ATOM     86  F   UNL     1       4.600  -1.613  21.613  1.00  0.00    -0.206 F 
ATOM     87  C   UNL     1       1.421  -2.433  23.144  1.00  0.00     0.006 A 
ENDBRANCH  63  80
ENDBRANCH  37  38
ENDBRANCH  29  32
ENDBRANCH  27  28
ENDBRANCH  26  27
ENDBRANCH  25  26
ENDBRANCH   1  25
TORSDOF 16
