REMARK SMILES C[NH+]1CCC2(CC1)OC[C@H](C(=O)NCCCCCCNC(=O)c1ccc(-c3c4nc(c(-c5c(F)cccc5F)c5ccc([nH]5)c(-c5c(F)cccc5F)c5nc(c(-c6c(F)cccc6F)c6ccc3[nH]6)C=C5)C=C4)cc1)N2C(=O)c1cc(C(F)(F)F)cc(C(F)(F)F)c1
REMARK SMILES IDX 16 1 15 2 14 3 13 4 11 5 12 6 10 8 1 9 2 10 3 11 7 12 4 14
REMARK SMILES IDX 6 15 5 16 8 17 77 18 9 19 78 20 79 21 80 22 81 23 93 24
REMARK SMILES IDX 82 25 88 26 87 27 83 28 84 29 85 30 86 31 89 32 90 33 91 34
REMARK SMILES IDX 92 35 17 36 18 37 19 38 20 39 21 40 22 42 23 43 24 44 76 45
REMARK SMILES IDX 25 46 75 47 26 48 27 49 28 50 69 51 29 52 74 53 68 54 70 55
REMARK SMILES IDX 30 56 73 57 67 58 66 59 31 61 57 62 40 63 56 64 41 65 44 66
REMARK SMILES IDX 55 67 71 68 42 69 43 70 54 72 72 73 45 74 32 75 33 76 38 77
REMARK SMILES IDX 34 78 35 79 37 80 39 81 36 82 58 83 59 84 64 85 60 86 61 87
REMARK SMILES IDX 63 88 65 89 62 90 46 91 47 92 52 93 48 94 49 95 51 96 53 97
REMARK SMILES IDX 50 98
REMARK H PARENT 13 7 2 13 20 41 70 60 44 71
REMARK Flexibility Score: inf
ROOT
ATOM      1  C   UNL     1      -3.543  -3.503   3.245  1.00  0.00     0.002 C 
ENDROOT
BRANCH   1   2
ATOM      2  C   UNL     1      -4.059  -2.211   2.599  1.00  0.00     0.021 C 
BRANCH   2   3
ATOM      3  C   UNL     1      -3.688  -1.990   1.140  1.00  0.00     0.116 C 
BRANCH   3   4
ATOM      4  N   UNL     1      -4.516  -2.537   0.093  1.00  0.00    -0.354 N 
ATOM      5  C   UNL     1      -4.528  -2.240  -1.251  1.00  0.00     0.245 C 
ATOM      6  O   UNL     1      -4.984  -3.138  -1.974  1.00  0.00    -0.273 OA
ATOM      7  H   UNL     1      -5.165  -3.219   0.381  1.00  0.00     0.163 HD
BRANCH   5   8
ATOM      8  C   UNL     1      -4.018  -0.900  -1.911  1.00  0.00     0.203 C 
ATOM      9  C   UNL     1       1.413   0.952   0.704  1.00  0.00     0.332 C 
ATOM     10  N   UNL     1       0.989   0.306  -0.527  1.00  0.00    -0.337 N 
ATOM     11  C   UNL     1       0.294  -0.939  -0.323  1.00  0.00     0.267 C 
ATOM     12  C   UNL     1       0.398   1.196  -1.518  1.00  0.00     0.267 C 
ATOM     13  H   UNL     1       1.860   0.026  -0.978  1.00  0.00     0.347 HD
ATOM     14  C   UNL     1      -1.201  -0.823  -0.210  1.00  0.00     0.120 C 
ATOM     15  C   UNL     1      -1.126   1.343  -1.520  1.00  0.00     0.120 C 
ATOM     16  C   UNL     1      -1.937   0.081  -1.198  1.00  0.00     0.155 C 
ATOM     17  O   UNL     1      -3.074   0.636  -0.437  1.00  0.00    -0.352 OA
ATOM     18  N   UNL     1      -2.604  -0.694  -2.264  1.00  0.00    -0.295 N 
ATOM     19  C   UNL     1      -4.310   0.328  -1.102  1.00  0.00     0.198 C 
BRANCH  18  20
ATOM     20  C   UNL     1      -2.180  -1.111  -3.521  1.00  0.00     0.256 C 
ATOM     21  O   UNL     1      -2.927  -1.623  -4.351  1.00  0.00    -0.269 OA
BRANCH  20  22
ATOM     22  C   UNL     1      -0.784  -0.927  -3.954  1.00  0.00     0.041 A 
ATOM     23  C   UNL     1      -0.449   0.076  -4.872  1.00  0.00     0.027 A 
ATOM     24  C   UNL     1       0.194  -1.802  -3.487  1.00  0.00     0.027 A 
ATOM     25  C   UNL     1       0.898   0.287  -5.226  1.00  0.00     0.057 A 
ATOM     26  C   UNL     1       1.552  -1.545  -3.739  1.00  0.00     0.057 A 
ATOM     27  C   UNL     1       1.891  -0.508  -4.624  1.00  0.00     0.026 A 
BRANCH  25  28
ATOM     28  C   UNL     1       1.274   1.378  -6.202  1.00  0.00     0.416 C 
ATOM     29  F   UNL     1       0.867   1.105  -7.470  1.00  0.00    -0.166 F 
ATOM     30  F   UNL     1       0.723   2.579  -5.875  1.00  0.00    -0.166 F 
ATOM     31  F   UNL     1       2.617   1.594  -6.276  1.00  0.00    -0.166 F 
ENDBRANCH  25  28
BRANCH  26  32
ATOM     32  C   UNL     1       2.637  -2.280  -2.982  1.00  0.00     0.416 C 
ATOM     33  F   UNL     1       3.483  -2.960  -3.799  1.00  0.00    -0.166 F 
ATOM     34  F   UNL     1       3.420  -1.431  -2.257  1.00  0.00    -0.166 F 
ATOM     35  F   UNL     1       2.156  -3.190  -2.090  1.00  0.00    -0.166 F 
ENDBRANCH  26  32
ENDBRANCH  20  22
ENDBRANCH  18  20
ENDBRANCH   5   8
ENDBRANCH   3   4
ENDBRANCH   2   3
ENDBRANCH   1   2
BRANCH   1  36
ATOM     36  C   UNL     1      -2.085  -3.916   2.986  1.00  0.00     0.002 C 
BRANCH  36  37
ATOM     37  C   UNL     1      -0.983  -2.896   3.292  1.00  0.00     0.021 C 
BRANCH  37  38
ATOM     38  C   UNL     1      -0.941  -2.337   4.710  1.00  0.00     0.116 C 
BRANCH  38  39
ATOM     39  N   UNL     1      -0.893  -3.370   5.730  1.00  0.00    -0.352 N 
ATOM     40  C   UNL     1      -0.085  -3.497   6.828  1.00  0.00     0.251 C 
ATOM     41  H   UNL     1      -1.547  -4.096   5.613  1.00  0.00     0.163 HD
ATOM     42  O   UNL     1      -0.139  -4.532   7.501  1.00  0.00    -0.269 OA
BRANCH  40  43
ATOM     43  C   UNL     1       0.865  -2.432   7.216  1.00  0.00     0.039 A 
ATOM     44  C   UNL     1       2.129  -2.800   7.689  1.00  0.00     0.014 A 
ATOM     45  C   UNL     1       0.511  -1.081   7.166  1.00  0.00     0.014 A 
ATOM     46  C   UNL     1       3.050  -1.819   8.065  1.00  0.00     0.010 A 
ATOM     47  C   UNL     1       1.455  -0.101   7.471  1.00  0.00     0.010 A 
ATOM     48  C   UNL     1       2.731  -0.459   7.934  1.00  0.00    -0.014 A 
BRANCH  48  49
ATOM     49  C   UNL     1       3.707   0.601   8.300  1.00  0.00     0.031 A 
ATOM     50  C   UNL     1       3.404   1.548   9.431  1.00  0.00     0.074 A 
ATOM     51  C   UNL     1       4.839   0.747   7.585  1.00  0.00     0.049 A 
ATOM     52  N   UNL     1       4.089   2.581   9.853  1.00  0.00    -0.248 NA
ATOM     53  C   UNL     1       2.152   1.317  10.171  1.00  0.00     0.031 C 
ATOM     54  C   UNL     1       5.234  -0.083   6.445  1.00  0.00     0.029 A 
ATOM     55  N   UNL     1       5.864   1.652   7.706  1.00  0.00    -0.354 N 
ATOM     56  C   UNL     1       3.347   3.128  10.893  1.00  0.00     0.074 A 
ATOM     57  C   UNL     1       2.133   2.349  11.001  1.00  0.00     0.031 C 
ATOM     58  C   UNL     1       6.423   0.338   5.986  1.00  0.00     0.029 A 
ATOM     59  C   UNL     1       6.857   1.490   6.769  1.00  0.00     0.049 A 
ATOM     60  H   UNL     1       5.885   2.352   8.398  1.00  0.00     0.167 HD
ATOM     61  C   UNL     1       3.659   4.169  11.701  1.00  0.00     0.037 A 
ATOM     62  C   UNL     1       7.984   2.196   6.561  1.00  0.00     0.037 A 
ATOM     63  C   UNL     1       4.879   4.928  11.607  1.00  0.00     0.049 A 
ATOM     64  C   UNL     1       8.299   3.360   7.462  1.00  0.00     0.074 A 
ATOM     65  C   UNL     1       5.308   5.973  12.407  1.00  0.00     0.029 A 
ATOM     66  N   UNL     1       5.866   4.722  10.655  1.00  0.00    -0.354 N 
ATOM     67  N   UNL     1       7.613   3.831   8.476  1.00  0.00    -0.248 NA
ATOM     68  C   UNL     1       9.548   4.087   7.194  1.00  0.00     0.031 C 
ATOM     69  C   UNL     1       6.533   6.429  11.911  1.00  0.00     0.029 A 
ATOM     70  C   UNL     1       6.894   5.632  10.836  1.00  0.00     0.049 A 
ATOM     71  H   UNL     1       5.839   4.031   9.954  1.00  0.00     0.167 HD
ATOM     72  C   UNL     1       8.366   4.881   8.989  1.00  0.00     0.074 A 
ATOM     73  C   UNL     1       9.563   4.970   8.181  1.00  0.00     0.031 C 
ATOM     74  C   UNL     1       8.090   5.697  10.035  1.00  0.00     0.037 A 
BRANCH  61  75
ATOM     75  C   UNL     1       2.668   4.545  12.765  1.00  0.00     0.057 A 
ATOM     76  C   UNL     1       2.429   3.724  13.876  1.00  0.00     0.134 A 
ATOM     77  C   UNL     1       1.974   5.760  12.702  1.00  0.00     0.134 A 
ATOM     78  F   UNL     1       3.051   2.541  13.993  1.00  0.00    -0.206 F 
ATOM     79  C   UNL     1       1.518   4.085  14.870  1.00  0.00     0.040 A 
ATOM     80  C   UNL     1       1.083   6.146  13.705  1.00  0.00     0.040 A 
ATOM     81  F   UNL     1       2.160   6.599  11.671  1.00  0.00    -0.206 F 
ATOM     82  C   UNL     1       0.847   5.304  14.790  1.00  0.00     0.006 A 
ENDBRANCH  61  75
BRANCH  62  83
ATOM     83  C   UNL     1       8.915   1.817   5.467  1.00  0.00     0.057 A 
ATOM     84  C   UNL     1      10.187   1.302   5.746  1.00  0.00     0.134 A 
ATOM     85  C   UNL     1       8.571   1.986   4.120  1.00  0.00     0.134 A 
ATOM     86  F   UNL     1      10.583   1.135   7.016  1.00  0.00    -0.206 F 
ATOM     87  C   UNL     1      11.093   0.996   4.729  1.00  0.00     0.040 A 
ATOM     88  C   UNL     1       9.456   1.657   3.092  1.00  0.00     0.040 A 
ATOM     89  F   UNL     1       7.365   2.467   3.784  1.00  0.00    -0.206 F 
ATOM     90  C   UNL     1      10.726   1.170   3.396  1.00  0.00     0.006 A 
ENDBRANCH  62  83
BRANCH  74  91
ATOM     91  C   UNL     1       9.124   6.721  10.403  1.00  0.00     0.057 A 
ATOM     92  C   UNL     1       9.375   7.845   9.607  1.00  0.00     0.134 A 
ATOM     93  C   UNL     1       9.852   6.597  11.594  1.00  0.00     0.134 A 
ATOM     94  F   UNL     1       8.720   8.017   8.448  1.00  0.00    -0.206 F 
ATOM     95  C   UNL     1      10.331   8.796   9.968  1.00  0.00     0.040 A 
ATOM     96  C   UNL     1      10.789   7.556  11.981  1.00  0.00     0.040 A 
ATOM     97  F   UNL     1       9.654   5.549  12.408  1.00  0.00    -0.206 F 
ATOM     98  C   UNL     1      11.035   8.656  11.163  1.00  0.00     0.006 A 
ENDBRANCH  74  91
ENDBRANCH  48  49
ENDBRANCH  40  43
ENDBRANCH  38  39
ENDBRANCH  37  38
ENDBRANCH  36  37
ENDBRANCH   1  36
TORSDOF 17
