REMARK SMILES CC1(C)OC(=O)C(=CNc2ccccc2C(=O)NCCCCCCNC(=O)c2ccc(-c3c4nc(c(-c5c(F)cccc5F)c5ccc([nH]5)c(-c5c(F)cccc5F)c5nc(c(-c6c(F)cccc6F)c6ccc3[nH]6)C=C5)C=C4)cc2)C(=O)O1
REMARK SMILES IDX 21 1 20 2 19 3 18 4 16 5 17 6 15 8 10 9 11 10 12 11 14 12
REMARK SMILES IDX 13 13 9 14 8 16 1 17 2 18 3 19 4 20 84 21 5 22 82 23 6 24
REMARK SMILES IDX 7 25 83 26 22 27 23 28 24 29 25 30 26 31 27 33 28 34 29 35
REMARK SMILES IDX 81 36 30 37 80 38 31 39 32 40 33 41 74 42 34 43 79 44 73 45
REMARK SMILES IDX 75 46 35 47 78 48 72 49 71 50 36 52 62 53 45 54 61 55 46 56
REMARK SMILES IDX 49 57 60 58 76 59 47 60 48 61 59 63 77 64 50 65 37 66 38 67
REMARK SMILES IDX 43 68 39 69 40 70 42 71 44 72 41 73 63 74 64 75 69 76 65 77
REMARK SMILES IDX 66 78 68 79 70 80 67 81 51 82 52 83 57 84 53 85 54 86 56 87
REMARK SMILES IDX 58 88 55 89
REMARK H PARENT 18 7 9 15 25 32 75 51 49 62
REMARK Flexibility Score: inf
ROOT
ATOM      1  C   UNL     1       0.135  -0.084  -2.712  1.00  0.00     0.002 C 
ENDROOT
BRANCH   1   2
ATOM      2  C   UNL     1      -0.730  -1.210  -3.310  1.00  0.00     0.021 C 
BRANCH   2   3
ATOM      3  C   UNL     1      -2.226  -1.166  -3.075  1.00  0.00     0.116 C 
BRANCH   3   4
ATOM      4  N   UNL     1      -2.785   0.161  -3.157  1.00  0.00    -0.352 N 
ATOM      5  C   UNL     1      -4.016   0.574  -2.712  1.00  0.00     0.253 C 
ATOM      6  O   UNL     1      -4.370   1.734  -2.904  1.00  0.00    -0.269 OA
ATOM      7  H   UNL     1      -2.220   0.847  -3.579  1.00  0.00     0.163 HD
BRANCH   5   8
ATOM      8  C   UNL     1      -4.978  -0.415  -2.175  1.00  0.00     0.063 A 
ATOM      9  C   UNL     1      -4.800  -1.239  -1.039  1.00  0.00     0.051 A 
ATOM     10  C   UNL     1      -5.802  -2.196  -0.782  1.00  0.00     0.027 A 
ATOM     11  C   UNL     1      -6.913  -2.354  -1.619  1.00  0.00     0.002 A 
ATOM     12  C   UNL     1      -6.112  -0.569  -3.004  1.00  0.00     0.016 A 
ATOM     13  C   UNL     1      -7.067  -1.544  -2.736  1.00  0.00     0.001 A 
BRANCH   9  14
ATOM     14  N   UNL     1      -3.679  -1.268  -0.168  1.00  0.00    -0.360 N 
ATOM     15  H   UNL     1      -3.446  -2.148   0.208  1.00  0.00     0.166 HD
BRANCH  14  16
ATOM     16  C   UNL     1      -2.881  -0.220   0.213  1.00  0.00     0.106 C 
ATOM     17  C   UNL     1       2.471   1.670  -1.786  1.00  0.00     0.106 C 
ATOM     18  C   UNL     1       1.856   1.122  -0.464  1.00  0.00     0.252 C 
ATOM     19  C   UNL     1       2.979   1.458   0.596  1.00  0.00     0.106 C 
ATOM     20  O   UNL     1       0.501   2.114   0.228  1.00  0.00    -0.419 OA
ATOM     21  O   UNL     1       1.316  -0.637  -0.822  1.00  0.00    -0.419 OA
ATOM     22  C   UNL     1      -0.985   1.621   0.667  1.00  0.00     0.350 C 
ATOM     23  C   UNL     1      -0.276  -1.321  -0.438  1.00  0.00     0.350 C 
ATOM     24  O   UNL     1      -1.723   2.405   1.256  1.00  0.00    -0.246 OA
ATOM     25  C   UNL     1      -1.540  -0.105   0.274  1.00  0.00     0.161 C 
ATOM     26  O   UNL     1      -0.483  -2.518  -0.568  1.00  0.00    -0.246 OA
ENDBRANCH  14  16
ENDBRANCH   9  14
ENDBRANCH   5   8
ENDBRANCH   3   4
ENDBRANCH   2   3
ENDBRANCH   1   2
BRANCH   1  27
ATOM     27  C   UNL     1      -0.103   0.631  -1.144  1.00  0.00     0.002 C 
BRANCH  27  28
ATOM     28  C   UNL     1       0.590   0.054   0.821  1.00  0.00     0.021 C 
BRANCH  28  29
ATOM     29  C   UNL     1       1.832  -1.189   1.274  1.00  0.00     0.116 C 
BRANCH  29  30
ATOM     30  N   UNL     1       3.099  -1.224   0.501  1.00  0.00    -0.352 N 
ATOM     31  C   UNL     1       4.400  -1.285   0.923  1.00  0.00     0.251 C 
ATOM     32  H   UNL     1       2.984  -1.198  -0.476  1.00  0.00     0.163 HD
ATOM     33  O   UNL     1       5.347  -0.936   0.234  1.00  0.00    -0.269 OA
BRANCH  31  34
ATOM     34  C   UNL     1       4.593  -1.901   2.223  1.00  0.00     0.039 A 
ATOM     35  C   UNL     1       5.160  -1.225   3.301  1.00  0.00     0.014 A 
ATOM     36  C   UNL     1       4.078  -3.192   2.320  1.00  0.00     0.014 A 
ATOM     37  C   UNL     1       5.187  -1.871   4.532  1.00  0.00     0.010 A 
ATOM     38  C   UNL     1       4.032  -3.792   3.550  1.00  0.00     0.010 A 
ATOM     39  C   UNL     1       4.615  -3.149   4.652  1.00  0.00    -0.014 A 
BRANCH  39  40
ATOM     40  C   UNL     1       4.665  -3.934   5.892  1.00  0.00     0.031 A 
ATOM     41  C   UNL     1       5.435  -5.222   5.868  1.00  0.00     0.074 A 
ATOM     42  C   UNL     1       3.894  -3.576   6.931  1.00  0.00     0.049 A 
ATOM     43  N   UNL     1       5.424  -6.207   6.723  1.00  0.00    -0.248 NA
ATOM     44  C   UNL     1       6.276  -5.461   4.679  1.00  0.00     0.031 C 
ATOM     45  C   UNL     1       3.068  -2.369   7.003  1.00  0.00     0.029 A 
ATOM     46  N   UNL     1       3.657  -4.218   8.113  1.00  0.00    -0.354 N 
ATOM     47  C   UNL     1       6.232  -7.187   6.162  1.00  0.00     0.074 A 
ATOM     48  C   UNL     1       6.645  -6.718   4.861  1.00  0.00     0.031 C 
ATOM     49  C   UNL     1       2.426  -2.351   8.183  1.00  0.00     0.029 A 
ATOM     50  C   UNL     1       2.764  -3.562   8.922  1.00  0.00     0.049 A 
ATOM     51  H   UNL     1       4.085  -5.069   8.361  1.00  0.00     0.167 HD
ATOM     52  C   UNL     1       6.624  -8.359   6.710  1.00  0.00     0.037 A 
ATOM     53  C   UNL     1       2.277  -3.922  10.122  1.00  0.00     0.037 A 
ATOM     54  C   UNL     1       6.226  -8.780   8.024  1.00  0.00     0.049 A 
ATOM     55  C   UNL     1       2.737  -5.228  10.713  1.00  0.00     0.074 A 
ATOM     56  C   UNL     1       6.594  -9.916   8.718  1.00  0.00     0.029 A 
ATOM     57  N   UNL     1       5.370  -8.060   8.848  1.00  0.00    -0.354 N 
ATOM     58  N   UNL     1       3.551  -6.125  10.209  1.00  0.00    -0.248 NA
ATOM     59  C   UNL     1       2.217  -5.567  12.043  1.00  0.00     0.031 C 
ATOM     60  C   UNL     1       5.935  -9.900   9.951  1.00  0.00     0.029 A 
ATOM     61  C   UNL     1       5.195  -8.730  10.044  1.00  0.00     0.049 A 
ATOM     62  H   UNL     1       4.950  -7.201   8.614  1.00  0.00     0.167 HD
ATOM     63  C   UNL     1       3.674  -7.114  11.176  1.00  0.00     0.074 A 
ATOM     64  C   UNL     1       2.859  -6.697  12.300  1.00  0.00     0.031 C 
ATOM     65  C   UNL     1       4.392  -8.265  11.146  1.00  0.00     0.037 A 
BRANCH  52  66
ATOM     66  C   UNL     1       7.541  -9.229   5.903  1.00  0.00     0.057 A 
ATOM     67  C   UNL     1       8.856  -8.838   5.608  1.00  0.00     0.134 A 
ATOM     68  C   UNL     1       7.118 -10.474   5.423  1.00  0.00     0.134 A 
ATOM     69  F   UNL     1       9.320  -7.649   6.020  1.00  0.00    -0.206 F 
ATOM     70  C   UNL     1       9.704  -9.639   4.842  1.00  0.00     0.040 A 
ATOM     71  C   UNL     1       7.968 -11.299   4.683  1.00  0.00     0.040 A 
ATOM     72  F   UNL     1       5.873 -10.912   5.665  1.00  0.00    -0.206 F 
ATOM     73  C   UNL     1       9.263 -10.878   4.384  1.00  0.00     0.006 A 
ENDBRANCH  52  66
BRANCH  53  74
ATOM     74  C   UNL     1       1.350  -3.028  10.859  1.00  0.00     0.057 A 
ATOM     75  C   UNL     1       1.758  -2.395  12.039  1.00  0.00     0.134 A 
ATOM     76  C   UNL     1       0.041  -2.794  10.423  1.00  0.00     0.134 A 
ATOM     77  F   UNL     1       2.999  -2.585  12.511  1.00  0.00    -0.206 F 
ATOM     78  C   UNL     1       0.888  -1.594  12.780  1.00  0.00     0.040 A 
ATOM     79  C   UNL     1      -0.832  -1.972  11.139  1.00  0.00     0.040 A 
ATOM     80  F   UNL     1      -0.408  -3.354   9.290  1.00  0.00    -0.206 F 
ATOM     81  C   UNL     1      -0.412  -1.379  12.329  1.00  0.00     0.006 A 
ENDBRANCH  53  74
BRANCH  65  82
ATOM     82  C   UNL     1       4.368  -9.113  12.382  1.00  0.00     0.057 A 
ATOM     83  C   UNL     1       3.236  -9.845  12.756  1.00  0.00     0.134 A 
ATOM     84  C   UNL     1       5.514  -9.233  13.178  1.00  0.00     0.134 A 
ATOM     85  F   UNL     1       2.104  -9.762  12.040  1.00  0.00    -0.206 F 
ATOM     86  C   UNL     1       3.235 -10.647  13.897  1.00  0.00     0.040 A 
ATOM     87  C   UNL     1       5.536 -10.056  14.302  1.00  0.00     0.040 A 
ATOM     88  F   UNL     1       6.636  -8.566  12.864  1.00  0.00    -0.206 F 
ATOM     89  C   UNL     1       4.391 -10.760  14.669  1.00  0.00     0.006 A 
ENDBRANCH  65  82
ENDBRANCH  39  40
ENDBRANCH  31  34
ENDBRANCH  29  30
ENDBRANCH  28  29
ENDBRANCH  27  28
ENDBRANCH   1  27
TORSDOF 15
