REMARK SMILES C[NH+]1CCC([NH+]2CCC(Oc3ccc4ccccc4c3)(C(=O)NCCCCCCNC(=O)c3ccc(-c4c5nc(c(-c6c(F)cccc6F)c6ccc([nH]6)c(-c6c(F)cccc6F)c6nc(c(-c7c(F)cccc7F)c7ccc4[nH]7)C=C6)C=C5)cc3)CC2)CC1
REMARK SMILES IDX 26 1 25 2 24 3 23 4 21 5 22 6 9 8 6 9 7 10 88 11 8 13 87 14
REMARK SMILES IDX 5 15 1 16 2 17 3 18 90 19 4 21 89 22 10 23 11 24 12 25 20 26
REMARK SMILES IDX 13 27 19 28 14 29 18 30 15 31 17 32 16 33 27 34 28 35 29 36
REMARK SMILES IDX 30 37 31 38 32 40 33 41 34 42 86 43 35 44 85 45 36 46 37 47
REMARK SMILES IDX 38 48 79 49 39 50 84 51 78 52 80 53 40 54 83 55 77 56 76 57
REMARK SMILES IDX 41 59 67 60 50 61 66 62 51 63 54 64 65 65 81 66 52 67 53 68
REMARK SMILES IDX 64 70 82 71 55 72 42 73 43 74 48 75 44 76 45 77 47 78 49 79
REMARK SMILES IDX 46 80 68 81 69 82 74 83 70 84 71 85 73 86 75 87 72 88 56 89
REMARK SMILES IDX 57 90 62 91 58 92 59 93 61 94 63 95 60 96
REMARK H PARENT 23 7 6 12 2 20 30 39 80 58 54 69
REMARK Flexibility Score: inf
ROOT
ATOM      1  C   UNL     1       3.974  -2.514   6.255  1.00  0.00     0.002 C 
ENDROOT
BRANCH   1   2
ATOM      2  C   UNL     1       4.513  -1.327   5.449  1.00  0.00     0.021 C 
BRANCH   2   3
ATOM      3  C   UNL     1       5.708  -1.666   4.558  1.00  0.00     0.116 C 
BRANCH   3   4
ATOM      4  N   UNL     1       5.316  -2.544   3.475  1.00  0.00    -0.353 N 
ATOM      5  C   UNL     1       5.252  -2.325   2.128  1.00  0.00     0.264 C 
ATOM      6  O   UNL     1       4.931  -3.301   1.441  1.00  0.00    -0.270 OA
ATOM      7  H   UNL     1       5.052  -3.450   3.756  1.00  0.00     0.163 HD
BRANCH   5   8
ATOM      8  C   UNL     1       5.573  -0.931   1.508  1.00  0.00     0.197 C 
ATOM      9  N   UNL     1       3.075  -0.101   0.185  1.00  0.00    -0.332 N 
ATOM     10  C   UNL     1       3.186  -0.137   1.645  1.00  0.00     0.267 C 
ATOM     11  C   UNL     1       3.922  -1.131  -0.442  1.00  0.00     0.267 C 
ATOM     12  H   UNL     1       3.431   0.809  -0.109  1.00  0.00     0.348 HD
ATOM     13  C   UNL     1       4.626   0.151   2.040  1.00  0.00     0.120 C 
ATOM     14  C   UNL     1       5.401  -1.005  -0.025  1.00  0.00     0.120 C 
BRANCH   9  15
ATOM     15  C   UNL     1       1.674  -0.134  -0.307  1.00  0.00     0.195 C 
ATOM     16  C   UNL     1      -2.635   0.063  -0.267  1.00  0.00     0.332 C 
ATOM     17  N   UNL     1      -1.222   0.017   0.100  1.00  0.00    -0.337 N 
ATOM     18  C   UNL     1      -0.502   1.169  -0.458  1.00  0.00     0.268 C 
ATOM     19  C   UNL     1      -0.606  -1.240  -0.342  1.00  0.00     0.268 C 
ATOM     20  H   UNL     1      -1.158   0.061   1.117  1.00  0.00     0.347 HD
ATOM     21  C   UNL     1       0.945   1.183   0.032  1.00  0.00     0.126 C 
ATOM     22  C   UNL     1       0.836  -1.338   0.159  1.00  0.00     0.126 C 
ENDBRANCH   9  15
BRANCH   8  23
ATOM     23  O   UNL     1       6.959  -0.782   1.910  1.00  0.00    -0.477 OA
BRANCH  23  24
ATOM     24  C   UNL     1       7.673   0.293   1.479  1.00  0.00     0.121 A 
ATOM     25  C   UNL     1       7.453   1.576   1.966  1.00  0.00     0.047 A 
ATOM     26  C   UNL     1       8.773   0.041   0.659  1.00  0.00     0.055 A 
ATOM     27  C   UNL     1       8.265   2.632   1.549  1.00  0.00     0.012 A 
ATOM     28  C   UNL     1       9.622   1.085   0.257  1.00  0.00    -0.015 A 
ATOM     29  C   UNL     1       9.349   2.403   0.691  1.00  0.00    -0.018 A 
ATOM     30  C   UNL     1      10.743   0.851  -0.556  1.00  0.00     0.009 A 
ATOM     31  C   UNL     1      10.182   3.453   0.276  1.00  0.00     0.009 A 
ATOM     32  C   UNL     1      11.570   1.905  -0.950  1.00  0.00     0.001 A 
ATOM     33  C   UNL     1      11.285   3.205  -0.541  1.00  0.00     0.001 A 
ENDBRANCH  23  24
ENDBRANCH   8  23
ENDBRANCH   5   8
ENDBRANCH   3   4
ENDBRANCH   2   3
ENDBRANCH   1   2
BRANCH   1  34
ATOM     34  C   UNL     1       5.000  -3.210   7.156  1.00  0.00     0.002 C 
BRANCH  34  35
ATOM     35  C   UNL     1       5.767  -2.287   8.105  1.00  0.00     0.021 C 
BRANCH  35  36
ATOM     36  C   UNL     1       4.894  -1.492   9.069  1.00  0.00     0.116 C 
BRANCH  36  37
ATOM     37  N   UNL     1       4.183  -2.351  10.000  1.00  0.00    -0.352 N 
ATOM     38  C   UNL     1       4.059  -2.241  11.360  1.00  0.00     0.251 C 
ATOM     39  H   UNL     1       3.725  -3.123   9.596  1.00  0.00     0.163 HD
ATOM     40  O   UNL     1       3.566  -3.166  12.007  1.00  0.00    -0.269 OA
BRANCH  38  41
ATOM     41  C   UNL     1       4.524  -1.025  12.061  1.00  0.00     0.039 A 
ATOM     42  C   UNL     1       5.194  -1.168  13.279  1.00  0.00     0.014 A 
ATOM     43  C   UNL     1       4.259   0.252  11.554  1.00  0.00     0.014 A 
ATOM     44  C   UNL     1       5.618  -0.036  13.977  1.00  0.00     0.010 A 
ATOM     45  C   UNL     1       4.741   1.378  12.217  1.00  0.00     0.010 A 
ATOM     46  C   UNL     1       5.404   1.246  13.446  1.00  0.00    -0.014 A 
BRANCH  46  47
ATOM     47  C   UNL     1       5.817   2.458  14.197  1.00  0.00     0.031 A 
ATOM     48  C   UNL     1       4.774   3.400  14.735  1.00  0.00     0.074 A 
ATOM     49  C   UNL     1       7.124   2.731  14.366  1.00  0.00     0.049 A 
ATOM     50  N   UNL     1       4.931   4.524  15.388  1.00  0.00    -0.248 NA
ATOM     51  C   UNL     1       3.369   3.045  14.481  1.00  0.00     0.031 C 
ATOM     52  C   UNL     1       8.232   1.924  13.853  1.00  0.00     0.029 A 
ATOM     53  N   UNL     1       7.741   3.769  15.017  1.00  0.00    -0.354 N 
ATOM     54  C   UNL     1       3.650   5.016  15.606  1.00  0.00     0.074 A 
ATOM     55  C   UNL     1       2.730   4.097  14.971  1.00  0.00     0.031 C 
ATOM     56  C   UNL     1       9.393   2.484  14.230  1.00  0.00     0.029 A 
ATOM     57  C   UNL     1       9.112   3.699  14.990  1.00  0.00     0.049 A 
ATOM     58  H   UNL     1       7.248   4.496  15.462  1.00  0.00     0.167 HD
ATOM     59  C   UNL     1       3.270   6.119  16.293  1.00  0.00     0.037 A 
ATOM     60  C   UNL     1      10.036   4.518  15.524  1.00  0.00     0.037 A 
ATOM     61  C   UNL     1       4.181   7.014  16.955  1.00  0.00     0.049 A 
ATOM     62  C   UNL     1       9.589   5.717  16.314  1.00  0.00     0.074 A 
ATOM     63  C   UNL     1       3.894   8.132  17.719  1.00  0.00     0.029 A 
ATOM     64  N   UNL     1       5.562   6.886  16.938  1.00  0.00    -0.354 N 
ATOM     65  N   UNL     1       8.373   6.139  16.559  1.00  0.00    -0.248 NA
ATOM     66  C   UNL     1      10.645   6.544  16.914  1.00  0.00     0.031 C 
ATOM     67  C   UNL     1       5.103   8.696  18.142  1.00  0.00     0.029 A 
ATOM     68  C   UNL     1       6.141   7.907  17.673  1.00  0.00     0.049 A 
ATOM     69  H   UNL     1       6.057   6.174  16.472  1.00  0.00     0.167 HD
ATOM     70  C   UNL     1       8.515   7.261  17.365  1.00  0.00     0.074 A 
ATOM     71  C   UNL     1       9.936   7.446  17.578  1.00  0.00     0.031 C 
ATOM     72  C   UNL     1       7.556   8.068  17.883  1.00  0.00     0.037 A 
BRANCH  59  73
ATOM     73  C   UNL     1       1.799   6.410  16.367  1.00  0.00     0.057 A 
ATOM     74  C   UNL     1       0.930   5.624  17.135  1.00  0.00     0.134 A 
ATOM     75  C   UNL     1       1.247   7.496  15.677  1.00  0.00     0.134 A 
ATOM     76  F   UNL     1       1.392   4.559  17.809  1.00  0.00    -0.206 F 
ATOM     77  C   UNL     1      -0.440   5.889  17.190  1.00  0.00     0.040 A 
ATOM     78  C   UNL     1      -0.116   7.787  15.745  1.00  0.00     0.040 A 
ATOM     79  F   UNL     1       2.024   8.293  14.926  1.00  0.00    -0.206 F 
ATOM     80  C   UNL     1      -0.965   6.977  16.497  1.00  0.00     0.006 A 
ENDBRANCH  59  73
BRANCH  60  81
ATOM     81  C   UNL     1      11.479   4.210  15.371  1.00  0.00     0.057 A 
ATOM     82  C   UNL     1      12.238   3.760  16.457  1.00  0.00     0.134 A 
ATOM     83  C   UNL     1      12.135   4.369  14.145  1.00  0.00     0.134 A 
ATOM     84  F   UNL     1      11.668   3.607  17.662  1.00  0.00    -0.206 F 
ATOM     85  C   UNL     1      13.604   3.498  16.337  1.00  0.00     0.040 A 
ATOM     86  C   UNL     1      13.495   4.089  14.005  1.00  0.00     0.040 A 
ATOM     87  F   UNL     1      11.461   4.790  13.066  1.00  0.00    -0.206 F 
ATOM     88  C   UNL     1      14.235   3.659  15.105  1.00  0.00     0.006 A 
ENDBRANCH  60  81
BRANCH  72  89
ATOM     89  C   UNL     1       8.015   9.194  18.760  1.00  0.00     0.057 A 
ATOM     90  C   UNL     1       8.648  10.329  18.238  1.00  0.00     0.134 A 
ATOM     91  C   UNL     1       7.804   9.149  20.144  1.00  0.00     0.134 A 
ATOM     92  F   UNL     1       8.890  10.427  16.922  1.00  0.00    -0.206 F 
ATOM     93  C   UNL     1       9.082  11.366  19.065  1.00  0.00     0.040 A 
ATOM     94  C   UNL     1       8.211  10.190  20.978  1.00  0.00     0.040 A 
ATOM     95  F   UNL     1       7.196   8.093  20.706  1.00  0.00    -0.206 F 
ATOM     96  C   UNL     1       8.860  11.300  20.439  1.00  0.00     0.006 A 
ENDBRANCH  72  89
ENDBRANCH  46  47
ENDBRANCH  38  41
ENDBRANCH  36  37
ENDBRANCH  35  36
ENDBRANCH  34  35
ENDBRANCH   1  34
TORSDOF 16
