REMARK SMILES CCc1ccc(S(=O)(=O)N2CCC3(CC2)NC(=O)C[C@H]3C(=O)NCCCCCCNC(=O)c2ccc(-c3c4nc(c(-c5c(F)cccc5F)c5ccc([nH]5)c(-c5c(F)cccc5F)c5nc(c(-c6c(F)cccc6F)c6ccc3[nH]6)C=C5)C=C4)cc2)s1
REMARK SMILES IDX 26 1 25 2 24 3 23 4 21 5 22 6 20 8 10 9 11 10 15 11 12 12
REMARK SMILES IDX 14 13 13 14 16 15 17 16 19 18 18 19 7 20 8 21 9 22 6 23 3 24
REMARK SMILES IDX 4 25 87 26 5 27 2 28 1 29 27 30 28 31 29 32 30 33 31 34
REMARK SMILES IDX 32 36 33 37 34 38 86 39 35 40 85 41 36 42 37 43 38 44 79 45
REMARK SMILES IDX 39 46 84 47 78 48 80 49 40 50 83 51 77 52 76 53 41 55 67 56
REMARK SMILES IDX 50 57 66 58 51 59 54 60 65 61 81 62 52 63 53 64 64 66 82 67
REMARK SMILES IDX 55 68 42 69 43 70 48 71 44 72 45 73 47 74 49 75 46 76 68 77
REMARK SMILES IDX 69 78 74 79 70 80 71 81 73 82 75 83 72 84 56 85 57 86 62 87
REMARK SMILES IDX 58 88 59 89 61 90 63 91 60 92
REMARK H PARENT 23 7 16 17 30 35 80 54 54 65
REMARK Flexibility Score: inf
ROOT
ATOM      1  C   UNL     1       7.952  -2.724  -2.092  1.00  0.00     0.002 C 
ENDROOT
BRANCH   1   2
ATOM      2  C   UNL     1       6.607  -2.479  -2.773  1.00  0.00     0.021 C 
BRANCH   2   3
ATOM      3  C   UNL     1       6.685  -2.373  -4.300  1.00  0.00     0.116 C 
BRANCH   3   4
ATOM      4  N   UNL     1       6.931  -3.647  -4.959  1.00  0.00    -0.356 N 
ATOM      5  C   UNL     1       6.210  -4.459  -5.777  1.00  0.00     0.226 C 
ATOM      6  O   UNL     1       6.769  -5.504  -6.130  1.00  0.00    -0.275 OA
ATOM      7  H   UNL     1       7.828  -4.005  -4.768  1.00  0.00     0.163 HD
BRANCH   5   8
ATOM      8  C   UNL     1       4.786  -4.194  -6.282  1.00  0.00     0.113 C 
ATOM      9  N   UNL     1       1.890  -5.723  -3.758  1.00  0.00    -0.197 NA
ATOM     10  C   UNL     1       1.606  -5.591  -5.188  1.00  0.00     0.105 C 
ATOM     11  C   UNL     1       3.315  -5.816  -3.477  1.00  0.00     0.105 C 
ATOM     12  C   UNL     1       2.251  -4.337  -5.777  1.00  0.00     0.046 C 
ATOM     13  C   UNL     1       3.988  -4.503  -3.831  1.00  0.00     0.046 C 
ATOM     14  C   UNL     1       3.672  -3.925  -5.242  1.00  0.00     0.055 C 
ATOM     15  N   UNL     1       3.691  -2.455  -5.259  1.00  0.00    -0.350 N 
ATOM     16  C   UNL     1       4.188  -1.901  -6.415  1.00  0.00     0.221 C 
ATOM     17  H   UNL     1       3.374  -1.911  -4.503  1.00  0.00     0.164 HD
ATOM     18  C   UNL     1       4.766  -2.998  -7.250  1.00  0.00     0.116 C 
ATOM     19  O   UNL     1       4.176  -0.710  -6.666  1.00  0.00    -0.275 OA
BRANCH   9  20
ATOM     20  S   UNL     1       0.758  -5.383  -2.535  1.00  0.00     0.252 S 
ATOM     21  O   UNL     1       1.264  -5.938  -1.302  1.00  0.00    -0.206 OA
ATOM     22  O   UNL     1      -0.559  -5.702  -3.049  1.00  0.00    -0.206 OA
BRANCH  20  23
ATOM     23  C   UNL     1       0.714  -3.617  -2.250  1.00  0.00     0.135 A 
ATOM     24  C   UNL     1       0.246  -1.357  -1.339  1.00  0.00     0.006 A 
ATOM     25  C   UNL     1       1.140  -1.314  -2.381  1.00  0.00     0.017 A 
ATOM     26  S   UNL     1      -0.251  -2.972  -0.989  1.00  0.00    -0.127 S 
ATOM     27  C   UNL     1       1.347  -2.595  -2.907  1.00  0.00     0.034 A 
BRANCH  24  28
ATOM     28  C   UNL     1      -0.252  -0.162  -0.592  1.00  0.00     0.043 C 
ATOM     29  C   UNL     1       0.697   0.222   0.532  1.00  0.00     0.010 C 
ENDBRANCH  24  28
ENDBRANCH  20  23
ENDBRANCH   9  20
ENDBRANCH   5   8
ENDBRANCH   3   4
ENDBRANCH   2   3
ENDBRANCH   1   2
BRANCH   1  30
ATOM     30  C   UNL     1       9.012  -1.667  -2.404  1.00  0.00     0.002 C 
BRANCH  30  31
ATOM     31  C   UNL     1       8.574  -0.225  -2.134  1.00  0.00     0.021 C 
BRANCH  31  32
ATOM     32  C   UNL     1       8.147   0.040  -0.694  1.00  0.00     0.116 C 
BRANCH  32  33
ATOM     33  N   UNL     1       9.224  -0.238   0.241  1.00  0.00    -0.352 N 
ATOM     34  C   UNL     1       9.864   0.610   1.107  1.00  0.00     0.251 C 
ATOM     35  H   UNL     1       9.540  -1.171   0.254  1.00  0.00     0.163 HD
ATOM     36  O   UNL     1      10.924   0.279   1.627  1.00  0.00    -0.269 OA
BRANCH  34  37
ATOM     37  C   UNL     1       9.272   1.929   1.406  1.00  0.00     0.039 A 
ATOM     38  C   UNL     1      10.104   3.049   1.449  1.00  0.00     0.014 A 
ATOM     39  C   UNL     1       7.902   2.054   1.656  1.00  0.00     0.014 A 
ATOM     40  C   UNL     1       9.551   4.306   1.692  1.00  0.00     0.010 A 
ATOM     41  C   UNL     1       7.342   3.317   1.817  1.00  0.00     0.010 A 
ATOM     42  C   UNL     1       8.162   4.455   1.844  1.00  0.00    -0.014 A 
BRANCH  42  43
ATOM     43  C   UNL     1       7.555   5.797   2.020  1.00  0.00     0.031 A 
ATOM     44  C   UNL     1       6.821   6.143   3.285  1.00  0.00     0.074 A 
ATOM     45  C   UNL     1       7.618   6.686   1.011  1.00  0.00     0.049 A 
ATOM     46  N   UNL     1       6.203   7.251   3.604  1.00  0.00    -0.248 NA
ATOM     47  C   UNL     1       6.749   5.096   4.316  1.00  0.00     0.031 C 
ATOM     48  C   UNL     1       8.255   6.448  -0.286  1.00  0.00     0.029 A 
ATOM     49  N   UNL     1       7.137   7.967   0.915  1.00  0.00    -0.354 N 
ATOM     50  C   UNL     1       5.663   7.033   4.865  1.00  0.00     0.074 A 
ATOM     51  C   UNL     1       5.973   5.666   5.225  1.00  0.00     0.031 C 
ATOM     52  C   UNL     1       8.152   7.556  -1.036  1.00  0.00     0.029 A 
ATOM     53  C   UNL     1       7.406   8.565  -0.292  1.00  0.00     0.049 A 
ATOM     54  H   UNL     1       6.646   8.415   1.641  1.00  0.00     0.167 HD
ATOM     55  C   UNL     1       4.991   7.900   5.660  1.00  0.00     0.037 A 
ATOM     56  C   UNL     1       7.081   9.788  -0.752  1.00  0.00     0.037 A 
ATOM     57  C   UNL     1       4.692   9.261   5.297  1.00  0.00     0.049 A 
ATOM     58  C   UNL     1       6.320  10.728   0.141  1.00  0.00     0.074 A 
ATOM     59  C   UNL     1       4.071  10.239   6.054  1.00  0.00     0.029 A 
ATOM     60  N   UNL     1       4.983   9.833   4.066  1.00  0.00    -0.354 N 
ATOM     61  N   UNL     1       5.885  10.537   1.363  1.00  0.00    -0.248 NA
ATOM     62  C   UNL     1       6.011  12.055  -0.407  1.00  0.00     0.031 C 
ATOM     63  C   UNL     1       3.928  11.381   5.259  1.00  0.00     0.029 A 
ATOM     64  C   UNL     1       4.521  11.140   4.030  1.00  0.00     0.049 A 
ATOM     65  H   UNL     1       5.448   9.379   3.328  1.00  0.00     0.167 HD
ATOM     66  C   UNL     1       5.274  11.726   1.740  1.00  0.00     0.074 A 
ATOM     67  C   UNL     1       5.410  12.636   0.622  1.00  0.00     0.031 C 
ATOM     68  C   UNL     1       4.657  12.035   2.907  1.00  0.00     0.037 A 
BRANCH  55  69
ATOM     69  C   UNL     1       4.523   7.391   6.995  1.00  0.00     0.057 A 
ATOM     70  C   UNL     1       5.420   7.052   8.019  1.00  0.00     0.134 A 
ATOM     71  C   UNL     1       3.156   7.252   7.268  1.00  0.00     0.134 A 
ATOM     72  F   UNL     1       6.744   7.151   7.824  1.00  0.00    -0.206 F 
ATOM     73  C   UNL     1       4.976   6.557   9.246  1.00  0.00     0.040 A 
ATOM     74  C   UNL     1       2.699   6.790   8.504  1.00  0.00     0.040 A 
ATOM     75  F   UNL     1       2.240   7.566   6.339  1.00  0.00    -0.206 F 
ATOM     76  C   UNL     1       3.611   6.430   9.493  1.00  0.00     0.006 A 
ENDBRANCH  55  69
BRANCH  56  77
ATOM     77  C   UNL     1       7.497  10.195  -2.118  1.00  0.00     0.057 A 
ATOM     78  C   UNL     1       8.481  11.170  -2.315  1.00  0.00     0.134 A 
ATOM     79  C   UNL     1       6.935   9.606  -3.257  1.00  0.00     0.134 A 
ATOM     80  F   UNL     1       9.045  11.782  -1.263  1.00  0.00    -0.206 F 
ATOM     81  C   UNL     1       8.882  11.556  -3.595  1.00  0.00     0.040 A 
ATOM     82  C   UNL     1       7.346   9.962  -4.543  1.00  0.00     0.040 A 
ATOM     83  F   UNL     1       5.995   8.657  -3.136  1.00  0.00    -0.206 F 
ATOM     84  C   UNL     1       8.319  10.945  -4.714  1.00  0.00     0.006 A 
ENDBRANCH  56  77
BRANCH  68  85
ATOM     85  C   UNL     1       4.106  13.426   3.046  1.00  0.00     0.057 A 
ATOM     86  C   UNL     1       2.986  13.857   2.324  1.00  0.00     0.134 A 
ATOM     87  C   UNL     1       4.686  14.335   3.941  1.00  0.00     0.134 A 
ATOM     88  F   UNL     1       2.390  13.042   1.440  1.00  0.00    -0.206 F 
ATOM     89  C   UNL     1       2.480  15.151   2.466  1.00  0.00     0.040 A 
ATOM     90  C   UNL     1       4.169  15.619   4.116  1.00  0.00     0.040 A 
ATOM     91  F   UNL     1       5.755  13.985   4.672  1.00  0.00    -0.206 F 
ATOM     92  C   UNL     1       3.067  16.033   3.371  1.00  0.00     0.006 A 
ENDBRANCH  68  85
ENDBRANCH  42  43
ENDBRANCH  34  37
ENDBRANCH  32  33
ENDBRANCH  31  32
ENDBRANCH  30  31
ENDBRANCH   1  30
TORSDOF 16
