REMARK SMILES NS(=O)(=O)c1ccc(-n2nc(C(=O)NCCCCCCNC(=O)c3ccc(-c4c5nc(c(-c6c(F)cccc6F)c6ccc([nH]6)c(-c6c(F)cccc6F)c6nc(c(-c7c(F)cccc7F)c7ccc4[nH]7)C=C6)C=C5)cc3)cc2-c2ccc(Cl)s2)cc1
REMARK SMILES IDX 17 1 16 2 15 3 14 4 12 5 13 6 11 8 9 9 10 10 79 11 78 12
REMARK SMILES IDX 8 13 5 14 6 15 87 16 7 17 86 18 2 19 3 20 4 21 1 22 80 25
REMARK SMILES IDX 81 26 85 27 82 28 83 29 84 30 18 31 19 32 20 33 21 34 22 35
REMARK SMILES IDX 23 37 24 38 25 39 77 40 26 41 76 42 27 43 28 44 29 45 70 46
REMARK SMILES IDX 30 47 75 48 69 49 71 50 31 51 74 52 68 53 67 54 32 56 58 57
REMARK SMILES IDX 41 58 57 59 42 60 45 61 56 62 72 63 43 64 44 65 55 67 73 68
REMARK SMILES IDX 46 69 33 70 34 71 39 72 35 73 36 74 38 75 40 76 37 77 59 78
REMARK SMILES IDX 60 79 65 80 61 81 62 82 64 83 66 84 63 85 47 86 48 87 53 88
REMARK SMILES IDX 49 89 50 90 52 91 54 92 51 93
REMARK H PARENT 14 7 1 23 1 24 21 36 71 55 45 66
REMARK Flexibility Score: inf
ROOT
ATOM      1  C   UNL     1       3.666  -7.842 -10.863  1.00  0.00     0.002 C 
ENDROOT
BRANCH   1   2
ATOM      2  C   UNL     1       2.755  -7.122  -9.871  1.00  0.00     0.021 C 
BRANCH   2   3
ATOM      3  C   UNL     1       2.736  -7.725  -8.472  1.00  0.00     0.116 C 
BRANCH   3   4
ATOM      4  N   UNL     1       3.889  -7.355  -7.681  1.00  0.00    -0.351 N 
ATOM      5  C   UNL     1       4.038  -6.624  -6.521  1.00  0.00     0.271 C 
ATOM      6  O   UNL     1       5.204  -6.428  -6.164  1.00  0.00    -0.267 OA
ATOM      7  H   UNL     1       4.739  -7.693  -8.044  1.00  0.00     0.163 HD
BRANCH   5   8
ATOM      8  C   UNL     1       2.883  -6.116  -5.744  1.00  0.00     0.151 A 
ATOM      9  N   UNL     1       1.861  -5.007  -4.210  1.00  0.00    -0.231 N 
ATOM     10  N   UNL     1       3.058  -5.139  -4.824  1.00  0.00    -0.162 NA
ATOM     11  C   UNL     1       0.861  -5.660  -4.899  1.00  0.00     0.085 A 
ATOM     12  C   UNL     1       1.515  -6.495  -5.771  1.00  0.00     0.066 A 
BRANCH   9  13
ATOM     13  C   UNL     1       1.709  -4.266  -3.016  1.00  0.00     0.065 A 
ATOM     14  C   UNL     1       1.036  -2.644  -0.875  1.00  0.00     0.082 A 
ATOM     15  C   UNL     1       0.527  -3.944  -0.933  1.00  0.00     0.024 A 
ATOM     16  C   UNL     1       1.930  -2.175  -1.847  1.00  0.00     0.024 A 
ATOM     17  C   UNL     1       0.860  -4.757  -2.010  1.00  0.00     0.030 A 
ATOM     18  C   UNL     1       2.296  -3.004  -2.910  1.00  0.00     0.030 A 
BRANCH  14  19
ATOM     19  S   UNL     1       0.468  -1.616   0.443  1.00  0.00     0.238 S 
ATOM     20  O   UNL     1       1.077  -2.069   1.667  1.00  0.00    -0.207 OA
ATOM     21  O   UNL     1      -0.962  -1.447   0.295  1.00  0.00    -0.207 OA
BRANCH  19  22
ATOM     22  N   UNL     1       1.129  -0.106   0.128  1.00  0.00    -0.225 NA
ATOM     23  H   UNL     1       0.842   0.549   0.856  1.00  0.00     0.137 HD
ATOM     24  H   UNL     1       0.800   0.227  -0.778  1.00  0.00     0.137 HD
ENDBRANCH  19  22
ENDBRANCH  14  19
ENDBRANCH   9  13
BRANCH  11  25
ATOM     25  C   UNL     1      -0.553  -5.453  -4.773  1.00  0.00     0.054 A 
ATOM     26  C   UNL     1      -1.535  -6.425  -4.746  1.00  0.00     0.024 A 
ATOM     27  S   UNL     1      -1.236  -3.875  -4.772  1.00  0.00    -0.122 S 
ATOM     28  C   UNL     1      -2.847  -5.867  -4.689  1.00  0.00     0.033 A 
ATOM     29  C   UNL     1      -2.804  -4.497  -4.691  1.00  0.00     0.094 A 
ATOM     30  Cl  UNL     1      -4.144  -3.427  -4.645  1.00  0.00    -0.072 Cl
ENDBRANCH  11  25
ENDBRANCH   5   8
ENDBRANCH   3   4
ENDBRANCH   2   3
ENDBRANCH   1   2
BRANCH   1  31
ATOM     31  C   UNL     1       3.466  -9.363 -10.976  1.00  0.00     0.002 C 
BRANCH  31  32
ATOM     32  C   UNL     1       2.027  -9.863 -11.185  1.00  0.00     0.021 C 
BRANCH  32  33
ATOM     33  C   UNL     1       1.427  -9.458 -12.520  1.00  0.00     0.116 C 
BRANCH  33  34
ATOM     34  N   UNL     1       2.131 -10.060 -13.656  1.00  0.00    -0.352 N 
ATOM     35  C   UNL     1       1.908  -9.875 -15.007  1.00  0.00     0.251 C 
ATOM     36  H   UNL     1       2.860 -10.680 -13.425  1.00  0.00     0.163 HD
ATOM     37  O   UNL     1       2.314 -10.682 -15.835  1.00  0.00    -0.269 OA
BRANCH  35  38
ATOM     38  C   UNL     1       1.184  -8.669 -15.437  1.00  0.00     0.039 A 
ATOM     39  C   UNL     1       0.257  -8.678 -16.483  1.00  0.00     0.014 A 
ATOM     40  C   UNL     1       1.441  -7.505 -14.723  1.00  0.00     0.014 A 
ATOM     41  C   UNL     1      -0.451  -7.508 -16.753  1.00  0.00     0.010 A 
ATOM     42  C   UNL     1       0.587  -6.450 -14.828  1.00  0.00     0.010 A 
ATOM     43  C   UNL     1      -0.280  -6.402 -15.908  1.00  0.00    -0.014 A 
BRANCH  43  44
ATOM     44  C   UNL     1      -1.041  -5.173 -16.055  1.00  0.00     0.031 A 
ATOM     45  C   UNL     1      -2.503  -5.354 -15.894  1.00  0.00     0.074 A 
ATOM     46  C   UNL     1      -0.434  -3.963 -16.054  1.00  0.00     0.049 A 
ATOM     47  N   UNL     1      -3.410  -5.283 -16.808  1.00  0.00    -0.248 NA
ATOM     48  C   UNL     1      -3.007  -5.842 -14.598  1.00  0.00     0.031 C 
ATOM     49  C   UNL     1       0.998  -3.670 -15.867  1.00  0.00     0.029 A 
ATOM     50  N   UNL     1      -0.981  -2.718 -16.117  1.00  0.00    -0.354 N 
ATOM     51  C   UNL     1      -4.625  -5.468 -16.150  1.00  0.00     0.074 A 
ATOM     52  C   UNL     1      -4.301  -6.032 -14.869  1.00  0.00     0.031 C 
ATOM     53  C   UNL     1       1.170  -2.355 -15.609  1.00  0.00     0.029 A 
ATOM     54  C   UNL     1      -0.100  -1.685 -15.801  1.00  0.00     0.049 A 
ATOM     55  H   UNL     1      -1.921  -2.561 -16.364  1.00  0.00     0.167 HD
ATOM     56  C   UNL     1      -5.751  -4.847 -16.600  1.00  0.00     0.037 A 
ATOM     57  C   UNL     1      -0.400  -0.366 -15.719  1.00  0.00     0.037 A 
ATOM     58  C   UNL     1      -5.511  -4.273 -17.902  1.00  0.00     0.049 A 
ATOM     59  C   UNL     1      -1.650  -0.161 -16.480  1.00  0.00     0.074 A 
ATOM     60  C   UNL     1      -5.374  -4.735 -19.192  1.00  0.00     0.029 A 
ATOM     61  N   UNL     1      -4.961  -3.018 -17.853  1.00  0.00    -0.354 N 
ATOM     62  N   UNL     1      -1.732  -0.305 -17.772  1.00  0.00    -0.248 NA
ATOM     63  C   UNL     1      -2.922  -0.161 -15.768  1.00  0.00     0.031 C 
ATOM     64  C   UNL     1      -4.531  -3.795 -19.857  1.00  0.00     0.029 A 
ATOM     65  C   UNL     1      -4.221  -2.761 -18.974  1.00  0.00     0.049 A 
ATOM     66  H   UNL     1      -5.083  -2.385 -17.109  1.00  0.00     0.167 HD
ATOM     67  C   UNL     1      -2.988  -0.842 -17.978  1.00  0.00     0.074 A 
ATOM     68  C   UNL     1      -3.730  -0.563 -16.754  1.00  0.00     0.031 C 
ATOM     69  C   UNL     1      -3.199  -1.739 -18.984  1.00  0.00     0.037 A 
BRANCH  56  70
ATOM     70  C   UNL     1      -6.874  -4.310 -15.731  1.00  0.00     0.057 A 
ATOM     71  C   UNL     1      -7.989  -3.721 -16.362  1.00  0.00     0.134 A 
ATOM     72  C   UNL     1      -6.782  -4.062 -14.347  1.00  0.00     0.134 A 
ATOM     73  F   UNL     1      -8.201  -3.879 -17.677  1.00  0.00    -0.206 F 
ATOM     74  C   UNL     1      -8.886  -2.881 -15.686  1.00  0.00     0.040 A 
ATOM     75  C   UNL     1      -7.699  -3.264 -13.654  1.00  0.00     0.040 A 
ATOM     76  F   UNL     1      -5.758  -4.488 -13.602  1.00  0.00    -0.206 F 
ATOM     77  C   UNL     1      -8.735  -2.641 -14.328  1.00  0.00     0.006 A 
ENDBRANCH  56  70
BRANCH  57  78
ATOM     78  C   UNL     1       0.178   0.699 -14.874  1.00  0.00     0.057 A 
ATOM     79  C   UNL     1       0.044   2.052 -15.215  1.00  0.00     0.134 A 
ATOM     80  C   UNL     1       0.592   0.426 -13.561  1.00  0.00     0.134 A 
ATOM     81  F   UNL     1      -0.372   2.407 -16.440  1.00  0.00    -0.206 F 
ATOM     82  C   UNL     1       0.262   3.079 -14.287  1.00  0.00     0.040 A 
ATOM     83  C   UNL     1       0.812   1.442 -12.623  1.00  0.00     0.040 A 
ATOM     84  F   UNL     1       0.697  -0.837 -13.122  1.00  0.00    -0.206 F 
ATOM     85  C   UNL     1       0.628   2.773 -12.980  1.00  0.00     0.006 A 
ENDBRANCH  57  78
BRANCH  69  86
ATOM     86  C   UNL     1      -2.194  -1.761 -20.097  1.00  0.00     0.057 A 
ATOM     87  C   UNL     1      -0.874  -2.217 -19.974  1.00  0.00     0.134 A 
ATOM     88  C   UNL     1      -2.615  -1.369 -21.371  1.00  0.00     0.134 A 
ATOM     89  F   UNL     1      -0.406  -2.681 -18.810  1.00  0.00    -0.206 F 
ATOM     90  C   UNL     1      -0.001  -2.245 -21.065  1.00  0.00     0.040 A 
ATOM     91  C   UNL     1      -1.764  -1.422 -22.475  1.00  0.00     0.040 A 
ATOM     92  F   UNL     1      -3.878  -0.962 -21.568  1.00  0.00    -0.206 F 
ATOM     93  C   UNL     1      -0.448  -1.850 -22.323  1.00  0.00     0.006 A 
ENDBRANCH  69  86
ENDBRANCH  43  44
ENDBRANCH  35  38
ENDBRANCH  33  34
ENDBRANCH  32  33
ENDBRANCH  31  32
ENDBRANCH   1  31
TORSDOF 17
