REMARK SMILES CC1(C)S[C@H](c2ccc(-c3cccc([N+](=O)[O-])c3)o2)[NH2+][C@@H]1C(=O)NCCCCCCNC(=O)c1ccc(-c2c3nc(c(-c4c(F)cccc4F)c4ccc([nH]4)c(-c4c(F)cccc4F)c4nc(c(-c5c(F)cccc5F)c5ccc2[nH]5)C=C4)C=C3)cc1
REMARK SMILES IDX 27 1 26 2 25 3 24 4 22 5 23 6 21 8 1 9 2 10 3 11 4 12 5 13
REMARK SMILES IDX 20 14 6 17 7 18 19 19 8 20 9 21 10 22 11 23 18 24 12 25
REMARK SMILES IDX 14 26 13 27 15 28 16 29 17 30 28 31 29 32 30 33 31 34 32 35
REMARK SMILES IDX 33 37 34 38 35 39 87 40 36 41 86 42 37 43 38 44 39 45 80 46
REMARK SMILES IDX 40 47 85 48 79 49 81 50 41 51 84 52 78 53 77 54 42 56 68 57
REMARK SMILES IDX 51 58 67 59 52 60 55 61 66 62 82 63 53 64 54 65 65 67 83 68
REMARK SMILES IDX 56 69 43 70 44 71 49 72 45 73 46 74 48 75 50 76 47 77 69 78
REMARK SMILES IDX 70 79 75 80 71 81 72 82 74 83 76 84 73 85 57 86 58 87 63 88
REMARK SMILES IDX 59 89 60 90 62 91 64 92 61 93
REMARK H PARENT 24 7 20 15 20 16 31 36 81 55 55 66
REMARK Flexibility Score: inf
ROOT
ATOM      1  C   UNL     1      -3.330   3.995  -3.883  1.00  0.00     0.002 C 
ENDROOT
BRANCH   1   2
ATOM      2  C   UNL     1      -2.817   4.207  -2.459  1.00  0.00     0.021 C 
BRANCH   2   3
ATOM      3  C   UNL     1      -2.234   2.962  -1.794  1.00  0.00     0.116 C 
BRANCH   3   4
ATOM      4  N   UNL     1      -1.177   2.341  -2.570  1.00  0.00    -0.351 N 
ATOM      5  C   UNL     1      -0.287   1.381  -2.154  1.00  0.00     0.279 C 
ATOM      6  O   UNL     1       0.445   0.883  -3.008  1.00  0.00    -0.268 OA
ATOM      7  H   UNL     1      -1.087   2.642  -3.503  1.00  0.00     0.163 HD
BRANCH   5   8
ATOM      8  C   UNL     1      -0.190   1.083  -0.638  1.00  0.00     0.289 C 
ATOM      9  C   UNL     1       1.243   0.367   1.323  1.00  0.00     0.030 C 
ATOM     10  C   UNL     1       0.854   0.053  -0.139  1.00  0.00     0.078 C 
ATOM     11  C   UNL     1       2.142  -0.090  -0.950  1.00  0.00     0.030 C 
ATOM     12  S   UNL     1      -0.050  -1.532  -0.159  1.00  0.00    -0.078 SA
ATOM     13  C   UNL     1      -1.680  -0.763  -0.251  1.00  0.00     0.311 C 
ATOM     14  N   UNL     1      -1.531   0.688  -0.098  1.00  0.00    -0.317 N 
ATOM     15  H   UNL     1      -1.593   0.939   0.888  1.00  0.00     0.348 HD
ATOM     16  H   UNL     1      -2.271   1.173  -0.606  1.00  0.00     0.348 HD
BRANCH  13  17
ATOM     17  C   UNL     1      -2.479  -1.251  -1.426  1.00  0.00     0.172 A 
ATOM     18  C   UNL     1      -3.207  -2.419  -1.572  1.00  0.00     0.054 A 
ATOM     19  O   UNL     1      -2.603  -0.496  -2.570  1.00  0.00    -0.454 OA
ATOM     20  C   UNL     1      -3.815  -2.373  -2.843  1.00  0.00     0.051 A 
ATOM     21  C   UNL     1      -3.425  -1.186  -3.424  1.00  0.00     0.134 A 
BRANCH  21  22
ATOM     22  C   UNL     1      -3.802  -0.544  -4.678  1.00  0.00     0.024 A 
ATOM     23  C   UNL     1      -2.853   0.028  -5.538  1.00  0.00     0.012 A 
ATOM     24  C   UNL     1      -5.161  -0.469  -5.024  1.00  0.00     0.097 A 
ATOM     25  C   UNL     1      -3.253   0.667  -6.722  1.00  0.00     0.008 A 
ATOM     26  C   UNL     1      -5.558   0.197  -6.194  1.00  0.00     0.270 A 
ATOM     27  C   UNL     1      -4.608   0.757  -7.054  1.00  0.00     0.085 A 
BRANCH  26  28
ATOM     28  N   UNL     1      -6.988   0.360  -6.479  1.00  0.00     0.062 N 
ATOM     29  O   UNL     1      -7.311   0.685  -7.630  1.00  0.00    -0.258 OA
ATOM     30  O   UNL     1      -7.784   0.161  -5.550  1.00  0.00    -0.258 OA
ENDBRANCH  26  28
ENDBRANCH  21  22
ENDBRANCH  13  17
ENDBRANCH   5   8
ENDBRANCH   3   4
ENDBRANCH   2   3
ENDBRANCH   1   2
BRANCH   1  31
ATOM     31  C   UNL     1      -4.291   2.823  -4.038  1.00  0.00     0.002 C 
BRANCH  31  32
ATOM     32  C   UNL     1      -5.624   2.924  -3.312  1.00  0.00     0.021 C 
BRANCH  32  33
ATOM     33  C   UNL     1      -6.450   4.128  -3.719  1.00  0.00     0.116 C 
BRANCH  33  34
ATOM     34  N   UNL     1      -6.722   4.187  -5.149  1.00  0.00    -0.352 N 
ATOM     35  C   UNL     1      -7.865   4.596  -5.792  1.00  0.00     0.251 C 
ATOM     36  H   UNL     1      -5.986   3.895  -5.734  1.00  0.00     0.163 HD
ATOM     37  O   UNL     1      -7.960   4.505  -7.007  1.00  0.00    -0.269 OA
BRANCH  35  38
ATOM     38  C   UNL     1      -8.984   5.138  -4.992  1.00  0.00     0.039 A 
ATOM     39  C   UNL     1     -10.289   4.743  -5.288  1.00  0.00     0.014 A 
ATOM     40  C   UNL     1      -8.736   6.020  -3.938  1.00  0.00     0.014 A 
ATOM     41  C   UNL     1     -11.340   5.206  -4.495  1.00  0.00     0.010 A 
ATOM     42  C   UNL     1      -9.763   6.377  -3.079  1.00  0.00     0.010 A 
ATOM     43  C   UNL     1     -11.081   6.008  -3.370  1.00  0.00    -0.014 A 
BRANCH  43  44
ATOM     44  C   UNL     1     -12.181   6.526  -2.521  1.00  0.00     0.031 A 
ATOM     45  C   UNL     1     -12.384   8.013  -2.391  1.00  0.00     0.074 A 
ATOM     46  C   UNL     1     -12.959   5.668  -1.836  1.00  0.00     0.049 A 
ATOM     47  N   UNL     1     -13.265   8.669  -1.679  1.00  0.00    -0.248 NA
ATOM     48  C   UNL     1     -11.448   8.882  -3.126  1.00  0.00     0.031 C 
ATOM     49  C   UNL     1     -12.815   4.211  -1.827  1.00  0.00     0.029 A 
ATOM     50  N   UNL     1     -14.031   5.901  -1.014  1.00  0.00    -0.354 N 
ATOM     51  C   UNL     1     -12.977  10.015  -1.871  1.00  0.00     0.074 A 
ATOM     52  C   UNL     1     -11.793  10.084  -2.695  1.00  0.00     0.031 C 
ATOM     53  C   UNL     1     -13.790   3.678  -1.074  1.00  0.00     0.029 A 
ATOM     54  C   UNL     1     -14.604   4.754  -0.520  1.00  0.00     0.049 A 
ATOM     55  H   UNL     1     -14.360   6.803  -0.797  1.00  0.00     0.167 HD
ATOM     56  C   UNL     1     -13.660  11.099  -1.433  1.00  0.00     0.037 A 
ATOM     57  C   UNL     1     -15.673   4.594   0.283  1.00  0.00     0.037 A 
ATOM     58  C   UNL     1     -14.860  11.023  -0.644  1.00  0.00     0.049 A 
ATOM     59  C   UNL     1     -16.426   5.813   0.742  1.00  0.00     0.074 A 
ATOM     60  C   UNL     1     -15.668  12.053  -0.201  1.00  0.00     0.029 A 
ATOM     61  N   UNL     1     -15.423   9.842  -0.181  1.00  0.00    -0.354 N 
ATOM     62  N   UNL     1     -16.190   7.078   0.488  1.00  0.00    -0.248 NA
ATOM     63  C   UNL     1     -17.602   5.579   1.589  1.00  0.00     0.031 C 
ATOM     64  C   UNL     1     -16.694  11.499   0.572  1.00  0.00     0.029 A 
ATOM     65  C   UNL     1     -16.557  10.120   0.562  1.00  0.00     0.049 A 
ATOM     66  H   UNL     1     -15.068   8.940  -0.356  1.00  0.00     0.167 HD
ATOM     67  C   UNL     1     -17.203   7.788   1.120  1.00  0.00     0.074 A 
ATOM     68  C   UNL     1     -18.067   6.809   1.748  1.00  0.00     0.031 C 
ATOM     69  C   UNL     1     -17.401   9.129   1.181  1.00  0.00     0.037 A 
BRANCH  56  70
ATOM     70  C   UNL     1     -13.128  12.452  -1.813  1.00  0.00     0.057 A 
ATOM     71  C   UNL     1     -13.139  12.909  -3.139  1.00  0.00     0.134 A 
ATOM     72  C   UNL     1     -12.610  13.316  -0.841  1.00  0.00     0.134 A 
ATOM     73  F   UNL     1     -13.606  12.126  -4.124  1.00  0.00    -0.206 F 
ATOM     74  C   UNL     1     -12.626  14.159  -3.488  1.00  0.00     0.040 A 
ATOM     75  C   UNL     1     -12.123  14.582  -1.172  1.00  0.00     0.040 A 
ATOM     76  F   UNL     1     -12.570  12.947   0.448  1.00  0.00    -0.206 F 
ATOM     77  C   UNL     1     -12.122  15.003  -2.501  1.00  0.00     0.006 A 
ENDBRANCH  56  70
BRANCH  57  78
ATOM     78  C   UNL     1     -16.118   3.231   0.671  1.00  0.00     0.057 A 
ATOM     79  C   UNL     1     -17.323   2.701   0.194  1.00  0.00     0.134 A 
ATOM     80  C   UNL     1     -15.361   2.431   1.534  1.00  0.00     0.134 A 
ATOM     81  F   UNL     1     -18.102   3.425  -0.624  1.00  0.00    -0.206 F 
ATOM     82  C   UNL     1     -17.773   1.438   0.582  1.00  0.00     0.040 A 
ATOM     83  C   UNL     1     -15.784   1.155   1.908  1.00  0.00     0.040 A 
ATOM     84  F   UNL     1     -14.192   2.875   2.019  1.00  0.00    -0.206 F 
ATOM     85  C   UNL     1     -16.999   0.659   1.439  1.00  0.00     0.006 A 
ENDBRANCH  57  78
BRANCH  69  86
ATOM     86  C   UNL     1     -18.613   9.604   1.929  1.00  0.00     0.057 A 
ATOM     87  C   UNL     1     -18.714   9.496   3.322  1.00  0.00     0.134 A 
ATOM     88  C   UNL     1     -19.687  10.190   1.246  1.00  0.00     0.134 A 
ATOM     89  F   UNL     1     -17.724   8.936   4.035  1.00  0.00    -0.206 F 
ATOM     90  C   UNL     1     -19.855   9.918   4.005  1.00  0.00     0.040 A 
ATOM     91  C   UNL     1     -20.819  10.646   1.921  1.00  0.00     0.040 A 
ATOM     92  F   UNL     1     -19.650  10.336  -0.087  1.00  0.00    -0.206 F 
ATOM     93  C   UNL     1     -20.910  10.499   3.304  1.00  0.00     0.006 A 
ENDBRANCH  69  86
ENDBRANCH  43  44
ENDBRANCH  35  38
ENDBRANCH  33  34
ENDBRANCH  32  33
ENDBRANCH  31  32
ENDBRANCH   1  31
TORSDOF 16
