REMARK SMILES CCCc1cc2c(cc1Cl)C=C(C(=O)NCCCCCCNC(=O)c1ccc(-c3c4nc(c(-c5c(F)cccc5F)c5ccc([nH]5)c(-c5c(F)cccc5F)c5nc(c(-c6c(F)cccc6F)c6ccc3[nH]6)C=C5)C=C4)cc1)[C@@H](C(F)(F)F)O2
REMARK SMILES IDX 18 1 17 2 16 3 15 4 13 5 14 6 12 8 4 9 5 10 9 11 6 12 8 13
REMARK SMILES IDX 10 14 7 15 84 16 11 17 79 18 3 19 2 20 1 21 80 22 81 23
REMARK SMILES IDX 82 24 83 25 19 26 20 27 21 28 22 29 23 30 24 32 25 33 26 34
REMARK SMILES IDX 78 35 27 36 77 37 28 38 29 39 30 40 71 41 31 42 76 43 70 44
REMARK SMILES IDX 72 45 32 46 75 47 69 48 68 49 33 51 59 52 42 53 58 54 43 55
REMARK SMILES IDX 46 56 57 57 73 58 44 59 45 60 56 62 74 63 47 64 34 65 35 66
REMARK SMILES IDX 40 67 36 68 37 69 39 70 41 71 38 72 60 73 61 74 66 75 62 76
REMARK SMILES IDX 63 77 65 78 67 79 64 80 48 81 49 82 54 83 50 84 51 85 53 86
REMARK SMILES IDX 55 87 52 88
REMARK H PARENT 15 7 22 31 72 50 46 61
REMARK Flexibility Score: inf
ROOT
ATOM      1  C   UNL     1      -6.233   7.962   5.548  1.00  0.00     0.002 C 
ENDROOT
BRANCH   1   2
ATOM      2  C   UNL     1      -5.499   6.623   5.415  1.00  0.00     0.021 C 
BRANCH   2   3
ATOM      3  C   UNL     1      -4.998   6.323   4.005  1.00  0.00     0.116 C 
BRANCH   3   4
ATOM      4  N   UNL     1      -3.729   6.971   3.731  1.00  0.00    -0.352 N 
ATOM      5  C   UNL     1      -2.470   6.593   3.410  1.00  0.00     0.251 C 
ATOM      6  O   UNL     1      -1.675   7.523   3.234  1.00  0.00    -0.270 OA
ATOM      7  H   UNL     1      -3.804   7.950   3.796  1.00  0.00     0.163 HD
BRANCH   5   8
ATOM      8  C   UNL     1      -1.997   5.184   3.262  1.00  0.00     0.067 C 
ATOM      9  C   UNL     1       0.881   1.074   2.621  1.00  0.00    -0.026 A 
ATOM     10  C   UNL     1      -0.460   1.298   2.973  1.00  0.00     0.052 A 
ATOM     11  C   UNL     1       1.718   2.189   2.453  1.00  0.00     0.045 A 
ATOM     12  C   UNL     1      -0.953   2.592   3.114  1.00  0.00     0.128 A 
ATOM     13  C   UNL     1       1.221   3.489   2.620  1.00  0.00     0.032 A 
ATOM     14  Cl  UNL     1       3.384   2.032   2.024  1.00  0.00    -0.084 Cl
ATOM     15  C   UNL     1      -0.122   3.694   2.943  1.00  0.00     0.019 A 
ATOM     16  O   UNL     1      -2.267   2.700   3.455  1.00  0.00    -0.475 OA
ATOM     17  C   UNL     1      -0.665   5.033   3.131  1.00  0.00     0.025 C 
ATOM     18  C   UNL     1      -2.902   3.984   3.208  1.00  0.00     0.314 C 
BRANCH   9  19
ATOM     19  C   UNL     1       1.326  -0.354   2.404  1.00  0.00     0.037 C 
BRANCH  19  20
ATOM     20  C   UNL     1       0.730  -0.986   1.140  1.00  0.00     0.001 C 
ATOM     21  C   UNL     1       1.162  -0.292  -0.145  1.00  0.00     0.004 C 
ENDBRANCH  19  20
ENDBRANCH   9  19
BRANCH  18  22
ATOM     22  C   UNL     1      -3.703   3.898   1.896  1.00  0.00     0.429 C 
ATOM     23  F   UNL     1      -4.720   3.008   2.020  1.00  0.00    -0.167 F 
ATOM     24  F   UNL     1      -4.272   5.077   1.554  1.00  0.00    -0.167 F 
ATOM     25  F   UNL     1      -2.945   3.505   0.849  1.00  0.00    -0.167 F 
ENDBRANCH  18  22
ENDBRANCH   5   8
ENDBRANCH   3   4
ENDBRANCH   2   3
ENDBRANCH   1   2
BRANCH   1  26
ATOM     26  C   UNL     1      -7.428   8.161   4.606  1.00  0.00     0.002 C 
BRANCH  26  27
ATOM     27  C   UNL     1      -8.430   7.005   4.549  1.00  0.00     0.021 C 
BRANCH  27  28
ATOM     28  C   UNL     1      -9.054   6.629   5.887  1.00  0.00     0.116 C 
BRANCH  28  29
ATOM     29  N   UNL     1      -9.863   7.698   6.449  1.00  0.00    -0.352 N 
ATOM     30  C   UNL     1     -11.149   7.652   6.931  1.00  0.00     0.251 C 
ATOM     31  H   UNL     1      -9.427   8.580   6.491  1.00  0.00     0.163 HD
ATOM     32  O   UNL     1     -11.735   8.685   7.237  1.00  0.00    -0.269 OA
BRANCH  30  33
ATOM     33  C   UNL     1     -11.838   6.349   7.046  1.00  0.00     0.039 A 
ATOM     34  C   UNL     1     -11.191   5.249   7.615  1.00  0.00     0.014 A 
ATOM     35  C   UNL     1     -13.138   6.222   6.550  1.00  0.00     0.014 A 
ATOM     36  C   UNL     1     -11.779   3.991   7.540  1.00  0.00     0.010 A 
ATOM     37  C   UNL     1     -13.759   4.970   6.548  1.00  0.00     0.010 A 
ATOM     38  C   UNL     1     -13.065   3.836   6.997  1.00  0.00    -0.014 A 
BRANCH  38  39
ATOM     39  C   UNL     1     -13.653   2.476   6.889  1.00  0.00     0.031 A 
ATOM     40  C   UNL     1     -13.921   1.861   5.541  1.00  0.00     0.074 A 
ATOM     41  C   UNL     1     -13.895   1.770   8.010  1.00  0.00     0.049 A 
ATOM     42  N   UNL     1     -14.418   0.684   5.254  1.00  0.00    -0.248 NA
ATOM     43  C   UNL     1     -13.592   2.676   4.361  1.00  0.00     0.031 C 
ATOM     44  C   UNL     1     -13.668   2.250   9.375  1.00  0.00     0.029 A 
ATOM     45  N   UNL     1     -14.364   0.493   8.180  1.00  0.00    -0.354 N 
ATOM     46  C   UNL     1     -14.477   0.623   3.867  1.00  0.00     0.074 A 
ATOM     47  C   UNL     1     -13.994   1.893   3.369  1.00  0.00     0.031 C 
ATOM     48  C   UNL     1     -13.955   1.266  10.240  1.00  0.00     0.029 A 
ATOM     49  C   UNL     1     -14.440   0.108   9.496  1.00  0.00     0.049 A 
ATOM     50  H   UNL     1     -14.622  -0.091   7.431  1.00  0.00     0.167 HD
ATOM     51  C   UNL     1     -14.883  -0.402   3.079  1.00  0.00     0.037 A 
ATOM     52  C   UNL     1     -14.868  -1.043  10.044  1.00  0.00     0.037 A 
ATOM     53  C   UNL     1     -15.348  -1.672   3.572  1.00  0.00     0.049 A 
ATOM     54  C   UNL     1     -15.359  -2.143   9.149  1.00  0.00     0.074 A 
ATOM     55  C   UNL     1     -15.761  -2.781   2.853  1.00  0.00     0.029 A 
ATOM     56  N   UNL     1     -15.463  -2.003   4.914  1.00  0.00    -0.354 N 
ATOM     57  N   UNL     1     -15.398  -2.189   7.839  1.00  0.00    -0.248 NA
ATOM     58  C   UNL     1     -15.878  -3.348   9.810  1.00  0.00     0.031 C 
ATOM     59  C   UNL     1     -16.161  -3.769   3.760  1.00  0.00     0.029 A 
ATOM     60  C   UNL     1     -15.960  -3.290   5.045  1.00  0.00     0.049 A 
ATOM     61  H   UNL     1     -15.226  -1.410   5.664  1.00  0.00     0.167 HD
ATOM     62  C   UNL     1     -15.935  -3.429   7.520  1.00  0.00     0.074 A 
ATOM     63  C   UNL     1     -16.182  -4.114   8.773  1.00  0.00     0.031 C 
ATOM     64  C   UNL     1     -16.208  -3.951   6.299  1.00  0.00     0.037 A 
BRANCH  51  65
ATOM     65  C   UNL     1     -14.856  -0.183   1.594  1.00  0.00     0.057 A 
ATOM     66  C   UNL     1     -16.046  -0.036   0.871  1.00  0.00     0.134 A 
ATOM     67  C   UNL     1     -13.654  -0.141   0.874  1.00  0.00     0.134 A 
ATOM     68  F   UNL     1     -17.232  -0.071   1.497  1.00  0.00    -0.206 F 
ATOM     69  C   UNL     1     -16.043   0.145  -0.513  1.00  0.00     0.040 A 
ATOM     70  C   UNL     1     -13.637   0.062  -0.507  1.00  0.00     0.040 A 
ATOM     71  F   UNL     1     -12.478  -0.261   1.508  1.00  0.00    -0.206 F 
ATOM     72  C   UNL     1     -14.835   0.201  -1.206  1.00  0.00     0.006 A 
ENDBRANCH  51  65
BRANCH  52  73
ATOM     73  C   UNL     1     -14.868  -1.210  11.518  1.00  0.00     0.057 A 
ATOM     74  C   UNL     1     -15.752  -0.492  12.332  1.00  0.00     0.134 A 
ATOM     75  C   UNL     1     -13.993  -2.104  12.145  1.00  0.00     0.134 A 
ATOM     76  F   UNL     1     -16.613   0.382  11.791  1.00  0.00    -0.206 F 
ATOM     77  C   UNL     1     -15.761  -0.650  13.718  1.00  0.00     0.040 A 
ATOM     78  C   UNL     1     -14.008  -2.292  13.528  1.00  0.00     0.040 A 
ATOM     79  F   UNL     1     -13.137  -2.835  11.415  1.00  0.00    -0.206 F 
ATOM     80  C   UNL     1     -14.892  -1.559  14.319  1.00  0.00     0.006 A 
ENDBRANCH  52  73
BRANCH  64  81
ATOM     81  C   UNL     1     -16.791  -5.332   6.272  1.00  0.00     0.057 A 
ATOM     82  C   UNL     1     -16.019  -6.427   5.865  1.00  0.00     0.134 A 
ATOM     83  C   UNL     1     -18.117  -5.577   6.648  1.00  0.00     0.134 A 
ATOM     84  F   UNL     1     -14.742  -6.259   5.489  1.00  0.00    -0.206 F 
ATOM     85  C   UNL     1     -16.546  -7.719   5.837  1.00  0.00     0.040 A 
ATOM     86  C   UNL     1     -18.648  -6.868   6.647  1.00  0.00     0.040 A 
ATOM     87  F   UNL     1     -18.902  -4.572   7.065  1.00  0.00    -0.206 F 
ATOM     88  C   UNL     1     -17.862  -7.943   6.236  1.00  0.00     0.006 A 
ENDBRANCH  64  81
ENDBRANCH  38  39
ENDBRANCH  30  33
ENDBRANCH  28  29
ENDBRANCH  27  28
ENDBRANCH  26  27
ENDBRANCH   1  26
TORSDOF 16
