REMARK SMILES COc1cc(OC)cc(-c2cc3nc(C)c(CCC(=O)NCCCCCCNC(=O)c4ccc(-c5c6nc(c(-c7c(F)cccc7F)c7ccc([nH]7)c(-c7c(F)cccc7F)c7nc(c(-c8c(F)cccc8F)c8ccc5[nH]8)C=C7)C=C6)cc4)c(C)n3n2)c1
REMARK SMILES IDX 23 1 22 2 21 3 19 4 20 5 18 7 17 8 16 9 10 10 11 11 88 12
REMARK SMILES IDX 12 13 87 14 13 15 85 16 14 17 86 18 15 19 9 20 3 21 4 22
REMARK SMILES IDX 89 23 5 24 8 25 2 26 1 27 6 28 7 29 24 30 25 31 26 32 27 33
REMARK SMILES IDX 28 34 29 35 30 37 31 38 32 39 84 40 33 41 83 42 34 43 35 44
REMARK SMILES IDX 36 45 77 46 37 47 82 48 76 49 78 50 38 51 81 52 75 53 74 54
REMARK SMILES IDX 39 56 65 57 48 58 64 59 49 60 52 61 63 62 79 63 50 64 51 65
REMARK SMILES IDX 62 67 80 68 53 69 40 70 41 71 46 72 42 73 43 74 45 75 47 76
REMARK SMILES IDX 44 77 66 78 67 79 72 80 68 81 69 82 71 83 73 84 70 85 54 86
REMARK SMILES IDX 55 87 60 88 56 89 57 90 59 91 61 92 58 93
REMARK H PARENT 21 6 28 36 78 55 52 66
REMARK Flexibility Score: inf
ROOT
ATOM      1  C   UNL     1       6.795   2.179  -0.942  1.00  0.00     0.021 C 
ENDROOT
BRANCH   1   2
ATOM      2  C   UNL     1       8.022   1.563  -0.296  1.00  0.00     0.116 C 
BRANCH   2   3
ATOM      3  N   UNL     1       8.910   1.017  -1.318  1.00  0.00    -0.356 N 
ATOM      4  C   UNL     1       9.933   1.608  -2.002  1.00  0.00     0.220 C 
ATOM      5  O   UNL     1      10.414   1.016  -2.971  1.00  0.00    -0.275 OA
ATOM      6  H   UNL     1       8.746   0.074  -1.550  1.00  0.00     0.163 HD
BRANCH   4   7
ATOM      7  C   UNL     1      10.488   2.953  -1.569  1.00  0.00     0.105 C 
BRANCH   7   8
ATOM      8  C   UNL     1      10.315   4.049  -2.635  1.00  0.00     0.049 C 
BRANCH   8   9
ATOM      9  C   UNL     1       8.884   4.509  -2.789  1.00  0.00    -0.005 A 
ATOM     10  C   UNL     1       4.456   3.963  -3.398  1.00  0.00     0.095 A 
ATOM     11  C   UNL     1       4.876   4.896  -2.428  1.00  0.00     0.080 A 
ATOM     12  N   UNL     1       5.525   3.660  -4.168  1.00  0.00    -0.166 NA
ATOM     13  C   UNL     1       6.213   5.105  -2.535  1.00  0.00     0.156 A 
ATOM     14  N   UNL     1       6.619   4.292  -3.573  1.00  0.00    -0.219 N 
ATOM     15  N   UNL     1       7.044   5.782  -1.701  1.00  0.00    -0.234 NA
ATOM     16  C   UNL     1       8.006   4.046  -3.728  1.00  0.00     0.046 A 
ATOM     17  C   UNL     1       8.307   5.487  -1.778  1.00  0.00     0.045 A 
ATOM     18  C   UNL     1       8.367   3.133  -4.857  1.00  0.00     0.067 C 
ATOM     19  C   UNL     1       9.187   6.207  -0.765  1.00  0.00     0.067 C 
BRANCH  10  20
ATOM     20  C   UNL     1       3.074   3.383  -3.538  1.00  0.00     0.009 A 
ATOM     21  C   UNL     1       1.336   1.731  -2.935  1.00  0.00     0.123 A 
ATOM     22  C   UNL     1       0.365   2.489  -3.560  1.00  0.00     0.092 A 
ATOM     23  C   UNL     1       2.666   2.178  -2.923  1.00  0.00     0.057 A 
ATOM     24  C   UNL     1       0.723   3.666  -4.214  1.00  0.00     0.123 A 
ATOM     25  C   UNL     1       2.068   4.087  -4.221  1.00  0.00     0.057 A 
BRANCH  21  26
ATOM     26  O   UNL     1       1.000   0.462  -2.540  1.00  0.00    -0.497 OA
ATOM     27  C   UNL     1       0.849   0.291  -1.135  1.00  0.00     0.278 C 
ENDBRANCH  21  26
BRANCH  24  28
ATOM     28  O   UNL     1      -0.342   4.299  -4.793  1.00  0.00    -0.497 OA
ATOM     29  C   UNL     1      -0.113   5.505  -5.502  1.00  0.00     0.278 C 
ENDBRANCH  24  28
ENDBRANCH  10  20
ENDBRANCH   8   9
ENDBRANCH   7   8
ENDBRANCH   4   7
ENDBRANCH   2   3
ENDBRANCH   1   2
BRANCH   1  30
ATOM     30  C   UNL     1       5.611   1.255  -1.131  1.00  0.00     0.002 C 
BRANCH  30  31
ATOM     31  C   UNL     1       4.620   1.050   0.028  1.00  0.00     0.002 C 
BRANCH  31  32
ATOM     32  C   UNL     1       4.122   2.194   0.944  1.00  0.00     0.021 C 
BRANCH  32  33
ATOM     33  C   UNL     1       3.219   3.344   0.435  1.00  0.00     0.116 C 
BRANCH  33  34
ATOM     34  N   UNL     1       1.765   3.142   0.281  1.00  0.00    -0.352 N 
ATOM     35  C   UNL     1       0.708   3.942  -0.190  1.00  0.00     0.251 C 
ATOM     36  H   UNL     1       1.469   2.249   0.573  1.00  0.00     0.163 HD
ATOM     37  O   UNL     1      -0.445   3.519   0.009  1.00  0.00    -0.269 OA
BRANCH  35  38
ATOM     38  C   UNL     1       0.843   5.228  -0.957  1.00  0.00     0.039 A 
ATOM     39  C   UNL     1      -0.226   5.938  -1.534  1.00  0.00     0.014 A 
ATOM     40  C   UNL     1       2.087   5.772  -1.152  1.00  0.00     0.014 A 
ATOM     41  C   UNL     1       0.014   7.050  -2.385  1.00  0.00     0.010 A 
ATOM     42  C   UNL     1       2.352   6.758  -2.092  1.00  0.00     0.010 A 
ATOM     43  C   UNL     1       1.325   7.395  -2.750  1.00  0.00    -0.014 A 
BRANCH  43  44
ATOM     44  C   UNL     1       1.717   8.638  -3.436  1.00  0.00     0.031 A 
ATOM     45  C   UNL     1       1.526   9.791  -2.516  1.00  0.00     0.074 A 
ATOM     46  C   UNL     1       2.537   8.787  -4.508  1.00  0.00     0.049 A 
ATOM     47  N   UNL     1       0.582  10.671  -2.543  1.00  0.00    -0.248 NA
ATOM     48  C   UNL     1       2.332   9.815  -1.278  1.00  0.00     0.031 C 
ATOM     49  C   UNL     1       3.241   7.766  -5.282  1.00  0.00     0.029 A 
ATOM     50  N   UNL     1       2.993   9.942  -5.090  1.00  0.00    -0.354 N 
ATOM     51  C   UNL     1       0.825  11.484  -1.442  1.00  0.00     0.074 A 
ATOM     52  C   UNL     1       1.681  10.735  -0.568  1.00  0.00     0.031 C 
ATOM     53  C   UNL     1       4.152   8.338  -6.104  1.00  0.00     0.029 A 
ATOM     54  C   UNL     1       4.038   9.779  -6.003  1.00  0.00     0.049 A 
ATOM     55  H   UNL     1       2.611  10.824  -4.879  1.00  0.00     0.167 HD
ATOM     56  C   UNL     1       0.588  12.822  -1.488  1.00  0.00     0.037 A 
ATOM     57  C   UNL     1       4.775  10.758  -6.598  1.00  0.00     0.037 A 
ATOM     58  C   UNL     1      -0.223  13.159  -2.634  1.00  0.00     0.049 A 
ATOM     59  C   UNL     1       4.038  12.032  -6.415  1.00  0.00     0.074 A 
ATOM     60  C   UNL     1      -1.457  12.750  -3.106  1.00  0.00     0.029 A 
ATOM     61  N   UNL     1       0.414  13.732  -3.709  1.00  0.00    -0.354 N 
ATOM     62  N   UNL     1       2.909  12.316  -6.998  1.00  0.00    -0.248 NA
ATOM     63  C   UNL     1       4.342  12.813  -5.226  1.00  0.00     0.031 C 
ATOM     64  C   UNL     1      -1.303  12.664  -4.522  1.00  0.00     0.029 A 
ATOM     65  C   UNL     1      -0.016  13.094  -4.844  1.00  0.00     0.049 A 
ATOM     66  H   UNL     1       1.064  14.471  -3.670  1.00  0.00     0.167 HD
ATOM     67  C   UNL     1       2.168  12.970  -6.026  1.00  0.00     0.074 A 
ATOM     68  C   UNL     1       3.134  13.329  -4.989  1.00  0.00     0.031 C 
ATOM     69  C   UNL     1       0.806  12.891  -6.015  1.00  0.00     0.037 A 
BRANCH  56  70
ATOM     70  C   UNL     1       1.414  13.849  -0.747  1.00  0.00     0.057 A 
ATOM     71  C   UNL     1       0.975  15.183  -0.738  1.00  0.00     0.134 A 
ATOM     72  C   UNL     1       2.729  13.655  -0.269  1.00  0.00     0.134 A 
ATOM     73  F   UNL     1      -0.249  15.507  -1.179  1.00  0.00    -0.206 F 
ATOM     74  C   UNL     1       1.804  16.244  -0.355  1.00  0.00     0.040 A 
ATOM     75  C   UNL     1       3.544  14.700   0.172  1.00  0.00     0.040 A 
ATOM     76  F   UNL     1       3.349  12.470  -0.292  1.00  0.00    -0.206 F 
ATOM     77  C   UNL     1       3.095  16.005   0.098  1.00  0.00     0.006 A 
ENDBRANCH  56  70
BRANCH  57  78
ATOM     78  C   UNL     1       6.183  10.757  -7.078  1.00  0.00     0.057 A 
ATOM     79  C   UNL     1       6.671  11.776  -7.916  1.00  0.00     0.134 A 
ATOM     80  C   UNL     1       7.159   9.930  -6.497  1.00  0.00     0.134 A 
ATOM     81  F   UNL     1       5.829  12.644  -8.496  1.00  0.00    -0.206 F 
ATOM     82  C   UNL     1       8.043  11.983  -8.130  1.00  0.00     0.040 A 
ATOM     83  C   UNL     1       8.531  10.122  -6.707  1.00  0.00     0.040 A 
ATOM     84  F   UNL     1       6.819   8.966  -5.631  1.00  0.00    -0.206 F 
ATOM     85  C   UNL     1       8.979  11.162  -7.512  1.00  0.00     0.006 A 
ENDBRANCH  57  78
BRANCH  69  86
ATOM     86  C   UNL     1       0.127  12.330  -7.237  1.00  0.00     0.057 A 
ATOM     87  C   UNL     1       0.291  11.017  -7.707  1.00  0.00     0.134 A 
ATOM     88  C   UNL     1      -0.837  13.112  -7.881  1.00  0.00     0.134 A 
ATOM     89  F   UNL     1       1.120  10.159  -7.099  1.00  0.00    -0.206 F 
ATOM     90  C   UNL     1      -0.440  10.524  -8.793  1.00  0.00     0.040 A 
ATOM     91  C   UNL     1      -1.599  12.620  -8.943  1.00  0.00     0.040 A 
ATOM     92  F   UNL     1      -1.086  14.361  -7.457  1.00  0.00    -0.206 F 
ATOM     93  C   UNL     1      -1.395  11.325  -9.409  1.00  0.00     0.006 A 
ENDBRANCH  69  86
ENDBRANCH  43  44
ENDBRANCH  35  38
ENDBRANCH  33  34
ENDBRANCH  32  33
ENDBRANCH  31  32
ENDBRANCH  30  31
ENDBRANCH   1  30
TORSDOF 18
