REMARK SMILES O=C(NCCCCCCNC(=O)[C@@H](c1ccccc1)N1C(=O)/C(=C\c2ccc(-c3ccc(F)cc3)o2)SC1=S)c1ccc(-c2c3nc(c(-c4c(F)cccc4F)c4ccc([nH]4)c(-c4c(F)cccc4F)c4nc(c(-c5c(F)cccc5F)c5ccc2[nH]5)C=C4)C=C3)cc1
REMARK SMILES IDX 7 1 6 2 5 3 4 4 3 5 1 6 2 7 40 9 41 10 93 11 42 12 92 13
REMARK SMILES IDX 43 14 44 15 45 16 86 17 46 18 91 19 85 20 87 21 47 22 90 23
REMARK SMILES IDX 84 24 83 25 48 27 74 28 57 29 73 30 58 31 61 32 72 33 88 34
REMARK SMILES IDX 59 35 60 36 71 38 89 39 62 40 49 41 50 42 55 43 51 44 52 45
REMARK SMILES IDX 54 46 56 47 53 48 75 49 76 50 81 51 77 52 78 53 80 54 82 55
REMARK SMILES IDX 79 56 63 57 64 58 69 59 65 60 66 61 68 62 70 63 67 64 8 65
REMARK SMILES IDX 9 66 10 67 11 68 12 70 13 71 14 72 15 73 19 74 16 75 18 76
REMARK SMILES IDX 17 77 20 78 21 79 38 80 22 81 23 82 37 83 39 84 24 85 25 86
REMARK SMILES IDX 26 87 36 88 27 89 28 90 29 91 30 92 35 93 31 94 34 95 32 96
REMARK SMILES IDX 33 97
REMARK H PARENT 3 8 87 26 61 37 10 69
REMARK Flexibility Score: inf
ROOT
ATOM      1  C   UNL     1       4.500  -1.561  -4.056  1.00  0.00     0.002 C 
ENDROOT
BRANCH   1   2
ATOM      2  C   UNL     1       4.111  -2.474  -2.891  1.00  0.00     0.002 C 
BRANCH   2   3
ATOM      3  C   UNL     1       4.684  -2.096  -1.526  1.00  0.00     0.021 C 
BRANCH   3   4
ATOM      4  C   UNL     1       4.448  -0.655  -1.098  1.00  0.00     0.116 C 
BRANCH   4   5
ATOM      5  N   UNL     1       3.037  -0.324  -0.986  1.00  0.00    -0.352 N 
ATOM      6  O   UNL     1       1.116   0.246   0.053  1.00  0.00    -0.269 OA
ATOM      7  C   UNL     1       2.339   0.166   0.090  1.00  0.00     0.251 C 
ATOM      8  H   UNL     1       2.504  -0.472  -1.801  1.00  0.00     0.163 HD
BRANCH   7   9
ATOM      9  C   UNL     1       3.070   0.570   1.310  1.00  0.00     0.039 A 
ATOM     10  C   UNL     1       4.239   1.328   1.217  1.00  0.00     0.014 A 
ATOM     11  C   UNL     1       2.586   0.176   2.559  1.00  0.00     0.014 A 
ATOM     12  C   UNL     1       5.006   1.550   2.352  1.00  0.00     0.010 A 
ATOM     13  C   UNL     1       3.308   0.491   3.713  1.00  0.00     0.010 A 
ATOM     14  C   UNL     1       4.542   1.151   3.616  1.00  0.00    -0.014 A 
BRANCH  14  15
ATOM     15  C   UNL     1       5.341   1.496   4.820  1.00  0.00     0.031 A 
ATOM     16  C   UNL     1       5.932   0.431   5.700  1.00  0.00     0.074 A 
ATOM     17  C   UNL     1       5.558   2.797   5.093  1.00  0.00     0.049 A 
ATOM     18  N   UNL     1       6.685   0.566   6.763  1.00  0.00    -0.248 NA
ATOM     19  C   UNL     1       5.637  -0.966   5.350  1.00  0.00     0.031 C 
ATOM     20  C   UNL     1       5.027   3.921   4.316  1.00  0.00     0.029 A 
ATOM     21  N   UNL     1       6.297   3.398   6.079  1.00  0.00    -0.354 N 
ATOM     22  C   UNL     1       6.935  -0.721   7.222  1.00  0.00     0.074 A 
ATOM     23  C   UNL     1       6.231  -1.624   6.336  1.00  0.00     0.031 C 
ATOM     24  C   UNL     1       5.505   5.068   4.816  1.00  0.00     0.029 A 
ATOM     25  C   UNL     1       6.314   4.769   5.991  1.00  0.00     0.049 A 
ATOM     26  H   UNL     1       6.771   2.896   6.781  1.00  0.00     0.167 HD
ATOM     27  C   UNL     1       7.689  -1.111   8.279  1.00  0.00     0.037 A 
ATOM     28  C   UNL     1       6.901   5.687   6.778  1.00  0.00     0.037 A 
ATOM     29  C   UNL     1       8.391  -0.204   9.152  1.00  0.00     0.049 A 
ATOM     30  C   UNL     1       7.695   5.227   7.964  1.00  0.00     0.074 A 
ATOM     31  C   UNL     1       9.212  -0.502  10.226  1.00  0.00     0.029 A 
ATOM     32  N   UNL     1       8.345   1.180   9.059  1.00  0.00    -0.354 N 
ATOM     33  N   UNL     1       7.961   4.005   8.358  1.00  0.00    -0.248 NA
ATOM     34  C   UNL     1       8.268   6.274   8.819  1.00  0.00     0.031 C 
ATOM     35  C   UNL     1       9.616   0.700  10.818  1.00  0.00     0.029 A 
ATOM     36  C   UNL     1       9.099   1.750  10.075  1.00  0.00     0.049 A 
ATOM     37  H   UNL     1       7.851   1.684   8.374  1.00  0.00     0.167 HD
ATOM     38  C   UNL     1       8.753   4.135   9.490  1.00  0.00     0.074 A 
ATOM     39  C   UNL     1       8.939   5.556   9.706  1.00  0.00     0.031 C 
ATOM     40  C   UNL     1       9.278   3.166  10.278  1.00  0.00     0.037 A 
BRANCH  27  41
ATOM     41  C   UNL     1       7.771  -2.584   8.570  1.00  0.00     0.057 A 
ATOM     42  C   UNL     1       8.459  -3.473   7.732  1.00  0.00     0.134 A 
ATOM     43  C   UNL     1       7.181  -3.116   9.725  1.00  0.00     0.134 A 
ATOM     44  F   UNL     1       9.039  -3.034   6.605  1.00  0.00    -0.206 F 
ATOM     45  C   UNL     1       8.532  -4.839   8.017  1.00  0.00     0.040 A 
ATOM     46  C   UNL     1       7.272  -4.475  10.035  1.00  0.00     0.040 A 
ATOM     47  F   UNL     1       6.515  -2.323  10.577  1.00  0.00    -0.206 F 
ATOM     48  C   UNL     1       7.943  -5.342   9.176  1.00  0.00     0.006 A 
ENDBRANCH  27  41
BRANCH  28  49
ATOM     49  C   UNL     1       6.758   7.131   6.465  1.00  0.00     0.057 A 
ATOM     50  C   UNL     1       7.856   7.892   6.049  1.00  0.00     0.134 A 
ATOM     51  C   UNL     1       5.523   7.783   6.569  1.00  0.00     0.134 A 
ATOM     52  F   UNL     1       9.068   7.327   5.944  1.00  0.00    -0.206 F 
ATOM     53  C   UNL     1       7.737   9.253   5.766  1.00  0.00     0.040 A 
ATOM     54  C   UNL     1       5.382   9.136   6.259  1.00  0.00     0.040 A 
ATOM     55  F   UNL     1       4.430   7.107   6.952  1.00  0.00    -0.206 F 
ATOM     56  C   UNL     1       6.494   9.877   5.865  1.00  0.00     0.006 A 
ENDBRANCH  28  49
BRANCH  40  57
ATOM     57  C   UNL     1      10.141   3.614  11.423  1.00  0.00     0.057 A 
ATOM     58  C   UNL     1       9.610   4.261  12.546  1.00  0.00     0.134 A 
ATOM     59  C   UNL     1      11.523   3.384  11.403  1.00  0.00     0.134 A 
ATOM     60  F   UNL     1       8.297   4.527  12.621  1.00  0.00    -0.206 F 
ATOM     61  C   UNL     1      10.426   4.692  13.594  1.00  0.00     0.040 A 
ATOM     62  C   UNL     1      12.345   3.781  12.458  1.00  0.00     0.040 A 
ATOM     63  F   UNL     1      12.096   2.763  10.361  1.00  0.00    -0.206 F 
ATOM     64  C   UNL     1      11.798   4.446  13.553  1.00  0.00     0.006 A 
ENDBRANCH  40  57
ENDBRANCH  14  15
ENDBRANCH   7   9
ENDBRANCH   4   5
ENDBRANCH   3   4
ENDBRANCH   2   3
ENDBRANCH   1   2
BRANCH   1  65
ATOM     65  C   UNL     1       5.991  -1.292  -4.213  1.00  0.00     0.021 C 
BRANCH  65  66
ATOM     66  C   UNL     1       6.875  -2.524  -4.287  1.00  0.00     0.116 C 
BRANCH  66  67
ATOM     67  N   UNL     1       6.710  -3.314  -5.483  1.00  0.00    -0.354 N 
ATOM     68  C   UNL     1       7.674  -3.774  -6.337  1.00  0.00     0.247 C 
ATOM     69  H   UNL     1       5.783  -3.554  -5.713  1.00  0.00     0.163 HD
ATOM     70  O   UNL     1       7.279  -4.303  -7.382  1.00  0.00    -0.272 OA
BRANCH  68  71
ATOM     71  C   UNL     1       9.208  -3.613  -6.052  1.00  0.00     0.211 C 
BRANCH  71  72
ATOM     72  C   UNL     1       9.644  -2.132  -6.058  1.00  0.00    -0.016 A 
ATOM     73  C   UNL     1      10.730  -1.647  -5.314  1.00  0.00     0.006 A 
ATOM     74  C   UNL     1       8.901  -1.188  -6.799  1.00  0.00     0.006 A 
ATOM     75  C   UNL     1      10.903  -0.273  -5.113  1.00  0.00     0.000 A 
ATOM     76  C   UNL     1       9.095   0.184  -6.626  1.00  0.00     0.000 A 
ATOM     77  C   UNL     1      10.065   0.641  -5.743  1.00  0.00     0.000 A 
ENDBRANCH  71  72
BRANCH  71  78
ATOM     78  N   UNL     1       9.580  -4.494  -4.893  1.00  0.00    -0.276 N 
ATOM     79  C   UNL     1       9.710  -4.029  -3.602  1.00  0.00     0.267 C 
ATOM     80  C   UNL     1       9.704  -5.870  -5.017  1.00  0.00     0.149 C 
ATOM     81  O   UNL     1       9.488  -2.891  -3.210  1.00  0.00    -0.268 OA
ATOM     82  C   UNL     1      10.154  -5.086  -2.660  1.00  0.00     0.084 C 
ATOM     83  S   UNL     1      10.085  -6.603  -3.455  1.00  0.00    -0.054 SA
ATOM     84  S   UNL     1       9.536  -6.827  -6.374  1.00  0.00    -0.052 S 
ATOM     85  C   UNL     1      10.608  -4.909  -1.408  1.00  0.00     0.068 C 
BRANCH  85  86
ATOM     86  C   UNL     1      10.752  -3.625  -0.809  1.00  0.00     0.128 A 
ATOM     87  C   UNL     1       9.791  -2.669  -0.498  1.00  0.00     0.051 A 
ATOM     88  O   UNL     1      11.978  -3.110  -0.442  1.00  0.00    -0.457 OA
ATOM     89  C   UNL     1      10.455  -1.519  -0.021  1.00  0.00     0.051 A 
ATOM     90  C   UNL     1      11.791  -1.844   0.028  1.00  0.00     0.134 A 
BRANCH  90  91
ATOM     91  C   UNL     1      12.967  -1.137   0.509  1.00  0.00     0.017 A 
ATOM     92  C   UNL     1      14.200  -1.220  -0.153  1.00  0.00     0.015 A 
ATOM     93  C   UNL     1      12.867  -0.347   1.666  1.00  0.00     0.015 A 
ATOM     94  C   UNL     1      15.312  -0.529   0.338  1.00  0.00     0.040 A 
ATOM     95  C   UNL     1      13.979   0.332   2.163  1.00  0.00     0.040 A 
ATOM     96  C   UNL     1      15.192   0.235   1.494  1.00  0.00     0.123 A 
ATOM     97  F   UNL     1      16.261   0.885   1.971  1.00  0.00    -0.207 F 
ENDBRANCH  90  91
ENDBRANCH  85  86
ENDBRANCH  71  78
ENDBRANCH  68  71
ENDBRANCH  66  67
ENDBRANCH  65  66
ENDBRANCH   1  65
TORSDOF 17
