REMARK SMILES NS(=O)(=O)c1ccc(-n2nc(C(F)F)cc2-c2ccc(C(=O)NCCCCCCNC(=O)c3ccc(-c4c5nc(c(-c6c(F)cccc6F)c6ccc([nH]6)c(-c6c(F)cccc6F)c6nc(c(-c7c(F)cccc7F)c7ccc4[nH]7)C=C6)C=C5)cc3)cc2)cc1
REMARK SMILES IDX 25 1 24 2 23 3 21 4 22 5 20 7 17 8 18 9 88 10 19 11 87 12
REMARK SMILES IDX 16 13 9 14 10 15 11 16 15 17 8 18 5 19 6 20 90 21 7 22 89 23
REMARK SMILES IDX 2 24 3 25 4 26 1 27 12 30 13 31 14 32 26 33 27 34 28 35
REMARK SMILES IDX 29 36 30 37 31 38 32 40 33 41 34 42 86 43 35 44 85 45 36 46
REMARK SMILES IDX 37 47 38 48 79 49 39 50 84 51 78 52 80 53 40 54 83 55 77 56
REMARK SMILES IDX 76 57 41 59 67 60 50 61 66 62 51 63 54 64 65 65 81 66 52 67
REMARK SMILES IDX 53 68 64 70 82 71 55 72 42 73 43 74 48 75 44 76 45 77 47 78
REMARK SMILES IDX 49 79 46 80 68 81 69 82 74 83 70 84 71 85 73 86 75 87 72 88
REMARK SMILES IDX 56 89 57 90 62 91 58 92 59 93 61 94 63 95 60 96
REMARK H PARENT 23 6 1 28 1 29 30 39 80 58 54 69
REMARK Flexibility Score: inf
ROOT
ATOM      1  C   UNL     1       8.679   3.360  -6.301  1.00  0.00     0.021 C 
ENDROOT
BRANCH   1   2
ATOM      2  C   UNL     1       7.771   4.441  -6.891  1.00  0.00     0.116 C 
BRANCH   2   3
ATOM      3  N   UNL     1       6.599   3.821  -7.475  1.00  0.00    -0.352 N 
ATOM      4  C   UNL     1       5.301   3.716  -7.052  1.00  0.00     0.251 C 
ATOM      5  O   UNL     1       4.518   3.071  -7.747  1.00  0.00    -0.269 OA
ATOM      6  H   UNL     1       6.768   3.391  -8.344  1.00  0.00     0.163 HD
BRANCH   4   7
ATOM      7  C   UNL     1       4.794   4.428  -5.849  1.00  0.00     0.039 A 
ATOM      8  C   UNL     1       3.749   6.007  -3.783  1.00  0.00     0.000 A 
ATOM      9  C   UNL     1       2.930   5.613  -4.846  1.00  0.00     0.011 A 
ATOM     10  C   UNL     1       5.069   5.563  -3.725  1.00  0.00     0.011 A 
ATOM     11  C   UNL     1       3.454   4.837  -5.880  1.00  0.00     0.014 A 
ATOM     12  C   UNL     1       5.565   4.724  -4.723  1.00  0.00     0.014 A 
BRANCH   8  13
ATOM     13  C   UNL     1       3.207   6.808  -2.697  1.00  0.00     0.075 A 
ATOM     14  N   UNL     1       2.263   6.354  -1.787  1.00  0.00    -0.233 N 
ATOM     15  N   UNL     1       1.746   7.367  -1.051  1.00  0.00    -0.166 NA
ATOM     16  C   UNL     1       2.522   8.430  -1.341  1.00  0.00     0.129 A 
ATOM     17  C   UNL     1       3.420   8.134  -2.393  1.00  0.00     0.060 A 
BRANCH  14  18
ATOM     18  C   UNL     1       1.840   5.013  -1.609  1.00  0.00     0.065 A 
ATOM     19  C   UNL     1       1.019   2.359  -1.569  1.00  0.00     0.082 A 
ATOM     20  C   UNL     1       2.383   2.652  -1.610  1.00  0.00     0.024 A 
ATOM     21  C   UNL     1       0.064   3.381  -1.507  1.00  0.00     0.024 A 
ATOM     22  C   UNL     1       2.792   3.981  -1.629  1.00  0.00     0.030 A 
ATOM     23  C   UNL     1       0.477   4.719  -1.501  1.00  0.00     0.030 A 
BRANCH  19  24
ATOM     24  S   UNL     1       0.534   0.662  -1.649  1.00  0.00     0.238 S 
ATOM     25  O   UNL     1       1.279   0.015  -2.696  1.00  0.00    -0.207 OA
ATOM     26  O   UNL     1      -0.906   0.564  -1.532  1.00  0.00    -0.207 OA
BRANCH  24  27
ATOM     27  N   UNL     1       1.145   0.054  -0.205  1.00  0.00    -0.225 NA
ATOM     28  H   UNL     1       0.924  -0.939  -0.134  1.00  0.00     0.137 HD
ATOM     29  H   UNL     1       0.724   0.553   0.579  1.00  0.00     0.137 HD
ENDBRANCH  24  27
ENDBRANCH  19  24
ENDBRANCH  14  18
BRANCH  16  30
ATOM     30  C   UNL     1       2.408   9.745  -0.627  1.00  0.00     0.393 C 
ATOM     31  F   UNL     1       1.126  10.188  -0.545  1.00  0.00    -0.203 F 
ATOM     32  F   UNL     1       2.878   9.660   0.649  1.00  0.00    -0.203 F 
ENDBRANCH  16  30
ENDBRANCH   8  13
ENDBRANCH   4   7
ENDBRANCH   2   3
ENDBRANCH   1   2
BRANCH   1  33
ATOM     33  C   UNL     1       9.484   2.616  -7.374  1.00  0.00     0.002 C 
BRANCH  33  34
ATOM     34  C   UNL     1      10.338   3.514  -8.287  1.00  0.00     0.002 C 
BRANCH  34  35
ATOM     35  C   UNL     1      11.251   4.527  -7.577  1.00  0.00     0.021 C 
BRANCH  35  36
ATOM     36  C   UNL     1      12.390   3.871  -6.816  1.00  0.00     0.116 C 
BRANCH  36  37
ATOM     37  N   UNL     1      13.353   3.211  -7.712  1.00  0.00    -0.352 N 
ATOM     38  C   UNL     1      14.467   2.447  -7.397  1.00  0.00     0.251 C 
ATOM     39  H   UNL     1      13.182   3.329  -8.674  1.00  0.00     0.163 HD
ATOM     40  O   UNL     1      15.373   2.280  -8.204  1.00  0.00    -0.269 OA
BRANCH  38  41
ATOM     41  C   UNL     1      14.522   1.811  -6.073  1.00  0.00     0.039 A 
ATOM     42  C   UNL     1      15.692   1.641  -5.325  1.00  0.00     0.014 A 
ATOM     43  C   UNL     1      13.299   1.435  -5.551  1.00  0.00     0.014 A 
ATOM     44  C   UNL     1      15.578   1.081  -4.053  1.00  0.00     0.010 A 
ATOM     45  C   UNL     1      13.182   1.340  -4.207  1.00  0.00     0.010 A 
ATOM     46  C   UNL     1      14.294   0.911  -3.519  1.00  0.00    -0.014 A 
BRANCH  46  47
ATOM     47  C   UNL     1      14.002   0.360  -2.210  1.00  0.00     0.031 A 
ATOM     48  C   UNL     1      14.531   1.186  -1.109  1.00  0.00     0.074 A 
ATOM     49  C   UNL     1      13.078  -0.617  -2.036  1.00  0.00     0.049 A 
ATOM     50  N   UNL     1      15.544   0.928  -0.355  1.00  0.00    -0.248 NA
ATOM     51  C   UNL     1      14.007   2.555  -0.962  1.00  0.00     0.031 C 
ATOM     52  C   UNL     1      12.218  -1.272  -3.036  1.00  0.00     0.029 A 
ATOM     53  N   UNL     1      12.645  -1.177  -0.874  1.00  0.00    -0.354 N 
ATOM     54  C   UNL     1      15.616   1.992   0.535  1.00  0.00     0.074 A 
ATOM     55  C   UNL     1      14.840   3.053  -0.047  1.00  0.00     0.031 C 
ATOM     56  C   UNL     1      11.238  -1.971  -2.418  1.00  0.00     0.029 A 
ATOM     57  C   UNL     1      11.489  -1.952  -0.991  1.00  0.00     0.049 A 
ATOM     58  H   UNL     1      13.111  -1.047  -0.017  1.00  0.00     0.167 HD
ATOM     59  C   UNL     1      16.037   1.792   1.814  1.00  0.00     0.037 A 
ATOM     60  C   UNL     1      10.795  -2.505   0.038  1.00  0.00     0.037 A 
ATOM     61  C   UNL     1      16.684   0.505   1.942  1.00  0.00     0.049 A 
ATOM     62  C   UNL     1      11.715  -2.540   1.206  1.00  0.00     0.074 A 
ATOM     63  C   UNL     1      17.773  -0.101   1.346  1.00  0.00     0.029 A 
ATOM     64  N   UNL     1      15.946  -0.517   2.492  1.00  0.00    -0.354 N 
ATOM     65  N   UNL     1      12.789  -3.281   1.251  1.00  0.00    -0.248 NA
ATOM     66  C   UNL     1      11.721  -1.377   2.081  1.00  0.00     0.031 C 
ATOM     67  C   UNL     1      17.374  -1.457   1.141  1.00  0.00     0.029 A 
ATOM     68  C   UNL     1      16.106  -1.625   1.699  1.00  0.00     0.049 A 
ATOM     69  H   UNL     1      15.400  -0.464   3.309  1.00  0.00     0.167 HD
ATOM     70  C   UNL     1      13.762  -2.464   1.812  1.00  0.00     0.074 A 
ATOM     71  C   UNL     1      13.028  -1.320   2.355  1.00  0.00     0.031 C 
ATOM     72  C   UNL     1      15.085  -2.632   1.513  1.00  0.00     0.037 A 
BRANCH  59  73
ATOM     73  C   UNL     1      15.496   2.533   3.015  1.00  0.00     0.057 A 
ATOM     74  C   UNL     1      16.088   2.296   4.269  1.00  0.00     0.134 A 
ATOM     75  C   UNL     1      14.264   3.220   3.060  1.00  0.00     0.134 A 
ATOM     76  F   UNL     1      17.264   1.657   4.364  1.00  0.00    -0.206 F 
ATOM     77  C   UNL     1      15.453   2.621   5.473  1.00  0.00     0.040 A 
ATOM     78  C   UNL     1      13.648   3.596   4.256  1.00  0.00     0.040 A 
ATOM     79  F   UNL     1      13.535   3.482   1.971  1.00  0.00    -0.206 F 
ATOM     80  C   UNL     1      14.222   3.262   5.469  1.00  0.00     0.006 A 
ENDBRANCH  59  73
BRANCH  60  81
ATOM     81  C   UNL     1       9.328  -2.671   0.183  1.00  0.00     0.057 A 
ATOM     82  C   UNL     1       8.776  -3.511   1.162  1.00  0.00     0.134 A 
ATOM     83  C   UNL     1       8.430  -1.788  -0.443  1.00  0.00     0.134 A 
ATOM     84  F   UNL     1       9.556  -4.357   1.850  1.00  0.00    -0.206 F 
ATOM     85  C   UNL     1       7.418  -3.460   1.514  1.00  0.00     0.040 A 
ATOM     86  C   UNL     1       7.072  -1.729  -0.104  1.00  0.00     0.040 A 
ATOM     87  F   UNL     1       8.859  -0.887  -1.339  1.00  0.00    -0.206 F 
ATOM     88  C   UNL     1       6.564  -2.557   0.888  1.00  0.00     0.006 A 
ENDBRANCH  60  81
BRANCH  72  89
ATOM     89  C   UNL     1      15.479  -3.861   0.734  1.00  0.00     0.057 A 
ATOM     90  C   UNL     1      15.089  -4.119  -0.591  1.00  0.00     0.134 A 
ATOM     91  C   UNL     1      16.411  -4.740   1.292  1.00  0.00     0.134 A 
ATOM     92  F   UNL     1      14.275  -3.285  -1.247  1.00  0.00    -0.206 F 
ATOM     93  C   UNL     1      15.573  -5.218  -1.309  1.00  0.00     0.040 A 
ATOM     94  C   UNL     1      16.927  -5.824   0.577  1.00  0.00     0.040 A 
ATOM     95  F   UNL     1      16.877  -4.528   2.533  1.00  0.00    -0.206 F 
ATOM     96  C   UNL     1      16.501  -6.072  -0.726  1.00  0.00     0.006 A 
ENDBRANCH  72  89
ENDBRANCH  46  47
ENDBRANCH  38  41
ENDBRANCH  36  37
ENDBRANCH  35  36
ENDBRANCH  34  35
ENDBRANCH  33  34
ENDBRANCH   1  33
TORSDOF 18
