REMARK SMILES COc1ncccc1C[N@@H+](CC(=O)NCCCCCCNC(=O)c1ccc(-c2c3nc(c(-c4c(F)cccc4F)c4ccc([nH]4)c(-c4c(F)cccc4F)c4nc(c(-c5c(F)cccc5F)c5ccc2[nH]5)C=C4)C=C3)cc1)C1CCCC1
REMARK SMILES IDX 16 1 15 2 14 3 12 4 13 5 11 7 10 8 9 10 8 11 3 12 4 13 5 14
REMARK SMILES IDX 7 15 6 16 2 17 1 18 78 19 79 20 82 21 80 22 81 23 17 24
REMARK SMILES IDX 18 25 19 26 20 27 21 28 22 29 23 31 24 32 25 33 77 34 26 35
REMARK SMILES IDX 76 36 27 37 28 38 29 39 70 40 30 41 75 42 69 43 71 44 31 45
REMARK SMILES IDX 74 46 68 47 67 48 32 50 58 51 41 52 57 53 42 54 45 55 56 56
REMARK SMILES IDX 72 57 43 58 44 59 55 61 73 62 46 63 33 64 34 65 39 66 35 67
REMARK SMILES IDX 36 68 38 69 40 70 37 71 59 72 60 73 65 74 61 75 62 76 64 77
REMARK SMILES IDX 66 78 63 79 47 80 48 81 53 82 49 83 50 84 52 85 54 86 51 87
REMARK H PARENT 14 6 10 9 21 30 71 49 45 60
REMARK Flexibility Score: inf
ROOT
ATOM      1  C   UNL     1       5.842  -1.607   2.460  1.00  0.00     0.021 C 
ENDROOT
BRANCH   1   2
ATOM      2  C   UNL     1       5.894  -0.237   1.770  1.00  0.00     0.116 C 
BRANCH   2   3
ATOM      3  N   UNL     1       6.106  -0.384   0.343  1.00  0.00    -0.351 N 
ATOM      4  C   UNL     1       5.250  -0.264  -0.712  1.00  0.00     0.275 C 
ATOM      5  O   UNL     1       5.714  -0.500  -1.833  1.00  0.00    -0.269 OA
ATOM      6  H   UNL     1       7.031  -0.609   0.092  1.00  0.00     0.163 HD
BRANCH   4   7
ATOM      7  C   UNL     1       3.786   0.176  -0.552  1.00  0.00     0.364 C 
BRANCH   7   8
ATOM      8  N   UNL     1       2.791  -0.889  -0.221  1.00  0.00    -0.321 N 
ATOM      9  H   UNL     1       1.848  -0.603  -0.483  1.00  0.00     0.349 HD
BRANCH   8  10
ATOM     10  C   UNL     1       2.678  -1.047   1.231  1.00  0.00     0.305 C 
BRANCH  10  11
ATOM     11  C   UNL     1       1.559  -1.857   1.815  1.00  0.00     0.068 A 
ATOM     12  C   UNL     1       0.281  -1.347   2.037  1.00  0.00     0.221 A 
ATOM     13  N   UNL     1      -0.703  -2.034   2.660  1.00  0.00    -0.222 NA
ATOM     14  C   UNL     1      -0.413  -3.284   3.081  1.00  0.00     0.115 A 
ATOM     15  C   UNL     1       1.816  -3.156   2.284  1.00  0.00     0.017 A 
ATOM     16  C   UNL     1       0.822  -3.883   2.923  1.00  0.00     0.021 A 
BRANCH  12  17
ATOM     17  O   UNL     1      -0.009  -0.028   1.812  1.00  0.00    -0.481 OA
ATOM     18  C   UNL     1      -0.203   0.243   0.428  1.00  0.00     0.280 C 
ENDBRANCH  12  17
ENDBRANCH  10  11
ENDBRANCH   8  10
BRANCH   8  19
ATOM     19  C   UNL     1       2.910  -2.079  -1.079  1.00  0.00     0.184 C 
ATOM     20  C   UNL     1       3.972  -3.139  -0.753  1.00  0.00     0.065 C 
ATOM     21  C   UNL     1       1.608  -2.890  -1.276  1.00  0.00     0.065 C 
ATOM     22  C   UNL     1       3.526  -4.343  -1.568  1.00  0.00     0.006 C 
ATOM     23  C   UNL     1       2.023  -4.360  -1.364  1.00  0.00     0.006 C 
ENDBRANCH   8  19
ENDBRANCH   7   8
ENDBRANCH   4   7
ENDBRANCH   2   3
ENDBRANCH   1   2
BRANCH   1  24
ATOM     24  C   UNL     1       7.187  -2.176   2.904  1.00  0.00     0.002 C 
BRANCH  24  25
ATOM     25  C   UNL     1       7.843  -1.449   4.079  1.00  0.00     0.002 C 
BRANCH  25  26
ATOM     26  C   UNL     1       6.967  -1.268   5.323  1.00  0.00     0.021 C 
BRANCH  26  27
ATOM     27  C   UNL     1       6.321  -2.542   5.865  1.00  0.00     0.116 C 
BRANCH  27  28
ATOM     28  N   UNL     1       7.306  -3.535   6.256  1.00  0.00    -0.352 N 
ATOM     29  C   UNL     1       7.604  -4.037   7.498  1.00  0.00     0.251 C 
ATOM     30  H   UNL     1       7.841  -3.905   5.517  1.00  0.00     0.163 HD
ATOM     31  O   UNL     1       8.614  -4.716   7.659  1.00  0.00    -0.269 OA
BRANCH  29  32
ATOM     32  C   UNL     1       6.720  -3.757   8.649  1.00  0.00     0.039 A 
ATOM     33  C   UNL     1       7.298  -3.388   9.867  1.00  0.00     0.014 A 
ATOM     34  C   UNL     1       5.333  -3.898   8.545  1.00  0.00     0.014 A 
ATOM     35  C   UNL     1       6.482  -3.110  10.966  1.00  0.00     0.010 A 
ATOM     36  C   UNL     1       4.518  -3.559   9.623  1.00  0.00     0.010 A 
ATOM     37  C   UNL     1       5.084  -3.168  10.845  1.00  0.00    -0.014 A 
BRANCH  37  38
ATOM     38  C   UNL     1       4.204  -2.830  11.992  1.00  0.00     0.031 A 
ATOM     39  C   UNL     1       3.342  -3.888  12.624  1.00  0.00     0.074 A 
ATOM     40  C   UNL     1       4.141  -1.559  12.432  1.00  0.00     0.049 A 
ATOM     41  N   UNL     1       2.475  -3.776  13.598  1.00  0.00    -0.248 NA
ATOM     42  C   UNL     1       3.453  -5.248  12.074  1.00  0.00     0.031 C 
ATOM     43  C   UNL     1       4.894  -0.434  11.875  1.00  0.00     0.029 A 
ATOM     44  N   UNL     1       3.405  -0.998  13.444  1.00  0.00    -0.354 N 
ATOM     45  C   UNL     1       1.930  -5.042  13.768  1.00  0.00     0.074 A 
ATOM     46  C   UNL     1       2.527  -5.897  12.765  1.00  0.00     0.031 C 
ATOM     47  C   UNL     1       4.598   0.678  12.568  1.00  0.00     0.029 A 
ATOM     48  C   UNL     1       3.613   0.352  13.594  1.00  0.00     0.049 A 
ATOM     49  H   UNL     1       2.786  -1.514  14.010  1.00  0.00     0.167 HD
ATOM     50  C   UNL     1       1.030  -5.460  14.691  1.00  0.00     0.037 A 
ATOM     51  C   UNL     1       3.069   1.227  14.460  1.00  0.00     0.037 A 
ATOM     52  C   UNL     1       0.455  -4.615  15.704  1.00  0.00     0.049 A 
ATOM     53  C   UNL     1       2.072   0.738  15.473  1.00  0.00     0.074 A 
ATOM     54  C   UNL     1      -0.425  -4.957  16.716  1.00  0.00     0.029 A 
ATOM     55  N   UNL     1       0.702  -3.257  15.832  1.00  0.00    -0.354 N 
ATOM     56  N   UNL     1       1.612  -0.475  15.660  1.00  0.00    -0.248 NA
ATOM     57  C   UNL     1       1.525   1.739  16.399  1.00  0.00     0.031 C 
ATOM     58  C   UNL     1      -0.738  -3.799  17.435  1.00  0.00     0.029 A 
ATOM     59  C   UNL     1      -0.020  -2.743  16.896  1.00  0.00     0.049 A 
ATOM     60  H   UNL     1       1.302  -2.735  15.252  1.00  0.00     0.167 HD
ATOM     61  C   UNL     1       0.743  -0.389  16.741  1.00  0.00     0.074 A 
ATOM     62  C   UNL     1       0.752   0.993  17.175  1.00  0.00     0.031 C 
ATOM     63  C   UNL     1       0.005  -1.367  17.320  1.00  0.00     0.037 A 
BRANCH  50  64
ATOM     64  C   UNL     1       0.620  -6.904  14.649  1.00  0.00     0.057 A 
ATOM     65  C   UNL     1       1.494  -7.930  15.030  1.00  0.00     0.134 A 
ATOM     66  C   UNL     1      -0.673  -7.270  14.255  1.00  0.00     0.134 A 
ATOM     67  F   UNL     1       2.751  -7.647  15.407  1.00  0.00    -0.206 F 
ATOM     68  C   UNL     1       1.107  -9.270  14.996  1.00  0.00     0.040 A 
ATOM     69  C   UNL     1      -1.081  -8.606  14.241  1.00  0.00     0.040 A 
ATOM     70  F   UNL     1      -1.563  -6.338  13.883  1.00  0.00    -0.206 F 
ATOM     71  C   UNL     1      -0.187  -9.611  14.607  1.00  0.00     0.006 A 
ENDBRANCH  50  64
BRANCH  51  72
ATOM     72  C   UNL     1       3.478   2.653  14.428  1.00  0.00     0.057 A 
ATOM     73  C   UNL     1       4.264   3.199  15.450  1.00  0.00     0.134 A 
ATOM     74  C   UNL     1       3.091   3.504  13.386  1.00  0.00     0.134 A 
ATOM     75  F   UNL     1       4.649   2.437  16.484  1.00  0.00    -0.206 F 
ATOM     76  C   UNL     1       4.636   4.543  15.447  1.00  0.00     0.040 A 
ATOM     77  C   UNL     1       3.476   4.846  13.359  1.00  0.00     0.040 A 
ATOM     78  F   UNL     1       2.344   3.039  12.374  1.00  0.00    -0.206 F 
ATOM     79  C   UNL     1       4.245   5.370  14.396  1.00  0.00     0.006 A 
ENDBRANCH  51  72
BRANCH  63  80
ATOM     80  C   UNL     1      -0.826  -0.982  18.508  1.00  0.00     0.057 A 
ATOM     81  C   UNL     1      -1.996  -0.223  18.377  1.00  0.00     0.134 A 
ATOM     82  C   UNL     1      -0.468  -1.403  19.795  1.00  0.00     0.134 A 
ATOM     83  F   UNL     1      -2.385   0.223  17.173  1.00  0.00    -0.206 F 
ATOM     84  C   UNL     1      -2.767   0.123  19.487  1.00  0.00     0.040 A 
ATOM     85  C   UNL     1      -1.245  -1.084  20.909  1.00  0.00     0.040 A 
ATOM     86  F   UNL     1       0.637  -2.140  19.988  1.00  0.00    -0.206 F 
ATOM     87  C   UNL     1      -2.395  -0.313  20.757  1.00  0.00     0.006 A 
ENDBRANCH  63  80
ENDBRANCH  37  38
ENDBRANCH  29  32
ENDBRANCH  27  28
ENDBRANCH  26  27
ENDBRANCH  25  26
ENDBRANCH  24  25
ENDBRANCH   1  24
TORSDOF 18
