REMARK SMILES Cc1c(CC(=O)NCCCCCCNC(=O)c2ccc(-c3c4nc(c(-c5c(F)cccc5F)c5ccc([nH]5)c(-c5c(F)cccc5F)c5nc(c(-c6c(F)cccc6F)c6ccc3[nH]6)C=C5)C=C4)cc2)c2cc(O)ccc2n1C(=O)c1ccc(Cl)cc1
REMARK SMILES IDX 10 1 9 2 8 3 7 4 5 5 6 6 4 8 3 9 1 10 2 11 78 12 71 13 77 14
REMARK SMILES IDX 72 15 76 16 73 17 75 18 79 19 80 20 81 21 82 22 87 23 83 24
REMARK SMILES IDX 86 25 84 26 85 27 74 28 11 30 12 31 13 32 14 33 15 34 16 36
REMARK SMILES IDX 17 37 18 38 70 39 19 40 69 41 20 42 21 43 22 44 63 45 23 46
REMARK SMILES IDX 68 47 62 48 64 49 24 50 67 51 61 52 60 53 25 55 51 56 34 57
REMARK SMILES IDX 50 58 35 59 38 60 49 61 65 62 36 63 37 64 48 66 66 67 39 68
REMARK SMILES IDX 26 69 27 70 32 71 28 72 29 73 31 74 33 75 30 76 52 77 53 78
REMARK SMILES IDX 58 79 54 80 55 81 57 82 59 83 56 84 40 85 41 86 46 87 42 88
REMARK SMILES IDX 43 89 45 90 47 91 44 92
REMARK H PARENT 7 7 74 29 14 35 64 54 38 65
REMARK Flexibility Score: inf
ROOT
ATOM      1  C   UNL     1       1.823   1.471   5.177  1.00  0.00     0.002 C 
ENDROOT
BRANCH   1   2
ATOM      2  C   UNL     1       1.547   1.245   3.686  1.00  0.00     0.021 C 
BRANCH   2   3
ATOM      3  C   UNL     1       0.596   0.080   3.413  1.00  0.00     0.116 C 
BRANCH   3   4
ATOM      4  N   UNL     1      -0.767   0.428   3.755  1.00  0.00    -0.356 N 
ATOM      5  C   UNL     1      -1.796   0.763   2.923  1.00  0.00     0.224 C 
ATOM      6  O   UNL     1      -2.869   1.097   3.430  1.00  0.00    -0.275 OA
ATOM      7  H   UNL     1      -0.979   0.424   4.716  1.00  0.00     0.163 HD
BRANCH   5   8
ATOM      8  C   UNL     1      -1.633   0.642   1.417  1.00  0.00     0.138 C 
BRANCH   8   9
ATOM      9  C   UNL     1      -0.663   1.622   0.816  1.00  0.00    -0.009 A 
ATOM     10  C   UNL     1       0.954  -0.000  -0.421  1.00  0.00     0.065 C 
ATOM     11  C   UNL     1       0.444   1.336   0.025  1.00  0.00     0.028 A 
ATOM     12  N   UNL     1       1.092   2.537  -0.303  1.00  0.00    -0.280 N 
ATOM     13  C   UNL     1      -0.754   3.041   0.911  1.00  0.00     0.008 A 
ATOM     14  C   UNL     1       0.285   3.592   0.153  1.00  0.00     0.057 A 
ATOM     15  C   UNL     1      -1.667   3.902   1.562  1.00  0.00     0.056 A 
ATOM     16  C   UNL     1       0.358   4.991  -0.030  1.00  0.00     0.031 A 
ATOM     17  C   UNL     1      -1.533   5.280   1.432  1.00  0.00     0.116 A 
ATOM     18  C   UNL     1      -0.545   5.825   0.635  1.00  0.00     0.048 A 
BRANCH  12  19
ATOM     19  C   UNL     1       2.344   2.641  -0.982  1.00  0.00     0.262 C 
ATOM     20  O   UNL     1       2.874   1.628  -1.418  1.00  0.00    -0.268 OA
BRANCH  19  21
ATOM     21  C   UNL     1       3.081   3.897  -1.215  1.00  0.00     0.040 A 
ATOM     22  C   UNL     1       3.563   4.659  -0.145  1.00  0.00     0.015 A 
ATOM     23  C   UNL     1       3.276   4.312  -2.537  1.00  0.00     0.015 A 
ATOM     24  C   UNL     1       4.171   5.890  -0.404  1.00  0.00     0.021 A 
ATOM     25  C   UNL     1       3.889   5.539  -2.789  1.00  0.00     0.021 A 
ATOM     26  C   UNL     1       4.318   6.330  -1.722  1.00  0.00     0.041 A 
ATOM     27  Cl  UNL     1       5.015   7.872  -2.033  1.00  0.00    -0.084 Cl
ENDBRANCH  19  21
ENDBRANCH  12  19
BRANCH  17  28
ATOM     28  O   UNL     1      -2.422   6.070   2.099  1.00  0.00    -0.508 OA
ATOM     29  H   UNL     1      -3.085   5.681   2.635  1.00  0.00     0.293 HD
ENDBRANCH  17  28
ENDBRANCH   8   9
ENDBRANCH   5   8
ENDBRANCH   3   4
ENDBRANCH   2   3
ENDBRANCH   1   2
BRANCH   1  30
ATOM     30  C   UNL     1       2.542   0.315   5.880  1.00  0.00     0.002 C 
BRANCH  30  31
ATOM     31  C   UNL     1       3.868  -0.107   5.242  1.00  0.00     0.021 C 
BRANCH  31  32
ATOM     32  C   UNL     1       4.886   1.027   5.093  1.00  0.00     0.116 C 
BRANCH  32  33
ATOM     33  N   UNL     1       5.245   1.656   6.348  1.00  0.00    -0.352 N 
ATOM     34  C   UNL     1       6.090   1.337   7.375  1.00  0.00     0.251 C 
ATOM     35  H   UNL     1       4.773   2.508   6.495  1.00  0.00     0.163 HD
ATOM     36  O   UNL     1       6.192   2.171   8.278  1.00  0.00    -0.269 OA
BRANCH  34  37
ATOM     37  C   UNL     1       6.836   0.054   7.500  1.00  0.00     0.039 A 
ATOM     38  C   UNL     1       6.908  -0.939   6.524  1.00  0.00     0.014 A 
ATOM     39  C   UNL     1       7.483  -0.174   8.730  1.00  0.00     0.014 A 
ATOM     40  C   UNL     1       7.503  -2.163   6.801  1.00  0.00     0.010 A 
ATOM     41  C   UNL     1       8.115  -1.386   9.000  1.00  0.00     0.010 A 
ATOM     42  C   UNL     1       8.079  -2.401   8.049  1.00  0.00    -0.014 A 
BRANCH  42  43
ATOM     43  C   UNL     1       8.657  -3.723   8.269  1.00  0.00     0.031 A 
ATOM     44  C   UNL     1       9.758  -4.129   7.347  1.00  0.00     0.074 A 
ATOM     45  C   UNL     1       8.291  -4.537   9.277  1.00  0.00     0.049 A 
ATOM     46  N   UNL     1       9.802  -5.141   6.540  1.00  0.00    -0.248 NA
ATOM     47  C   UNL     1      10.938  -3.256   7.280  1.00  0.00     0.031 C 
ATOM     48  C   UNL     1       7.450  -4.227  10.435  1.00  0.00     0.029 A 
ATOM     49  N   UNL     1       8.688  -5.821   9.512  1.00  0.00    -0.354 N 
ATOM     50  C   UNL     1      11.079  -5.134   5.979  1.00  0.00     0.074 A 
ATOM     51  C   UNL     1      11.698  -3.900   6.393  1.00  0.00     0.031 C 
ATOM     52  C   UNL     1       7.573  -5.217  11.347  1.00  0.00     0.029 A 
ATOM     53  C   UNL     1       8.386  -6.281  10.782  1.00  0.00     0.049 A 
ATOM     54  H   UNL     1       9.149  -6.371   8.838  1.00  0.00     0.167 HD
ATOM     55  C   UNL     1      11.607  -6.222   5.352  1.00  0.00     0.037 A 
ATOM     56  C   UNL     1       8.823  -7.426  11.355  1.00  0.00     0.037 A 
ATOM     57  C   UNL     1      10.592  -7.151   4.936  1.00  0.00     0.049 A 
ATOM     58  C   UNL     1       9.275  -8.342  10.282  1.00  0.00     0.074 A 
ATOM     59  C   UNL     1       9.503  -7.101   4.088  1.00  0.00     0.029 A 
ATOM     60  N   UNL     1      10.452  -8.323   5.635  1.00  0.00    -0.354 N 
ATOM     61  N   UNL     1       8.480  -8.951   9.449  1.00  0.00    -0.248 NA
ATOM     62  C   UNL     1      10.674  -8.296   9.886  1.00  0.00     0.031 C 
ATOM     63  C   UNL     1       8.536  -7.972   4.670  1.00  0.00     0.029 A 
ATOM     64  C   UNL     1       9.108  -8.505   5.826  1.00  0.00     0.049 A 
ATOM     65  H   UNL     1      11.175  -8.916   5.941  1.00  0.00     0.167 HD
ATOM     66  C   UNL     1       9.182  -8.992   8.254  1.00  0.00     0.074 A 
ATOM     67  C   UNL     1      10.562  -8.684   8.614  1.00  0.00     0.031 C 
ATOM     68  C   UNL     1       8.534  -9.000   7.053  1.00  0.00     0.037 A 
BRANCH  55  69
ATOM     69  C   UNL     1      13.067  -6.605   5.397  1.00  0.00     0.057 A 
ATOM     70  C   UNL     1      13.952  -6.192   6.413  1.00  0.00     0.134 A 
ATOM     71  C   UNL     1      13.535  -7.660   4.590  1.00  0.00     0.134 A 
ATOM     72  F   UNL     1      13.624  -5.253   7.308  1.00  0.00    -0.206 F 
ATOM     73  C   UNL     1      15.193  -6.799   6.628  1.00  0.00     0.040 A 
ATOM     74  C   UNL     1      14.753  -8.308   4.829  1.00  0.00     0.040 A 
ATOM     75  F   UNL     1      12.782  -8.152   3.594  1.00  0.00    -0.206 F 
ATOM     76  C   UNL     1      15.583  -7.884   5.859  1.00  0.00     0.006 A 
ENDBRANCH  55  69
BRANCH  56  77
ATOM     77  C   UNL     1       9.092  -7.682  12.784  1.00  0.00     0.057 A 
ATOM     78  C   UNL     1       9.538  -6.656  13.636  1.00  0.00     0.134 A 
ATOM     79  C   UNL     1       9.158  -8.983  13.296  1.00  0.00     0.134 A 
ATOM     80  F   UNL     1       9.604  -5.384  13.215  1.00  0.00    -0.206 F 
ATOM     81  C   UNL     1      10.016  -6.907  14.924  1.00  0.00     0.040 A 
ATOM     82  C   UNL     1       9.645  -9.250  14.582  1.00  0.00     0.040 A 
ATOM     83  F   UNL     1       8.801 -10.032  12.541  1.00  0.00    -0.206 F 
ATOM     84  C   UNL     1      10.082  -8.210  15.398  1.00  0.00     0.006 A 
ENDBRANCH  56  77
BRANCH  68  85
ATOM     85  C   UNL     1       7.054  -9.247   7.061  1.00  0.00     0.057 A 
ATOM     86  C   UNL     1       6.538 -10.316   6.321  1.00  0.00     0.134 A 
ATOM     87  C   UNL     1       6.129  -8.385   7.666  1.00  0.00     0.134 A 
ATOM     88  F   UNL     1       7.362 -11.144   5.660  1.00  0.00    -0.206 F 
ATOM     89  C   UNL     1       5.163 -10.535   6.207  1.00  0.00     0.040 A 
ATOM     90  C   UNL     1       4.752  -8.612   7.588  1.00  0.00     0.040 A 
ATOM     91  F   UNL     1       6.529  -7.275   8.300  1.00  0.00    -0.206 F 
ATOM     92  C   UNL     1       4.265  -9.689   6.854  1.00  0.00     0.006 A 
ENDBRANCH  68  85
ENDBRANCH  42  43
ENDBRANCH  34  37
ENDBRANCH  32  33
ENDBRANCH  31  32
ENDBRANCH  30  31
ENDBRANCH   1  30
TORSDOF 17
