REMARK SMILES COc1ccc2c(c1)[C@H]([NH2+][C@@H](C(=O)NCCCCCCNC(=O)c1ccc(-c3c4nc(c(-c5c(F)cccc5F)c5ccc([nH]5)c(-c5c(F)cccc5F)c5nc(c(-c6c(F)cccc6F)c6ccc3[nH]6)C=C5)C=C4)cc1)C1CC1)CC2
REMARK SMILES IDX 17 1 16 2 15 3 14 4 12 5 13 6 11 8 10 9 9 12 3 13 4 14 8 15
REMARK SMILES IDX 5 16 7 17 6 18 82 19 81 20 2 21 1 22 78 23 79 24 80 25 18 26
REMARK SMILES IDX 19 27 20 28 21 29 22 30 23 32 24 33 25 34 77 35 26 36 76 37
REMARK SMILES IDX 27 38 28 39 29 40 70 41 30 42 75 43 69 44 71 45 31 46 74 47
REMARK SMILES IDX 68 48 67 49 32 51 58 52 41 53 57 54 42 55 45 56 56 57 72 58
REMARK SMILES IDX 43 59 44 60 55 62 73 63 46 64 33 65 34 66 39 67 35 68 36 69
REMARK SMILES IDX 38 70 40 71 37 72 59 73 60 74 65 75 61 76 62 77 64 78 66 79
REMARK SMILES IDX 63 80 47 81 48 82 53 83 49 84 50 85 52 86 54 87 51 88
REMARK H PARENT 14 7 10 10 10 11 21 31 71 50 45 61
REMARK Flexibility Score: inf
ROOT
ATOM      1  C   UNL     1      -1.808  -1.871   8.592  1.00  0.00     0.002 C 
ENDROOT
BRANCH   1   2
ATOM      2  C   UNL     1      -1.050  -2.550   7.441  1.00  0.00     0.021 C 
BRANCH   2   3
ATOM      3  C   UNL     1      -1.203  -4.071   7.404  1.00  0.00     0.116 C 
BRANCH   3   4
ATOM      4  N   UNL     1      -2.577  -4.451   7.164  1.00  0.00    -0.351 N 
ATOM      5  C   UNL     1      -3.150  -5.005   6.056  1.00  0.00     0.278 C 
ATOM      6  O   UNL     1      -4.376  -5.152   6.096  1.00  0.00    -0.268 OA
ATOM      7  H   UNL     1      -3.193  -4.284   7.914  1.00  0.00     0.163 HD
BRANCH   5   8
ATOM      8  C   UNL     1      -2.272  -5.512   4.864  1.00  0.00     0.276 C 
BRANCH   8   9
ATOM      9  N   UNL     1      -1.458  -4.412   4.311  1.00  0.00    -0.330 N 
ATOM     10  H   UNL     1      -2.060  -3.824   3.735  1.00  0.00     0.347 HD
ATOM     11  H   UNL     1      -1.063  -3.907   5.104  1.00  0.00     0.347 HD
BRANCH   9  12
ATOM     12  C   UNL     1      -0.335  -4.865   3.492  1.00  0.00     0.214 C 
ATOM     13  C   UNL     1       1.025  -1.682   1.810  1.00  0.00     0.119 A 
ATOM     14  C   UNL     1       2.372  -2.071   1.731  1.00  0.00     0.047 A 
ATOM     15  C   UNL     1       0.078  -2.515   2.412  1.00  0.00     0.056 A 
ATOM     16  C   UNL     1       2.784  -3.310   2.230  1.00  0.00     0.008 A 
ATOM     17  C   UNL     1       0.490  -3.743   2.908  1.00  0.00     0.016 A 
ATOM     18  C   UNL     1       1.836  -4.130   2.818  1.00  0.00    -0.038 A 
ATOM     19  C   UNL     1       2.036  -5.500   3.387  1.00  0.00     0.042 C 
ATOM     20  C   UNL     1       0.772  -5.637   4.248  1.00  0.00     0.075 C 
BRANCH  13  21
ATOM     21  O   UNL     1       0.561  -0.471   1.368  1.00  0.00    -0.497 OA
ATOM     22  C   UNL     1       1.040  -0.112   0.075  1.00  0.00     0.278 C 
ENDBRANCH  13  21
ENDBRANCH   9  12
ENDBRANCH   8   9
BRANCH   8  23
ATOM     23  C   UNL     1      -3.118  -6.231   3.824  1.00  0.00     0.057 C 
ATOM     24  C   UNL     1      -4.345  -5.575   3.215  1.00  0.00     0.011 C 
ATOM     25  C   UNL     1      -3.189  -5.923   2.335  1.00  0.00     0.011 C 
ENDBRANCH   8  23
ENDBRANCH   5   8
ENDBRANCH   3   4
ENDBRANCH   2   3
ENDBRANCH   1   2
BRANCH   1  26
ATOM     26  C   UNL     1      -1.459  -2.381   9.995  1.00  0.00     0.002 C 
BRANCH  26  27
ATOM     27  C   UNL     1       0.025  -2.312  10.359  1.00  0.00     0.021 C 
BRANCH  27  28
ATOM     28  C   UNL     1       0.625  -0.911  10.312  1.00  0.00     0.116 C 
BRANCH  28  29
ATOM     29  N   UNL     1       0.033  -0.025  11.303  1.00  0.00    -0.352 N 
ATOM     30  C   UNL     1       0.647   0.756  12.248  1.00  0.00     0.251 C 
ATOM     31  H   UNL     1      -0.951   0.020  11.294  1.00  0.00     0.163 HD
ATOM     32  O   UNL     1      -0.018   1.304  13.126  1.00  0.00    -0.269 OA
BRANCH  30  33
ATOM     33  C   UNL     1       2.115   0.924  12.227  1.00  0.00     0.039 A 
ATOM     34  C   UNL     1       2.822   0.839  13.430  1.00  0.00     0.014 A 
ATOM     35  C   UNL     1       2.794   1.167  11.030  1.00  0.00     0.014 A 
ATOM     36  C   UNL     1       4.215   0.938  13.422  1.00  0.00     0.010 A 
ATOM     37  C   UNL     1       4.186   1.188  11.014  1.00  0.00     0.010 A 
ATOM     38  C   UNL     1       4.911   1.078  12.209  1.00  0.00    -0.014 A 
BRANCH  38  39
ATOM     39  C   UNL     1       6.396   1.109  12.175  1.00  0.00     0.031 A 
ATOM     40  C   UNL     1       7.118   2.337  11.694  1.00  0.00     0.074 A 
ATOM     41  C   UNL     1       7.093   0.009  12.523  1.00  0.00     0.049 A 
ATOM     42  N   UNL     1       8.403   2.533  11.540  1.00  0.00    -0.248 NA
ATOM     43  C   UNL     1       6.285   3.487  11.309  1.00  0.00     0.031 C 
ATOM     44  C   UNL     1       6.509  -1.260  12.962  1.00  0.00     0.029 A 
ATOM     45  N   UNL     1       8.446  -0.220  12.553  1.00  0.00    -0.354 N 
ATOM     46  C   UNL     1       8.531   3.820  11.033  1.00  0.00     0.074 A 
ATOM     47  C   UNL     1       7.192   4.337  10.850  1.00  0.00     0.031 C 
ATOM     48  C   UNL     1       7.497  -2.124  13.242  1.00  0.00     0.029 A 
ATOM     49  C   UNL     1       8.781  -1.488  12.964  1.00  0.00     0.049 A 
ATOM     50  H   UNL     1       9.113   0.459  12.303  1.00  0.00     0.167 HD
ATOM     51  C   UNL     1       9.661   4.518  10.766  1.00  0.00     0.037 A 
ATOM     52  C   UNL     1       9.986  -2.073  13.096  1.00  0.00     0.037 A 
ATOM     53  C   UNL     1      10.993   4.007  10.965  1.00  0.00     0.049 A 
ATOM     54  C   UNL     1      11.226  -1.282  12.780  1.00  0.00     0.074 A 
ATOM     55  C   UNL     1      12.201   4.654  10.775  1.00  0.00     0.029 A 
ATOM     56  N   UNL     1      11.291   2.723  11.396  1.00  0.00    -0.354 N 
ATOM     57  N   UNL     1      11.333  -0.043  12.366  1.00  0.00    -0.248 NA
ATOM     58  C   UNL     1      12.512  -1.969  12.959  1.00  0.00     0.031 C 
ATOM     59  C   UNL     1      13.231   3.746  11.042  1.00  0.00     0.029 A 
ATOM     60  C   UNL     1      12.664   2.551  11.455  1.00  0.00     0.049 A 
ATOM     61  H   UNL     1      10.625   2.035  11.626  1.00  0.00     0.167 HD
ATOM     62  C   UNL     1      12.696   0.209  12.267  1.00  0.00     0.074 A 
ATOM     63  C   UNL     1      13.375  -1.003  12.677  1.00  0.00     0.031 C 
ATOM     64  C   UNL     1      13.328   1.342  11.874  1.00  0.00     0.037 A 
BRANCH  51  65
ATOM     65  C   UNL     1       9.505   5.912  10.229  1.00  0.00     0.057 A 
ATOM     66  C   UNL     1       9.008   6.958  11.018  1.00  0.00     0.134 A 
ATOM     67  C   UNL     1       9.888   6.221   8.917  1.00  0.00     0.134 A 
ATOM     68  F   UNL     1       8.613   6.729  12.280  1.00  0.00    -0.206 F 
ATOM     69  C   UNL     1       8.871   8.253  10.514  1.00  0.00     0.040 A 
ATOM     70  C   UNL     1       9.784   7.518   8.412  1.00  0.00     0.040 A 
ATOM     71  F   UNL     1      10.379   5.270   8.108  1.00  0.00    -0.206 F 
ATOM     72  C   UNL     1       9.267   8.537   9.209  1.00  0.00     0.006 A 
ENDBRANCH  51  65
BRANCH  52  73
ATOM     73  C   UNL     1      10.084  -3.478  13.570  1.00  0.00     0.057 A 
ATOM     74  C   UNL     1      10.619  -3.780  14.828  1.00  0.00     0.134 A 
ATOM     75  C   UNL     1       9.659  -4.550  12.776  1.00  0.00     0.134 A 
ATOM     76  F   UNL     1      11.060  -2.797  15.627  1.00  0.00    -0.206 F 
ATOM     77  C   UNL     1      10.749  -5.097  15.270  1.00  0.00     0.040 A 
ATOM     78  C   UNL     1       9.757  -5.870  13.217  1.00  0.00     0.040 A 
ATOM     79  F   UNL     1       9.129  -4.328  11.564  1.00  0.00    -0.206 F 
ATOM     80  C   UNL     1      10.312  -6.147  14.465  1.00  0.00     0.006 A 
ENDBRANCH  52  73
BRANCH  64  81
ATOM     81  C   UNL     1      14.829   1.342  11.913  1.00  0.00     0.057 A 
ATOM     82  C   UNL     1      15.597   0.604  11.003  1.00  0.00     0.134 A 
ATOM     83  C   UNL     1      15.514   2.121  12.854  1.00  0.00     0.134 A 
ATOM     84  F   UNL     1      15.003  -0.173  10.085  1.00  0.00    -0.206 F 
ATOM     85  C   UNL     1      16.992   0.620  11.046  1.00  0.00     0.040 A 
ATOM     86  C   UNL     1      16.909   2.169  12.887  1.00  0.00     0.040 A 
ATOM     87  F   UNL     1      14.840   2.860  13.748  1.00  0.00    -0.206 F 
ATOM     88  C   UNL     1      17.651   1.410  11.985  1.00  0.00     0.006 A 
ENDBRANCH  64  81
ENDBRANCH  38  39
ENDBRANCH  30  33
ENDBRANCH  28  29
ENDBRANCH  27  28
ENDBRANCH  26  27
ENDBRANCH   1  26
TORSDOF 17
