REMARK SMILES O=C(NCCCCCCNC(=O)[C@@H]1CN(C(=O)[C@H]2CC=CCC2)c2ccccc2O1)c1ccc(-c2c3nc(c(-c4c(F)cccc4F)c4ccc([nH]4)c(-c4c(F)cccc4F)c4nc(c(-c5c(F)cccc5F)c5ccc2[nH]5)C=C4)C=C3)cc1
REMARK SMILES IDX 6 1 5 2 4 3 3 4 1 5 2 6 31 8 32 9 84 10 33 11 83 12 34 13
REMARK SMILES IDX 35 14 36 15 77 16 37 17 82 18 76 19 78 20 38 21 81 22 75 23
REMARK SMILES IDX 74 24 39 26 65 27 48 28 64 29 49 30 52 31 63 32 79 33 50 34
REMARK SMILES IDX 51 35 62 37 80 38 53 39 40 40 41 41 46 42 42 43 43 44 45 45
REMARK SMILES IDX 47 46 44 47 66 48 67 49 72 50 68 51 69 52 71 53 73 54 70 55
REMARK SMILES IDX 54 56 55 57 60 58 56 59 57 60 59 61 61 62 58 63 7 64 8 65
REMARK SMILES IDX 9 66 10 67 11 68 12 70 13 71 14 72 30 73 15 74 29 75 24 76
REMARK SMILES IDX 28 77 25 78 27 79 26 80 16 81 17 82 18 83 19 84 23 85 20 86
REMARK SMILES IDX 22 87 21 88
REMARK H PARENT 3 7 78 25 52 36 10 69
REMARK Flexibility Score: inf
ROOT
ATOM      1  C   UNL     1       4.196   3.688   0.047  1.00  0.00     0.002 C 
ENDROOT
BRANCH   1   2
ATOM      2  C   UNL     1       4.580   2.433  -0.729  1.00  0.00     0.021 C 
BRANCH   2   3
ATOM      3  C   UNL     1       4.355   1.141   0.032  1.00  0.00     0.116 C 
BRANCH   3   4
ATOM      4  N   UNL     1       2.948   0.881   0.272  1.00  0.00    -0.352 N 
ATOM      5  O   UNL     1       1.036  -0.318   0.124  1.00  0.00    -0.269 OA
ATOM      6  C   UNL     1       2.253  -0.281   0.033  1.00  0.00     0.251 C 
ATOM      7  H   UNL     1       2.428   1.626   0.651  1.00  0.00     0.163 HD
BRANCH   6   8
ATOM      8  C   UNL     1       3.013  -1.486  -0.359  1.00  0.00     0.039 A 
ATOM      9  C   UNL     1       4.158  -1.855   0.352  1.00  0.00     0.014 A 
ATOM     10  C   UNL     1       2.590  -2.232  -1.460  1.00  0.00     0.014 A 
ATOM     11  C   UNL     1       4.945  -2.901  -0.106  1.00  0.00     0.010 A 
ATOM     12  C   UNL     1       3.333  -3.343  -1.865  1.00  0.00     0.010 A 
ATOM     13  C   UNL     1       4.522  -3.677  -1.197  1.00  0.00    -0.014 A 
BRANCH  13  14
ATOM     14  C   UNL     1       5.277  -4.906  -1.537  1.00  0.00     0.031 A 
ATOM     15  C   UNL     1       5.990  -5.055  -2.848  1.00  0.00     0.074 A 
ATOM     16  C   UNL     1       5.312  -5.894  -0.621  1.00  0.00     0.049 A 
ATOM     17  N   UNL     1       6.685  -6.072  -3.290  1.00  0.00    -0.248 NA
ATOM     18  C   UNL     1       5.912  -3.927  -3.788  1.00  0.00     0.031 C 
ATOM     19  C   UNL     1       4.635  -5.860   0.680  1.00  0.00     0.029 A 
ATOM     20  N   UNL     1       5.945  -7.109  -0.630  1.00  0.00    -0.354 N 
ATOM     21  C   UNL     1       7.110  -5.719  -4.564  1.00  0.00     0.074 A 
ATOM     22  C   UNL     1       6.583  -4.398  -4.833  1.00  0.00     0.031 C 
ATOM     23  C   UNL     1       4.922  -6.979   1.357  1.00  0.00     0.029 A 
ATOM     24  C   UNL     1       5.742  -7.839   0.515  1.00  0.00     0.049 A 
ATOM     25  H   UNL     1       6.492  -7.426  -1.384  1.00  0.00     0.167 HD
ATOM     26  C   UNL     1       7.872  -6.437  -5.423  1.00  0.00     0.037 A 
ATOM     27  C   UNL     1       6.147  -9.079   0.842  1.00  0.00     0.037 A 
ATOM     28  C   UNL     1       8.405  -7.745  -5.136  1.00  0.00     0.049 A 
ATOM     29  C   UNL     1       6.972  -9.852  -0.142  1.00  0.00     0.074 A 
ATOM     30  C   UNL     1       9.230  -8.531  -5.923  1.00  0.00     0.029 A 
ATOM     31  N   UNL     1       8.160  -8.463  -3.975  1.00  0.00    -0.354 N 
ATOM     32  N   UNL     1       7.404  -9.485  -1.323  1.00  0.00    -0.248 NA
ATOM     33  C   UNL     1       7.359 -11.213   0.248  1.00  0.00     0.031 C 
ATOM     34  C   UNL     1       9.446  -9.742  -5.259  1.00  0.00     0.029 A 
ATOM     35  C   UNL     1       8.796  -9.693  -4.037  1.00  0.00     0.049 A 
ATOM     36  H   UNL     1       7.616  -8.146  -3.219  1.00  0.00     0.167 HD
ATOM     37  C   UNL     1       8.126 -10.564  -1.813  1.00  0.00     0.074 A 
ATOM     38  C   UNL     1       8.094 -11.588  -0.788  1.00  0.00     0.031 C 
ATOM     39  C   UNL     1       8.752 -10.698  -3.007  1.00  0.00     0.037 A 
BRANCH  26  40
ATOM     40  C   UNL     1       8.173  -5.840  -6.767  1.00  0.00     0.057 A 
ATOM     41  C   UNL     1       9.095  -4.799  -6.925  1.00  0.00     0.134 A 
ATOM     42  C   UNL     1       7.598  -6.375  -7.927  1.00  0.00     0.134 A 
ATOM     43  F   UNL     1       9.676  -4.236  -5.855  1.00  0.00    -0.206 F 
ATOM     44  C   UNL     1       9.430  -4.306  -8.189  1.00  0.00     0.040 A 
ATOM     45  C   UNL     1       7.940  -5.906  -9.197  1.00  0.00     0.040 A 
ATOM     46  F   UNL     1       6.712  -7.380  -7.847  1.00  0.00    -0.206 F 
ATOM     47  C   UNL     1       8.859  -4.868  -9.330  1.00  0.00     0.006 A 
ENDBRANCH  26  40
BRANCH  27  48
ATOM     48  C   UNL     1       5.755  -9.668   2.146  1.00  0.00     0.057 A 
ATOM     49  C   UNL     1       6.703  -9.919   3.143  1.00  0.00     0.134 A 
ATOM     50  C   UNL     1       4.422  -9.996   2.424  1.00  0.00     0.134 A 
ATOM     51  F   UNL     1       7.997  -9.639   2.931  1.00  0.00    -0.206 F 
ATOM     52  C   UNL     1       6.344 -10.496   4.362  1.00  0.00     0.040 A 
ATOM     53  C   UNL     1       4.044 -10.545   3.649  1.00  0.00     0.040 A 
ATOM     54  F   UNL     1       3.464  -9.769   1.513  1.00  0.00    -0.206 F 
ATOM     55  C   UNL     1       5.009 -10.806   4.619  1.00  0.00     0.006 A 
ENDBRANCH  27  48
BRANCH  39  56
ATOM     56  C   UNL     1       9.470 -11.992  -3.250  1.00  0.00     0.057 A 
ATOM     57  C   UNL     1       8.777 -13.183  -3.497  1.00  0.00     0.134 A 
ATOM     58  C   UNL     1      10.869 -12.041  -3.252  1.00  0.00     0.134 A 
ATOM     59  F   UNL     1       7.436 -13.204  -3.491  1.00  0.00    -0.206 F 
ATOM     60  C   UNL     1       9.451 -14.386  -3.712  1.00  0.00     0.040 A 
ATOM     61  C   UNL     1      11.555 -13.232  -3.492  1.00  0.00     0.040 A 
ATOM     62  F   UNL     1      11.591 -10.933  -3.027  1.00  0.00    -0.206 F 
ATOM     63  C   UNL     1      10.845 -14.410  -3.715  1.00  0.00     0.006 A 
ENDBRANCH  39  56
ENDBRANCH  13  14
ENDBRANCH   6   8
ENDBRANCH   3   4
ENDBRANCH   2   3
ENDBRANCH   1   2
BRANCH   1  64
ATOM     64  C   UNL     1       4.854   3.827   1.425  1.00  0.00     0.002 C 
BRANCH  64  65
ATOM     65  C   UNL     1       6.385   3.687   1.456  1.00  0.00     0.021 C 
BRANCH  65  66
ATOM     66  C   UNL     1       7.130   4.519   0.415  1.00  0.00     0.116 C 
BRANCH  66  67
ATOM     67  N   UNL     1       6.680   5.887   0.455  1.00  0.00    -0.353 N 
ATOM     68  C   UNL     1       7.395   7.025   0.618  1.00  0.00     0.262 C 
ATOM     69  H   UNL     1       5.710   6.012   0.349  1.00  0.00     0.163 HD
ATOM     70  O   UNL     1       6.743   8.058   0.763  1.00  0.00    -0.271 OA
BRANCH  68  71
ATOM     71  C   UNL     1       8.929   6.956   0.643  1.00  0.00     0.281 C 
ATOM     72  C   UNL     1       9.538   8.293   1.020  1.00  0.00     0.181 C 
ATOM     73  O   UNL     1       9.489   6.492  -0.580  1.00  0.00    -0.477 OA
ATOM     74  N   UNL     1       9.213   9.328   0.047  1.00  0.00    -0.304 N 
ATOM     75  C   UNL     1       9.516   7.464  -1.557  1.00  0.00     0.144 A 
ATOM     76  C   UNL     1       9.348   8.851  -1.317  1.00  0.00     0.086 A 
ATOM     77  C   UNL     1       9.704   6.959  -2.849  1.00  0.00     0.049 A 
ATOM     78  C   UNL     1       9.342   9.693  -2.434  1.00  0.00     0.030 A 
ATOM     79  C   UNL     1       9.696   7.820  -3.938  1.00  0.00     0.004 A 
ATOM     80  C   UNL     1       9.508   9.183  -3.731  1.00  0.00     0.002 A 
BRANCH  74  81
ATOM     81  C   UNL     1       8.686  10.575   0.390  1.00  0.00     0.230 C 
ATOM     82  O   UNL     1       8.251  11.367  -0.458  1.00  0.00    -0.274 OA
BRANCH  81  83
ATOM     83  C   UNL     1       8.636  11.081   1.864  1.00  0.00     0.083 C 
ATOM     84  C   UNL     1       7.667  10.402   2.847  1.00  0.00     0.040 C 
ATOM     85  C   UNL     1       9.999  11.436   2.470  1.00  0.00     0.018 C 
ATOM     86  C   UNL     1       8.302   9.644   3.981  1.00  0.00    -0.030 C 
ATOM     87  C   UNL     1      10.616  10.386   3.393  1.00  0.00     0.028 C 
ATOM     88  C   UNL     1       9.621   9.630   4.220  1.00  0.00    -0.031 C 
ENDBRANCH  81  83
ENDBRANCH  74  81
ENDBRANCH  68  71
ENDBRANCH  66  67
ENDBRANCH  65  66
ENDBRANCH  64  65
ENDBRANCH   1  64
TORSDOF 15
