REMARK SMILES O=C(NCCCCCCNC(=O)[C@]1(CCc2cccnc2)CCC[NH2+]C1)c1ccc(-c2c3nc(c(-c4c(F)cccc4F)c4ccc([nH]4)c(-c4c(F)cccc4F)c4nc(c(-c5c(F)cccc5F)c5ccc2[nH]5)C=C4)C=C3)cc1
REMARK SMILES IDX 7 1 6 2 5 3 4 4 3 5 1 6 2 7 27 9 28 10 80 11 29 12 79 13
REMARK SMILES IDX 30 14 31 15 32 16 73 17 33 18 78 19 72 20 74 21 34 22 77 23
REMARK SMILES IDX 71 24 70 25 35 27 61 28 44 29 60 30 45 31 48 32 59 33 75 34
REMARK SMILES IDX 46 35 47 36 58 38 76 39 49 40 36 41 37 42 42 43 38 44 39 45
REMARK SMILES IDX 41 46 43 47 40 48 62 49 63 50 68 51 64 52 65 53 67 54 69 55
REMARK SMILES IDX 66 56 50 57 51 58 56 59 52 60 53 61 55 62 57 63 54 64 8 65
REMARK SMILES IDX 9 66 10 67 11 68 12 70 13 71 22 72 26 73 23 74 25 75 24 76
REMARK SMILES IDX 14 79 15 80 16 81 17 82 21 83 18 84 20 85 19 86
REMARK H PARENT 3 8 74 26 48 37 10 69 25 77 25 78
REMARK Flexibility Score: inf
ROOT
ATOM      1  C   UNL     1       5.031  -2.339   3.162  1.00  0.00     0.002 C 
ENDROOT
BRANCH   1   2
ATOM      2  C   UNL     1       4.142  -1.112   3.364  1.00  0.00     0.002 C 
BRANCH   2   3
ATOM      3  C   UNL     1       4.375   0.002   2.344  1.00  0.00     0.021 C 
BRANCH   3   4
ATOM      4  C   UNL     1       4.336  -0.473   0.896  1.00  0.00     0.116 C 
BRANCH   4   5
ATOM      5  N   UNL     1       2.984  -0.827   0.497  1.00  0.00    -0.352 N 
ATOM      6  O   UNL     1       0.966  -0.354  -0.424  1.00  0.00    -0.269 OA
ATOM      7  C   UNL     1       2.166  -0.144  -0.370  1.00  0.00     0.251 C 
ATOM      8  H   UNL     1       2.613  -1.648   0.893  1.00  0.00     0.163 HD
BRANCH   7   9
ATOM      9  C   UNL     1       2.790   0.871  -1.240  1.00  0.00     0.039 A 
ATOM     10  C   UNL     1       3.912   0.527  -2.002  1.00  0.00     0.014 A 
ATOM     11  C   UNL     1       2.285   2.171  -1.250  1.00  0.00     0.014 A 
ATOM     12  C   UNL     1       4.598   1.513  -2.695  1.00  0.00     0.010 A 
ATOM     13  C   UNL     1       2.930   3.142  -2.014  1.00  0.00     0.010 A 
ATOM     14  C   UNL     1       4.098   2.823  -2.728  1.00  0.00    -0.014 A 
BRANCH  14  15
ATOM     15  C   UNL     1       4.749   3.843  -3.582  1.00  0.00     0.031 A 
ATOM     16  C   UNL     1       5.371   5.067  -2.981  1.00  0.00     0.074 A 
ATOM     17  C   UNL     1       4.721   3.673  -4.916  1.00  0.00     0.049 A 
ATOM     18  N   UNL     1       5.862   6.120  -3.581  1.00  0.00    -0.248 NA
ATOM     19  C   UNL     1       5.438   5.120  -1.513  1.00  0.00     0.031 C 
ATOM     20  C   UNL     1       4.144   2.516  -5.605  1.00  0.00     0.029 A 
ATOM     21  N   UNL     1       5.167   4.478  -5.931  1.00  0.00    -0.354 N 
ATOM     22  C   UNL     1       6.270   6.977  -2.567  1.00  0.00     0.074 A 
ATOM     23  C   UNL     1       5.951   6.326  -1.313  1.00  0.00     0.031 C 
ATOM     24  C   UNL     1       4.270   2.685  -6.928  1.00  0.00     0.029 A 
ATOM     25  C   UNL     1       4.869   3.990  -7.179  1.00  0.00     0.049 A 
ATOM     26  H   UNL     1       5.652   5.321  -5.780  1.00  0.00     0.167 HD
ATOM     27  C   UNL     1       6.854   8.194  -2.680  1.00  0.00     0.037 A 
ATOM     28  C   UNL     1       5.013   4.551  -8.393  1.00  0.00     0.037 A 
ATOM     29  C   UNL     1       7.160   8.825  -3.940  1.00  0.00     0.049 A 
ATOM     30  C   UNL     1       5.616   5.919  -8.494  1.00  0.00     0.074 A 
ATOM     31  C   UNL     1       7.785  10.038  -4.168  1.00  0.00     0.029 A 
ATOM     32  N   UNL     1       6.846   8.297  -5.185  1.00  0.00    -0.354 N 
ATOM     33  N   UNL     1       6.029   6.709  -7.533  1.00  0.00    -0.248 NA
ATOM     34  C   UNL     1       5.774   6.476  -9.843  1.00  0.00     0.031 C 
ATOM     35  C   UNL     1       7.794  10.272  -5.547  1.00  0.00     0.029 A 
ATOM     36  C   UNL     1       7.236   9.174  -6.184  1.00  0.00     0.049 A 
ATOM     37  H   UNL     1       6.409   7.427  -5.336  1.00  0.00     0.167 HD
ATOM     38  C   UNL     1       6.523   7.844  -8.158  1.00  0.00     0.074 A 
ATOM     39  C   UNL     1       6.357   7.639  -9.584  1.00  0.00     0.031 C 
ATOM     40  C   UNL     1       7.072   8.950  -7.600  1.00  0.00     0.037 A 
BRANCH  27  41
ATOM     41  C   UNL     1       7.155   8.938  -1.409  1.00  0.00     0.057 A 
ATOM     42  C   UNL     1       8.138   8.510  -0.506  1.00  0.00     0.134 A 
ATOM     43  C   UNL     1       6.453  10.107  -1.087  1.00  0.00     0.134 A 
ATOM     44  F   UNL     1       8.844   7.395  -0.747  1.00  0.00    -0.206 F 
ATOM     45  C   UNL     1       8.382   9.194   0.688  1.00  0.00     0.040 A 
ATOM     46  C   UNL     1       6.709  10.816   0.088  1.00  0.00     0.040 A 
ATOM     47  F   UNL     1       5.506  10.582  -1.909  1.00  0.00    -0.206 F 
ATOM     48  C   UNL     1       7.668  10.352   0.986  1.00  0.00     0.006 A 
ENDBRANCH  27  41
BRANCH  28  49
ATOM     49  C   UNL     1       4.556   3.805  -9.590  1.00  0.00     0.057 A 
ATOM     50  C   UNL     1       5.471   3.241 -10.483  1.00  0.00     0.134 A 
ATOM     51  C   UNL     1       3.193   3.578  -9.827  1.00  0.00     0.134 A 
ATOM     52  F   UNL     1       6.787   3.432 -10.312  1.00  0.00    -0.206 F 
ATOM     53  C   UNL     1       5.049   2.479 -11.574  1.00  0.00     0.040 A 
ATOM     54  C   UNL     1       2.759   2.797 -10.898  1.00  0.00     0.040 A 
ATOM     55  F   UNL     1       2.268   4.078  -8.995  1.00  0.00    -0.206 F 
ATOM     56  C   UNL     1       3.689   2.247 -11.777  1.00  0.00     0.006 A 
ENDBRANCH  28  49
BRANCH  40  57
ATOM     57  C   UNL     1       7.587  10.009  -8.530  1.00  0.00     0.057 A 
ATOM     58  C   UNL     1       6.730  10.862  -9.235  1.00  0.00     0.134 A 
ATOM     59  C   UNL     1       8.966  10.222  -8.660  1.00  0.00     0.134 A 
ATOM     60  F   UNL     1       5.400  10.700  -9.165  1.00  0.00    -0.206 F 
ATOM     61  C   UNL     1       7.227  11.887 -10.041  1.00  0.00     0.040 A 
ATOM     62  C   UNL     1       9.474  11.259  -9.442  1.00  0.00     0.040 A 
ATOM     63  F   UNL     1       9.841   9.441  -8.007  1.00  0.00    -0.206 F 
ATOM     64  C   UNL     1       8.602  12.095 -10.137  1.00  0.00     0.006 A 
ENDBRANCH  40  57
ENDBRANCH  14  15
ENDBRANCH   7   9
ENDBRANCH   4   5
ENDBRANCH   3   4
ENDBRANCH   2   3
ENDBRANCH   1   2
BRANCH   1  65
ATOM     65  C   UNL     1       6.533  -2.032   3.237  1.00  0.00     0.021 C 
BRANCH  65  66
ATOM     66  C   UNL     1       7.112  -2.046   4.653  1.00  0.00     0.116 C 
BRANCH  66  67
ATOM     67  N   UNL     1       6.763  -3.239   5.413  1.00  0.00    -0.355 N 
ATOM     68  C   UNL     1       7.439  -4.312   5.908  1.00  0.00     0.231 C 
ATOM     69  H   UNL     1       5.802  -3.278   5.620  1.00  0.00     0.163 HD
ATOM     70  O   UNL     1       6.747  -5.138   6.513  1.00  0.00    -0.274 OA
BRANCH  68  71
ATOM     71  C   UNL     1       8.955  -4.528   5.714  1.00  0.00     0.098 C 
ATOM     72  C   UNL     1       9.432  -5.832   6.420  1.00  0.00     0.028 C 
ATOM     73  C   UNL     1       9.730  -3.356   6.382  1.00  0.00     0.277 C 
ATOM     74  C   UNL     1       9.406  -5.760   7.948  1.00  0.00     0.063 C 
ATOM     75  N   UNL     1       9.559  -3.300   7.838  1.00  0.00    -0.345 N 
ATOM     76  C   UNL     1      10.076  -4.502   8.482  1.00  0.00     0.260 C 
ATOM     77  H   UNL     1      10.060  -2.488   8.199  1.00  0.00     0.346 HD
ATOM     78  H   UNL     1       8.562  -3.230   8.041  1.00  0.00     0.346 HD
BRANCH  71  79
ATOM     79  C   UNL     1       9.290  -4.640   4.190  1.00  0.00     0.028 C 
BRANCH  79  80
ATOM     80  C   UNL     1       8.963  -5.975   3.460  1.00  0.00     0.038 C 
BRANCH  80  81
ATOM     81  C   UNL     1       7.539  -6.465   3.443  1.00  0.00    -0.030 A 
ATOM     82  C   UNL     1       7.212  -7.797   3.698  1.00  0.00     0.007 A 
ATOM     83  C   UNL     1       6.478  -5.638   3.110  1.00  0.00     0.114 A 
ATOM     84  C   UNL     1       5.874  -8.198   3.708  1.00  0.00     0.020 A 
ATOM     85  N   UNL     1       5.170  -5.981   3.113  1.00  0.00    -0.264 NA
ATOM     86  C   UNL     1       4.896  -7.255   3.445  1.00  0.00     0.111 A 
ENDBRANCH  80  81
ENDBRANCH  79  80
ENDBRANCH  71  79
ENDBRANCH  68  71
ENDBRANCH  66  67
ENDBRANCH  65  66
ENDBRANCH   1  65
TORSDOF 16
