REMARK SMILES COc1ccc(NC2=[NH+]C(=O)/C(=C\c3ccccc3C(=O)NCCCCCCNC(=O)c3ccc(-c4c5nc(c(-c6c(F)cccc6F)c6ccc([nH]6)c(-c6c(F)cccc6F)c6nc(c(-c7c(F)cccc7F)c7ccc4[nH]7)C=C6)C=C5)cc3)S2)cc1
REMARK SMILES IDX 25 1 24 2 23 3 22 4 20 5 21 6 19 8 14 9 15 10 16 11 18 12
REMARK SMILES IDX 17 13 13 14 7 15 8 16 9 18 86 19 10 20 12 22 11 23 6 24 3 25
REMARK SMILES IDX 4 26 88 27 5 28 87 29 2 30 1 31 26 32 27 33 28 34 29 35
REMARK SMILES IDX 30 36 31 38 32 39 33 40 85 41 34 42 84 43 35 44 36 45 37 46
REMARK SMILES IDX 78 47 38 48 83 49 77 50 79 51 39 52 82 53 76 54 75 55 40 57
REMARK SMILES IDX 66 58 49 59 65 60 50 61 53 62 64 63 80 64 51 65 52 66 63 68
REMARK SMILES IDX 81 69 54 70 41 71 42 72 47 73 43 74 44 75 46 76 48 77 45 78
REMARK SMILES IDX 67 79 68 80 73 81 69 82 70 83 72 84 74 85 71 86 55 87 56 88
REMARK SMILES IDX 61 89 57 90 58 91 60 92 62 93 59 94
REMARK H PARENT 22 7 7 17 9 21 29 37 79 56 53 67
REMARK Flexibility Score: inf
ROOT
ATOM      1  C   UNL     1      -3.162  -2.821  -4.337  1.00  0.00     0.002 C 
ENDROOT
BRANCH   1   2
ATOM      2  C   UNL     1      -4.035  -3.301  -5.502  1.00  0.00     0.021 C 
BRANCH   2   3
ATOM      3  C   UNL     1      -3.410  -4.349  -6.421  1.00  0.00     0.116 C 
BRANCH   3   4
ATOM      4  N   UNL     1      -3.024  -5.565  -5.738  1.00  0.00    -0.352 N 
ATOM      5  C   UNL     1      -2.895  -6.841  -6.231  1.00  0.00     0.251 C 
ATOM      6  O   UNL     1      -2.727  -7.760  -5.434  1.00  0.00    -0.269 OA
ATOM      7  H   UNL     1      -2.824  -5.463  -4.779  1.00  0.00     0.163 HD
BRANCH   5   8
ATOM      8  C   UNL     1      -3.051  -7.136  -7.681  1.00  0.00     0.047 A 
ATOM      9  C   UNL     1      -2.388  -6.475  -8.737  1.00  0.00    -0.011 A 
ATOM     10  C   UNL     1      -2.770  -6.787 -10.057  1.00  0.00     0.009 A 
ATOM     11  C   UNL     1      -3.701  -7.791 -10.329  1.00  0.00     0.001 A 
ATOM     12  C   UNL     1      -3.942  -8.187  -7.970  1.00  0.00     0.014 A 
ATOM     13  C   UNL     1      -4.263  -8.515  -9.286  1.00  0.00     0.001 A 
BRANCH   9  14
ATOM     14  C   UNL     1      -1.343  -5.442  -8.615  1.00  0.00     0.032 C 
ATOM     15  N   UNL     1       2.037  -3.838  -5.358  1.00  0.00    -0.235 N 
ATOM     16  C   UNL     1       1.318  -4.721  -6.107  1.00  0.00     0.322 C 
ATOM     17  H   UNL     1       2.806  -3.411  -5.800  1.00  0.00     0.313 HD
ATOM     18  N   UNL     1       0.939  -5.922  -5.841  1.00  0.00    -0.199 N 
ATOM     19  S   UNL     1       0.796  -4.087  -7.667  1.00  0.00     0.006 SA
ATOM     20  C   UNL     1       0.208  -6.491  -6.866  1.00  0.00     0.346 C 
ATOM     21  H   UNL     1       1.148  -6.386  -4.998  1.00  0.00     0.316 HD
ATOM     22  C   UNL     1      -0.262  -5.443  -7.822  1.00  0.00     0.110 C 
ATOM     23  O   UNL     1       0.019  -7.681  -7.030  1.00  0.00    -0.240 OA
BRANCH  15  24
ATOM     24  C   UNL     1       1.798  -3.470  -4.020  1.00  0.00     0.125 A 
ATOM     25  C   UNL     1       1.180  -2.380  -1.490  1.00  0.00     0.119 A 
ATOM     26  C   UNL     1       0.518  -3.516  -1.953  1.00  0.00     0.051 A 
ATOM     27  C   UNL     1       2.238  -1.865  -2.232  1.00  0.00     0.051 A 
ATOM     28  C   UNL     1       0.836  -4.069  -3.202  1.00  0.00     0.055 A 
ATOM     29  C   UNL     1       2.545  -2.411  -3.482  1.00  0.00     0.055 A 
BRANCH  25  30
ATOM     30  O   UNL     1       0.725  -1.862  -0.309  1.00  0.00    -0.497 OA
ATOM     31  C   UNL     1       0.990  -0.473  -0.109  1.00  0.00     0.278 C 
ENDBRANCH  25  30
ENDBRANCH  15  24
ENDBRANCH   9  14
ENDBRANCH   5   8
ENDBRANCH   3   4
ENDBRANCH   2   3
ENDBRANCH   1   2
BRANCH   1  32
ATOM     32  C   UNL     1      -1.720  -2.449  -4.675  1.00  0.00     0.002 C 
BRANCH  32  33
ATOM     33  C   UNL     1      -1.505  -1.365  -5.724  1.00  0.00     0.021 C 
BRANCH  33  34
ATOM     34  C   UNL     1      -2.144  -0.022  -5.405  1.00  0.00     0.116 C 
BRANCH  34  35
ATOM     35  N   UNL     1      -1.677   0.562  -4.156  1.00  0.00    -0.352 N 
ATOM     36  C   UNL     1      -1.227   1.832  -3.885  1.00  0.00     0.251 C 
ATOM     37  H   UNL     1      -1.685  -0.049  -3.384  1.00  0.00     0.163 HD
ATOM     38  O   UNL     1      -0.770   2.097  -2.777  1.00  0.00    -0.269 OA
BRANCH  36  39
ATOM     39  C   UNL     1      -1.246   2.872  -4.940  1.00  0.00     0.039 A 
ATOM     40  C   UNL     1      -0.151   3.734  -5.055  1.00  0.00     0.014 A 
ATOM     41  C   UNL     1      -2.321   2.996  -5.822  1.00  0.00     0.014 A 
ATOM     42  C   UNL     1      -0.098   4.658  -6.102  1.00  0.00     0.010 A 
ATOM     43  C   UNL     1      -2.225   3.845  -6.919  1.00  0.00     0.010 A 
ATOM     44  C   UNL     1      -1.115   4.689  -7.070  1.00  0.00    -0.014 A 
BRANCH  44  45
ATOM     45  C   UNL     1      -1.049   5.602  -8.239  1.00  0.00     0.031 A 
ATOM     46  C   UNL     1      -2.114   6.646  -8.436  1.00  0.00     0.074 A 
ATOM     47  C   UNL     1      -0.083   5.439  -9.165  1.00  0.00     0.049 A 
ATOM     48  N   UNL     1      -2.297   7.464  -9.442  1.00  0.00    -0.248 NA
ATOM     49  C   UNL     1      -3.131   6.761  -7.378  1.00  0.00     0.031 C 
ATOM     50  C   UNL     1       0.976   4.429  -9.118  1.00  0.00     0.029 A 
ATOM     51  N   UNL     1       0.158   6.117 -10.333  1.00  0.00    -0.354 N 
ATOM     52  C   UNL     1      -3.459   8.167  -9.149  1.00  0.00     0.074 A 
ATOM     53  C   UNL     1      -3.970   7.641  -7.903  1.00  0.00     0.031 C 
ATOM     54  C   UNL     1       1.769   4.572 -10.193  1.00  0.00     0.029 A 
ATOM     55  C   UNL     1       1.254   5.657 -11.022  1.00  0.00     0.049 A 
ATOM     56  H   UNL     1      -0.402   6.864 -10.649  1.00  0.00     0.167 HD
ATOM     57  C   UNL     1      -4.035   9.178  -9.841  1.00  0.00     0.037 A 
ATOM     58  C   UNL     1       1.782   6.062 -12.193  1.00  0.00     0.037 A 
ATOM     59  C   UNL     1      -3.501   9.729 -11.058  1.00  0.00     0.049 A 
ATOM     60  C   UNL     1       1.136   7.200 -12.933  1.00  0.00     0.074 A 
ATOM     61  C   UNL     1      -3.972  10.796 -11.802  1.00  0.00     0.029 A 
ATOM     62  N   UNL     1      -2.369   9.257 -11.706  1.00  0.00    -0.354 N 
ATOM     63  N   UNL     1       0.070   7.894 -12.615  1.00  0.00    -0.248 NA
ATOM     64  C   UNL     1       1.770   7.615 -14.193  1.00  0.00     0.031 C 
ATOM     65  C   UNL     1      -3.143  10.950 -12.918  1.00  0.00     0.029 A 
ATOM     66  C   UNL     1      -2.133  10.003 -12.847  1.00  0.00     0.049 A 
ATOM     67  H   UNL     1      -1.816   8.502 -11.399  1.00  0.00     0.167 HD
ATOM     68  C   UNL     1      -0.079   8.843 -13.617  1.00  0.00     0.074 A 
ATOM     69  C   UNL     1       1.013   8.644 -14.548  1.00  0.00     0.031 C 
ATOM     70  C   UNL     1      -1.034   9.795 -13.755  1.00  0.00     0.037 A 
BRANCH  57  71
ATOM     71  C   UNL     1      -5.303   9.759  -9.285  1.00  0.00     0.057 A 
ATOM     72  C   UNL     1      -5.312  10.523  -8.110  1.00  0.00     0.134 A 
ATOM     73  C   UNL     1      -6.527   9.566  -9.938  1.00  0.00     0.134 A 
ATOM     74  F   UNL     1      -4.176  10.733  -7.428  1.00  0.00    -0.206 F 
ATOM     75  C   UNL     1      -6.496  11.045  -7.587  1.00  0.00     0.040 A 
ATOM     76  C   UNL     1      -7.713  10.107  -9.440  1.00  0.00     0.040 A 
ATOM     77  F   UNL     1      -6.589   8.849 -11.071  1.00  0.00    -0.206 F 
ATOM     78  C   UNL     1      -7.701  10.842  -8.256  1.00  0.00     0.006 A 
ENDBRANCH  57  71
BRANCH  58  79
ATOM     79  C   UNL     1       3.008   5.413 -12.720  1.00  0.00     0.057 A 
ATOM     80  C   UNL     1       4.233   6.091 -12.725  1.00  0.00     0.134 A 
ATOM     81  C   UNL     1       2.990   4.111 -13.231  1.00  0.00     0.134 A 
ATOM     82  F   UNL     1       4.310   7.348 -12.264  1.00  0.00    -0.206 F 
ATOM     83  C   UNL     1       5.393   5.505 -13.235  1.00  0.00     0.040 A 
ATOM     84  C   UNL     1       4.147   3.503 -13.724  1.00  0.00     0.040 A 
ATOM     85  F   UNL     1       1.850   3.405 -13.246  1.00  0.00    -0.206 F 
ATOM     86  C   UNL     1       5.351   4.204 -13.733  1.00  0.00     0.006 A 
ENDBRANCH  58  79
BRANCH  70  87
ATOM     87  C   UNL     1      -0.918  10.715 -14.933  1.00  0.00     0.057 A 
ATOM     88  C   UNL     1      -1.217  10.291 -16.233  1.00  0.00     0.134 A 
ATOM     89  C   UNL     1      -0.544  12.053 -14.756  1.00  0.00     0.134 A 
ATOM     90  F   UNL     1      -1.569   9.018 -16.469  1.00  0.00    -0.206 F 
ATOM     91  C   UNL     1      -1.129  11.162 -17.321  1.00  0.00     0.040 A 
ATOM     92  C   UNL     1      -0.476  12.939 -15.832  1.00  0.00     0.040 A 
ATOM     93  F   UNL     1      -0.252  12.524 -13.534  1.00  0.00    -0.206 F 
ATOM     94  C   UNL     1      -0.764  12.492 -17.120  1.00  0.00     0.006 A 
ENDBRANCH  70  87
ENDBRANCH  44  45
ENDBRANCH  36  39
ENDBRANCH  34  35
ENDBRANCH  33  34
ENDBRANCH  32  33
ENDBRANCH   1  32
TORSDOF 16
