REMARK SMILES O=C(NCCCCCCNC(=O)[C@@H]1CCCC[C@@H]1NS(=O)(=O)c1ccc2ccccc2c1)c1ccc(-c2c3nc(c(-c4c(F)cccc4F)c4ccc([nH]4)c(-c4c(F)cccc4F)c4nc(c(-c5c(F)cccc5F)c5ccc2[nH]5)C=C4)C=C3)cc1
REMARK SMILES IDX 7 1 6 2 5 3 4 4 3 5 1 6 2 7 33 9 34 10 86 11 35 12 85 13
REMARK SMILES IDX 36 14 37 15 38 16 79 17 39 18 84 19 78 20 80 21 40 22 83 23
REMARK SMILES IDX 77 24 76 25 41 27 67 28 50 29 66 30 51 31 54 32 65 33 81 34
REMARK SMILES IDX 52 35 53 36 64 38 82 39 55 40 42 41 43 42 48 43 44 44 45 45
REMARK SMILES IDX 47 46 49 47 46 48 68 49 69 50 74 51 70 52 71 53 73 54 75 55
REMARK SMILES IDX 72 56 56 57 57 58 62 59 58 60 59 61 61 62 63 63 60 64 8 65
REMARK SMILES IDX 9 66 10 67 11 68 12 70 13 71 14 72 18 73 15 74 17 75 16 76
REMARK SMILES IDX 19 77 20 79 21 80 22 81 23 82 24 83 32 84 25 85 31 86 26 87
REMARK SMILES IDX 30 88 27 89 29 90 28 91
REMARK H PARENT 3 8 80 26 54 37 10 69 19 78
REMARK Flexibility Score: inf
ROOT
ATOM      1  C   UNL     1       4.798  -2.519   3.463  1.00  0.00     0.002 C 
ENDROOT
BRANCH   1   2
ATOM      2  C   UNL     1       4.062  -1.178   3.572  1.00  0.00     0.002 C 
BRANCH   2   3
ATOM      3  C   UNL     1       4.523  -0.098   2.589  1.00  0.00     0.021 C 
BRANCH   3   4
ATOM      4  C   UNL     1       4.394  -0.478   1.116  1.00  0.00     0.116 C 
BRANCH   4   5
ATOM      5  N   UNL     1       3.009  -0.697   0.734  1.00  0.00    -0.352 N 
ATOM      6  O   UNL     1       1.056  -0.258  -0.297  1.00  0.00    -0.269 OA
ATOM      7  C   UNL     1       2.272  -0.097  -0.253  1.00  0.00     0.251 C 
ATOM      8  H   UNL     1       2.531  -1.377   1.262  1.00  0.00     0.163 HD
BRANCH   7   9
ATOM      9  C   UNL     1       2.935   0.755  -1.262  1.00  0.00     0.039 A 
ATOM     10  C   UNL     1       4.097   0.328  -1.914  1.00  0.00     0.014 A 
ATOM     11  C   UNL     1       2.345   1.975  -1.601  1.00  0.00     0.014 A 
ATOM     12  C   UNL     1       4.714   1.159  -2.847  1.00  0.00     0.010 A 
ATOM     13  C   UNL     1       2.938   2.785  -2.571  1.00  0.00     0.010 A 
ATOM     14  C   UNL     1       4.133   2.389  -3.190  1.00  0.00    -0.014 A 
BRANCH  14  15
ATOM     15  C   UNL     1       4.740   3.236  -4.242  1.00  0.00     0.031 A 
ATOM     16  C   UNL     1       5.369   4.553  -3.898  1.00  0.00     0.074 A 
ATOM     17  C   UNL     1       4.678   2.829  -5.523  1.00  0.00     0.049 A 
ATOM     18  N   UNL     1       5.872   5.460  -4.696  1.00  0.00    -0.248 NA
ATOM     19  C   UNL     1       5.433   4.902  -2.471  1.00  0.00     0.031 C 
ATOM     20  C   UNL     1       4.074   1.576  -5.980  1.00  0.00     0.029 A 
ATOM     21  N   UNL     1       5.111   3.433  -6.676  1.00  0.00    -0.354 N 
ATOM     22  C   UNL     1       6.292   6.497  -3.874  1.00  0.00     0.074 A 
ATOM     23  C   UNL     1       5.973   6.112  -2.514  1.00  0.00     0.031 C 
ATOM     24  C   UNL     1       4.173   1.505  -7.316  1.00  0.00     0.029 A 
ATOM     25  C   UNL     1       4.806   2.724  -7.810  1.00  0.00     0.049 A 
ATOM     26  H   UNL     1       5.593   4.292  -6.688  1.00  0.00     0.167 HD
ATOM     27  C   UNL     1       6.889   7.660  -4.223  1.00  0.00     0.037 A 
ATOM     28  C   UNL     1       4.987   3.032  -9.107  1.00  0.00     0.037 A 
ATOM     29  C   UNL     1       7.218   8.031  -5.575  1.00  0.00     0.049 A 
ATOM     30  C   UNL     1       5.638   4.332  -9.472  1.00  0.00     0.074 A 
ATOM     31  C   UNL     1       7.880   9.161  -6.023  1.00  0.00     0.029 A 
ATOM     32  N   UNL     1       6.901   7.282  -6.698  1.00  0.00    -0.354 N 
ATOM     33  N   UNL     1       6.073   5.283  -8.682  1.00  0.00    -0.248 NA
ATOM     34  C   UNL     1       5.821   4.605 -10.903  1.00  0.00     0.031 C 
ATOM     35  C   UNL     1       7.932   9.112  -7.421  1.00  0.00     0.029 A 
ATOM     36  C   UNL     1       7.332   7.936  -7.840  1.00  0.00     0.049 A 
ATOM     37  H   UNL     1       6.437   6.413  -6.685  1.00  0.00     0.167 HD
ATOM     38  C   UNL     1       6.591   6.263  -9.516  1.00  0.00     0.074 A 
ATOM     39  C   UNL     1       6.425   5.786 -10.875  1.00  0.00     0.031 C 
ATOM     40  C   UNL     1       7.156   7.449  -9.184  1.00  0.00     0.037 A 
BRANCH  27  41
ATOM     41  C   UNL     1       7.208   8.627  -3.123  1.00  0.00     0.057 A 
ATOM     42  C   UNL     1       8.273   8.417  -2.240  1.00  0.00     0.134 A 
ATOM     43  C   UNL     1       6.454   9.796  -2.963  1.00  0.00     0.134 A 
ATOM     44  F   UNL     1       9.025   7.309  -2.333  1.00  0.00    -0.206 F 
ATOM     45  C   UNL     1       8.565   9.326  -1.221  1.00  0.00     0.040 A 
ATOM     46  C   UNL     1       6.747  10.721  -1.960  1.00  0.00     0.040 A 
ATOM     47  F   UNL     1       5.422  10.058  -3.780  1.00  0.00    -0.206 F 
ATOM     48  C   UNL     1       7.803  10.485  -1.082  1.00  0.00     0.006 A 
ENDBRANCH  27  41
BRANCH  28  49
ATOM     49  C   UNL     1       4.525   2.082 -10.145  1.00  0.00     0.057 A 
ATOM     50  C   UNL     1       5.431   1.278 -10.844  1.00  0.00     0.134 A 
ATOM     51  C   UNL     1       3.162   1.914 -10.417  1.00  0.00     0.134 A 
ATOM     52  F   UNL     1       6.749   1.406 -10.632  1.00  0.00    -0.206 F 
ATOM     53  C   UNL     1       4.998   0.336 -11.777  1.00  0.00     0.040 A 
ATOM     54  C   UNL     1       2.714   0.963 -11.334  1.00  0.00     0.040 A 
ATOM     55  F   UNL     1       2.248   2.651  -9.770  1.00  0.00    -0.206 F 
ATOM     56  C   UNL     1       3.635   0.171 -12.018  1.00  0.00     0.006 A 
ENDBRANCH  28  49
BRANCH  40  57
ATOM     57  C   UNL     1       7.651   8.307 -10.307  1.00  0.00     0.057 A 
ATOM     58  C   UNL     1       6.775   9.076 -11.082  1.00  0.00     0.134 A 
ATOM     59  C   UNL     1       9.021   8.404 -10.580  1.00  0.00     0.134 A 
ATOM     60  F   UNL     1       5.451   9.013 -10.875  1.00  0.00    -0.206 F 
ATOM     61  C   UNL     1       7.246   9.909 -12.098  1.00  0.00     0.040 A 
ATOM     62  C   UNL     1       9.504   9.246 -11.582  1.00  0.00     0.040 A 
ATOM     63  F   UNL     1       9.909   7.695  -9.868  1.00  0.00    -0.206 F 
ATOM     64  C   UNL     1       8.615  10.000 -12.345  1.00  0.00     0.006 A 
ENDBRANCH  40  57
ENDBRANCH  14  15
ENDBRANCH   7   9
ENDBRANCH   4   5
ENDBRANCH   3   4
ENDBRANCH   2   3
ENDBRANCH   1   2
BRANCH   1  65
ATOM     65  C   UNL     1       6.324  -2.432   3.571  1.00  0.00     0.021 C 
BRANCH  65  66
ATOM     66  C   UNL     1       6.817  -1.817   4.882  1.00  0.00     0.116 C 
BRANCH  66  67
ATOM     67  N   UNL     1       6.604  -2.721   6.001  1.00  0.00    -0.356 N 
ATOM     68  C   UNL     1       7.483  -3.592   6.592  1.00  0.00     0.224 C 
ATOM     69  H   UNL     1       5.700  -2.706   6.389  1.00  0.00     0.163 HD
ATOM     70  O   UNL     1       7.029  -4.461   7.330  1.00  0.00    -0.275 OA
BRANCH  68  71
ATOM     71  C   UNL     1       8.961  -3.439   6.280  1.00  0.00     0.096 C 
ATOM     72  C   UNL     1       9.800  -4.710   6.380  1.00  0.00     0.015 C 
ATOM     73  C   UNL     1       9.610  -2.228   6.957  1.00  0.00     0.082 C 
ATOM     74  C   UNL     1      11.151  -4.473   5.706  1.00  0.00     0.001 C 
ATOM     75  C   UNL     1      11.038  -2.008   6.443  1.00  0.00     0.021 C 
ATOM     76  C   UNL     1      11.887  -3.270   6.286  1.00  0.00     0.002 C 
BRANCH  73  77
ATOM     77  N   UNL     1       9.473  -2.029   8.413  1.00  0.00    -0.207 NA
ATOM     78  H   UNL     1       8.497  -1.756   8.524  1.00  0.00     0.141 HD
BRANCH  77  79
ATOM     79  S   UNL     1       9.746  -3.030   9.722  1.00  0.00     0.240 S 
ATOM     80  O   UNL     1       9.394  -2.235  10.880  1.00  0.00    -0.207 OA
ATOM     81  O   UNL     1       9.143  -4.315   9.486  1.00  0.00    -0.207 OA
BRANCH  79  82
ATOM     82  C   UNL     1      11.502  -3.227   9.777  1.00  0.00     0.083 A 
ATOM     83  C   UNL     1      12.057  -4.508   9.809  1.00  0.00     0.022 A 
ATOM     84  C   UNL     1      12.314  -2.093   9.675  1.00  0.00     0.030 A 
ATOM     85  C   UNL     1      13.434  -4.659   9.643  1.00  0.00     0.010 A 
ATOM     86  C   UNL     1      13.689  -2.240   9.458  1.00  0.00    -0.017 A 
ATOM     87  C   UNL     1      14.255  -3.539   9.421  1.00  0.00    -0.018 A 
ATOM     88  C   UNL     1      14.502  -1.125   9.208  1.00  0.00     0.009 A 
ATOM     89  C   UNL     1      15.617  -3.681   9.118  1.00  0.00     0.009 A 
ATOM     90  C   UNL     1      15.850  -1.287   8.891  1.00  0.00     0.001 A 
ATOM     91  C   UNL     1      16.405  -2.562   8.841  1.00  0.00     0.001 A 
ENDBRANCH  79  82
ENDBRANCH  77  79
ENDBRANCH  73  77
ENDBRANCH  68  71
ENDBRANCH  66  67
ENDBRANCH  65  66
ENDBRANCH   1  65
TORSDOF 16
