REMARK SMILES O=C(NCCCCCCNC(=O)c1ccc(-n2cnc3ccccc32)nc1)c1ccc(-c2c3nc(c(-c4c(F)cccc4F)c4ccc([nH]4)c(-c4c(F)cccc4F)c4nc(c(-c5c(F)cccc5F)c5ccc2[nH]5)C=C4)C=C3)cc1
REMARK SMILES IDX 6 1 5 2 4 3 3 4 1 5 2 6 28 8 29 9 81 10 30 11 80 12 31 13
REMARK SMILES IDX 32 14 33 15 74 16 34 17 79 18 73 19 75 20 35 21 78 22 72 23
REMARK SMILES IDX 71 24 36 26 62 27 45 28 61 29 46 30 49 31 60 32 76 33 47 34
REMARK SMILES IDX 48 35 59 37 77 38 50 39 37 40 38 41 43 42 39 43 40 44 42 45
REMARK SMILES IDX 44 46 41 47 63 48 64 49 69 50 65 51 66 52 68 53 70 54 67 55
REMARK SMILES IDX 51 56 52 57 57 58 53 59 54 60 56 61 58 62 55 63 7 64 8 65
REMARK SMILES IDX 9 66 10 67 11 68 12 70 13 71 14 72 27 73 15 74 26 75 16 76
REMARK SMILES IDX 17 77 18 78 25 79 19 80 20 81 24 82 21 83 23 84 22 85
REMARK H PARENT 3 7 75 25 49 36 10 69
REMARK Flexibility Score: inf
ROOT
ATOM      1  C   UNL     1       4.278   1.022   3.894  1.00  0.00     0.002 C 
ENDROOT
BRANCH   1   2
ATOM      2  C   UNL     1       4.734   1.675   2.581  1.00  0.00     0.021 C 
BRANCH   2   3
ATOM      3  C   UNL     1       4.382   0.895   1.327  1.00  0.00     0.116 C 
BRANCH   3   4
ATOM      4  N   UNL     1       2.938   0.777   1.092  1.00  0.00    -0.352 N 
ATOM      5  O   UNL     1       1.138   0.300  -0.227  1.00  0.00    -0.269 OA
ATOM      6  C   UNL     1       2.289   0.034   0.121  1.00  0.00     0.251 C 
ATOM      7  H   UNL     1       2.359   1.290   1.701  1.00  0.00     0.163 HD
BRANCH   6   8
ATOM      8  C   UNL     1       3.002  -1.101  -0.483  1.00  0.00     0.039 A 
ATOM      9  C   UNL     1       2.912  -1.439  -1.834  1.00  0.00     0.014 A 
ATOM     10  C   UNL     1       3.841  -1.808   0.365  1.00  0.00     0.014 A 
ATOM     11  C   UNL     1       3.732  -2.460  -2.313  1.00  0.00     0.010 A 
ATOM     12  C   UNL     1       4.838  -2.569  -0.162  1.00  0.00     0.010 A 
ATOM     13  C   UNL     1       4.705  -3.014  -1.462  1.00  0.00    -0.014 A 
BRANCH  13  14
ATOM     14  C   UNL     1       5.627  -4.053  -1.894  1.00  0.00     0.031 A 
ATOM     15  C   UNL     1       6.330  -3.751  -3.159  1.00  0.00     0.074 A 
ATOM     16  C   UNL     1       5.941  -5.124  -1.129  1.00  0.00     0.049 A 
ATOM     17  N   UNL     1       6.098  -4.265  -4.318  1.00  0.00    -0.248 NA
ATOM     18  C   UNL     1       7.275  -2.624  -3.181  1.00  0.00     0.031 C 
ATOM     19  C   UNL     1       5.571  -5.416   0.265  1.00  0.00     0.029 A 
ATOM     20  N   UNL     1       6.748  -6.175  -1.437  1.00  0.00    -0.354 N 
ATOM     21  C   UNL     1       7.028  -3.695  -5.179  1.00  0.00     0.074 A 
ATOM     22  C   UNL     1       7.570  -2.559  -4.481  1.00  0.00     0.031 C 
ATOM     23  C   UNL     1       6.325  -6.430   0.742  1.00  0.00     0.029 A 
ATOM     24  C   UNL     1       7.081  -6.989  -0.359  1.00  0.00     0.049 A 
ATOM     25  H   UNL     1       7.070  -6.347  -2.351  1.00  0.00     0.167 HD
ATOM     26  C   UNL     1       7.454  -4.376  -6.278  1.00  0.00     0.037 A 
ATOM     27  C   UNL     1       7.915  -8.056  -0.377  1.00  0.00     0.037 A 
ATOM     28  C   UNL     1       6.564  -5.479  -6.568  1.00  0.00     0.049 A 
ATOM     29  C   UNL     1       8.027  -8.494  -1.788  1.00  0.00     0.074 A 
ATOM     30  C   UNL     1       5.223  -5.598  -6.879  1.00  0.00     0.029 A 
ATOM     31  N   UNL     1       6.964  -6.731  -6.165  1.00  0.00    -0.354 N 
ATOM     32  N   UNL     1       7.046  -9.033  -2.457  1.00  0.00    -0.248 NA
ATOM     33  C   UNL     1       9.083  -7.906  -2.595  1.00  0.00     0.031 C 
ATOM     34  C   UNL     1       4.788  -6.779  -6.203  1.00  0.00     0.029 A 
ATOM     35  C   UNL     1       5.895  -7.353  -5.577  1.00  0.00     0.049 A 
ATOM     36  H   UNL     1       7.864  -7.114  -6.280  1.00  0.00     0.167 HD
ATOM     37  C   UNL     1       7.132  -8.472  -3.723  1.00  0.00     0.074 A 
ATOM     38  C   UNL     1       8.461  -7.865  -3.777  1.00  0.00     0.031 C 
ATOM     39  C   UNL     1       6.015  -8.302  -4.491  1.00  0.00     0.037 A 
BRANCH  26  40
ATOM     40  C   UNL     1       8.868  -4.333  -6.818  1.00  0.00     0.057 A 
ATOM     41  C   UNL     1       9.992  -3.865  -6.108  1.00  0.00     0.134 A 
ATOM     42  C   UNL     1       9.168  -5.086  -7.970  1.00  0.00     0.134 A 
ATOM     43  F   UNL     1       9.897  -3.157  -4.979  1.00  0.00    -0.206 F 
ATOM     44  C   UNL     1      11.304  -4.183  -6.469  1.00  0.00     0.040 A 
ATOM     45  C   UNL     1      10.476  -5.449  -8.313  1.00  0.00     0.040 A 
ATOM     46  F   UNL     1       8.191  -5.573  -8.750  1.00  0.00    -0.206 F 
ATOM     47  C   UNL     1      11.549  -5.013  -7.549  1.00  0.00     0.006 A 
ENDBRANCH  26  40
BRANCH  27  48
ATOM     48  C   UNL     1       8.811  -8.562   0.685  1.00  0.00     0.057 A 
ATOM     49  C   UNL     1       9.380  -7.695   1.635  1.00  0.00     0.134 A 
ATOM     50  C   UNL     1       9.358  -9.851   0.620  1.00  0.00     0.134 A 
ATOM     51  F   UNL     1       8.975  -6.421   1.737  1.00  0.00    -0.206 F 
ATOM     52  C   UNL     1      10.451  -8.078   2.449  1.00  0.00     0.040 A 
ATOM     53  C   UNL     1      10.433 -10.245   1.427  1.00  0.00     0.040 A 
ATOM     54  F   UNL     1       8.905 -10.738  -0.278  1.00  0.00    -0.206 F 
ATOM     55  C   UNL     1      10.993  -9.352   2.335  1.00  0.00     0.006 A 
ENDBRANCH  27  48
BRANCH  39  56
ATOM     56  C   UNL     1       4.752  -8.988  -4.040  1.00  0.00     0.057 A 
ATOM     57  C   UNL     1       4.131  -9.889  -4.911  1.00  0.00     0.134 A 
ATOM     58  C   UNL     1       4.077  -8.703  -2.843  1.00  0.00     0.134 A 
ATOM     59  F   UNL     1       4.686 -10.171  -6.100  1.00  0.00    -0.206 F 
ATOM     60  C   UNL     1       2.908 -10.491  -4.604  1.00  0.00     0.040 A 
ATOM     61  C   UNL     1       2.869  -9.324  -2.507  1.00  0.00     0.040 A 
ATOM     62  F   UNL     1       4.539  -7.783  -1.988  1.00  0.00    -0.206 F 
ATOM     63  C   UNL     1       2.279 -10.219  -3.393  1.00  0.00     0.006 A 
ENDBRANCH  39  56
ENDBRANCH  13  14
ENDBRANCH   6   8
ENDBRANCH   3   4
ENDBRANCH   2   3
ENDBRANCH   1   2
BRANCH   1  64
ATOM     64  C   UNL     1       4.827  -0.376   4.220  1.00  0.00     0.002 C 
BRANCH  64  65
ATOM     65  C   UNL     1       6.347  -0.545   4.168  1.00  0.00     0.021 C 
BRANCH  65  66
ATOM     66  C   UNL     1       7.138   0.483   4.970  1.00  0.00     0.116 C 
BRANCH  66  67
ATOM     67  N   UNL     1       6.824   0.427   6.389  1.00  0.00    -0.352 N 
ATOM     68  C   UNL     1       7.682   0.260   7.439  1.00  0.00     0.252 C 
ATOM     69  H   UNL     1       5.872   0.522   6.622  1.00  0.00     0.163 HD
ATOM     70  O   UNL     1       7.265   0.057   8.582  1.00  0.00    -0.269 OA
BRANCH  68  71
ATOM     71  C   UNL     1       9.123   0.330   7.199  1.00  0.00     0.058 A 
ATOM     72  C   UNL     1       9.702   1.466   6.637  1.00  0.00     0.019 A 
ATOM     73  C   UNL     1       9.929  -0.750   7.518  1.00  0.00     0.127 A 
ATOM     74  C   UNL     1      11.073   1.480   6.418  1.00  0.00     0.048 A 
ATOM     75  N   UNL     1      11.261  -0.782   7.267  1.00  0.00    -0.238 NA
ATOM     76  C   UNL     1      11.817   0.353   6.768  1.00  0.00     0.138 A 
BRANCH  76  77
ATOM     77  N   UNL     1      13.223   0.385   6.616  1.00  0.00    -0.283 N 
ATOM     78  C   UNL     1      14.007  -0.690   6.275  1.00  0.00     0.206 A 
ATOM     79  C   UNL     1      14.074   1.457   6.830  1.00  0.00     0.074 A 
ATOM     80  N   UNL     1      15.271  -0.357   6.126  1.00  0.00    -0.236 NA
ATOM     81  C   UNL     1      15.334   0.962   6.501  1.00  0.00     0.089 A 
ATOM     82  C   UNL     1      13.890   2.750   7.350  1.00  0.00     0.029 A 
ATOM     83  C   UNL     1      16.454   1.799   6.622  1.00  0.00     0.030 A 
ATOM     84  C   UNL     1      15.020   3.558   7.488  1.00  0.00     0.002 A 
ATOM     85  C   UNL     1      16.282   3.097   7.120  1.00  0.00     0.002 A 
ENDBRANCH  76  77
ENDBRANCH  68  71
ENDBRANCH  66  67
ENDBRANCH  65  66
ENDBRANCH  64  65
ENDBRANCH   1  64
TORSDOF 14
