REMARK SMILES C=CC[N@@H+](CC(=O)NCCCCCCNC(=O)c1ccc(-c2c3nc(c(-c4c(F)cccc4F)c4ccc([nH]4)c(-c4c(F)cccc4F)c4nc(c(-c5c(F)cccc5F)c5ccc2[nH]5)C=C4)C=C3)cc1)Cc1ccc(C(F)(F)F)cc1
REMARK SMILES IDX 10 1 9 2 8 3 6 4 7 5 5 7 4 8 3 10 2 11 1 12 72 13 73 14
REMARK SMILES IDX 74 15 82 16 75 17 81 18 76 19 77 20 78 21 79 22 80 23 11 24
REMARK SMILES IDX 12 25 13 26 14 27 15 28 16 29 17 31 18 32 19 33 71 34 20 35
REMARK SMILES IDX 70 36 21 37 22 38 23 39 64 40 24 41 69 42 63 43 65 44 25 45
REMARK SMILES IDX 68 46 62 47 61 48 26 50 52 51 35 52 51 53 36 54 39 55 50 56
REMARK SMILES IDX 66 57 37 58 38 59 49 61 67 62 40 63 27 64 28 65 33 66 29 67
REMARK SMILES IDX 30 68 32 69 34 70 31 71 53 72 54 73 59 74 55 75 56 76 58 77
REMARK SMILES IDX 60 78 57 79 41 80 42 81 47 82 43 83 44 84 46 85 48 86 45 87
REMARK H PARENT 8 6 4 9 15 30 65 49 39 60
REMARK Flexibility Score: inf
ROOT
ATOM      1  C   UNL     1      -1.921   1.674  -0.684  1.00  0.00     0.021 C 
ENDROOT
BRANCH   1   2
ATOM      2  C   UNL     1      -3.024   1.212   0.271  1.00  0.00     0.116 C 
BRANCH   2   3
ATOM      3  N   UNL     1      -3.679   0.007  -0.193  1.00  0.00    -0.351 N 
ATOM      4  C   UNL     1      -3.710  -1.256   0.320  1.00  0.00     0.275 C 
ATOM      5  O   UNL     1      -4.522  -2.040  -0.187  1.00  0.00    -0.269 OA
ATOM      6  H   UNL     1      -4.192   0.119  -1.026  1.00  0.00     0.163 HD
BRANCH   4   7
ATOM      7  C   UNL     1      -2.868  -1.688   1.529  1.00  0.00     0.364 C 
BRANCH   7   8
ATOM      8  N   UNL     1      -1.441  -1.997   1.301  1.00  0.00    -0.320 N 
ATOM      9  H   UNL     1      -1.183  -2.551   2.118  1.00  0.00     0.349 HD
BRANCH   8  10
ATOM     10  C   UNL     1      -0.552  -0.864   1.444  1.00  0.00     0.291 C 
BRANCH  10  11
ATOM     11  C   UNL     1       0.912  -1.180   1.532  1.00  0.00     0.025 C 
ATOM     12  C   UNL     1       1.840  -0.613   0.748  1.00  0.00     0.010 C 
ENDBRANCH  10  11
ENDBRANCH   8  10
BRANCH   8  13
ATOM     13  C   UNL     1      -1.121  -3.034   0.314  1.00  0.00     0.299 C 
BRANCH  13  14
ATOM     14  C   UNL     1      -1.518  -2.793  -1.126  1.00  0.00     0.006 A 
ATOM     15  C   UNL     1      -0.973  -1.751  -1.882  1.00  0.00     0.010 A 
ATOM     16  C   UNL     1      -2.477  -3.620  -1.731  1.00  0.00     0.010 A 
ATOM     17  C   UNL     1      -1.468  -1.456  -3.155  1.00  0.00     0.013 A 
ATOM     18  C   UNL     1      -2.963  -3.340  -3.010  1.00  0.00     0.013 A 
ATOM     19  C   UNL     1      -2.487  -2.233  -3.723  1.00  0.00     0.056 A 
BRANCH  19  20
ATOM     20  C   UNL     1      -3.112  -1.840  -5.036  1.00  0.00     0.416 C 
ATOM     21  F   UNL     1      -4.114  -0.930  -4.875  1.00  0.00    -0.166 F 
ATOM     22  F   UNL     1      -2.227  -1.263  -5.897  1.00  0.00    -0.166 F 
ATOM     23  F   UNL     1      -3.662  -2.886  -5.713  1.00  0.00    -0.166 F 
ENDBRANCH  19  20
ENDBRANCH  13  14
ENDBRANCH   8  13
ENDBRANCH   7   8
ENDBRANCH   4   7
ENDBRANCH   2   3
ENDBRANCH   1   2
BRANCH   1  24
ATOM     24  C   UNL     1      -2.399   2.283  -2.004  1.00  0.00     0.002 C 
BRANCH  24  25
ATOM     25  C   UNL     1      -2.936   3.710  -1.906  1.00  0.00     0.002 C 
BRANCH  25  26
ATOM     26  C   UNL     1      -2.011   4.722  -1.222  1.00  0.00     0.021 C 
BRANCH  26  27
ATOM     27  C   UNL     1      -0.572   4.751  -1.734  1.00  0.00     0.116 C 
BRANCH  27  28
ATOM     28  N   UNL     1      -0.484   5.182  -3.118  1.00  0.00    -0.352 N 
ATOM     29  C   UNL     1       0.187   6.254  -3.647  1.00  0.00     0.251 C 
ATOM     30  H   UNL     1      -0.976   4.628  -3.766  1.00  0.00     0.163 HD
ATOM     31  O   UNL     1       0.006   6.583  -4.819  1.00  0.00    -0.269 OA
BRANCH  29  32
ATOM     32  C   UNL     1       1.122   7.029  -2.806  1.00  0.00     0.039 A 
ATOM     33  C   UNL     1       1.048   8.425  -2.822  1.00  0.00     0.014 A 
ATOM     34  C   UNL     1       2.086   6.384  -2.026  1.00  0.00     0.014 A 
ATOM     35  C   UNL     1       1.917   9.173  -2.024  1.00  0.00     0.010 A 
ATOM     36  C   UNL     1       2.908   7.128  -1.183  1.00  0.00     0.010 A 
ATOM     37  C   UNL     1       2.843   8.530  -1.186  1.00  0.00    -0.014 A 
BRANCH  37  38
ATOM     38  C   UNL     1       3.784   9.312  -0.345  1.00  0.00     0.031 A 
ATOM     39  C   UNL     1       5.261   9.260  -0.630  1.00  0.00     0.074 A 
ATOM     40  C   UNL     1       3.322  10.032   0.694  1.00  0.00     0.049 A 
ATOM     41  N   UNL     1       6.250   9.823   0.016  1.00  0.00    -0.248 NA
ATOM     42  C   UNL     1       5.684   8.443  -1.779  1.00  0.00     0.031 C 
ATOM     43  C   UNL     1       1.919  10.133   1.099  1.00  0.00     0.029 A 
ATOM     44  N   UNL     1       3.988  10.814   1.605  1.00  0.00    -0.354 N 
ATOM     45  C   UNL     1       7.407   9.417  -0.636  1.00  0.00     0.074 A 
ATOM     46  C   UNL     1       7.004   8.518  -1.694  1.00  0.00     0.031 C 
ATOM     47  C   UNL     1       1.827  10.949   2.163  1.00  0.00     0.029 A 
ATOM     48  C   UNL     1       3.164  11.406   2.530  1.00  0.00     0.049 A 
ATOM     49  H   UNL     1       4.965  10.939   1.595  1.00  0.00     0.167 HD
ATOM     50  C   UNL     1       8.690   9.780  -0.393  1.00  0.00     0.037 A 
ATOM     51  C   UNL     1       3.455  12.228   3.556  1.00  0.00     0.037 A 
ATOM     52  C   UNL     1       9.088  10.701   0.637  1.00  0.00     0.049 A 
ATOM     53  C   UNL     1       4.885  12.631   3.793  1.00  0.00     0.074 A 
ATOM     54  C   UNL     1      10.357  11.165   0.938  1.00  0.00     0.029 A 
ATOM     55  N   UNL     1       8.218  11.307   1.530  1.00  0.00    -0.354 N 
ATOM     56  N   UNL     1       5.963  12.277   3.137  1.00  0.00    -0.248 NA
ATOM     57  C   UNL     1       5.136  13.557   4.907  1.00  0.00     0.031 C 
ATOM     58  C   UNL     1      10.258  12.032   2.031  1.00  0.00     0.029 A 
ATOM     59  C   UNL     1       8.923  12.138   2.385  1.00  0.00     0.049 A 
ATOM     60  H   UNL     1       7.244  11.168   1.553  1.00  0.00     0.167 HD
ATOM     61  C   UNL     1       7.013  12.965   3.733  1.00  0.00     0.074 A 
ATOM     62  C   UNL     1       6.441  13.761   4.798  1.00  0.00     0.031 C 
ATOM     63  C   UNL     1       8.333  12.940   3.425  1.00  0.00     0.037 A 
BRANCH  50  64
ATOM     64  C   UNL     1       9.752   9.184  -1.270  1.00  0.00     0.057 A 
ATOM     65  C   UNL     1       9.894   9.560  -2.612  1.00  0.00     0.134 A 
ATOM     66  C   UNL     1      10.659   8.246  -0.762  1.00  0.00     0.134 A 
ATOM     67  F   UNL     1       9.049  10.444  -3.164  1.00  0.00    -0.206 F 
ATOM     68  C   UNL     1      10.883   9.004  -3.426  1.00  0.00     0.040 A 
ATOM     69  C   UNL     1      11.669   7.702  -1.559  1.00  0.00     0.040 A 
ATOM     70  F   UNL     1      10.582   7.846   0.516  1.00  0.00    -0.206 F 
ATOM     71  C   UNL     1      11.778   8.077  -2.897  1.00  0.00     0.006 A 
ENDBRANCH  50  64
BRANCH  51  72
ATOM     72  C   UNL     1       2.370  12.761   4.417  1.00  0.00     0.057 A 
ATOM     73  C   UNL     1       2.001  14.111   4.357  1.00  0.00     0.134 A 
ATOM     74  C   UNL     1       1.690  11.946   5.329  1.00  0.00     0.134 A 
ATOM     75  F   UNL     1       2.630  14.944   3.515  1.00  0.00    -0.206 F 
ATOM     76  C   UNL     1       1.012  14.636   5.189  1.00  0.00     0.040 A 
ATOM     77  C   UNL     1       0.682  12.454   6.151  1.00  0.00     0.040 A 
ATOM     78  F   UNL     1       1.991  10.643   5.429  1.00  0.00    -0.206 F 
ATOM     79  C   UNL     1       0.346  13.805   6.088  1.00  0.00     0.006 A 
ENDBRANCH  51  72
BRANCH  63  80
ATOM     80  C   UNL     1       9.238  13.838   4.214  1.00  0.00     0.057 A 
ATOM     81  C   UNL     1       9.587  13.559   5.540  1.00  0.00     0.134 A 
ATOM     82  C   UNL     1       9.793  14.980   3.623  1.00  0.00     0.134 A 
ATOM     83  F   UNL     1       9.078  12.487   6.166  1.00  0.00    -0.206 F 
ATOM     84  C   UNL     1      10.440  14.398   6.260  1.00  0.00     0.040 A 
ATOM     85  C   UNL     1      10.666  15.813   4.324  1.00  0.00     0.040 A 
ATOM     86  F   UNL     1       9.505  15.299   2.352  1.00  0.00    -0.206 F 
ATOM     87  C   UNL     1      10.986  15.525   5.649  1.00  0.00     0.006 A 
ENDBRANCH  63  80
ENDBRANCH  37  38
ENDBRANCH  29  32
ENDBRANCH  27  28
ENDBRANCH  26  27
ENDBRANCH  25  26
ENDBRANCH  24  25
ENDBRANCH   1  24
TORSDOF 19
