REMARK SMILES O=C(NCCCCCCNC(=O)c1cc(S(=O)(=O)Nc2ccc(F)c(F)c2)cc(Cl)c1Cl)c1ccc(-c2c3nc(c(-c4c(F)cccc4F)c4ccc([nH]4)c(-c4c(F)cccc4F)c4nc(c(-c5c(F)cccc5F)c5ccc2[nH]5)C=C4)C=C3)cc1
REMARK SMILES IDX 7 1 6 2 5 3 4 4 3 5 1 6 2 7 33 9 34 10 86 11 35 12 85 13
REMARK SMILES IDX 36 14 37 15 38 16 79 17 39 18 84 19 78 20 80 21 40 22 83 23
REMARK SMILES IDX 77 24 76 25 41 27 67 28 50 29 66 30 51 31 54 32 65 33 81 34
REMARK SMILES IDX 52 35 53 36 64 38 82 39 55 40 42 41 43 42 48 43 44 44 45 45
REMARK SMILES IDX 47 46 49 47 46 48 68 49 69 50 74 51 70 52 71 53 73 54 75 55
REMARK SMILES IDX 72 56 56 57 57 58 62 59 58 60 59 61 61 62 63 63 60 64 8 65
REMARK SMILES IDX 9 66 10 67 11 68 12 70 13 71 14 72 31 73 15 74 29 75 32 76
REMARK SMILES IDX 28 77 30 78 16 79 17 80 18 81 19 82 20 84 21 85 27 86 22 87
REMARK SMILES IDX 25 88 23 89 26 90 24 91
REMARK H PARENT 3 8 80 26 54 37 10 69 19 83
REMARK Flexibility Score: inf
ROOT
ATOM      1  C   UNL     1       4.709  -3.904   1.782  1.00  0.00     0.002 C 
ENDROOT
BRANCH   1   2
ATOM      2  C   UNL     1       4.209  -2.767   2.676  1.00  0.00     0.002 C 
BRANCH   2   3
ATOM      3  C   UNL     1       4.684  -1.361   2.307  1.00  0.00     0.021 C 
BRANCH   3   4
ATOM      4  C   UNL     1       4.445  -0.937   0.862  1.00  0.00     0.116 C 
BRANCH   4   5
ATOM      5  N   UNL     1       3.039  -0.921   0.500  1.00  0.00    -0.352 N 
ATOM      6  O   UNL     1       1.091  -0.063  -0.239  1.00  0.00    -0.269 OA
ATOM      7  C   UNL     1       2.307   0.060  -0.122  1.00  0.00     0.251 C 
ATOM      8  H   UNL     1       2.536  -1.734   0.736  1.00  0.00     0.163 HD
BRANCH   7   9
ATOM      9  C   UNL     1       2.971   1.283  -0.626  1.00  0.00     0.039 A 
ATOM     10  C   UNL     1       4.149   1.217  -1.377  1.00  0.00     0.014 A 
ATOM     11  C   UNL     1       2.375   2.521  -0.366  1.00  0.00     0.014 A 
ATOM     12  C   UNL     1       4.787   2.392  -1.772  1.00  0.00     0.010 A 
ATOM     13  C   UNL     1       2.986   3.696  -0.809  1.00  0.00     0.010 A 
ATOM     14  C   UNL     1       4.211   3.641  -1.492  1.00  0.00    -0.014 A 
BRANCH  14  15
ATOM     15  C   UNL     1       4.874   4.886  -1.948  1.00  0.00     0.031 A 
ATOM     16  C   UNL     1       5.482   5.839  -0.959  1.00  0.00     0.074 A 
ATOM     17  C   UNL     1       4.919   5.162  -3.264  1.00  0.00     0.049 A 
ATOM     18  N   UNL     1       6.064   6.992  -1.175  1.00  0.00    -0.248 NA
ATOM     19  C   UNL     1       5.421   5.452   0.458  1.00  0.00     0.031 C 
ATOM     20  C   UNL     1       4.356   4.321  -4.322  1.00  0.00     0.029 A 
ATOM     21  N   UNL     1       5.461   6.227  -3.936  1.00  0.00    -0.354 N 
ATOM     22  C   UNL     1       6.420   7.477   0.076  1.00  0.00     0.074 A 
ATOM     23  C   UNL     1       5.977   6.501   1.049  1.00  0.00     0.031 C 
ATOM     24  C   UNL     1       4.598   4.893  -5.511  1.00  0.00     0.029 A 
ATOM     25  C   UNL     1       5.296   6.157  -5.297  1.00  0.00     0.049 A 
ATOM     26  H   UNL     1       5.925   6.970  -3.486  1.00  0.00     0.167 HD
ATOM     27  C   UNL     1       7.062   8.630   0.383  1.00  0.00     0.037 A 
ATOM     28  C   UNL     1       5.651   7.022  -6.265  1.00  0.00     0.037 A 
ATOM     29  C   UNL     1       7.521   9.592  -0.584  1.00  0.00     0.049 A 
ATOM     30  C   UNL     1       6.355   8.293  -5.898  1.00  0.00     0.074 A 
ATOM     31  C   UNL     1       8.215  10.770  -0.368  1.00  0.00     0.029 A 
ATOM     32  N   UNL     1       7.331   9.486  -1.953  1.00  0.00    -0.354 N 
ATOM     33  N   UNL     1       6.707   8.728  -4.713  1.00  0.00    -0.248 NA
ATOM     34  C   UNL     1       6.709   9.197  -7.002  1.00  0.00     0.031 C 
ATOM     35  C   UNL     1       8.422  11.391  -1.605  1.00  0.00     0.029 A 
ATOM     36  C   UNL     1       7.881  10.584  -2.593  1.00  0.00     0.049 A 
ATOM     37  H   UNL     1       6.872   8.740  -2.404  1.00  0.00     0.167 HD
ATOM     38  C   UNL     1       7.331   9.948  -4.926  1.00  0.00     0.074 A 
ATOM     39  C   UNL     1       7.322  10.180  -6.356  1.00  0.00     0.031 C 
ATOM     40  C   UNL     1       7.863  10.800  -4.017  1.00  0.00     0.037 A 
BRANCH  27  41
ATOM     41  C   UNL     1       7.294   8.921   1.835  1.00  0.00     0.057 A 
ATOM     42  C   UNL     1       8.294   8.269   2.566  1.00  0.00     0.134 A 
ATOM     43  C   UNL     1       6.529   9.887   2.499  1.00  0.00     0.134 A 
ATOM     44  F   UNL     1       9.052   7.325   1.989  1.00  0.00    -0.206 F 
ATOM     45  C   UNL     1       8.515   8.557   3.914  1.00  0.00     0.040 A 
ATOM     46  C   UNL     1       6.751  10.195   3.842  1.00  0.00     0.040 A 
ATOM     47  F   UNL     1       5.557  10.549   1.853  1.00  0.00    -0.206 F 
ATOM     48  C   UNL     1       7.745   9.527   4.555  1.00  0.00     0.006 A 
ENDBRANCH  27  41
BRANCH  28  49
ATOM     49  C   UNL     1       5.341   6.699  -7.676  1.00  0.00     0.057 A 
ATOM     50  C   UNL     1       6.342   6.272  -8.554  1.00  0.00     0.134 A 
ATOM     51  C   UNL     1       4.033   6.775  -8.168  1.00  0.00     0.134 A 
ATOM     52  F   UNL     1       7.615   6.196  -8.140  1.00  0.00    -0.206 F 
ATOM     53  C   UNL     1       6.054   5.932  -9.876  1.00  0.00     0.040 A 
ATOM     54  C   UNL     1       3.728   6.421  -9.482  1.00  0.00     0.040 A 
ATOM     55  F   UNL     1       3.031   7.172  -7.369  1.00  0.00    -0.206 F 
ATOM     56  C   UNL     1       4.741   5.999 -10.341  1.00  0.00     0.006 A 
ENDBRANCH  28  49
BRANCH  40  57
ATOM     57  C   UNL     1       8.493  12.050  -4.545  1.00  0.00     0.057 A 
ATOM     58  C   UNL     1       7.720  13.144  -4.950  1.00  0.00     0.134 A 
ATOM     59  C   UNL     1       9.886  12.173  -4.618  1.00  0.00     0.134 A 
ATOM     60  F   UNL     1       6.380  13.080  -4.916  1.00  0.00    -0.206 F 
ATOM     61  C   UNL     1       8.312  14.316  -5.424  1.00  0.00     0.040 A 
ATOM     62  C   UNL     1      10.489  13.345  -5.075  1.00  0.00     0.040 A 
ATOM     63  F   UNL     1      10.679  11.159  -4.241  1.00  0.00    -0.206 F 
ATOM     64  C   UNL     1       9.701  14.420  -5.482  1.00  0.00     0.006 A 
ENDBRANCH  40  57
ENDBRANCH  14  15
ENDBRANCH   7   9
ENDBRANCH   4   5
ENDBRANCH   3   4
ENDBRANCH   2   3
ENDBRANCH   1   2
BRANCH   1  65
ATOM     65  C   UNL     1       6.227  -4.015   1.603  1.00  0.00     0.021 C 
BRANCH  65  66
ATOM     66  C   UNL     1       7.056  -4.050   2.884  1.00  0.00     0.116 C 
BRANCH  66  67
ATOM     67  N   UNL     1       6.635  -5.088   3.806  1.00  0.00    -0.352 N 
ATOM     68  C   UNL     1       7.374  -5.948   4.574  1.00  0.00     0.252 C 
ATOM     69  H   UNL     1       5.660  -5.190   3.894  1.00  0.00     0.163 HD
ATOM     70  O   UNL     1       6.808  -6.725   5.336  1.00  0.00    -0.269 OA
BRANCH  68  71
ATOM     71  C   UNL     1       8.849  -5.919   4.536  1.00  0.00     0.061 A 
ATOM     72  C   UNL     1       9.503  -4.704   4.795  1.00  0.00     0.037 A 
ATOM     73  C   UNL     1       9.589  -7.092   4.320  1.00  0.00     0.072 A 
ATOM     74  C   UNL     1      10.899  -4.650   4.813  1.00  0.00     0.090 A 
ATOM     75  C   UNL     1      10.987  -7.033   4.422  1.00  0.00     0.061 A 
ATOM     76  Cl  UNL     1       8.811  -8.573   3.864  1.00  0.00    -0.082 Cl
ATOM     77  C   UNL     1      11.637  -5.823   4.692  1.00  0.00     0.044 A 
ATOM     78  Cl  UNL     1      12.000  -8.417   4.178  1.00  0.00    -0.083 Cl
BRANCH  74  79
ATOM     79  S   UNL     1      11.634  -3.029   4.866  1.00  0.00     0.261 S 
ATOM     80  O   UNL     1      11.249  -2.379   3.626  1.00  0.00    -0.201 OA
ATOM     81  O   UNL     1      11.279  -2.471   6.146  1.00  0.00    -0.201 OA
BRANCH  79  82
ATOM     82  N   UNL     1      13.293  -3.216   4.895  1.00  0.00    -0.280 N 
ATOM     83  H   UNL     1      13.770  -2.823   5.662  1.00  0.00     0.180 HD
BRANCH  82  84
ATOM     84  C   UNL     1      14.084  -3.886   3.923  1.00  0.00     0.052 A 
ATOM     85  C   UNL     1      13.681  -4.097   2.599  1.00  0.00     0.030 A 
ATOM     86  C   UNL     1      15.301  -4.415   4.365  1.00  0.00     0.069 A 
ATOM     87  C   UNL     1      14.447  -4.907   1.753  1.00  0.00     0.044 A 
ATOM     88  C   UNL     1      16.058  -5.216   3.515  1.00  0.00     0.160 A 
ATOM     89  C   UNL     1      15.626  -5.475   2.222  1.00  0.00     0.158 A 
ATOM     90  F   UNL     1      17.194  -5.760   3.971  1.00  0.00    -0.204 F 
ATOM     91  F   UNL     1      16.336  -6.279   1.420  1.00  0.00    -0.204 F 
ENDBRANCH  82  84
ENDBRANCH  79  82
ENDBRANCH  74  79
ENDBRANCH  68  71
ENDBRANCH  66  67
ENDBRANCH  65  66
ENDBRANCH   1  65
TORSDOF 16
