REMARK SMILES CC(C)[C@@H](CNC(=O)[C@@H]1CC[C@@H]2CCCC[C@@H]2[NH2+]1)C(=O)NCCCCCCNC(=O)c1ccc(-c2c3nc(c(-c4c(F)cccc4F)c4ccc([nH]4)c(-c4c(F)cccc4F)c4nc(c(-c5c(F)cccc5F)c5ccc2[nH]5)C=C4)C=C3)cc1
REMARK SMILES IDX 24 1 23 2 22 3 21 4 19 5 20 6 4 8 2 9 1 10 3 11 5 12 6 13
REMARK SMILES IDX 7 14 8 16 9 17 10 18 18 19 11 20 17 21 12 24 16 25 13 26
REMARK SMILES IDX 15 27 14 28 25 29 26 30 27 31 28 32 29 33 30 35 31 36 32 37
REMARK SMILES IDX 84 38 33 39 83 40 34 41 35 42 36 43 77 44 37 45 82 46 76 47
REMARK SMILES IDX 78 48 38 49 81 50 75 51 74 52 39 54 65 55 48 56 64 57 49 58
REMARK SMILES IDX 52 59 63 60 79 61 50 62 51 63 62 65 80 66 53 67 40 68 41 69
REMARK SMILES IDX 46 70 42 71 43 72 45 73 47 74 44 75 66 76 67 77 72 78 68 79
REMARK SMILES IDX 69 80 71 81 73 82 70 83 54 84 55 85 60 86 56 87 57 88 59 89
REMARK SMILES IDX 61 90 58 91
REMARK H PARENT 21 7 6 15 18 22 18 23 28 34 78 53 52 64
REMARK Flexibility Score: inf
ROOT
ATOM      1  C   UNL     1       0.393   2.430  -6.335  1.00  0.00     0.002 C 
ENDROOT
BRANCH   1   2
ATOM      2  C   UNL     1       0.948   1.967  -4.988  1.00  0.00     0.021 C 
BRANCH   2   3
ATOM      3  C   UNL     1      -0.106   1.856  -3.899  1.00  0.00     0.116 C 
BRANCH   3   4
ATOM      4  N   UNL     1      -0.903   0.653  -3.999  1.00  0.00    -0.356 N 
ATOM      5  C   UNL     1      -1.361  -0.196  -3.043  1.00  0.00     0.225 C 
ATOM      6  O   UNL     1      -2.191  -1.041  -3.392  1.00  0.00    -0.275 OA
ATOM      7  H   UNL     1      -1.158   0.407  -4.918  1.00  0.00     0.163 HD
BRANCH   5   8
ATOM      8  C   UNL     1      -0.922  -0.130  -1.577  1.00  0.00     0.100 C 
BRANCH   8   9
ATOM      9  C   UNL     1       0.609  -0.213  -1.337  1.00  0.00    -0.003 C 
ATOM     10  C   UNL     1       0.969  -0.212   0.151  1.00  0.00     0.008 C 
ATOM     11  C   UNL     1       1.193  -1.469  -2.000  1.00  0.00     0.008 C 
ENDBRANCH   8   9
BRANCH   8  12
ATOM     12  C   UNL     1      -1.708   0.968  -0.838  1.00  0.00     0.129 C 
BRANCH  12  13
ATOM     13  N   UNL     1      -1.285   2.322  -1.135  1.00  0.00    -0.350 N 
ATOM     14  C   UNL     1      -2.028   3.377  -1.598  1.00  0.00     0.278 C 
ATOM     15  H   UNL     1      -0.331   2.511  -0.982  1.00  0.00     0.163 HD
ATOM     16  O   UNL     1      -1.411   4.317  -2.104  1.00  0.00    -0.268 OA
BRANCH  14  17
ATOM     17  C   UNL     1      -3.567   3.342  -1.471  1.00  0.00     0.272 C 
ATOM     18  C   UNL     1      -4.250   4.577  -2.068  1.00  0.00     0.076 C 
ATOM     19  N   UNL     1      -3.986   3.165  -0.067  1.00  0.00    -0.333 N 
ATOM     20  C   UNL     1      -3.981   5.844  -1.260  1.00  0.00     0.016 C 
ATOM     21  C   UNL     1      -3.751   4.317   0.809  1.00  0.00     0.186 C 
ATOM     22  H   UNL     1      -3.476   2.369   0.316  1.00  0.00     0.347 HD
ATOM     23  H   UNL     1      -4.997   3.030  -0.090  1.00  0.00     0.347 HD
ATOM     24  C   UNL     1      -4.276   5.645   0.233  1.00  0.00     0.048 C 
ATOM     25  C   UNL     1      -2.337   4.383   1.429  1.00  0.00     0.065 C 
ATOM     26  C   UNL     1      -3.753   6.810   1.080  1.00  0.00     0.010 C 
ATOM     27  C   UNL     1      -1.492   5.591   1.037  1.00  0.00     0.006 C 
ATOM     28  C   UNL     1      -2.230   6.927   1.062  1.00  0.00     0.001 C 
ENDBRANCH  14  17
ENDBRANCH  12  13
ENDBRANCH   8  12
ENDBRANCH   5   8
ENDBRANCH   3   4
ENDBRANCH   2   3
ENDBRANCH   1   2
BRANCH   1  29
ATOM     29  C   UNL     1      -0.412   3.736  -6.302  1.00  0.00     0.002 C 
BRANCH  29  30
ATOM     30  C   UNL     1       0.276   4.924  -5.621  1.00  0.00     0.021 C 
BRANCH  30  31
ATOM     31  C   UNL     1       1.652   5.272  -6.173  1.00  0.00     0.116 C 
BRANCH  31  32
ATOM     32  N   UNL     1       1.627   5.522  -7.604  1.00  0.00    -0.352 N 
ATOM     33  C   UNL     1       2.197   6.538  -8.319  1.00  0.00     0.251 C 
ATOM     34  H   UNL     1       1.126   4.863  -8.137  1.00  0.00     0.163 HD
ATOM     35  O   UNL     1       1.928   6.677  -9.513  1.00  0.00    -0.269 OA
BRANCH  33  36
ATOM     36  C   UNL     1       3.128   7.478  -7.663  1.00  0.00     0.039 A 
ATOM     37  C   UNL     1       3.032   8.838  -7.965  1.00  0.00     0.014 A 
ATOM     38  C   UNL     1       4.114   7.020  -6.784  1.00  0.00     0.014 A 
ATOM     39  C   UNL     1       3.906   9.744  -7.364  1.00  0.00     0.010 A 
ATOM     40  C   UNL     1       4.933   7.932  -6.126  1.00  0.00     0.010 A 
ATOM     41  C   UNL     1       4.853   9.300  -6.428  1.00  0.00    -0.014 A 
BRANCH  41  42
ATOM     42  C   UNL     1       5.803  10.246  -5.793  1.00  0.00     0.031 A 
ATOM     43  C   UNL     1       7.278  10.118  -6.062  1.00  0.00     0.074 A 
ATOM     44  C   UNL     1       5.346  11.191  -4.950  1.00  0.00     0.049 A 
ATOM     45  N   UNL     1       8.274  10.806  -5.564  1.00  0.00    -0.248 NA
ATOM     46  C   UNL     1       7.691   9.057  -6.995  1.00  0.00     0.031 C 
ATOM     47  C   UNL     1       3.943  11.393  -4.582  1.00  0.00     0.029 A 
ATOM     48  N   UNL     1       6.016  12.158  -4.245  1.00  0.00    -0.354 N 
ATOM     49  C   UNL     1       9.425  10.256  -6.114  1.00  0.00     0.074 A 
ATOM     50  C   UNL     1       9.011   9.137  -6.932  1.00  0.00     0.031 C 
ATOM     51  C   UNL     1       3.855  12.437  -3.742  1.00  0.00     0.029 A 
ATOM     52  C   UNL     1       5.195  12.953  -3.482  1.00  0.00     0.049 A 
ATOM     53  H   UNL     1       6.994  12.273  -4.283  1.00  0.00     0.167 HD
ATOM     54  C   UNL     1      10.709  10.663  -5.973  1.00  0.00     0.037 A 
ATOM     55  C   UNL     1       5.494  13.979  -2.664  1.00  0.00     0.037 A 
ATOM     56  C   UNL     1      11.114  11.791  -5.178  1.00  0.00     0.049 A 
ATOM     57  C   UNL     1       6.930  14.402  -2.514  1.00  0.00     0.074 A 
ATOM     58  C   UNL     1      12.384  12.308  -4.997  1.00  0.00     0.029 A 
ATOM     59  N   UNL     1      10.250  12.580  -4.432  1.00  0.00    -0.354 N 
ATOM     60  N   UNL     1       8.004  13.905  -3.079  1.00  0.00    -0.248 NA
ATOM     61  C   UNL     1       7.195  15.536  -1.618  1.00  0.00     0.031 C 
ATOM     62  C   UNL     1      12.295  13.386  -4.110  1.00  0.00     0.029 A 
ATOM     63  C   UNL     1      10.962  13.573  -3.781  1.00  0.00     0.049 A 
ATOM     64  H   UNL     1       9.275  12.453  -4.375  1.00  0.00     0.167 HD
ATOM     65  C   UNL     1       9.063  14.690  -2.642  1.00  0.00     0.074 A 
ATOM     66  C   UNL     1       8.501  15.701  -1.771  1.00  0.00     0.031 C 
ATOM     67  C   UNL     1      10.382  14.585  -2.936  1.00  0.00     0.037 A 
BRANCH  54  68
ATOM     68  C   UNL     1      11.765   9.886  -6.706  1.00  0.00     0.057 A 
ATOM     69  C   UNL     1      11.873   9.924  -8.103  1.00  0.00     0.134 A 
ATOM     70  C   UNL     1      12.705   9.117  -6.008  1.00  0.00     0.134 A 
ATOM     71  F   UNL     1      10.998  10.631  -8.834  1.00  0.00    -0.206 F 
ATOM     72  C   UNL     1      12.859   9.204  -8.780  1.00  0.00     0.040 A 
ATOM     73  C   UNL     1      13.713   8.417  -6.672  1.00  0.00     0.040 A 
ATOM     74  F   UNL     1      12.664   9.040  -4.669  1.00  0.00    -0.206 F 
ATOM     75  C   UNL     1      13.788   8.453  -8.063  1.00  0.00     0.006 A 
ENDBRANCH  54  68
BRANCH  55  76
ATOM     76  C   UNL     1       4.414  14.702  -1.944  1.00  0.00     0.057 A 
ATOM     77  C   UNL     1       4.094  16.026  -2.266  1.00  0.00     0.134 A 
ATOM     78  C   UNL     1       3.697  14.101  -0.903  1.00  0.00     0.134 A 
ATOM     79  F   UNL     1       4.758  16.663  -3.243  1.00  0.00    -0.206 F 
ATOM     80  C   UNL     1       3.121  16.737  -1.561  1.00  0.00     0.040 A 
ATOM     81  C   UNL     1       2.702  14.790  -0.208  1.00  0.00     0.040 A 
ATOM     82  F   UNL     1       3.949  12.832  -0.551  1.00  0.00    -0.206 F 
ATOM     83  C   UNL     1       2.419  16.116  -0.530  1.00  0.00     0.006 A 
ENDBRANCH  55  76
BRANCH  67  84
ATOM     84  C   UNL     1      11.299  15.626  -2.361  1.00  0.00     0.057 A 
ATOM     85  C   UNL     1      11.618  15.667  -0.999  1.00  0.00     0.134 A 
ATOM     86  C   UNL     1      11.899  16.578  -3.196  1.00  0.00     0.134 A 
ATOM     87  F   UNL     1      11.068  14.791  -0.144  1.00  0.00    -0.206 F 
ATOM     88  C   UNL     1      12.479  16.636  -0.481  1.00  0.00     0.040 A 
ATOM     89  C   UNL     1      12.784  17.532  -2.696  1.00  0.00     0.040 A 
ATOM     90  F   UNL     1      11.644  16.587  -4.513  1.00  0.00    -0.206 F 
ATOM     91  C   UNL     1      13.071  17.568  -1.333  1.00  0.00     0.006 A 
ENDBRANCH  67  84
ENDBRANCH  41  42
ENDBRANCH  33  36
ENDBRANCH  31  32
ENDBRANCH  30  31
ENDBRANCH  29  30
ENDBRANCH   1  29
TORSDOF 17
