REMARK SMILES CC(C)[C@H](NC(=O)[C@H](Cc1ccccc1)n1c(=O)[nH]c2ccccc2c1=O)C(=O)NCCCCCCNC(=O)c1ccc(-c2c3nc(c(-c4c(F)cccc4F)c4ccc([nH]4)c(-c4c(F)cccc4F)c4nc(c(-c5c(F)cccc5F)c5ccc2[nH]5)C=C4)C=C3)cc1
REMARK SMILES IDX 32 1 31 2 30 3 28 4 29 5 4 7 2 8 1 9 3 10 5 11 6 12 7 14
REMARK SMILES IDX 8 15 16 16 17 17 26 18 18 19 19 20 25 21 27 22 20 23 24 25
REMARK SMILES IDX 21 26 23 27 22 28 9 29 10 30 11 31 15 32 12 33 14 34 13 35
REMARK SMILES IDX 33 36 34 37 35 38 36 39 37 40 38 41 39 43 40 44 41 45 93 46
REMARK SMILES IDX 42 47 92 48 43 49 44 50 45 51 86 52 46 53 91 54 85 55 87 56
REMARK SMILES IDX 47 57 90 58 84 59 83 60 48 62 74 63 57 64 73 65 58 66 61 67
REMARK SMILES IDX 72 68 88 69 59 70 60 71 71 73 89 74 62 75 49 76 50 77 55 78
REMARK SMILES IDX 51 79 52 80 54 81 56 82 53 83 75 84 76 85 81 86 77 87 78 88
REMARK SMILES IDX 80 89 82 90 79 91 63 92 64 93 69 94 65 95 66 96 68 97 70 98
REMARK SMILES IDX 67 99
REMARK H PARENT 30 6 5 13 19 24 37 42 87 61 61 72
REMARK Flexibility Score: inf
ROOT
ATOM      1  C   UNL     1      -1.846  -5.160   3.632  1.00  0.00     0.021 C 
ENDROOT
BRANCH   1   2
ATOM      2  C   UNL     1      -0.508  -5.085   2.919  1.00  0.00     0.116 C 
BRANCH   2   3
ATOM      3  N   UNL     1      -0.551  -5.769   1.647  1.00  0.00    -0.354 N 
ATOM      4  C   UNL     1      -0.007  -5.448   0.447  1.00  0.00     0.242 C 
ATOM      5  O   UNL     1       0.079  -6.359  -0.382  1.00  0.00    -0.273 OA
ATOM      6  H   UNL     1      -1.061  -6.611   1.653  1.00  0.00     0.163 HD
BRANCH   4   7
ATOM      7  C   UNL     1       0.604  -4.063   0.165  1.00  0.00     0.173 C 
BRANCH   7   8
ATOM      8  C   UNL     1       2.102  -3.937   0.567  1.00  0.00     0.015 C 
ATOM      9  C   UNL     1       2.454  -4.324   2.004  1.00  0.00     0.010 C 
ATOM     10  C   UNL     1       2.988  -4.768  -0.372  1.00  0.00     0.010 C 
ENDBRANCH   7   8
BRANCH   7  11
ATOM     11  N   UNL     1      -0.240  -2.941   0.637  1.00  0.00    -0.342 N 
ATOM     12  C   UNL     1      -0.471  -1.705   0.081  1.00  0.00     0.244 C 
ATOM     13  H   UNL     1      -0.710  -3.106   1.486  1.00  0.00     0.164 HD
ATOM     14  O   UNL     1      -1.302  -0.984   0.632  1.00  0.00    -0.273 OA
BRANCH  12  15
ATOM     15  C   UNL     1       0.268  -1.318  -1.204  1.00  0.00     0.189 C 
BRANCH  15  16
ATOM     16  N   UNL     1      -0.624  -1.042  -2.333  1.00  0.00    -0.247 N 
ATOM     17  C   UNL     1      -1.266   0.181  -2.436  1.00  0.00     0.329 A 
ATOM     18  C   UNL     1      -0.814  -2.081  -3.241  1.00  0.00     0.264 A 
ATOM     19  O   UNL     1      -1.260   1.052  -1.571  1.00  0.00    -0.248 OA
ATOM     20  N   UNL     1      -1.912   0.431  -3.618  1.00  0.00    -0.307 N 
ATOM     21  C   UNL     1      -1.418  -1.733  -4.531  1.00  0.00     0.064 A 
ATOM     22  O   UNL     1      -0.472  -3.245  -3.044  1.00  0.00    -0.268 OA
ATOM     23  C   UNL     1      -1.936  -0.456  -4.691  1.00  0.00     0.055 A 
ATOM     24  H   UNL     1      -2.388   1.288  -3.714  1.00  0.00     0.171 HD
ATOM     25  C   UNL     1      -1.413  -2.644  -5.590  1.00  0.00     0.016 A 
ATOM     26  C   UNL     1      -2.450  -0.066  -5.926  1.00  0.00     0.027 A 
ATOM     27  C   UNL     1      -1.910  -2.252  -6.830  1.00  0.00     0.001 A 
ATOM     28  C   UNL     1      -2.422  -0.964  -6.998  1.00  0.00     0.002 A 
ENDBRANCH  15  16
BRANCH  15  29
ATOM     29  C   UNL     1       1.416  -0.311  -1.010  1.00  0.00     0.071 C 
BRANCH  29  30
ATOM     30  C   UNL     1       2.691  -0.596  -1.807  1.00  0.00    -0.045 A 
ATOM     31  C   UNL     1       2.933  -1.779  -2.527  1.00  0.00     0.004 A 
ATOM     32  C   UNL     1       3.722   0.355  -1.761  1.00  0.00     0.004 A 
ATOM     33  C   UNL     1       4.170  -2.035  -3.120  1.00  0.00     0.000 A 
ATOM     34  C   UNL     1       4.954   0.110  -2.378  1.00  0.00     0.000 A 
ATOM     35  C   UNL     1       5.184  -1.092  -3.042  1.00  0.00     0.000 A 
ENDBRANCH  29  30
ENDBRANCH  15  29
ENDBRANCH  12  15
ENDBRANCH   7  11
ENDBRANCH   4   7
ENDBRANCH   2   3
ENDBRANCH   1   2
BRANCH   1  36
ATOM     36  C   UNL     1      -2.222  -6.579   4.067  1.00  0.00     0.002 C 
BRANCH  36  37
ATOM     37  C   UNL     1      -1.133  -7.324   4.849  1.00  0.00     0.002 C 
BRANCH  37  38
ATOM     38  C   UNL     1      -0.566  -6.565   6.052  1.00  0.00     0.021 C 
BRANCH  38  39
ATOM     39  C   UNL     1      -1.616  -6.071   7.035  1.00  0.00     0.116 C 
BRANCH  39  40
ATOM     40  N   UNL     1      -2.430  -7.156   7.551  1.00  0.00    -0.352 N 
ATOM     41  C   UNL     1      -2.747  -7.458   8.848  1.00  0.00     0.251 C 
ATOM     42  H   UNL     1      -2.807  -7.761   6.872  1.00  0.00     0.163 HD
ATOM     43  O   UNL     1      -3.286  -8.524   9.120  1.00  0.00    -0.269 OA
BRANCH  41  44
ATOM     44  C   UNL     1      -2.415  -6.498   9.920  1.00  0.00     0.039 A 
ATOM     45  C   UNL     1      -1.854  -6.986  11.101  1.00  0.00     0.014 A 
ATOM     46  C   UNL     1      -2.657  -5.130   9.764  1.00  0.00     0.014 A 
ATOM     47  C   UNL     1      -1.496  -6.094  12.111  1.00  0.00     0.010 A 
ATOM     48  C   UNL     1      -2.224  -4.236  10.737  1.00  0.00     0.010 A 
ATOM     49  C   UNL     1      -1.651  -4.710  11.925  1.00  0.00    -0.014 A 
BRANCH  49  50
ATOM     50  C   UNL     1      -1.222  -3.751  12.973  1.00  0.00     0.031 A 
ATOM     51  C   UNL     1      -2.233  -2.877  13.660  1.00  0.00     0.074 A 
ATOM     52  C   UNL     1       0.086  -3.642  13.275  1.00  0.00     0.049 A 
ATOM     53  N   UNL     1      -2.047  -1.965  14.580  1.00  0.00    -0.248 NA
ATOM     54  C   UNL     1      -3.637  -3.027  13.242  1.00  0.00     0.031 C 
ATOM     55  C   UNL     1       1.167  -4.401  12.641  1.00  0.00     0.029 A 
ATOM     56  N   UNL     1       0.730  -2.848  14.189  1.00  0.00    -0.354 N 
ATOM     57  C   UNL     1      -3.301  -1.430  14.843  1.00  0.00     0.074 A 
ATOM     58  C   UNL     1      -4.233  -2.076  13.945  1.00  0.00     0.031 C 
ATOM     59  C   UNL     1       2.335  -4.057  13.206  1.00  0.00     0.029 A 
ATOM     60  C   UNL     1       2.092  -3.027  14.210  1.00  0.00     0.049 A 
ATOM     61  H   UNL     1       0.261  -2.210  14.774  1.00  0.00     0.167 HD
ATOM     62  C   UNL     1      -3.649  -0.502  15.766  1.00  0.00     0.037 A 
ATOM     63  C   UNL     1       3.039  -2.423  14.953  1.00  0.00     0.037 A 
ATOM     64  C   UNL     1      -2.720   0.124  16.669  1.00  0.00     0.049 A 
ATOM     65  C   UNL     1       2.627  -1.388  15.962  1.00  0.00     0.074 A 
ATOM     66  C   UNL     1      -2.981   1.033  17.680  1.00  0.00     0.029 A 
ATOM     67  N   UNL     1      -1.349  -0.088  16.666  1.00  0.00    -0.354 N 
ATOM     68  N   UNL     1       1.427  -0.947  16.253  1.00  0.00    -0.248 NA
ATOM     69  C   UNL     1       3.701  -0.771  16.753  1.00  0.00     0.031 C 
ATOM     70  C   UNL     1      -1.762   1.413  18.252  1.00  0.00     0.029 A 
ATOM     71  C   UNL     1      -0.748   0.694  17.639  1.00  0.00     0.049 A 
ATOM     72  H   UNL     1      -0.874  -0.703  16.062  1.00  0.00     0.167 HD
ATOM     73  C   UNL     1       1.597  -0.026  17.279  1.00  0.00     0.074 A 
ATOM     74  C   UNL     1       3.015   0.014  17.572  1.00  0.00     0.031 C 
ATOM     75  C   UNL     1       0.665   0.719  17.922  1.00  0.00     0.037 A 
BRANCH  62  76
ATOM     76  C   UNL     1      -5.097  -0.109  15.846  1.00  0.00     0.057 A 
ATOM     77  C   UNL     1      -6.079  -0.990  16.320  1.00  0.00     0.134 A 
ATOM     78  C   UNL     1      -5.508   1.180  15.485  1.00  0.00     0.134 A 
ATOM     79  F   UNL     1      -5.755  -2.243  16.672  1.00  0.00    -0.206 F 
ATOM     80  C   UNL     1      -7.420  -0.611  16.408  1.00  0.00     0.040 A 
ATOM     81  C   UNL     1      -6.841   1.580  15.597  1.00  0.00     0.040 A 
ATOM     82  F   UNL     1      -4.620   2.077  15.029  1.00  0.00    -0.206 F 
ATOM     83  C   UNL     1      -7.802   0.681  16.054  1.00  0.00     0.006 A 
ENDBRANCH  62  76
BRANCH  63  84
ATOM     84  C   UNL     1       4.468  -2.792  14.783  1.00  0.00     0.057 A 
ATOM     85  C   UNL     1       5.169  -3.460  15.793  1.00  0.00     0.134 A 
ATOM     86  C   UNL     1       5.171  -2.471  13.615  1.00  0.00     0.134 A 
ATOM     87  F   UNL     1       4.556  -3.779  16.943  1.00  0.00    -0.206 F 
ATOM     88  C   UNL     1       6.523  -3.772  15.662  1.00  0.00     0.040 A 
ATOM     89  C   UNL     1       6.517  -2.804  13.457  1.00  0.00     0.040 A 
ATOM     90  F   UNL     1       4.555  -1.841  12.604  1.00  0.00    -0.206 F 
ATOM     91  C   UNL     1       7.200  -3.447  14.488  1.00  0.00     0.006 A 
ENDBRANCH  63  84
BRANCH  75  92
ATOM     92  C   UNL     1       1.144   1.612  19.030  1.00  0.00     0.057 A 
ATOM     93  C   UNL     1       1.905   2.761  18.782  1.00  0.00     0.134 A 
ATOM     94  C   UNL     1       0.811   1.333  20.362  1.00  0.00     0.134 A 
ATOM     95  F   UNL     1       2.269   3.080  17.530  1.00  0.00    -0.206 F 
ATOM     96  C   UNL     1       2.344   3.584  19.821  1.00  0.00     0.040 A 
ATOM     97  C   UNL     1       1.216   2.164  21.406  1.00  0.00     0.040 A 
ATOM     98  F   UNL     1       0.075   0.254  20.669  1.00  0.00    -0.206 F 
ATOM     99  C   UNL     1       1.993   3.289  21.138  1.00  0.00     0.006 A 
ENDBRANCH  75  92
ENDBRANCH  49  50
ENDBRANCH  41  44
ENDBRANCH  39  40
ENDBRANCH  38  39
ENDBRANCH  37  38
ENDBRANCH  36  37
ENDBRANCH   1  36
TORSDOF 19
