REMARK SMILES COCc1ccccc1C(=O)N1CCC[C@@H](C(=O)NCCCCCCNC(=O)c2ccc(-c3c4nc(c(-c5c(F)cccc5F)c5ccc([nH]5)c(-c5c(F)cccc5F)c5nc(c(-c6c(F)cccc6F)c6ccc3[nH]6)C=C5)C=C4)cc2)C1
REMARK SMILES IDX 21 1 20 2 19 3 17 4 18 5 16 7 12 8 13 9 83 10 14 11 15 12
REMARK SMILES IDX 10 13 11 14 9 15 4 16 5 17 6 18 8 19 7 20 3 21 2 22 1 23
REMARK SMILES IDX 22 24 23 25 24 26 25 27 26 28 27 29 28 31 29 32 30 33 82 34
REMARK SMILES IDX 31 35 81 36 32 37 33 38 34 39 75 40 35 41 80 42 74 43 76 44
REMARK SMILES IDX 36 45 79 46 73 47 72 48 37 50 63 51 46 52 62 53 47 54 50 55
REMARK SMILES IDX 61 56 77 57 48 58 49 59 60 61 78 62 51 63 38 64 39 65 44 66
REMARK SMILES IDX 40 67 41 68 43 69 45 70 42 71 64 72 65 73 70 74 66 75 67 76
REMARK SMILES IDX 69 77 71 78 68 79 52 80 53 81 58 82 54 83 55 84 57 85 59 86
REMARK SMILES IDX 56 87
REMARK H PARENT 19 6 26 30 76 49 50 60
REMARK Flexibility Score: inf
ROOT
ATOM      1  C   UNL     1      -2.053  -4.114   6.142  1.00  0.00     0.021 C 
ENDROOT
BRANCH   1   2
ATOM      2  C   UNL     1      -1.107  -3.405   5.177  1.00  0.00     0.116 C 
BRANCH   2   3
ATOM      3  N   UNL     1      -0.305  -2.402   5.848  1.00  0.00    -0.356 N 
ATOM      4  C   UNL     1       1.036  -2.181   5.802  1.00  0.00     0.224 C 
ATOM      5  O   UNL     1       1.487  -1.267   6.493  1.00  0.00    -0.275 OA
ATOM      6  H   UNL     1      -0.809  -1.786   6.427  1.00  0.00     0.163 HD
BRANCH   4   7
ATOM      7  C   UNL     1       1.912  -3.025   4.886  1.00  0.00     0.098 C 
ATOM      8  N   UNL     1       2.592  -3.190   2.479  1.00  0.00    -0.338 N 
ATOM      9  C   UNL     1       4.004  -3.033   2.828  1.00  0.00     0.120 C 
ATOM     10  C   UNL     1       1.639  -2.618   3.430  1.00  0.00     0.133 C 
ATOM     11  C   UNL     1       4.298  -3.521   4.237  1.00  0.00     0.022 C 
ATOM     12  C   UNL     1       3.394  -2.815   5.239  1.00  0.00     0.017 C 
BRANCH   8  13
ATOM     13  C   UNL     1       2.302  -3.868   1.294  1.00  0.00     0.254 C 
ATOM     14  O   UNL     1       3.123  -4.659   0.819  1.00  0.00    -0.269 OA
BRANCH  13  15
ATOM     15  C   UNL     1       1.047  -3.670   0.491  1.00  0.00     0.045 A 
ATOM     16  C   UNL     1       0.408  -2.438   0.218  1.00  0.00    -0.010 A 
ATOM     17  C   UNL     1      -0.635  -2.417  -0.737  1.00  0.00     0.007 A 
ATOM     18  C   UNL     1      -1.001  -3.555  -1.455  1.00  0.00     0.000 A 
ATOM     19  C   UNL     1       0.640  -4.815  -0.234  1.00  0.00     0.014 A 
ATOM     20  C   UNL     1      -0.363  -4.758  -1.203  1.00  0.00     0.001 A 
BRANCH  16  21
ATOM     21  C   UNL     1       0.763  -1.140   0.904  1.00  0.00     0.196 C 
BRANCH  21  22
ATOM     22  O   UNL     1       0.328   0.036   0.215  1.00  0.00    -0.380 OA
ATOM     23  C   UNL     1       1.313   0.542  -0.673  1.00  0.00     0.195 C 
ENDBRANCH  21  22
ENDBRANCH  16  21
ENDBRANCH  13  15
ENDBRANCH   8  13
ENDBRANCH   4   7
ENDBRANCH   2   3
ENDBRANCH   1   2
BRANCH   1  24
ATOM     24  C   UNL     1      -3.064  -3.204   6.850  1.00  0.00     0.002 C 
BRANCH  24  25
ATOM     25  C   UNL     1      -3.961  -2.367   5.933  1.00  0.00     0.002 C 
BRANCH  25  26
ATOM     26  C   UNL     1      -4.745  -3.154   4.883  1.00  0.00     0.021 C 
BRANCH  26  27
ATOM     27  C   UNL     1      -5.597  -4.293   5.429  1.00  0.00     0.116 C 
BRANCH  27  28
ATOM     28  N   UNL     1      -6.652  -3.837   6.319  1.00  0.00    -0.352 N 
ATOM     29  C   UNL     1      -7.981  -4.185   6.326  1.00  0.00     0.251 C 
ATOM     30  H   UNL     1      -6.378  -3.191   7.009  1.00  0.00     0.163 HD
ATOM     31  O   UNL     1      -8.774  -3.609   7.066  1.00  0.00    -0.269 OA
BRANCH  29  32
ATOM     32  C   UNL     1      -8.462  -5.240   5.409  1.00  0.00     0.039 A 
ATOM     33  C   UNL     1      -9.594  -4.996   4.627  1.00  0.00     0.014 A 
ATOM     34  C   UNL     1      -7.782  -6.457   5.307  1.00  0.00     0.014 A 
ATOM     35  C   UNL     1     -10.006  -5.947   3.690  1.00  0.00     0.010 A 
ATOM     36  C   UNL     1      -8.152  -7.372   4.327  1.00  0.00     0.010 A 
ATOM     37  C   UNL     1      -9.267  -7.126   3.509  1.00  0.00    -0.014 A 
BRANCH  37  38
ATOM     38  C   UNL     1      -9.638  -8.133   2.482  1.00  0.00     0.031 A 
ATOM     39  C   UNL     1     -10.051  -9.513   2.910  1.00  0.00     0.074 A 
ATOM     40  C   UNL     1      -9.515  -7.839   1.174  1.00  0.00     0.049 A 
ATOM     41  N   UNL     1     -10.264 -10.578   2.180  1.00  0.00    -0.248 NA
ATOM     42  C   UNL     1     -10.217  -9.730   4.356  1.00  0.00     0.031 C 
ATOM     43  C   UNL     1      -9.098  -6.546   0.629  1.00  0.00     0.029 A 
ATOM     44  N   UNL     1      -9.708  -8.621   0.062  1.00  0.00    -0.354 N 
ATOM     45  C   UNL     1     -10.562 -11.595   3.078  1.00  0.00     0.074 A 
ATOM     46  C   UNL     1     -10.460 -11.031   4.407  1.00  0.00     0.031 C 
ATOM     47  C   UNL     1      -9.077  -6.621  -0.712  1.00  0.00     0.029 A 
ATOM     48  C   UNL     1      -9.434  -7.976  -1.120  1.00  0.00     0.049 A 
ATOM     49  H   UNL     1     -10.014  -9.556   0.107  1.00  0.00     0.167 HD
ATOM     50  C   UNL     1     -10.908 -12.878   2.818  1.00  0.00     0.037 A 
ATOM     51  C   UNL     1      -9.451  -8.432  -2.387  1.00  0.00     0.037 A 
ATOM     52  C   UNL     1     -11.038 -13.428   1.495  1.00  0.00     0.049 A 
ATOM     53  C   UNL     1      -9.824  -9.864  -2.651  1.00  0.00     0.074 A 
ATOM     54  C   UNL     1     -11.432 -14.702   1.125  1.00  0.00     0.029 A 
ATOM     55  N   UNL     1     -10.779 -12.732   0.323  1.00  0.00    -0.354 N 
ATOM     56  N   UNL     1     -10.147 -10.805  -1.796  1.00  0.00    -0.248 NA
ATOM     57  C   UNL     1      -9.837 -10.300  -4.055  1.00  0.00     0.031 C 
ATOM     58  C   UNL     1     -11.374 -14.790  -0.269  1.00  0.00     0.029 A 
ATOM     59  C   UNL     1     -10.989 -13.556  -0.770  1.00  0.00     0.049 A 
ATOM     60  H   UNL     1     -10.488 -11.793   0.276  1.00  0.00     0.167 HD
ATOM     61  C   UNL     1     -10.436 -11.929  -2.558  1.00  0.00     0.074 A 
ATOM     62  C   UNL     1     -10.252 -11.555  -3.945  1.00  0.00     0.031 C 
ATOM     63  C   UNL     1     -10.824 -13.160  -2.145  1.00  0.00     0.037 A 
BRANCH  50  64
ATOM     64  C   UNL     1     -11.167 -13.775   3.993  1.00  0.00     0.057 A 
ATOM     65  C   UNL     1     -12.297 -13.619   4.806  1.00  0.00     0.134 A 
ATOM     66  C   UNL     1     -10.288 -14.821   4.302  1.00  0.00     0.134 A 
ATOM     67  F   UNL     1     -13.172 -12.629   4.573  1.00  0.00    -0.206 F 
ATOM     68  C   UNL     1     -12.528 -14.452   5.902  1.00  0.00     0.040 A 
ATOM     69  C   UNL     1     -10.524 -15.678   5.378  1.00  0.00     0.040 A 
ATOM     70  F   UNL     1      -9.190 -15.030   3.560  1.00  0.00    -0.206 F 
ATOM     71  C   UNL     1     -11.643 -15.489   6.187  1.00  0.00     0.006 A 
ENDBRANCH  50  64
BRANCH  51  72
ATOM     72  C   UNL     1      -9.120  -7.517  -3.509  1.00  0.00     0.057 A 
ATOM     73  C   UNL     1     -10.111  -7.082  -4.397  1.00  0.00     0.134 A 
ATOM     74  C   UNL     1      -7.815  -7.061  -3.725  1.00  0.00     0.134 A 
ATOM     75  F   UNL     1     -11.377  -7.501  -4.252  1.00  0.00    -0.206 F 
ATOM     76  C   UNL     1      -9.814  -6.240  -5.469  1.00  0.00     0.040 A 
ATOM     77  C   UNL     1      -7.507  -6.200  -4.780  1.00  0.00     0.040 A 
ATOM     78  F   UNL     1      -6.821  -7.436  -2.906  1.00  0.00    -0.206 F 
ATOM     79  C   UNL     1      -8.508  -5.793  -5.660  1.00  0.00     0.006 A 
ENDBRANCH  51  72
BRANCH  63  80
ATOM     80  C   UNL     1     -11.131 -14.180  -3.201  1.00  0.00     0.057 A 
ATOM     81  C   UNL     1     -10.122 -14.817  -3.933  1.00  0.00     0.134 A 
ATOM     82  C   UNL     1     -12.454 -14.575  -3.439  1.00  0.00     0.134 A 
ATOM     83  F   UNL     1      -8.837 -14.474  -3.761  1.00  0.00    -0.206 F 
ATOM     84  C   UNL     1     -10.419 -15.803  -4.875  1.00  0.00     0.040 A 
ATOM     85  C   UNL     1     -12.761 -15.577  -4.360  1.00  0.00     0.040 A 
ATOM     86  F   UNL     1     -13.466 -14.009  -2.764  1.00  0.00    -0.206 F 
ATOM     87  C   UNL     1     -11.742 -16.192  -5.083  1.00  0.00     0.006 A 
ENDBRANCH  63  80
ENDBRANCH  37  38
ENDBRANCH  29  32
ENDBRANCH  27  28
ENDBRANCH  26  27
ENDBRANCH  25  26
ENDBRANCH  24  25
ENDBRANCH   1  24
TORSDOF 17
