REMARK SMILES COc1ccc(CSc2ncccc2C(=O)NCCCCCCNC(=O)c2ccc(-c3c4nc(c(-c5c(F)cccc5F)c5ccc([nH]5)c(-c5c(F)cccc5F)c5nc(c(-c6c(F)cccc6F)c6ccc3[nH]6)C=C5)C=C4)cc2)cc1
REMARK SMILES IDX 19 1 18 2 17 3 15 4 16 5 14 7 9 8 10 9 11 10 13 11 12 12
REMARK SMILES IDX 8 13 7 14 6 15 3 16 4 17 82 18 5 19 81 20 2 21 1 22 20 23
REMARK SMILES IDX 21 24 22 25 23 26 24 27 25 28 26 30 27 31 28 32 80 33 29 34
REMARK SMILES IDX 79 35 30 36 31 37 32 38 73 39 33 40 78 41 72 42 74 43 34 44
REMARK SMILES IDX 77 45 71 46 70 47 35 49 61 50 44 51 60 52 45 53 48 54 59 55
REMARK SMILES IDX 75 56 46 57 47 58 58 60 76 61 49 62 36 63 37 64 42 65 38 66
REMARK SMILES IDX 39 67 41 68 43 69 40 70 62 71 63 72 68 73 64 74 65 75 67 76
REMARK SMILES IDX 69 77 66 78 50 79 51 80 56 81 52 82 53 83 55 84 57 85 54 86
REMARK H PARENT 17 6 24 29 74 48 48 59
REMARK Flexibility Score: inf
ROOT
ATOM      1  C   UNL     1       7.980  -2.179   8.568  1.00  0.00     0.021 C 
ENDROOT
BRANCH   1   2
ATOM      2  C   UNL     1       7.288  -2.141   7.202  1.00  0.00     0.116 C 
BRANCH   2   3
ATOM      3  N   UNL     1       6.134  -3.019   7.228  1.00  0.00    -0.352 N 
ATOM      4  C   UNL     1       4.785  -2.868   7.421  1.00  0.00     0.254 C 
ATOM      5  O   UNL     1       4.187  -3.928   7.601  1.00  0.00    -0.269 OA
ATOM      6  H   UNL     1       6.382  -3.959   7.068  1.00  0.00     0.163 HD
BRANCH   4   7
ATOM      7  C   UNL     1       4.051  -1.566   7.348  1.00  0.00     0.072 A 
ATOM      8  C   UNL     1       2.682  -1.511   7.026  1.00  0.00     0.109 A 
ATOM      9  N   UNL     1       2.017  -0.333   6.845  1.00  0.00    -0.249 NA
ATOM     10  C   UNL     1       2.687   0.820   7.002  1.00  0.00     0.112 A 
ATOM     11  C   UNL     1       4.674  -0.336   7.604  1.00  0.00     0.018 A 
ATOM     12  C   UNL     1       4.002   0.870   7.402  1.00  0.00     0.021 A 
BRANCH   8  13
ATOM     13  S   UNL     1       1.556  -2.895   6.940  1.00  0.00    -0.101 SA
BRANCH  13  14
ATOM     14  C   UNL     1       1.952  -3.530   5.285  1.00  0.00     0.112 C 
BRANCH  14  15
ATOM     15  C   UNL     1       1.534  -2.616   4.159  1.00  0.00    -0.037 A 
ATOM     16  C   UNL     1       0.768  -0.922   2.042  1.00  0.00     0.118 A 
ATOM     17  C   UNL     1      -0.154  -1.291   3.021  1.00  0.00     0.047 A 
ATOM     18  C   UNL     1       2.076  -1.401   2.120  1.00  0.00     0.047 A 
ATOM     19  C   UNL     1       0.218  -2.145   4.059  1.00  0.00     0.008 A 
ATOM     20  C   UNL     1       2.456  -2.243   3.172  1.00  0.00     0.008 A 
BRANCH  16  21
ATOM     21  O   UNL     1       0.287  -0.069   1.089  1.00  0.00    -0.497 OA
ATOM     22  C   UNL     1       0.987  -0.057  -0.148  1.00  0.00     0.278 C 
ENDBRANCH  16  21
ENDBRANCH  14  15
ENDBRANCH  13  14
ENDBRANCH   8  13
ENDBRANCH   4   7
ENDBRANCH   2   3
ENDBRANCH   1   2
BRANCH   1  23
ATOM     23  C   UNL     1       8.762  -3.481   8.815  1.00  0.00     0.002 C 
BRANCH  23  24
ATOM     24  C   UNL     1       9.910  -3.741   7.831  1.00  0.00     0.002 C 
BRANCH  24  25
ATOM     25  C   UNL     1      10.915  -2.595   7.700  1.00  0.00     0.021 C 
BRANCH  25  26
ATOM     26  C   UNL     1      11.623  -2.234   9.001  1.00  0.00     0.116 C 
BRANCH  26  27
ATOM     27  N   UNL     1      12.486  -3.310   9.461  1.00  0.00    -0.352 N 
ATOM     28  C   UNL     1      13.826  -3.282   9.752  1.00  0.00     0.251 C 
ATOM     29  H   UNL     1      12.045  -4.182   9.581  1.00  0.00     0.163 HD
ATOM     30  O   UNL     1      14.448  -4.326   9.913  1.00  0.00    -0.269 OA
BRANCH  28  31
ATOM     31  C   UNL     1      14.525  -1.984   9.857  1.00  0.00     0.039 A 
ATOM     32  C   UNL     1      15.773  -1.835   9.246  1.00  0.00     0.014 A 
ATOM     33  C   UNL     1      13.957  -0.923  10.569  1.00  0.00     0.014 A 
ATOM     34  C   UNL     1      16.428  -0.604   9.307  1.00  0.00     0.010 A 
ATOM     35  C   UNL     1      14.578   0.322  10.568  1.00  0.00     0.010 A 
ATOM     36  C   UNL     1      15.823   0.492   9.944  1.00  0.00    -0.014 A 
BRANCH  36  37
ATOM     37  C   UNL     1      16.481   1.821   9.975  1.00  0.00     0.031 A 
ATOM     38  C   UNL     1      16.919   2.416  11.284  1.00  0.00     0.074 A 
ATOM     39  C   UNL     1      16.627   2.519   8.833  1.00  0.00     0.049 A 
ATOM     40  N   UNL     1      17.452   3.587  11.524  1.00  0.00    -0.248 NA
ATOM     41  C   UNL     1      16.705   1.596  12.488  1.00  0.00     0.031 C 
ATOM     42  C   UNL     1      16.201   2.069   7.506  1.00  0.00     0.029 A 
ATOM     43  N   UNL     1      17.166   3.760   8.606  1.00  0.00    -0.354 N 
ATOM     44  C   UNL     1      17.622   3.650  12.901  1.00  0.00     0.074 A 
ATOM     45  C   UNL     1      17.088   2.423  13.450  1.00  0.00     0.031 C 
ATOM     46  C   UNL     1      16.516   3.010   6.602  1.00  0.00     0.029 A 
ATOM     47  C   UNL     1      17.131   4.143   7.287  1.00  0.00     0.049 A 
ATOM     48  H   UNL     1      17.543   4.323   9.321  1.00  0.00     0.167 HD
ATOM     49  C   UNL     1      18.194   4.631  13.639  1.00  0.00     0.037 A 
ATOM     50  C   UNL     1      17.543   5.281   6.699  1.00  0.00     0.037 A 
ATOM     51  C   UNL     1      18.746   5.840  13.087  1.00  0.00     0.049 A 
ATOM     52  C   UNL     1      18.169   6.358   7.540  1.00  0.00     0.074 A 
ATOM     53  C   UNL     1      19.403   6.867  13.743  1.00  0.00     0.029 A 
ATOM     54  N   UNL     1      18.703   6.186  11.745  1.00  0.00    -0.354 N 
ATOM     55  N   UNL     1      18.386   6.376   8.833  1.00  0.00    -0.248 NA
ATOM     56  C   UNL     1      18.611   7.572   6.840  1.00  0.00     0.031 C 
ATOM     57  C   UNL     1      19.718   7.855  12.804  1.00  0.00     0.029 A 
ATOM     58  C   UNL     1      19.300   7.422  11.556  1.00  0.00     0.049 A 
ATOM     59  H   UNL     1      18.307   5.635  11.032  1.00  0.00     0.167 HD
ATOM     60  C   UNL     1      19.013   7.586   9.098  1.00  0.00     0.074 A 
ATOM     61  C   UNL     1      19.154   8.269   7.828  1.00  0.00     0.031 C 
ATOM     62  C   UNL     1      19.435   8.087  10.284  1.00  0.00     0.037 A 
BRANCH  49  63
ATOM     63  C   UNL     1      18.249   4.433  15.127  1.00  0.00     0.057 A 
ATOM     64  C   UNL     1      19.084   3.473  15.714  1.00  0.00     0.134 A 
ATOM     65  C   UNL     1      17.478   5.228  15.984  1.00  0.00     0.134 A 
ATOM     66  F   UNL     1      19.840   2.670  14.950  1.00  0.00    -0.206 F 
ATOM     67  C   UNL     1      19.127   3.290  17.098  1.00  0.00     0.040 A 
ATOM     68  C   UNL     1      17.534   5.073  17.370  1.00  0.00     0.040 A 
ATOM     69  F   UNL     1      16.661   6.170  15.489  1.00  0.00    -0.206 F 
ATOM     70  C   UNL     1      18.354   4.096  17.930  1.00  0.00     0.006 A 
ENDBRANCH  49  63
BRANCH  50  71
ATOM     71  C   UNL     1      17.401   5.450   5.231  1.00  0.00     0.057 A 
ATOM     72  C   UNL     1      18.523   5.443   4.393  1.00  0.00     0.134 A 
ATOM     73  C   UNL     1      16.148   5.622   4.631  1.00  0.00     0.134 A 
ATOM     74  F   UNL     1      19.751   5.300   4.912  1.00  0.00    -0.206 F 
ATOM     75  C   UNL     1      18.406   5.617   3.014  1.00  0.00     0.040 A 
ATOM     76  C   UNL     1      16.015   5.773   3.249  1.00  0.00     0.040 A 
ATOM     77  F   UNL     1      15.034   5.629   5.377  1.00  0.00    -0.206 F 
ATOM     78  C   UNL     1      17.147   5.778   2.438  1.00  0.00     0.006 A 
ENDBRANCH  50  71
BRANCH  62  79
ATOM     79  C   UNL     1      20.115   9.424  10.261  1.00  0.00     0.057 A 
ATOM     80  C   UNL     1      19.405  10.611  10.040  1.00  0.00     0.134 A 
ATOM     81  C   UNL     1      21.491   9.528  10.502  1.00  0.00     0.134 A 
ATOM     82  F   UNL     1      18.087  10.578   9.790  1.00  0.00    -0.206 F 
ATOM     83  C   UNL     1      20.044  11.852  10.036  1.00  0.00     0.040 A 
ATOM     84  C   UNL     1      22.136  10.765  10.527  1.00  0.00     0.040 A 
ATOM     85  F   UNL     1      22.228   8.430  10.729  1.00  0.00    -0.206 F 
ATOM     86  C   UNL     1      21.412  11.931  10.288  1.00  0.00     0.006 A 
ENDBRANCH  62  79
ENDBRANCH  36  37
ENDBRANCH  28  31
ENDBRANCH  26  27
ENDBRANCH  25  26
ENDBRANCH  24  25
ENDBRANCH  23  24
ENDBRANCH   1  23
TORSDOF 17
