REMARK SMILES CN(c1ccccc1C(=O)NCCCCCCNC(=O)c1ccc(-c2c3nc(c(-c4c(F)cccc4F)c4ccc([nH]4)c(-c4c(F)cccc4F)c4nc(c(-c5c(F)cccc5F)c5ccc2[nH]5)C=C4)C=C3)cc1)S(=O)(=O)c1ccc(I)cc1
REMARK SMILES IDX 14 1 13 2 12 3 11 4 9 5 10 6 8 8 3 9 4 10 5 11 7 12 6 13
REMARK SMILES IDX 2 14 1 15 75 16 76 17 77 18 78 19 79 20 84 21 80 22 83 23
REMARK SMILES IDX 81 24 82 25 15 26 16 27 17 28 18 29 19 30 20 32 21 33 22 34
REMARK SMILES IDX 74 35 23 36 73 37 24 38 25 39 26 40 67 41 27 42 72 43 66 44
REMARK SMILES IDX 68 45 28 46 71 47 65 48 64 49 29 51 55 52 38 53 54 54 39 55
REMARK SMILES IDX 42 56 53 57 69 58 40 59 41 60 52 62 70 63 43 64 30 65 31 66
REMARK SMILES IDX 36 67 32 68 33 69 35 70 37 71 34 72 56 73 57 74 62 75 58 76
REMARK SMILES IDX 59 77 61 78 63 79 60 80 44 81 45 82 50 83 46 84 47 85 49 86
REMARK SMILES IDX 51 87 48 88
REMARK H PARENT 11 7 18 31 68 50 42 61
REMARK Flexibility Score: inf
ROOT
ATOM      1  C   UNL     1      -0.007   1.920   3.174  1.00  0.00     0.002 C 
ENDROOT
BRANCH   1   2
ATOM      2  C   UNL     1      -0.610   2.463   1.869  1.00  0.00     0.021 C 
BRANCH   2   3
ATOM      3  C   UNL     1      -0.464   1.591   0.624  1.00  0.00     0.116 C 
BRANCH   3   4
ATOM      4  N   UNL     1      -1.037   0.273   0.758  1.00  0.00    -0.352 N 
ATOM      5  C   UNL     1      -1.294  -0.717  -0.153  1.00  0.00     0.253 C 
ATOM      6  O   UNL     1      -1.777  -1.758   0.304  1.00  0.00    -0.269 OA
ATOM      7  H   UNL     1      -1.292   0.042   1.680  1.00  0.00     0.163 HD
BRANCH   5   8
ATOM      8  C   UNL     1      -1.089  -0.650  -1.635  1.00  0.00     0.064 A 
ATOM      9  C   UNL     1       0.010  -0.118  -2.345  1.00  0.00     0.064 A 
ATOM     10  C   UNL     1       0.148  -0.415  -3.716  1.00  0.00     0.028 A 
ATOM     11  C   UNL     1      -0.849  -1.094  -4.416  1.00  0.00     0.002 A 
ATOM     12  C   UNL     1      -2.086  -1.332  -2.369  1.00  0.00     0.016 A 
ATOM     13  C   UNL     1      -1.980  -1.532  -3.746  1.00  0.00     0.001 A 
BRANCH   9  14
ATOM     14  N   UNL     1       1.048   0.622  -1.683  1.00  0.00    -0.269 N 
ATOM     15  C   UNL     1       2.072  -0.262  -1.044  1.00  0.00     0.164 C 
BRANCH  14  16
ATOM     16  S   UNL     1       1.753   2.011  -2.399  1.00  0.00     0.264 S 
ATOM     17  O   UNL     1       2.268   2.800  -1.296  1.00  0.00    -0.201 OA
ATOM     18  O   UNL     1       2.652   1.552  -3.442  1.00  0.00    -0.201 OA
BRANCH  16  19
ATOM     19  C   UNL     1       0.559   3.065  -3.214  1.00  0.00     0.088 A 
ATOM     20  C   UNL     1       1.074   4.274  -3.717  1.00  0.00     0.023 A 
ATOM     21  C   UNL     1      -0.772   2.739  -3.470  1.00  0.00     0.023 A 
ATOM     22  C   UNL     1       0.291   5.104  -4.524  1.00  0.00     0.016 A 
ATOM     23  C   UNL     1      -1.547   3.555  -4.306  1.00  0.00     0.016 A 
ATOM     24  C   UNL     1      -1.010   4.725  -4.842  1.00  0.00     0.013 A 
ATOM     25  I   UNL     1      -2.141   5.886  -6.140  1.00  0.00    -0.044 I 
ENDBRANCH  16  19
ENDBRANCH  14  16
ENDBRANCH   9  14
ENDBRANCH   5   8
ENDBRANCH   3   4
ENDBRANCH   2   3
ENDBRANCH   1   2
BRANCH   1  26
ATOM     26  C   UNL     1       1.377   1.262   3.134  1.00  0.00     0.002 C 
BRANCH  26  27
ATOM     27  C   UNL     1       2.533   2.033   2.496  1.00  0.00     0.021 C 
BRANCH  27  28
ATOM     28  C   UNL     1       2.711   3.490   2.900  1.00  0.00     0.116 C 
BRANCH  28  29
ATOM     29  N   UNL     1       2.956   3.676   4.319  1.00  0.00    -0.352 N 
ATOM     30  C   UNL     1       3.883   4.463   4.960  1.00  0.00     0.251 C 
ATOM     31  H   UNL     1       2.367   3.158   4.914  1.00  0.00     0.163 HD
ATOM     32  O   UNL     1       3.964   4.423   6.186  1.00  0.00    -0.269 OA
BRANCH  30  33
ATOM     33  C   UNL     1       4.815   5.332   4.199  1.00  0.00     0.039 A 
ATOM     34  C   UNL     1       6.150   5.398   4.617  1.00  0.00     0.014 A 
ATOM     35  C   UNL     1       4.396   6.100   3.110  1.00  0.00     0.014 A 
ATOM     36  C   UNL     1       7.073   6.173   3.907  1.00  0.00     0.010 A 
ATOM     37  C   UNL     1       5.327   6.827   2.368  1.00  0.00     0.010 A 
ATOM     38  C   UNL     1       6.675   6.868   2.756  1.00  0.00    -0.014 A 
BRANCH  38  39
ATOM     39  C   UNL     1       7.645   7.649   1.945  1.00  0.00     0.031 A 
ATOM     40  C   UNL     1       7.529   9.144   1.864  1.00  0.00     0.074 A 
ATOM     41  C   UNL     1       8.587   7.011   1.224  1.00  0.00     0.049 A 
ATOM     42  N   UNL     1       8.186   9.987   1.107  1.00  0.00    -0.248 NA
ATOM     43  C   UNL     1       6.527   9.774   2.738  1.00  0.00     0.031 C 
ATOM     44  C   UNL     1       8.801   5.563   1.200  1.00  0.00     0.029 A 
ATOM     45  N   UNL     1       9.531   7.502   0.357  1.00  0.00    -0.354 N 
ATOM     46  C   UNL     1       7.660  11.240   1.392  1.00  0.00     0.074 A 
ATOM     47  C   UNL     1       6.613  11.045   2.374  1.00  0.00     0.031 C 
ATOM     48  C   UNL     1       9.820   5.284   0.370  1.00  0.00     0.029 A 
ATOM     49  C   UNL     1      10.303   6.526  -0.226  1.00  0.00     0.049 A 
ATOM     50  H   UNL     1       9.645   8.462   0.171  1.00  0.00     0.167 HD
ATOM     51  C   UNL     1       8.021  12.444   0.889  1.00  0.00     0.037 A 
ATOM     52  C   UNL     1      11.278   6.620  -1.150  1.00  0.00     0.037 A 
ATOM     53  C   UNL     1       9.082  12.647  -0.061  1.00  0.00     0.049 A 
ATOM     54  C   UNL     1      11.655   7.966  -1.699  1.00  0.00     0.074 A 
ATOM     55  C   UNL     1       9.545  13.836  -0.598  1.00  0.00     0.029 A 
ATOM     56  N   UNL     1       9.851  11.633  -0.612  1.00  0.00    -0.354 N 
ATOM     57  N   UNL     1      11.161   9.144  -1.408  1.00  0.00    -0.248 NA
ATOM     58  C   UNL     1      12.724   7.995  -2.709  1.00  0.00     0.031 C 
ATOM     59  C   UNL     1      10.581  13.540  -1.490  1.00  0.00     0.029 A 
ATOM     60  C   UNL     1      10.780  12.169  -1.488  1.00  0.00     0.049 A 
ATOM     61  H   UNL     1       9.751  10.675  -0.410  1.00  0.00     0.167 HD
ATOM     62  C   UNL     1      11.874  10.055  -2.175  1.00  0.00     0.074 A 
ATOM     63  C   UNL     1      12.837   9.295  -2.945  1.00  0.00     0.031 C 
ATOM     64  C   UNL     1      11.743  11.402  -2.232  1.00  0.00     0.037 A 
BRANCH  51  65
ATOM     65  C   UNL     1       7.254  13.641   1.361  1.00  0.00     0.057 A 
ATOM     66  C   UNL     1       7.443  14.179   2.640  1.00  0.00     0.134 A 
ATOM     67  C   UNL     1       6.332  14.276   0.520  1.00  0.00     0.134 A 
ATOM     68  F   UNL     1       8.302  13.607   3.497  1.00  0.00    -0.206 F 
ATOM     69  C   UNL     1       6.726  15.294   3.075  1.00  0.00     0.040 A 
ATOM     70  C   UNL     1       5.624  15.405   0.936  1.00  0.00     0.040 A 
ATOM     71  F   UNL     1       6.108  13.813  -0.719  1.00  0.00    -0.206 F 
ATOM     72  C   UNL     1       5.816  15.913   2.219  1.00  0.00     0.006 A 
ENDBRANCH  51  65
BRANCH  52  73
ATOM     73  C   UNL     1      11.981   5.398  -1.607  1.00  0.00     0.057 A 
ATOM     74  C   UNL     1      13.289   5.126  -1.191  1.00  0.00     0.134 A 
ATOM     75  C   UNL     1      11.369   4.478  -2.466  1.00  0.00     0.134 A 
ATOM     76  F   UNL     1      13.931   5.984  -0.385  1.00  0.00    -0.206 F 
ATOM     77  C   UNL     1      13.969   3.986  -1.619  1.00  0.00     0.040 A 
ATOM     78  C   UNL     1      12.031   3.325  -2.889  1.00  0.00     0.040 A 
ATOM     79  F   UNL     1      10.117   4.685  -2.898  1.00  0.00    -0.206 F 
ATOM     80  C   UNL     1      13.337   3.079  -2.468  1.00  0.00     0.006 A 
ENDBRANCH  52  73
BRANCH  64  81
ATOM     81  C   UNL     1      12.690  12.146  -3.123  1.00  0.00     0.057 A 
ATOM     82  C   UNL     1      12.512  12.193  -4.510  1.00  0.00     0.134 A 
ATOM     83  C   UNL     1      13.764  12.861  -2.579  1.00  0.00     0.134 A 
ATOM     84  F   UNL     1      11.509  11.517  -5.090  1.00  0.00    -0.206 F 
ATOM     85  C   UNL     1      13.378  12.920  -5.329  1.00  0.00     0.040 A 
ATOM     86  C   UNL     1      14.626  13.604  -3.385  1.00  0.00     0.040 A 
ATOM     87  F   UNL     1      13.984  12.857  -1.256  1.00  0.00    -0.206 F 
ATOM     88  C   UNL     1      14.435  13.633  -4.766  1.00  0.00     0.006 A 
ENDBRANCH  64  81
ENDBRANCH  38  39
ENDBRANCH  30  33
ENDBRANCH  28  29
ENDBRANCH  27  28
ENDBRANCH  26  27
ENDBRANCH   1  26
TORSDOF 16
