REMARK SMILES CC(C)Cc1ccc([C@H](CF)C(=O)NCCCCCCNC(=O)c2ccc(-c3c4nc(c(-c5c(F)cccc5F)c5ccc([nH]5)c(-c5c(F)cccc5F)c5nc(c(-c6c(F)cccc6F)c6ccc3[nH]6)C=C5)C=C4)cc2)cc1
REMARK SMILES IDX 17 1 16 2 15 3 14 4 12 5 13 6 9 8 8 9 5 10 6 11 79 12 7 13
REMARK SMILES IDX 78 14 4 15 2 16 1 17 3 18 10 19 11 20 18 21 19 22 20 23
REMARK SMILES IDX 21 24 22 25 23 27 24 28 25 29 77 30 26 31 76 32 27 33 28 34
REMARK SMILES IDX 29 35 70 36 30 37 75 38 69 39 71 40 31 41 74 42 68 43 67 44
REMARK SMILES IDX 32 46 58 47 41 48 57 49 42 50 45 51 56 52 72 53 43 54 44 55
REMARK SMILES IDX 55 57 73 58 46 59 33 60 34 61 39 62 35 63 36 64 38 65 40 66
REMARK SMILES IDX 37 67 59 68 60 69 65 70 61 71 62 72 64 73 66 74 63 75 47 76
REMARK SMILES IDX 48 77 53 78 49 79 50 80 52 81 54 82 51 83
REMARK H PARENT 14 7 21 26 71 45 45 56
REMARK Flexibility Score: inf
ROOT
ATOM      1  C   UNL     1      -4.985   5.419   3.015  1.00  0.00     0.002 C 
ENDROOT
BRANCH   1   2
ATOM      2  C   UNL     1      -3.863   4.417   2.739  1.00  0.00     0.021 C 
BRANCH   2   3
ATOM      3  C   UNL     1      -3.277   3.753   3.981  1.00  0.00     0.116 C 
BRANCH   3   4
ATOM      4  N   UNL     1      -4.135   2.724   4.524  1.00  0.00    -0.355 N 
ATOM      5  C   UNL     1      -3.852   1.442   4.884  1.00  0.00     0.230 C 
ATOM      6  O   UNL     1      -4.777   0.791   5.387  1.00  0.00    -0.274 OA
ATOM      7  H   UNL     1      -5.073   2.993   4.655  1.00  0.00     0.163 HD
BRANCH   5   8
ATOM      8  C   UNL     1      -2.482   0.785   4.691  1.00  0.00     0.139 C 
BRANCH   8   9
ATOM      9  C   UNL     1      -1.383   1.349   5.584  1.00  0.00    -0.033 A 
ATOM     10  C   UNL     1       0.540   2.396   7.386  1.00  0.00    -0.048 A 
ATOM     11  C   UNL     1       0.456   2.872   6.075  1.00  0.00     0.004 A 
ATOM     12  C   UNL     1      -0.307   1.354   7.773  1.00  0.00     0.004 A 
ATOM     13  C   UNL     1      -0.467   2.326   5.174  1.00  0.00     0.005 A 
ATOM     14  C   UNL     1      -1.274   0.861   6.896  1.00  0.00     0.005 A 
BRANCH  10  15
ATOM     15  C   UNL     1       1.511   3.002   8.371  1.00  0.00     0.038 C 
BRANCH  15  16
ATOM     16  C   UNL     1       0.882   4.066   9.297  1.00  0.00    -0.013 C 
ATOM     17  C   UNL     1      -0.149   3.477  10.265  1.00  0.00     0.008 C 
ATOM     18  C   UNL     1       1.982   4.766  10.100  1.00  0.00     0.008 C 
ENDBRANCH  15  16
ENDBRANCH  10  15
ENDBRANCH   8   9
BRANCH   8  19
ATOM     19  C   UNL     1      -2.136   0.514   3.228  1.00  0.00     0.232 C 
ATOM     20  F   UNL     1      -2.200   1.625   2.456  1.00  0.00    -0.250 F 
ENDBRANCH   8  19
ENDBRANCH   5   8
ENDBRANCH   3   4
ENDBRANCH   2   3
ENDBRANCH   1   2
BRANCH   1  21
ATOM     21  C   UNL     1      -4.634   6.550   3.989  1.00  0.00     0.002 C 
BRANCH  21  22
ATOM     22  C   UNL     1      -3.353   7.326   3.674  1.00  0.00     0.021 C 
BRANCH  22  23
ATOM     23  C   UNL     1      -3.283   7.926   2.274  1.00  0.00     0.116 C 
BRANCH  23  24
ATOM     24  N   UNL     1      -4.367   8.858   2.013  1.00  0.00    -0.352 N 
ATOM     25  C   UNL     1      -4.317  10.155   1.567  1.00  0.00     0.251 C 
ATOM     26  H   UNL     1      -5.271   8.507   2.182  1.00  0.00     0.163 HD
ATOM     27  O   UNL     1      -5.330  10.845   1.564  1.00  0.00    -0.269 OA
BRANCH  25  28
ATOM     28  C   UNL     1      -3.034  10.730   1.109  1.00  0.00     0.039 A 
ATOM     29  C   UNL     1      -2.685  12.015   1.531  1.00  0.00     0.014 A 
ATOM     30  C   UNL     1      -2.185  10.014   0.260  1.00  0.00     0.014 A 
ATOM     31  C   UNL     1      -1.457  12.559   1.150  1.00  0.00     0.010 A 
ATOM     32  C   UNL     1      -0.931  10.527  -0.058  1.00  0.00     0.010 A 
ATOM     33  C   UNL     1      -0.555  11.807   0.380  1.00  0.00    -0.014 A 
BRANCH  33  34
ATOM     34  C   UNL     1       0.783  12.342   0.021  1.00  0.00     0.031 A 
ATOM     35  C   UNL     1       1.139  12.584  -1.419  1.00  0.00     0.074 A 
ATOM     36  C   UNL     1       1.698  12.552   0.988  1.00  0.00     0.049 A 
ATOM     37  N   UNL     1       2.276  12.979  -1.935  1.00  0.00    -0.248 NA
ATOM     38  C   UNL     1       0.088  12.322  -2.415  1.00  0.00     0.031 C 
ATOM     39  C   UNL     1       1.488  12.316   2.417  1.00  0.00     0.029 A 
ATOM     40  N   UNL     1       2.992  13.001   0.912  1.00  0.00    -0.354 N 
ATOM     41  C   UNL     1       2.079  13.001  -3.310  1.00  0.00     0.074 A 
ATOM     42  C   UNL     1       0.735  12.526  -3.552  1.00  0.00     0.031 C 
ATOM     43  C   UNL     1       2.606  12.643   3.085  1.00  0.00     0.029 A 
ATOM     44  C   UNL     1       3.623  13.070   2.131  1.00  0.00     0.049 A 
ATOM     45  H   UNL     1       3.428  13.249   0.065  1.00  0.00     0.167 HD
ATOM     46  C   UNL     1       2.934  13.402  -4.281  1.00  0.00     0.037 A 
ATOM     47  C   UNL     1       4.883  13.429   2.442  1.00  0.00     0.037 A 
ATOM     48  C   UNL     1       4.265  13.892  -4.035  1.00  0.00     0.049 A 
ATOM     49  C   UNL     1       5.819  13.852   1.343  1.00  0.00     0.074 A 
ATOM     50  C   UNL     1       5.189  14.373  -4.946  1.00  0.00     0.029 A 
ATOM     51  N   UNL     1       4.864  13.958  -2.786  1.00  0.00    -0.354 N 
ATOM     52  N   UNL     1       5.599  13.930   0.053  1.00  0.00    -0.248 NA
ATOM     53  C   UNL     1       7.178  14.242   1.745  1.00  0.00     0.031 C 
ATOM     54  C   UNL     1       6.365  14.683  -4.255  1.00  0.00     0.029 A 
ATOM     55  C   UNL     1       6.154  14.448  -2.906  1.00  0.00     0.049 A 
ATOM     56  H   UNL     1       4.436  13.695  -1.939  1.00  0.00     0.167 HD
ATOM     57  C   UNL     1       6.777  14.408  -0.506  1.00  0.00     0.074 A 
ATOM     58  C   UNL     1       7.705  14.613   0.587  1.00  0.00     0.031 C 
ATOM     59  C   UNL     1       7.064  14.656  -1.808  1.00  0.00     0.037 A 
BRANCH  46  60
ATOM     60  C   UNL     1       2.454  13.327  -5.702  1.00  0.00     0.057 A 
ATOM     61  C   UNL     1       1.453  14.177  -6.192  1.00  0.00     0.134 A 
ATOM     62  C   UNL     1       3.022  12.416  -6.603  1.00  0.00     0.134 A 
ATOM     63  F   UNL     1       0.858  15.065  -5.380  1.00  0.00    -0.206 F 
ATOM     64  C   UNL     1       1.015  14.105  -7.516  1.00  0.00     0.040 A 
ATOM     65  C   UNL     1       2.614  12.356  -7.937  1.00  0.00     0.040 A 
ATOM     66  F   UNL     1       3.990  11.578  -6.204  1.00  0.00    -0.206 F 
ATOM     67  C   UNL     1       1.602  13.197  -8.394  1.00  0.00     0.006 A 
ENDBRANCH  46  60
BRANCH  47  68
ATOM     68  C   UNL     1       5.332  13.421   3.858  1.00  0.00     0.057 A 
ATOM     69  C   UNL     1       5.610  14.614   4.535  1.00  0.00     0.134 A 
ATOM     70  C   UNL     1       5.503  12.225   4.565  1.00  0.00     0.134 A 
ATOM     71  F   UNL     1       5.482  15.792   3.905  1.00  0.00    -0.206 F 
ATOM     72  C   UNL     1       6.064  14.619   5.854  1.00  0.00     0.040 A 
ATOM     73  C   UNL     1       5.931  12.215   5.894  1.00  0.00     0.040 A 
ATOM     74  F   UNL     1       5.246  11.047   3.978  1.00  0.00    -0.206 F 
ATOM     75  C   UNL     1       6.221  13.416   6.540  1.00  0.00     0.006 A 
ENDBRANCH  47  68
BRANCH  59  76
ATOM     76  C   UNL     1       8.421  15.217  -2.119  1.00  0.00     0.057 A 
ATOM     77  C   UNL     1       9.585  14.444  -2.023  1.00  0.00     0.134 A 
ATOM     78  C   UNL     1       8.559  16.539  -2.563  1.00  0.00     0.134 A 
ATOM     79  F   UNL     1       9.524  13.175  -1.591  1.00  0.00    -0.206 F 
ATOM     80  C   UNL     1      10.839  14.972  -2.334  1.00  0.00     0.040 A 
ATOM     81  C   UNL     1       9.803  17.069  -2.906  1.00  0.00     0.040 A 
ATOM     82  F   UNL     1       7.484  17.332  -2.688  1.00  0.00    -0.206 F 
ATOM     83  C   UNL     1      10.949  16.286  -2.785  1.00  0.00     0.006 A 
ENDBRANCH  59  76
ENDBRANCH  33  34
ENDBRANCH  25  28
ENDBRANCH  23  24
ENDBRANCH  22  23
ENDBRANCH  21  22
ENDBRANCH   1  21
TORSDOF 17
