REMARK SMILES CC1(C)CCC[C@H]1NC(=O)N[C@@H]1COC[C@@]1(C)C(=O)NCCCCCCNC(=O)c1ccc(-c2c3nc(c(-c4c(F)cccc4F)c4ccc([nH]4)c(-c4c(F)cccc4F)c4nc(c(-c5c(F)cccc5F)c5ccc2[nH]5)C=C4)C=C3)cc1
REMARK SMILES IDX 23 1 22 2 21 3 20 4 18 5 19 6 16 8 12 9 13 10 14 11 15 12
REMARK SMILES IDX 17 13 11 14 8 15 9 16 10 18 7 20 1 21 2 22 3 23 4 24 5 25
REMARK SMILES IDX 6 26 24 27 25 28 26 29 27 30 28 31 29 33 30 34 31 35 83 36
REMARK SMILES IDX 32 37 82 38 33 39 34 40 35 41 76 42 36 43 81 44 75 45 77 46
REMARK SMILES IDX 37 47 80 48 74 49 73 50 38 52 64 53 47 54 63 55 48 56 51 57
REMARK SMILES IDX 62 58 78 59 49 60 50 61 61 63 79 64 52 65 39 66 40 67 45 68
REMARK SMILES IDX 41 69 42 70 44 71 46 72 43 73 65 74 66 75 71 76 67 77 68 78
REMARK SMILES IDX 70 79 72 80 69 81 53 82 54 83 59 84 55 85 56 86 58 87 60 88
REMARK SMILES IDX 57 89
REMARK H PARENT 20 7 8 17 11 19 27 32 77 51 51 62
REMARK Flexibility Score: inf
ROOT
ATOM      1  C   UNL     1       5.480   2.090   2.631  1.00  0.00     0.002 C 
ENDROOT
BRANCH   1   2
ATOM      2  C   UNL     1       3.997   2.162   2.270  1.00  0.00     0.021 C 
BRANCH   2   3
ATOM      3  C   UNL     1       3.492   3.515   1.762  1.00  0.00     0.116 C 
BRANCH   3   4
ATOM      4  N   UNL     1       3.845   3.838   0.392  1.00  0.00    -0.355 N 
ATOM      5  C   UNL     1       3.121   3.769  -0.765  1.00  0.00     0.230 C 
ATOM      6  O   UNL     1       3.615   4.322  -1.752  1.00  0.00    -0.274 OA
ATOM      7  H   UNL     1       4.767   4.164   0.276  1.00  0.00     0.163 HD
BRANCH   5   8
ATOM      8  C   UNL     1       1.807   2.978  -0.862  1.00  0.00     0.092 C 
ATOM      9  C   UNL     1       0.578   3.657  -0.223  1.00  0.00     0.127 C 
ATOM     10  C   UNL     1      -0.546   3.598  -1.254  1.00  0.00     0.186 C 
ATOM     11  O   UNL     1      -0.074   2.788  -2.331  1.00  0.00    -0.378 OA
ATOM     12  C   UNL     1       1.357   2.925  -2.340  1.00  0.00     0.179 C 
ATOM     13  C   UNL     1       2.108   1.560  -0.423  1.00  0.00     0.026 C 
BRANCH   9  14
ATOM     14  N   UNL     1       0.145   3.313   1.139  1.00  0.00    -0.332 N 
ATOM     15  N   UNL     1      -0.621   1.078   1.479  1.00  0.00    -0.335 N 
ATOM     16  C   UNL     1      -0.312   2.307   1.876  1.00  0.00     0.315 C 
ATOM     17  H   UNL     1      -0.728   0.472   2.247  1.00  0.00     0.165 HD
ATOM     18  O   UNL     1      -0.434   2.544   3.083  1.00  0.00    -0.249 OA
ATOM     19  H   UNL     1       0.219   4.113   1.707  1.00  0.00     0.165 HD
BRANCH  15  20
ATOM     20  C   UNL     1      -0.846   0.377   0.216  1.00  0.00     0.089 C 
ATOM     21  C   UNL     1       1.043  -1.275   1.067  1.00  0.00     0.013 C 
ATOM     22  C   UNL     1      -0.192  -1.053   0.176  1.00  0.00    -0.015 C 
ATOM     23  C   UNL     1       0.174  -1.453  -1.276  1.00  0.00     0.013 C 
ATOM     24  C   UNL     1      -1.331  -1.957   0.676  1.00  0.00     0.008 C 
ATOM     25  C   UNL     1      -2.568  -1.388   0.011  1.00  0.00     0.003 C 
ATOM     26  C   UNL     1      -2.365   0.124   0.052  1.00  0.00     0.025 C 
ENDBRANCH  15  20
ENDBRANCH   9  14
ENDBRANCH   5   8
ENDBRANCH   3   4
ENDBRANCH   2   3
ENDBRANCH   1   2
BRANCH   1  27
ATOM     27  C   UNL     1       5.958   3.106   3.669  1.00  0.00     0.002 C 
BRANCH  27  28
ATOM     28  C   UNL     1       5.153   3.145   4.971  1.00  0.00     0.021 C 
BRANCH  28  29
ATOM     29  C   UNL     1       5.157   1.840   5.764  1.00  0.00     0.116 C 
BRANCH  29  30
ATOM     30  N   UNL     1       6.496   1.492   6.213  1.00  0.00    -0.352 N 
ATOM     31  C   UNL     1       7.032   1.522   7.476  1.00  0.00     0.251 C 
ATOM     32  H   UNL     1       7.110   1.190   5.505  1.00  0.00     0.163 HD
ATOM     33  O   UNL     1       8.248   1.473   7.629  1.00  0.00    -0.269 OA
BRANCH  31  34
ATOM     34  C   UNL     1       6.147   1.605   8.658  1.00  0.00     0.039 A 
ATOM     35  C   UNL     1       6.500   2.452   9.713  1.00  0.00     0.014 A 
ATOM     36  C   UNL     1       5.003   0.808   8.750  1.00  0.00     0.014 A 
ATOM     37  C   UNL     1       5.679   2.533  10.841  1.00  0.00     0.010 A 
ATOM     38  C   UNL     1       4.152   0.938   9.845  1.00  0.00     0.010 A 
ATOM     39  C   UNL     1       4.487   1.794  10.905  1.00  0.00    -0.014 A 
BRANCH  39  40
ATOM     40  C   UNL     1       3.583   1.889  12.078  1.00  0.00     0.031 A 
ATOM     41  C   UNL     1       3.366   0.693  12.963  1.00  0.00     0.074 A 
ATOM     42  C   UNL     1       2.912   3.032  12.310  1.00  0.00     0.049 A 
ATOM     43  N   UNL     1       2.565   0.556  13.989  1.00  0.00    -0.248 NA
ATOM     44  C   UNL     1       4.133  -0.519  12.634  1.00  0.00     0.031 C 
ATOM     45  C   UNL     1       3.006   4.248  11.502  1.00  0.00     0.029 A 
ATOM     46  N   UNL     1       2.007   3.353  13.290  1.00  0.00    -0.354 N 
ATOM     47  C   UNL     1       2.721  -0.756  14.418  1.00  0.00     0.074 A 
ATOM     48  C   UNL     1       3.653  -1.389  13.510  1.00  0.00     0.031 C 
ATOM     49  C   UNL     1       2.210   5.191  12.031  1.00  0.00     0.029 A 
ATOM     50  C   UNL     1       1.522   4.635  13.193  1.00  0.00     0.049 A 
ATOM     51  H   UNL     1       1.731   2.725  13.997  1.00  0.00     0.167 HD
ATOM     52  C   UNL     1       2.158  -1.371  15.486  1.00  0.00     0.037 A 
ATOM     53  C   UNL     1       0.622   5.286  13.952  1.00  0.00     0.037 A 
ATOM     54  C   UNL     1       1.246  -0.732  16.399  1.00  0.00     0.049 A 
ATOM     55  C   UNL     1      -0.002   4.578  15.123  1.00  0.00     0.074 A 
ATOM     56  C   UNL     1       0.661  -1.252  17.540  1.00  0.00     0.029 A 
ATOM     57  N   UNL     1       0.786   0.571  16.271  1.00  0.00    -0.354 N 
ATOM     58  N   UNL     1       0.200   3.356  15.553  1.00  0.00    -0.248 NA
ATOM     59  C   UNL     1      -0.975   5.342  15.915  1.00  0.00     0.031 C 
ATOM     60  C   UNL     1      -0.184  -0.276  18.081  1.00  0.00     0.029 A 
ATOM     61  C   UNL     1      -0.091   0.866  17.302  1.00  0.00     0.049 A 
ATOM     62  H   UNL     1       1.045   1.193  15.554  1.00  0.00     0.167 HD
ATOM     63  C   UNL     1      -0.598   3.213  16.680  1.00  0.00     0.074 A 
ATOM     64  C   UNL     1      -1.278   4.478  16.874  1.00  0.00     0.031 C 
ATOM     65  C   UNL     1      -0.754   2.132  17.483  1.00  0.00     0.037 A 
BRANCH  52  66
ATOM     66  C   UNL     1       2.517  -2.809  15.721  1.00  0.00     0.057 A 
ATOM     67  C   UNL     1       3.797  -3.189  16.149  1.00  0.00     0.134 A 
ATOM     68  C   UNL     1       1.571  -3.825  15.536  1.00  0.00     0.134 A 
ATOM     69  F   UNL     1       4.753  -2.267  16.334  1.00  0.00    -0.206 F 
ATOM     70  C   UNL     1       4.131  -4.529  16.354  1.00  0.00     0.040 A 
ATOM     71  C   UNL     1       1.886  -5.167  15.764  1.00  0.00     0.040 A 
ATOM     72  F   UNL     1       0.326  -3.533  15.134  1.00  0.00    -0.206 F 
ATOM     73  C   UNL     1       3.172  -5.522  16.166  1.00  0.00     0.006 A 
ENDBRANCH  52  66
BRANCH  53  74
ATOM     74  C   UNL     1       0.278   6.697  13.648  1.00  0.00     0.057 A 
ATOM     75  C   UNL     1       0.700   7.735  14.486  1.00  0.00     0.134 A 
ATOM     76  C   UNL     1      -0.475   7.043  12.520  1.00  0.00     0.134 A 
ATOM     77  F   UNL     1       1.408   7.464  15.592  1.00  0.00    -0.206 F 
ATOM     78  C   UNL     1       0.373   9.066  14.223  1.00  0.00     0.040 A 
ATOM     79  C   UNL     1      -0.789   8.372  12.231  1.00  0.00     0.040 A 
ATOM     80  F   UNL     1      -0.903   6.095  11.674  1.00  0.00    -0.206 F 
ATOM     81  C   UNL     1      -0.369   9.388  13.088  1.00  0.00     0.006 A 
ENDBRANCH  53  74
BRANCH  65  82
ATOM     82  C   UNL     1      -1.670   2.282  18.661  1.00  0.00     0.057 A 
ATOM     83  C   UNL     1      -3.061   2.333  18.515  1.00  0.00     0.134 A 
ATOM     84  C   UNL     1      -1.152   2.341  19.962  1.00  0.00     0.134 A 
ATOM     85  F   UNL     1      -3.618   2.296  17.294  1.00  0.00    -0.206 F 
ATOM     86  C   UNL     1      -3.906   2.460  19.619  1.00  0.00     0.040 A 
ATOM     87  C   UNL     1      -1.988   2.442  21.075  1.00  0.00     0.040 A 
ATOM     88  F   UNL     1       0.172   2.289  20.172  1.00  0.00    -0.206 F 
ATOM     89  C   UNL     1      -3.369   2.508  20.904  1.00  0.00     0.006 A 
ENDBRANCH  65  82
ENDBRANCH  39  40
ENDBRANCH  31  34
ENDBRANCH  29  30
ENDBRANCH  28  29
ENDBRANCH  27  28
ENDBRANCH   1  27
TORSDOF 15
