REMARK SMILES O=C(NCCCCCCNC(=O)c1cccnc1C(=O)Nc1ccc([N+](=O)[O-])cc1)c1ccc(-c2c3nc(c(-c4c(F)cccc4F)c4ccc([nH]4)c(-c4c(F)cccc4F)c4nc(c(-c5c(F)cccc5F)c5ccc2[nH]5)C=C4)C=C3)cc1
REMARK SMILES IDX 7 1 6 2 5 3 4 4 3 5 1 6 2 7 31 9 32 10 84 11 33 12 83 13
REMARK SMILES IDX 34 14 35 15 36 16 77 17 37 18 82 19 76 20 78 21 38 22 81 23
REMARK SMILES IDX 75 24 74 25 39 27 65 28 48 29 64 30 49 31 52 32 63 33 79 34
REMARK SMILES IDX 50 35 51 36 62 38 80 39 53 40 40 41 41 42 46 43 42 44 43 45
REMARK SMILES IDX 45 46 47 47 44 48 66 49 67 50 72 51 68 52 69 53 71 54 73 55
REMARK SMILES IDX 70 56 54 57 55 58 60 59 56 60 57 61 59 62 61 63 58 64 8 65
REMARK SMILES IDX 9 66 10 67 11 68 12 70 13 71 14 72 18 73 15 74 17 75 16 76
REMARK SMILES IDX 19 77 20 78 21 79 22 81 23 82 30 83 24 84 29 85 25 86 26 87
REMARK SMILES IDX 27 88 28 89
REMARK H PARENT 3 8 78 26 52 37 10 69 21 80
REMARK Flexibility Score: inf
ROOT
ATOM      1  C   UNL     1       5.689   3.341   1.999  1.00  0.00     0.002 C 
ENDROOT
BRANCH   1   2
ATOM      2  C   UNL     1       4.777   3.581   0.794  1.00  0.00     0.002 C 
BRANCH   2   3
ATOM      3  C   UNL     1       4.947   2.586  -0.348  1.00  0.00     0.021 C 
BRANCH   3   4
ATOM      4  C   UNL     1       4.524   1.171   0.001  1.00  0.00     0.116 C 
BRANCH   4   5
ATOM      5  N   UNL     1       3.091   1.025   0.201  1.00  0.00    -0.352 N 
ATOM      6  O   UNL     1       1.103  -0.053  -0.010  1.00  0.00    -0.269 OA
ATOM      7  C   UNL     1       2.317  -0.067  -0.128  1.00  0.00     0.251 C 
ATOM      8  H   UNL     1       2.624   1.786   0.614  1.00  0.00     0.163 HD
BRANCH   7   9
ATOM      9  C   UNL     1       3.010  -1.257  -0.665  1.00  0.00     0.039 A 
ATOM     10  C   UNL     1       4.105  -1.783   0.023  1.00  0.00     0.014 A 
ATOM     11  C   UNL     1       2.617  -1.784  -1.897  1.00  0.00     0.014 A 
ATOM     12  C   UNL     1       4.890  -2.752  -0.581  1.00  0.00     0.010 A 
ATOM     13  C   UNL     1       3.352  -2.830  -2.458  1.00  0.00     0.010 A 
ATOM     14  C   UNL     1       4.500  -3.311  -1.810  1.00  0.00    -0.014 A 
BRANCH  14  15
ATOM     15  C   UNL     1       5.236  -4.493  -2.317  1.00  0.00     0.031 A 
ATOM     16  C   UNL     1       6.009  -4.455  -3.602  1.00  0.00     0.074 A 
ATOM     17  C   UNL     1       5.193  -5.615  -1.571  1.00  0.00     0.049 A 
ATOM     18  N   UNL     1       6.684  -5.418  -4.177  1.00  0.00    -0.248 NA
ATOM     19  C   UNL     1       6.027  -3.185  -4.343  1.00  0.00     0.031 C 
ATOM     20  C   UNL     1       4.452  -5.760  -0.313  1.00  0.00     0.029 A 
ATOM     21  N   UNL     1       5.786  -6.837  -1.746  1.00  0.00    -0.354 N 
ATOM     22  C   UNL     1       7.185  -4.882  -5.356  1.00  0.00     0.074 A 
ATOM     23  C   UNL     1       6.732  -3.509  -5.421  1.00  0.00     0.031 C 
ATOM     24  C   UNL     1       4.667  -6.982   0.189  1.00  0.00     0.029 A 
ATOM     25  C   UNL     1       5.492  -7.732  -0.747  1.00  0.00     0.049 A 
ATOM     26  H   UNL     1       6.365  -7.052  -2.512  1.00  0.00     0.167 HD
ATOM     27  C   UNL     1       7.951  -5.491  -6.293  1.00  0.00     0.037 A 
ATOM     28  C   UNL     1       5.818  -9.029  -0.614  1.00  0.00     0.037 A 
ATOM     29  C   UNL     1       8.409  -6.855  -6.202  1.00  0.00     0.049 A 
ATOM     30  C   UNL     1       6.646  -9.675  -1.682  1.00  0.00     0.074 A 
ATOM     31  C   UNL     1       9.241  -7.543  -7.070  1.00  0.00     0.029 A 
ATOM     32  N   UNL     1       8.069  -7.740  -5.190  1.00  0.00    -0.354 N 
ATOM     33  N   UNL     1       7.153  -9.140  -2.766  1.00  0.00    -0.248 NA
ATOM     34  C   UNL     1       6.939 -11.103  -1.516  1.00  0.00     0.031 C 
ATOM     35  C   UNL     1       9.362  -8.858  -6.610  1.00  0.00     0.029 A 
ATOM     36  C   UNL     1       8.646  -8.977  -5.430  1.00  0.00     0.049 A 
ATOM     37  H   UNL     1       7.502  -7.522  -4.415  1.00  0.00     0.167 HD
ATOM     38  C   UNL     1       7.828 -10.165  -3.411  1.00  0.00     0.074 A 
ATOM     39  C   UNL     1       7.694 -11.343  -2.578  1.00  0.00     0.031 C 
ATOM     40  C   UNL     1       8.492 -10.137  -4.592  1.00  0.00     0.037 A 
BRANCH  27  41
ATOM     41  C   UNL     1       8.336  -4.709  -7.515  1.00  0.00     0.057 A 
ATOM     42  C   UNL     1       9.319  -3.714  -7.480  1.00  0.00     0.134 A 
ATOM     43  C   UNL     1       7.785  -5.029  -8.764  1.00  0.00     0.134 A 
ATOM     44  F   UNL     1       9.882  -3.354  -6.316  1.00  0.00    -0.206 F 
ATOM     45  C   UNL     1       9.741  -3.063  -8.642  1.00  0.00     0.040 A 
ATOM     46  C   UNL     1       8.211  -4.399  -9.935  1.00  0.00     0.040 A 
ATOM     47  F   UNL     1       6.843  -5.978  -8.869  1.00  0.00    -0.206 F 
ATOM     48  C   UNL     1       9.194  -3.413  -9.876  1.00  0.00     0.006 A 
ENDBRANCH  27  41
BRANCH  28  49
ATOM     49  C   UNL     1       5.319  -9.803   0.549  1.00  0.00     0.057 A 
ATOM     50  C   UNL     1       6.191 -10.285   1.530  1.00  0.00     0.134 A 
ATOM     51  C   UNL     1       3.954 -10.079   0.706  1.00  0.00     0.134 A 
ATOM     52  F   UNL     1       7.510 -10.065   1.428  1.00  0.00    -0.206 F 
ATOM     53  C   UNL     1       5.728 -11.031   2.615  1.00  0.00     0.040 A 
ATOM     54  C   UNL     1       3.473 -10.796   1.801  1.00  0.00     0.040 A 
ATOM     55  F   UNL     1       3.065  -9.635  -0.195  1.00  0.00    -0.206 F 
ATOM     56  C   UNL     1       4.364 -11.283   2.755  1.00  0.00     0.006 A 
ENDBRANCH  28  49
BRANCH  40  57
ATOM     57  C   UNL     1       9.126 -11.421  -5.035  1.00  0.00     0.057 A 
ATOM     58  C   UNL     1       8.359 -12.494  -5.505  1.00  0.00     0.134 A 
ATOM     59  C   UNL     1      10.517 -11.580  -5.002  1.00  0.00     0.134 A 
ATOM     60  F   UNL     1       7.021 -12.408  -5.542  1.00  0.00    -0.206 F 
ATOM     61  C   UNL     1       8.952 -13.693  -5.902  1.00  0.00     0.040 A 
ATOM     62  C   UNL     1      11.123 -12.764  -5.422  1.00  0.00     0.040 A 
ATOM     63  F   UNL     1      11.307 -10.587  -4.568  1.00  0.00    -0.206 F 
ATOM     64  C   UNL     1      10.339 -13.827  -5.866  1.00  0.00     0.006 A 
ENDBRANCH  40  57
ENDBRANCH  14  15
ENDBRANCH   7   9
ENDBRANCH   4   5
ENDBRANCH   3   4
ENDBRANCH   2   3
ENDBRANCH   1   2
BRANCH   1  65
ATOM     65  C   UNL     1       7.193   3.587   1.819  1.00  0.00     0.021 C 
BRANCH  65  66
ATOM     66  C   UNL     1       7.660   4.589   0.762  1.00  0.00     0.116 C 
BRANCH  66  67
ATOM     67  N   UNL     1       7.254   5.972   0.968  1.00  0.00    -0.352 N 
ATOM     68  C   UNL     1       7.953   7.036   1.500  1.00  0.00     0.253 C 
ATOM     69  H   UNL     1       6.335   6.182   0.682  1.00  0.00     0.163 HD
ATOM     70  O   UNL     1       7.548   8.185   1.372  1.00  0.00    -0.269 OA
BRANCH  68  71
ATOM     71  C   UNL     1       9.269   6.806   2.082  1.00  0.00     0.071 A 
ATOM     72  C   UNL     1      10.262   6.566   1.105  1.00  0.00     0.018 A 
ATOM     73  C   UNL     1       9.626   6.835   3.426  1.00  0.00     0.141 A 
ATOM     74  C   UNL     1      11.567   6.288   1.471  1.00  0.00     0.021 A 
ATOM     75  N   UNL     1      10.924   6.521   3.768  1.00  0.00    -0.250 NA
ATOM     76  C   UNL     1      11.846   6.264   2.815  1.00  0.00     0.112 A 
BRANCH  73  77
ATOM     77  C   UNL     1       8.872   7.277   4.686  1.00  0.00     0.275 C 
ATOM     78  O   UNL     1       9.438   7.146   5.781  1.00  0.00    -0.267 OA
ATOM     79  N   UNL     1       7.734   8.051   4.725  1.00  0.00    -0.321 N 
ATOM     80  H   UNL     1       7.807   8.829   5.324  1.00  0.00     0.170 HD
BRANCH  79  81
ATOM     81  C   UNL     1       6.503   7.952   4.086  1.00  0.00     0.042 A 
ATOM     82  C   UNL     1       5.817   9.146   3.823  1.00  0.00     0.033 A 
ATOM     83  C   UNL     1       5.951   6.731   3.715  1.00  0.00     0.033 A 
ATOM     84  C   UNL     1       4.716   9.144   2.965  1.00  0.00     0.088 A 
ATOM     85  C   UNL     1       4.818   6.720   2.900  1.00  0.00     0.088 A 
ATOM     86  C   UNL     1       4.275   7.926   2.454  1.00  0.00     0.269 A 
BRANCH  86  87
ATOM     87  N   UNL     1       3.342   7.902   1.335  1.00  0.00     0.062 N 
ATOM     88  O   UNL     1       2.439   8.747   1.319  1.00  0.00    -0.258 OA
ATOM     89  O   UNL     1       3.535   7.040   0.462  1.00  0.00    -0.258 OA
ENDBRANCH  86  87
ENDBRANCH  79  81
ENDBRANCH  73  77
ENDBRANCH  68  71
ENDBRANCH  66  67
ENDBRANCH  65  66
ENDBRANCH   1  65
TORSDOF 16
