REMARK SMILES O=C(CC1(NC(=O)c2ccncc2Cl)CCCCC1)NCCCCCCNC(=O)c1ccc(-c2c3nc(c(-c4c(F)cccc4F)c4ccc([nH]4)c(-c4c(F)cccc4F)c4nc(c(-c5c(F)cccc5F)c5ccc2[nH]5)C=C4)C=C3)cc1
REMARK SMILES IDX 23 1 22 2 21 3 20 4 1 5 2 6 3 8 4 9 15 10 19 11 16 12 18 13
REMARK SMILES IDX 17 14 5 15 6 16 7 18 8 19 9 20 13 21 10 22 12 23 14 24 11 25
REMARK SMILES IDX 24 26 25 27 26 28 27 29 28 30 29 32 30 33 31 34 83 35 32 36
REMARK SMILES IDX 82 37 33 38 34 39 35 40 76 41 36 42 81 43 75 44 77 45 37 46
REMARK SMILES IDX 80 47 74 48 73 49 38 51 64 52 47 53 63 54 48 55 51 56 62 57
REMARK SMILES IDX 78 58 49 59 50 60 61 62 79 63 52 64 39 65 40 66 45 67 41 68
REMARK SMILES IDX 42 69 44 70 46 71 43 72 65 73 66 74 71 75 67 76 68 77 70 78
REMARK SMILES IDX 72 79 69 80 53 81 54 82 59 83 55 84 56 85 58 86 60 87 57 88
REMARK H PARENT 20 7 5 17 27 31 77 50 51 61
REMARK Flexibility Score: inf
ROOT
ATOM      1  C   UNL     1       4.138  -1.486   3.633  1.00  0.00     0.002 C 
ENDROOT
BRANCH   1   2
ATOM      2  C   UNL     1       2.616  -1.546   3.419  1.00  0.00     0.021 C 
BRANCH   2   3
ATOM      3  C   UNL     1       2.043  -0.335   2.688  1.00  0.00     0.116 C 
BRANCH   3   4
ATOM      4  N   UNL     1       2.712  -0.179   1.421  1.00  0.00    -0.356 N 
ATOM      5  O   UNL     1       0.906   0.609   0.265  1.00  0.00    -0.275 OA
ATOM      6  C   UNL     1       2.070   0.223   0.289  1.00  0.00     0.222 C 
ATOM      7  H   UNL     1       3.676  -0.371   1.371  1.00  0.00     0.163 HD
BRANCH   6   8
ATOM      8  C   UNL     1       2.892   0.058  -0.968  1.00  0.00     0.128 C 
BRANCH   8   9
ATOM      9  C   UNL     1       3.859   1.187  -1.378  1.00  0.00     0.049 C 
ATOM     10  C   UNL     1       3.131   2.554  -1.311  1.00  0.00     0.029 C 
ATOM     11  C   UNL     1       5.092   1.187  -0.426  1.00  0.00     0.029 C 
ATOM     12  C   UNL     1       4.062   3.765  -1.409  1.00  0.00     0.002 C 
ATOM     13  C   UNL     1       5.989   2.421  -0.540  1.00  0.00     0.002 C 
ATOM     14  C   UNL     1       5.177   3.698  -0.374  1.00  0.00     0.000 C 
BRANCH   9  15
ATOM     15  N   UNL     1       4.386   1.014  -2.782  1.00  0.00    -0.346 N 
ATOM     16  C   UNL     1       4.086   0.244  -3.880  1.00  0.00     0.253 C 
ATOM     17  H   UNL     1       5.149   1.611  -2.957  1.00  0.00     0.164 HD
ATOM     18  O   UNL     1       4.670   0.447  -4.942  1.00  0.00    -0.269 OA
BRANCH  16  19
ATOM     19  C   UNL     1       3.186  -0.911  -3.811  1.00  0.00     0.061 A 
ATOM     20  C   UNL     1       3.777  -2.162  -3.610  1.00  0.00     0.035 A 
ATOM     21  C   UNL     1       1.803  -0.799  -3.936  1.00  0.00     0.072 A 
ATOM     22  C   UNL     1       2.944  -3.251  -3.434  1.00  0.00     0.112 A 
ATOM     23  C   UNL     1       1.058  -1.944  -3.696  1.00  0.00     0.132 A 
ATOM     24  Cl  UNL     1       1.000   0.688  -4.261  1.00  0.00    -0.082 Cl
ATOM     25  N   UNL     1       1.597  -3.163  -3.437  1.00  0.00    -0.263 NA
ENDBRANCH  16  19
ENDBRANCH   9  15
ENDBRANCH   8   9
ENDBRANCH   6   8
ENDBRANCH   3   4
ENDBRANCH   2   3
ENDBRANCH   1   2
BRANCH   1  26
ATOM     26  C   UNL     1       4.638  -0.207   4.310  1.00  0.00     0.002 C 
BRANCH  26  27
ATOM     27  C   UNL     1       3.993   0.077   5.665  1.00  0.00     0.021 C 
BRANCH  27  28
ATOM     28  C   UNL     1       4.109  -1.071   6.657  1.00  0.00     0.116 C 
BRANCH  28  29
ATOM     29  N   UNL     1       5.492  -1.371   6.988  1.00  0.00    -0.352 N 
ATOM     30  C   UNL     1       6.054  -1.558   8.227  1.00  0.00     0.251 C 
ATOM     31  H   UNL     1       6.106  -1.452   6.223  1.00  0.00     0.163 HD
ATOM     32  O   UNL     1       7.266  -1.625   8.359  1.00  0.00    -0.269 OA
BRANCH  30  33
ATOM     33  C   UNL     1       5.166  -1.648   9.405  1.00  0.00     0.039 A 
ATOM     34  C   UNL     1       5.470  -0.891  10.537  1.00  0.00     0.014 A 
ATOM     35  C   UNL     1       4.023  -2.452   9.374  1.00  0.00     0.014 A 
ATOM     36  C   UNL     1       4.592  -0.897  11.622  1.00  0.00     0.010 A 
ATOM     37  C   UNL     1       3.110  -2.392  10.420  1.00  0.00     0.010 A 
ATOM     38  C   UNL     1       3.389  -1.619  11.557  1.00  0.00    -0.014 A 
BRANCH  38  39
ATOM     39  C   UNL     1       2.412  -1.582  12.673  1.00  0.00     0.031 A 
ATOM     40  C   UNL     1       2.081  -2.840  13.428  1.00  0.00     0.074 A 
ATOM     41  C   UNL     1       1.780  -0.430  12.968  1.00  0.00     0.049 A 
ATOM     42  N   UNL     1       1.220  -3.020  14.397  1.00  0.00    -0.248 NA
ATOM     43  C   UNL     1       2.795  -4.062  13.024  1.00  0.00     0.031 C 
ATOM     44  C   UNL     1       1.980   0.847  12.279  1.00  0.00     0.029 A 
ATOM     45  N   UNL     1       0.836  -0.146  13.922  1.00  0.00    -0.354 N 
ATOM     46  C   UNL     1       1.280  -4.373  14.708  1.00  0.00     0.074 A 
ATOM     47  C   UNL     1       2.216  -4.978  13.786  1.00  0.00     0.031 C 
ATOM     48  C   UNL     1       1.206   1.782  12.851  1.00  0.00     0.029 A 
ATOM     49  C   UNL     1       0.424   1.164  13.918  1.00  0.00     0.049 A 
ATOM     50  H   UNL     1       0.486  -0.819  14.551  1.00  0.00     0.167 HD
ATOM     51  C   UNL     1       0.634  -5.045  15.690  1.00  0.00     0.037 A 
ATOM     52  C   UNL     1      -0.488   1.794  14.682  1.00  0.00     0.037 A 
ATOM     53  C   UNL     1      -0.285  -4.436  16.615  1.00  0.00     0.049 A 
ATOM     54  C   UNL     1      -1.212   1.019  15.749  1.00  0.00     0.074 A 
ATOM     55  C   UNL     1      -0.949  -5.018  17.680  1.00  0.00     0.029 A 
ATOM     56  N   UNL     1      -0.675  -3.105  16.579  1.00  0.00    -0.354 N 
ATOM     57  N   UNL     1      -1.090  -0.243  16.081  1.00  0.00    -0.248 NA
ATOM     58  C   UNL     1      -2.196   1.759  16.551  1.00  0.00     0.031 C 
ATOM     59  C   UNL     1      -1.784  -4.054  18.254  1.00  0.00     0.029 A 
ATOM     60  C   UNL     1      -1.594  -2.855  17.586  1.00  0.00     0.049 A 
ATOM     61  H   UNL     1      -0.348  -2.437  15.934  1.00  0.00     0.167 HD
ATOM     62  C   UNL     1      -1.956  -0.441  17.149  1.00  0.00     0.074 A 
ATOM     63  C   UNL     1      -2.585   0.835  17.418  1.00  0.00     0.031 C 
ATOM     64  C   UNL     1      -2.206  -1.577  17.846  1.00  0.00     0.037 A 
BRANCH  51  65
ATOM     65  C   UNL     1       0.900  -6.519  15.809  1.00  0.00     0.057 A 
ATOM     66  C   UNL     1       2.142  -7.017  16.227  1.00  0.00     0.134 A 
ATOM     67  C   UNL     1      -0.107  -7.452  15.530  1.00  0.00     0.134 A 
ATOM     68  F   UNL     1       3.154  -6.180  16.499  1.00  0.00    -0.206 F 
ATOM     69  C   UNL     1       2.383  -8.389  16.330  1.00  0.00     0.040 A 
ATOM     70  C   UNL     1       0.112  -8.825  15.661  1.00  0.00     0.040 A 
ATOM     71  F   UNL     1      -1.322  -7.046  15.132  1.00  0.00    -0.206 F 
ATOM     72  C   UNL     1       1.363  -9.296  16.054  1.00  0.00     0.006 A 
ENDBRANCH  51  65
BRANCH  52  73
ATOM     73  C   UNL     1      -0.755   3.242  14.484  1.00  0.00     0.057 A 
ATOM     74  C   UNL     1      -0.389   4.183  15.454  1.00  0.00     0.134 A 
ATOM     75  C   UNL     1      -1.394   3.719  13.333  1.00  0.00     0.134 A 
ATOM     76  F   UNL     1       0.209   3.787  16.586  1.00  0.00    -0.206 F 
ATOM     77  C   UNL     1      -0.669   5.542  15.298  1.00  0.00     0.040 A 
ATOM     78  C   UNL     1      -1.654   5.078  13.151  1.00  0.00     0.040 A 
ATOM     79  F   UNL     1      -1.762   2.871  12.361  1.00  0.00    -0.206 F 
ATOM     80  C   UNL     1      -1.299   5.993  14.140  1.00  0.00     0.006 A 
ENDBRANCH  52  73
BRANCH  64  81
ATOM     81  C   UNL     1      -3.171  -1.482  18.993  1.00  0.00     0.057 A 
ATOM     82  C   UNL     1      -4.546  -1.300  18.796  1.00  0.00     0.134 A 
ATOM     83  C   UNL     1      -2.720  -1.612  20.314  1.00  0.00     0.134 A 
ATOM     84  F   UNL     1      -5.042  -1.155  17.558  1.00  0.00    -0.206 F 
ATOM     85  C   UNL     1      -5.433  -1.225  19.871  1.00  0.00     0.040 A 
ATOM     86  C   UNL     1      -3.601  -1.571  21.395  1.00  0.00     0.040 A 
ATOM     87  F   UNL     1      -1.417  -1.799  20.574  1.00  0.00    -0.206 F 
ATOM     88  C   UNL     1      -4.962  -1.369  21.175  1.00  0.00     0.006 A 
ENDBRANCH  64  81
ENDBRANCH  38  39
ENDBRANCH  30  33
ENDBRANCH  28  29
ENDBRANCH  27  28
ENDBRANCH  26  27
ENDBRANCH   1  26
TORSDOF 16
