REMARK SMILES COc1ccc([C@H]2C[NH2+]C[C@@H]2C(=O)NCCCCCCNC(=O)c2ccc(-c3c4nc(c(-c5c(F)cccc5F)c5ccc([nH]5)c(-c5c(F)cccc5F)c5nc(c(-c6c(F)cccc6F)c6ccc3[nH]6)C=C5)C=C4)cc2)cc1
REMARK SMILES IDX 17 1 16 2 15 3 14 4 12 5 13 6 11 8 7 9 8 10 9 11 10 12 6 15
REMARK SMILES IDX 3 16 4 17 79 18 5 19 78 20 2 21 1 22 18 23 19 24 20 25 21 26
REMARK SMILES IDX 22 27 23 29 24 30 25 31 77 32 26 33 76 34 27 35 28 36 29 37
REMARK SMILES IDX 70 38 30 39 75 40 69 41 71 42 31 43 74 44 68 45 67 46 32 48
REMARK SMILES IDX 58 49 41 50 57 51 42 52 45 53 56 54 72 55 43 56 44 57 55 59
REMARK SMILES IDX 73 60 46 61 33 62 34 63 39 64 35 65 36 66 38 67 40 68 37 69
REMARK SMILES IDX 59 70 60 71 65 72 61 73 62 74 64 75 66 76 63 77 47 78 48 79
REMARK SMILES IDX 53 80 49 81 50 82 52 83 54 84 51 85
REMARK H PARENT 14 7 9 13 9 14 21 28 71 47 45 58
REMARK Flexibility Score: inf
ROOT
ATOM      1  C   UNL     1       2.779  -1.131  -1.945  1.00  0.00     0.002 C 
ENDROOT
BRANCH   1   2
ATOM      2  C   UNL     1       1.738  -2.251  -1.785  1.00  0.00     0.021 C 
BRANCH   2   3
ATOM      3  C   UNL     1       1.856  -3.395  -2.797  1.00  0.00     0.116 C 
BRANCH   3   4
ATOM      4  N   UNL     1       3.179  -3.987  -2.759  1.00  0.00    -0.356 N 
ATOM      5  C   UNL     1       3.583  -5.275  -2.598  1.00  0.00     0.229 C 
ATOM      6  O   UNL     1       4.798  -5.470  -2.580  1.00  0.00    -0.275 OA
ATOM      7  H   UNL     1       3.914  -3.342  -2.868  1.00  0.00     0.163 HD
BRANCH   5   8
ATOM      8  C   UNL     1       2.549  -6.393  -2.497  1.00  0.00     0.146 C 
ATOM      9  C   UNL     1       1.856  -6.441  -1.124  1.00  0.00     0.092 C 
ATOM     10  C   UNL     1       2.877  -7.276  -0.336  1.00  0.00     0.269 C 
ATOM     11  N   UNL     1       3.254  -8.365  -1.250  1.00  0.00    -0.345 N 
ATOM     12  C   UNL     1       3.230  -7.769  -2.602  1.00  0.00     0.274 C 
ATOM     13  H   UNL     1       2.584  -9.132  -1.187  1.00  0.00     0.346 HD
ATOM     14  H   UNL     1       4.170  -8.751  -1.023  1.00  0.00     0.346 HD
BRANCH   9  15
ATOM     15  C   UNL     1       0.471  -7.104  -1.076  1.00  0.00    -0.038 A 
ATOM     16  C   UNL     1      -1.971  -8.518  -0.834  1.00  0.00     0.118 A 
ATOM     17  C   UNL     1      -1.379  -7.940   0.285  1.00  0.00     0.047 A 
ATOM     18  C   UNL     1      -1.387  -8.333  -2.082  1.00  0.00     0.047 A 
ATOM     19  C   UNL     1      -0.173  -7.240   0.167  1.00  0.00     0.008 A 
ATOM     20  C   UNL     1      -0.179  -7.634  -2.201  1.00  0.00     0.008 A 
BRANCH  16  21
ATOM     21  O   UNL     1      -3.129  -9.211  -0.610  1.00  0.00    -0.497 OA
ATOM     22  C   UNL     1      -3.327 -10.335  -1.464  1.00  0.00     0.278 C 
ENDBRANCH  16  21
ENDBRANCH   9  15
ENDBRANCH   5   8
ENDBRANCH   3   4
ENDBRANCH   2   3
ENDBRANCH   1   2
BRANCH   1  23
ATOM     23  C   UNL     1       2.799  -0.435  -3.309  1.00  0.00     0.002 C 
BRANCH  23  24
ATOM     24  C   UNL     1       1.496   0.259  -3.708  1.00  0.00     0.021 C 
BRANCH  24  25
ATOM     25  C   UNL     1       1.008   1.331  -2.738  1.00  0.00     0.116 C 
BRANCH  25  26
ATOM     26  N   UNL     1       1.930   2.449  -2.618  1.00  0.00    -0.352 N 
ATOM     27  C   UNL     1       1.665   3.795  -2.576  1.00  0.00     0.251 C 
ATOM     28  H   UNL     1       2.882   2.205  -2.559  1.00  0.00     0.163 HD
ATOM     29  O   UNL     1       2.591   4.604  -2.604  1.00  0.00    -0.269 OA
BRANCH  27  30
ATOM     30  C   UNL     1       0.269   4.283  -2.525  1.00  0.00     0.039 A 
ATOM     31  C   UNL     1      -0.091   5.374  -3.324  1.00  0.00     0.014 A 
ATOM     32  C   UNL     1      -0.679   3.692  -1.686  1.00  0.00     0.014 A 
ATOM     33  C   UNL     1      -1.410   5.834  -3.322  1.00  0.00     0.010 A 
ATOM     34  C   UNL     1      -2.009   4.107  -1.735  1.00  0.00     0.010 A 
ATOM     35  C   UNL     1      -2.386   5.186  -2.549  1.00  0.00    -0.014 A 
BRANCH  35  36
ATOM     36  C   UNL     1      -3.803   5.632  -2.572  1.00  0.00     0.031 A 
ATOM     37  C   UNL     1      -4.437   6.207  -1.336  1.00  0.00     0.074 A 
ATOM     38  C   UNL     1      -4.534   5.475  -3.692  1.00  0.00     0.049 A 
ATOM     39  N   UNL     1      -5.668   6.612  -1.150  1.00  0.00    -0.248 NA
ATOM     40  C   UNL     1      -3.582   6.318  -0.144  1.00  0.00     0.031 C 
ATOM     41  C   UNL     1      -4.050   4.893  -4.944  1.00  0.00     0.029 A 
ATOM     42  N   UNL     1      -5.844   5.789  -3.955  1.00  0.00    -0.354 N 
ATOM     43  C   UNL     1      -5.738   7.012   0.178  1.00  0.00     0.074 A 
ATOM     44  C   UNL     1      -4.441   6.751   0.766  1.00  0.00     0.031 C 
ATOM     45  C   UNL     1      -5.040   4.919  -5.851  1.00  0.00     0.029 A 
ATOM     46  C   UNL     1      -6.235   5.489  -5.237  1.00  0.00     0.049 A 
ATOM     47  H   UNL     1      -6.446   6.192  -3.288  1.00  0.00     0.167 HD
ATOM     48  C   UNL     1      -6.778   7.570   0.843  1.00  0.00     0.037 A 
ATOM     49  C   UNL     1      -7.423   5.657  -5.849  1.00  0.00     0.037 A 
ATOM     50  C   UNL     1      -8.060   7.853   0.254  1.00  0.00     0.049 A 
ATOM     51  C   UNL     1      -8.564   6.274  -5.090  1.00  0.00     0.074 A 
ATOM     52  C   UNL     1      -9.159   8.466   0.830  1.00  0.00     0.029 A 
ATOM     53  N   UNL     1      -8.414   7.542  -1.050  1.00  0.00    -0.354 N 
ATOM     54  N   UNL     1      -8.597   6.703  -3.852  1.00  0.00    -0.248 NA
ATOM     55  C   UNL     1      -9.831   6.434  -5.816  1.00  0.00     0.031 C 
ATOM     56  C   UNL     1     -10.191   8.492  -0.115  1.00  0.00     0.029 A 
ATOM     57  C   UNL     1      -9.720   7.934  -1.292  1.00  0.00     0.049 A 
ATOM     58  H   UNL     1      -7.824   7.106  -1.707  1.00  0.00     0.167 HD
ATOM     59  C   UNL     1      -9.875   7.211  -3.659  1.00  0.00     0.074 A 
ATOM     60  C   UNL     1     -10.584   7.044  -4.911  1.00  0.00     0.031 C 
ATOM     61  C   UNL     1     -10.411   7.768  -2.546  1.00  0.00     0.037 A 
BRANCH  48  62
ATOM     62  C   UNL     1      -6.563   7.916   2.288  1.00  0.00     0.057 A 
ATOM     63  C   UNL     1      -5.725   8.970   2.677  1.00  0.00     0.134 A 
ATOM     64  C   UNL     1      -7.211   7.199   3.302  1.00  0.00     0.134 A 
ATOM     65  F   UNL     1      -5.064   9.688   1.756  1.00  0.00    -0.206 F 
ATOM     66  C   UNL     1      -5.514   9.278   4.022  1.00  0.00     0.040 A 
ATOM     67  C   UNL     1      -7.029   7.515   4.649  1.00  0.00     0.040 A 
ATOM     68  F   UNL     1      -8.032   6.182   2.999  1.00  0.00    -0.206 F 
ATOM     69  C   UNL     1      -6.172   8.552   5.013  1.00  0.00     0.006 A 
ENDBRANCH  48  62
BRANCH  49  70
ATOM     70  C   UNL     1      -7.581   5.274  -7.273  1.00  0.00     0.057 A 
ATOM     71  C   UNL     1      -7.694   6.250  -8.270  1.00  0.00     0.134 A 
ATOM     72  C   UNL     1      -7.620   3.934  -7.674  1.00  0.00     0.134 A 
ATOM     73  F   UNL     1      -7.682   7.551  -7.944  1.00  0.00    -0.206 F 
ATOM     74  C   UNL     1      -7.854   5.909  -9.613  1.00  0.00     0.040 A 
ATOM     75  C   UNL     1      -7.757   3.578  -9.016  1.00  0.00     0.040 A 
ATOM     76  F   UNL     1      -7.509   2.952  -6.767  1.00  0.00    -0.206 F 
ATOM     77  C   UNL     1      -7.880   4.567  -9.990  1.00  0.00     0.006 A 
ENDBRANCH  49  70
BRANCH  61  78
ATOM     78  C   UNL     1     -11.821   8.269  -2.641  1.00  0.00     0.057 A 
ATOM     79  C   UNL     1     -12.915   7.396  -2.678  1.00  0.00     0.134 A 
ATOM     80  C   UNL     1     -12.088   9.644  -2.659  1.00  0.00     0.134 A 
ATOM     81  F   UNL     1     -12.726   6.068  -2.678  1.00  0.00    -0.206 F 
ATOM     82  C   UNL     1     -14.225   7.873  -2.749  1.00  0.00     0.040 A 
ATOM     83  C   UNL     1     -13.394  10.133  -2.706  1.00  0.00     0.040 A 
ATOM     84  F   UNL     1     -11.084  10.534  -2.619  1.00  0.00    -0.206 F 
ATOM     85  C   UNL     1     -14.467   9.246  -2.756  1.00  0.00     0.006 A 
ENDBRANCH  61  78
ENDBRANCH  35  36
ENDBRANCH  27  30
ENDBRANCH  25  26
ENDBRANCH  24  25
ENDBRANCH  23  24
ENDBRANCH   1  23
TORSDOF 15
