REMARK SMILES O=C(Cn1nc(C(=O)NCCCCCCNC(=O)c2ccc(-c3c4nc(c(-c5c(F)cccc5F)c5ccc([nH]5)c(-c5c(F)cccc5F)c5nc(c(-c6c(F)cccc6F)c6ccc3[nH]6)C=C5)C=C4)cc2)c2ccccc2c1=O)Nc1ccc2c(c1)C(=O)c1ccccc1C2=O
REMARK SMILES IDX 12 1 11 2 10 3 9 4 7 5 8 6 6 8 4 9 5 10 79 11 78 12 80 13
REMARK SMILES IDX 73 14 77 15 74 16 76 17 75 18 3 19 2 20 1 21 81 22 82 24
REMARK SMILES IDX 83 25 87 26 84 27 86 28 85 29 88 30 96 31 89 32 90 33 95 34
REMARK SMILES IDX 97 35 91 36 94 37 92 38 93 39 13 40 14 41 15 42 16 43 17 44
REMARK SMILES IDX 18 46 19 47 20 48 72 49 21 50 71 51 22 52 23 53 24 54 65 55
REMARK SMILES IDX 25 56 70 57 64 58 66 59 26 60 69 61 63 62 62 63 27 65 53 66
REMARK SMILES IDX 36 67 52 68 37 69 40 70 51 71 67 72 38 73 39 74 50 76 68 77
REMARK SMILES IDX 41 78 28 79 29 80 34 81 30 82 31 83 33 84 35 85 32 86 54 87
REMARK SMILES IDX 55 88 60 89 56 90 57 91 59 92 61 93 58 94 42 95 43 96 48 97
REMARK SMILES IDX 44 98 45 99 47 100 49 101 46 102
REMARK H PARENT 9 7 81 23 16 45 66 64 40 75
REMARK Flexibility Score: inf
ROOT
ATOM      1  C   UNL     1       7.382  -3.686   1.323  1.00  0.00     0.002 C 
ENDROOT
BRANCH   1   2
ATOM      2  C   UNL     1       7.024  -2.435   0.514  1.00  0.00     0.021 C 
BRANCH   2   3
ATOM      3  C   UNL     1       5.930  -1.514   1.050  1.00  0.00     0.116 C 
BRANCH   3   4
ATOM      4  N   UNL     1       6.098  -1.135   2.434  1.00  0.00    -0.351 N 
ATOM      5  C   UNL     1       5.508  -0.074   3.082  1.00  0.00     0.272 C 
ATOM      6  O   UNL     1       5.523  -0.024   4.307  1.00  0.00    -0.267 OA
ATOM      7  H   UNL     1       6.701  -1.698   2.972  1.00  0.00     0.163 HD
BRANCH   5   8
ATOM      8  C   UNL     1       4.848   1.054   2.280  1.00  0.00     0.156 A 
ATOM      9  N   UNL     1       3.394   1.714   0.600  1.00  0.00    -0.219 N 
ATOM     10  N   UNL     1       4.047   0.721   1.307  1.00  0.00    -0.163 NA
ATOM     11  C   UNL     1       3.500   3.071   0.884  1.00  0.00     0.275 A 
ATOM     12  C   UNL     1       4.416   3.446   1.976  1.00  0.00     0.051 A 
ATOM     13  O   UNL     1       2.919   3.952   0.255  1.00  0.00    -0.267 OA
ATOM     14  C   UNL     1       5.118   2.459   2.659  1.00  0.00     0.020 A 
ATOM     15  C   UNL     1       4.596   4.799   2.299  1.00  0.00     0.014 A 
ATOM     16  C   UNL     1       6.032   2.834   3.655  1.00  0.00     0.011 A 
ATOM     17  C   UNL     1       5.491   5.166   3.302  1.00  0.00     0.001 A 
ATOM     18  C   UNL     1       6.213   4.183   3.975  1.00  0.00     0.001 A 
BRANCH   9  19
ATOM     19  C   UNL     1       2.487   1.277  -0.464  1.00  0.00     0.248 C 
BRANCH  19  20
ATOM     20  C   UNL     1       1.356   0.462   0.153  1.00  0.00     0.246 C 
ATOM     21  O   UNL     1       0.624   0.904   1.035  1.00  0.00    -0.273 OA
ATOM     22  N   UNL     1       1.339  -0.852  -0.303  1.00  0.00    -0.324 N 
ATOM     23  H   UNL     1       1.416  -1.004  -1.273  1.00  0.00     0.169 HD
BRANCH  22  24
ATOM     24  C   UNL     1       1.217  -1.979   0.533  1.00  0.00     0.042 A 
ATOM     25  C   UNL     1       1.357  -3.245  -0.053  1.00  0.00     0.027 A 
ATOM     26  C   UNL     1       1.175  -1.865   1.924  1.00  0.00     0.039 A 
ATOM     27  C   UNL     1       1.571  -4.373   0.745  1.00  0.00     0.015 A 
ATOM     28  C   UNL     1       1.440  -2.982   2.715  1.00  0.00     0.036 A 
ATOM     29  C   UNL     1       1.680  -4.222   2.129  1.00  0.00     0.034 A 
ATOM     30  C   UNL     1       1.637  -2.802   4.163  1.00  0.00     0.194 C 
ATOM     31  C   UNL     1       2.218  -5.323   2.955  1.00  0.00     0.194 C 
ATOM     32  O   UNL     1       1.113  -1.880   4.770  1.00  0.00    -0.289 OA
ATOM     33  C   UNL     1       2.561  -3.731   4.834  1.00  0.00     0.034 A 
ATOM     34  C   UNL     1       2.849  -4.962   4.244  1.00  0.00     0.034 A 
ATOM     35  O   UNL     1       2.239  -6.472   2.534  1.00  0.00    -0.289 OA
ATOM     36  C   UNL     1       3.205  -3.337   6.009  1.00  0.00     0.013 A 
ATOM     37  C   UNL     1       3.797  -5.807   4.827  1.00  0.00     0.013 A 
ATOM     38  C   UNL     1       4.166  -4.171   6.577  1.00  0.00     0.001 A 
ATOM     39  C   UNL     1       4.463  -5.402   5.987  1.00  0.00     0.001 A 
ENDBRANCH  22  24
ENDBRANCH  19  20
ENDBRANCH   9  19
ENDBRANCH   5   8
ENDBRANCH   3   4
ENDBRANCH   2   3
ENDBRANCH   1   2
BRANCH   1  40
ATOM     40  C   UNL     1       6.245  -4.581   1.816  1.00  0.00     0.002 C 
BRANCH  40  41
ATOM     41  C   UNL     1       5.207  -5.026   0.790  1.00  0.00     0.021 C 
BRANCH  41  42
ATOM     42  C   UNL     1       5.716  -5.625  -0.513  1.00  0.00     0.116 C 
BRANCH  42  43
ATOM     43  N   UNL     1       6.435  -6.874  -0.351  1.00  0.00    -0.352 N 
ATOM     44  C   UNL     1       6.360  -8.029  -1.097  1.00  0.00     0.251 C 
ATOM     45  H   UNL     1       7.069  -6.899   0.401  1.00  0.00     0.163 HD
ATOM     46  O   UNL     1       7.018  -9.012  -0.765  1.00  0.00    -0.269 OA
BRANCH  44  47
ATOM     47  C   UNL     1       5.456  -8.118  -2.271  1.00  0.00     0.039 A 
ATOM     48  C   UNL     1       5.364  -7.089  -3.212  1.00  0.00     0.014 A 
ATOM     49  C   UNL     1       4.679  -9.272  -2.431  1.00  0.00     0.014 A 
ATOM     50  C   UNL     1       4.393  -7.145  -4.212  1.00  0.00     0.010 A 
ATOM     51  C   UNL     1       3.747  -9.354  -3.471  1.00  0.00     0.010 A 
ATOM     52  C   UNL     1       3.560  -8.268  -4.338  1.00  0.00    -0.014 A 
BRANCH  52  53
ATOM     53  C   UNL     1       2.478  -8.270  -5.356  1.00  0.00     0.031 A 
ATOM     54  C   UNL     1       1.034  -8.177  -4.937  1.00  0.00     0.074 A 
ATOM     55  C   UNL     1       2.789  -8.290  -6.666  1.00  0.00     0.049 A 
ATOM     56  N   UNL     1      -0.038  -8.093  -5.685  1.00  0.00    -0.248 NA
ATOM     57  C   UNL     1       0.758  -8.176  -3.492  1.00  0.00     0.031 C 
ATOM     58  C   UNL     1       4.144  -8.379  -7.211  1.00  0.00     0.029 A 
ATOM     59  N   UNL     1       1.986  -8.210  -7.775  1.00  0.00    -0.354 N 
ATOM     60  C   UNL     1      -1.113  -8.050  -4.806  1.00  0.00     0.074 A 
ATOM     61  C   UNL     1      -0.567  -8.129  -3.468  1.00  0.00     0.031 C 
ATOM     62  C   UNL     1       4.082  -8.297  -8.550  1.00  0.00     0.029 A 
ATOM     63  C   UNL     1       2.684  -8.179  -8.956  1.00  0.00     0.049 A 
ATOM     64  H   UNL     1       1.003  -8.177  -7.728  1.00  0.00     0.167 HD
ATOM     65  C   UNL     1      -2.434  -7.947  -5.083  1.00  0.00     0.037 A 
ATOM     66  C   UNL     1       2.250  -8.060 -10.224  1.00  0.00     0.037 A 
ATOM     67  C   UNL     1      -2.992  -7.841  -6.404  1.00  0.00     0.049 A 
ATOM     68  C   UNL     1       0.781  -7.950 -10.505  1.00  0.00     0.074 A 
ATOM     69  C   UNL     1      -4.320  -7.700  -6.773  1.00  0.00     0.029 A 
ATOM     70  N   UNL     1      -2.252  -7.864  -7.575  1.00  0.00    -0.354 N 
ATOM     71  N   UNL     1      -0.218  -7.899  -9.661  1.00  0.00    -0.248 NA
ATOM     72  C   UNL     1       0.381  -7.891 -11.919  1.00  0.00     0.031 C 
ATOM     73  C   UNL     1      -4.384  -7.652  -8.171  1.00  0.00     0.029 A 
ATOM     74  C   UNL     1      -3.095  -7.748  -8.668  1.00  0.00     0.049 A 
ATOM     75  H   UNL     1      -1.273  -7.949  -7.623  1.00  0.00     0.167 HD
ATOM     76  C   UNL     1      -1.365  -7.804 -10.437  1.00  0.00     0.074 A 
ATOM     77  C   UNL     1      -0.937  -7.787 -11.821  1.00  0.00     0.031 C 
ATOM     78  C   UNL     1      -2.657  -7.742 -10.037  1.00  0.00     0.037 A 
BRANCH  65  79
ATOM     79  C   UNL     1      -3.376  -7.944  -3.920  1.00  0.00     0.057 A 
ATOM     80  C   UNL     1      -4.078  -9.102  -3.567  1.00  0.00     0.134 A 
ATOM     81  C   UNL     1      -3.605  -6.786  -3.169  1.00  0.00     0.134 A 
ATOM     82  F   UNL     1      -3.897 -10.243  -4.250  1.00  0.00    -0.206 F 
ATOM     83  C   UNL     1      -4.980  -9.108  -2.502  1.00  0.00     0.040 A 
ATOM     84  C   UNL     1      -4.497  -6.782  -2.096  1.00  0.00     0.040 A 
ATOM     85  F   UNL     1      -2.948  -5.651  -3.452  1.00  0.00    -0.206 F 
ATOM     86  C   UNL     1      -5.190  -7.945  -1.762  1.00  0.00     0.006 A 
ENDBRANCH  65  79
BRANCH  66  87
ATOM     87  C   UNL     1       3.229  -8.018 -11.333  1.00  0.00     0.057 A 
ATOM     88  C   UNL     1       3.845  -9.181 -11.805  1.00  0.00     0.134 A 
ATOM     89  C   UNL     1       3.568  -6.805 -11.941  1.00  0.00     0.134 A 
ATOM     90  F   UNL     1       3.553 -10.370 -11.258  1.00  0.00    -0.206 F 
ATOM     91  C   UNL     1       4.775  -9.139 -12.843  1.00  0.00     0.040 A 
ATOM     92  C   UNL     1       4.488  -6.750 -12.988  1.00  0.00     0.040 A 
ATOM     93  F   UNL     1       2.993  -5.663 -11.537  1.00  0.00    -0.206 F 
ATOM     94  C   UNL     1       5.097  -7.920 -13.439  1.00  0.00     0.006 A 
ENDBRANCH  66  87
BRANCH  78  95
ATOM     95  C   UNL     1      -3.694  -7.655 -11.111  1.00  0.00     0.057 A 
ATOM     96  C   UNL     1      -4.272  -6.429 -11.456  1.00  0.00     0.134 A 
ATOM     97  C   UNL     1      -4.131  -8.799 -11.790  1.00  0.00     0.134 A 
ATOM     98  F   UNL     1      -3.891  -5.299 -10.841  1.00  0.00    -0.206 F 
ATOM     99  C   UNL     1      -5.253  -6.342 -12.445  1.00  0.00     0.040 A 
ATOM    100  C   UNL     1      -5.104  -8.723 -12.787  1.00  0.00     0.040 A 
ATOM    101  F   UNL     1      -3.602  -9.999 -11.510  1.00  0.00    -0.206 F 
ATOM    102  C   UNL     1      -5.670  -7.492 -13.114  1.00  0.00     0.006 A 
ENDBRANCH  78  95
ENDBRANCH  52  53
ENDBRANCH  44  47
ENDBRANCH  42  43
ENDBRANCH  41  42
ENDBRANCH  40  41
ENDBRANCH   1  40
TORSDOF 16
