REMARK SMILES [NH3+][C@]1(C(=O)NCCCCCCNC(=O)c2ccc(-c3c4nc(c(-c5c(F)cccc5F)c5ccc([nH]5)c(-c5c(F)cccc5F)c5nc(c(-c6c(F)cccc6F)c6ccc3[nH]6)C=C5)C=C4)cc2)CC[C@@H](Sc2ccc(Cl)c(Cl)c2)C1
REMARK SMILES IDX 8 1 7 2 6 3 5 4 3 5 4 6 2 8 69 9 81 10 70 11 71 12 1 13
REMARK SMILES IDX 72 17 73 18 74 19 80 20 75 21 78 22 76 23 79 24 77 25 9 26
REMARK SMILES IDX 10 27 11 28 12 29 13 30 14 32 15 33 16 34 68 35 17 36 67 37
REMARK SMILES IDX 18 38 19 39 20 40 61 41 21 42 66 43 60 44 62 45 22 46 65 47
REMARK SMILES IDX 59 48 58 49 23 51 49 52 32 53 48 54 33 55 36 56 47 57 63 58
REMARK SMILES IDX 34 59 35 60 46 62 64 63 37 64 24 65 25 66 30 67 26 68 27 69
REMARK SMILES IDX 29 70 31 71 28 72 50 73 51 74 56 75 52 76 53 77 55 78 57 79
REMARK SMILES IDX 54 80 38 81 39 82 44 83 40 84 41 85 43 86 45 87 42 88
REMARK H PARENT 5 7 1 14 1 15 1 16 12 31 62 50 36 61
REMARK Flexibility Score: inf
ROOT
ATOM      1  C   UNL     1       5.026   1.788  -1.347  1.00  0.00     0.002 C 
ENDROOT
BRANCH   1   2
ATOM      2  C   UNL     1       4.331   0.972  -0.258  1.00  0.00     0.021 C 
BRANCH   2   3
ATOM      3  C   UNL     1       3.053   1.570   0.328  1.00  0.00     0.116 C 
BRANCH   3   4
ATOM      4  N   UNL     1       1.876   1.010  -0.314  1.00  0.00    -0.351 N 
ATOM      5  C   UNL     1       0.819   0.261   0.072  1.00  0.00     0.281 C 
ATOM      6  O   UNL     1       0.076  -0.087  -0.863  1.00  0.00    -0.268 OA
ATOM      7  H   UNL     1       1.839   1.232  -1.272  1.00  0.00     0.163 HD
BRANCH   5   8
ATOM      8  C   UNL     1       0.438  -0.212   1.521  1.00  0.00     0.175 C 
ATOM      9  C   UNL     1       0.763  -1.712   1.679  1.00  0.00     0.080 C 
ATOM     10  C   UNL     1       0.990   0.481   2.774  1.00  0.00     0.094 C 
ATOM     11  C   UNL     1       1.137  -1.929   3.139  1.00  0.00     0.022 C 
ATOM     12  C   UNL     1       1.671  -0.595   3.638  1.00  0.00     0.058 C 
BRANCH   8  13
ATOM     13  N   UNL     1      -1.051  -0.083   1.606  1.00  0.00    -0.345 N 
ATOM     14  H   UNL     1      -1.365  -0.378   2.531  1.00  0.00     0.345 HD
ATOM     15  H   UNL     1      -1.484  -0.673   0.896  1.00  0.00     0.345 HD
ATOM     16  H   UNL     1      -1.317   0.889   1.450  1.00  0.00     0.345 HD
ENDBRANCH   8  13
BRANCH  12  17
ATOM     17  S   UNL     1       3.485  -0.315   3.843  1.00  0.00    -0.122 SA
BRANCH  17  18
ATOM     18  C   UNL     1       4.344  -1.606   2.970  1.00  0.00     0.009 A 
ATOM     19  C   UNL     1       5.360  -2.304   3.631  1.00  0.00     0.017 A 
ATOM     20  C   UNL     1       4.179  -1.821   1.605  1.00  0.00     0.037 A 
ATOM     21  C   UNL     1       6.185  -3.198   2.936  1.00  0.00     0.023 A 
ATOM     22  C   UNL     1       4.987  -2.722   0.902  1.00  0.00     0.060 A 
ATOM     23  C   UNL     1       6.004  -3.405   1.568  1.00  0.00     0.059 A 
ATOM     24  Cl  UNL     1       4.697  -2.911  -0.791  1.00  0.00    -0.083 Cl
ATOM     25  Cl  UNL     1       7.086  -4.477   0.756  1.00  0.00    -0.083 Cl
ENDBRANCH  17  18
ENDBRANCH  12  17
ENDBRANCH   5   8
ENDBRANCH   3   4
ENDBRANCH   2   3
ENDBRANCH   1   2
BRANCH   1  26
ATOM     26  C   UNL     1       5.681   3.095  -0.894  1.00  0.00     0.002 C 
BRANCH  26  27
ATOM     27  C   UNL     1       6.588   3.016   0.339  1.00  0.00     0.021 C 
BRANCH  27  28
ATOM     28  C   UNL     1       7.654   1.921   0.326  1.00  0.00     0.116 C 
BRANCH  28  29
ATOM     29  N   UNL     1       8.590   2.055  -0.777  1.00  0.00    -0.352 N 
ATOM     30  C   UNL     1       9.906   2.431  -0.788  1.00  0.00     0.251 C 
ATOM     31  H   UNL     1       8.216   1.841  -1.662  1.00  0.00     0.163 HD
ATOM     32  O   UNL     1      10.468   2.638  -1.868  1.00  0.00    -0.269 OA
BRANCH  30  33
ATOM     33  C   UNL     1      10.665   2.619   0.466  1.00  0.00     0.039 A 
ATOM     34  C   UNL     1      11.503   3.734   0.577  1.00  0.00     0.014 A 
ATOM     35  C   UNL     1      10.608   1.688   1.507  1.00  0.00     0.014 A 
ATOM     36  C   UNL     1      12.233   3.946   1.749  1.00  0.00     0.010 A 
ATOM     37  C   UNL     1      11.286   1.935   2.702  1.00  0.00     0.010 A 
ATOM     38  C   UNL     1      12.107   3.064   2.834  1.00  0.00    -0.014 A 
BRANCH  38  39
ATOM     39  C   UNL     1      12.828   3.316   4.109  1.00  0.00     0.031 A 
ATOM     40  C   UNL     1      13.909   2.379   4.574  1.00  0.00     0.074 A 
ATOM     41  C   UNL     1      12.475   4.364   4.877  1.00  0.00     0.049 A 
ATOM     42  N   UNL     1      14.617   2.415   5.675  1.00  0.00    -0.248 NA
ATOM     43  C   UNL     1      14.220   1.240   3.697  1.00  0.00     0.031 C 
ATOM     44  C   UNL     1      11.416   5.325   4.562  1.00  0.00     0.029 A 
ATOM     45  N   UNL     1      12.965   4.794   6.085  1.00  0.00    -0.354 N 
ATOM     46  C   UNL     1      15.440   1.297   5.634  1.00  0.00     0.074 A 
ATOM     47  C   UNL     1      15.117   0.581   4.418  1.00  0.00     0.031 C 
ATOM     48  C   UNL     1      11.355   6.246   5.537  1.00  0.00     0.029 A 
ATOM     49  C   UNL     1      12.345   5.924   6.560  1.00  0.00     0.049 A 
ATOM     50  H   UNL     1      13.692   4.336   6.565  1.00  0.00     0.167 HD
ATOM     51  C   UNL     1      16.391   0.911   6.518  1.00  0.00     0.037 A 
ATOM     52  C   UNL     1      12.550   6.622   7.692  1.00  0.00     0.037 A 
ATOM     53  C   UNL     1      16.739   1.641   7.710  1.00  0.00     0.049 A 
ATOM     54  C   UNL     1      13.614   6.175   8.655  1.00  0.00     0.074 A 
ATOM     55  C   UNL     1      17.743   1.371   8.624  1.00  0.00     0.029 A 
ATOM     56  N   UNL     1      16.093   2.784   8.152  1.00  0.00    -0.354 N 
ATOM     57  N   UNL     1      14.432   5.155   8.567  1.00  0.00    -0.248 NA
ATOM     58  C   UNL     1      13.784   6.980   9.873  1.00  0.00     0.031 C 
ATOM     59  C   UNL     1      17.678   2.330   9.642  1.00  0.00     0.029 A 
ATOM     60  C   UNL     1      16.660   3.219   9.340  1.00  0.00     0.049 A 
ATOM     61  H   UNL     1      15.341   3.223   7.691  1.00  0.00     0.167 HD
ATOM     62  C   UNL     1      15.232   5.211   9.701  1.00  0.00     0.074 A 
ATOM     63  C   UNL     1      14.807   6.371  10.457  1.00  0.00     0.031 C 
ATOM     64  C   UNL     1      16.230   4.377  10.080  1.00  0.00     0.037 A 
BRANCH  51  65
ATOM     65  C   UNL     1      17.125  -0.365   6.229  1.00  0.00     0.057 A 
ATOM     66  C   UNL     1      18.067  -0.459   5.196  1.00  0.00     0.134 A 
ATOM     67  C   UNL     1      16.910  -1.506   7.013  1.00  0.00     0.134 A 
ATOM     68  F   UNL     1      18.311   0.594   4.402  1.00  0.00    -0.206 F 
ATOM     69  C   UNL     1      18.748  -1.649   4.936  1.00  0.00     0.040 A 
ATOM     70  C   UNL     1      17.603  -2.694   6.778  1.00  0.00     0.040 A 
ATOM     71  F   UNL     1      16.027  -1.482   8.023  1.00  0.00    -0.206 F 
ATOM     72  C   UNL     1      18.521  -2.770   5.732  1.00  0.00     0.006 A 
ENDBRANCH  51  65
BRANCH  52  73
ATOM     73  C   UNL     1      11.753   7.843   7.965  1.00  0.00     0.057 A 
ATOM     74  C   UNL     1      12.335   9.113   7.881  1.00  0.00     0.134 A 
ATOM     75  C   UNL     1      10.401   7.773   8.319  1.00  0.00     0.134 A 
ATOM     76  F   UNL     1      13.633   9.240   7.565  1.00  0.00    -0.206 F 
ATOM     77  C   UNL     1      11.606  10.270   8.153  1.00  0.00     0.040 A 
ATOM     78  C   UNL     1       9.654   8.924   8.574  1.00  0.00     0.040 A 
ATOM     79  F   UNL     1       9.785   6.585   8.411  1.00  0.00    -0.206 F 
ATOM     80  C   UNL     1      10.259  10.177   8.497  1.00  0.00     0.006 A 
ENDBRANCH  52  73
BRANCH  64  81
ATOM     81  C   UNL     1      16.951   4.708  11.352  1.00  0.00     0.057 A 
ATOM     82  C   UNL     1      16.364   4.506  12.607  1.00  0.00     0.134 A 
ATOM     83  C   UNL     1      18.257   5.213  11.322  1.00  0.00     0.134 A 
ATOM     84  F   UNL     1      15.109   4.040  12.704  1.00  0.00    -0.206 F 
ATOM     85  C   UNL     1      17.043   4.814  13.787  1.00  0.00     0.040 A 
ATOM     86  C   UNL     1      18.955   5.502  12.495  1.00  0.00     0.040 A 
ATOM     87  F   UNL     1      18.879   5.423  10.151  1.00  0.00    -0.206 F 
ATOM     88  C   UNL     1      18.345   5.308  13.732  1.00  0.00     0.006 A 
ENDBRANCH  64  81
ENDBRANCH  38  39
ENDBRANCH  30  33
ENDBRANCH  28  29
ENDBRANCH  27  28
ENDBRANCH  26  27
ENDBRANCH   1  26
TORSDOF 16
