REMARK SMILES C[C@@](O)(CNC(=O)Cc1ccc(F)cc1F)C(=O)NCCCCCCNC(=O)c1ccc(-c2c3nc(c(-c4c(F)cccc4F)c4ccc([nH]4)c(-c4c(F)cccc4F)c4nc(c(-c5c(F)cccc5F)c5ccc2[nH]5)C=C4)C=C3)cc1
REMARK SMILES IDX 21 1 20 2 19 3 17 4 18 5 2 7 1 8 3 9 4 11 5 12 6 13 7 15
REMARK SMILES IDX 8 16 9 17 10 18 15 19 11 20 14 21 16 22 12 23 13 24 22 25
REMARK SMILES IDX 23 26 24 27 25 28 26 29 27 30 28 32 29 33 30 34 82 35 31 36
REMARK SMILES IDX 81 37 32 38 33 39 34 40 75 41 35 42 80 43 74 44 76 45 36 46
REMARK SMILES IDX 79 47 73 48 72 49 37 51 63 52 46 53 62 54 47 55 50 56 61 57
REMARK SMILES IDX 77 58 48 59 49 60 60 62 78 63 51 64 38 65 39 66 44 67 40 68
REMARK SMILES IDX 41 69 43 70 45 71 42 72 64 73 65 74 70 75 66 76 67 77 69 78
REMARK SMILES IDX 71 79 68 80 52 81 53 82 58 83 54 84 55 85 57 86 59 87 56 88
REMARK H PARENT 19 6 3 10 5 14 26 31 76 50 50 61
REMARK Flexibility Score: inf
ROOT
ATOM      1  C   UNL     1      -0.283  -3.600  -2.112  1.00  0.00     0.021 C 
ENDROOT
BRANCH   1   2
ATOM      2  C   UNL     1       0.873  -3.644  -0.876  1.00  0.00     0.116 C 
BRANCH   2   3
ATOM      3  N   UNL     1       1.754  -2.504  -1.032  1.00  0.00    -0.354 N 
ATOM      4  C   UNL     1       1.356  -1.190  -0.964  1.00  0.00     0.253 C 
ATOM      5  O   UNL     1       1.954  -0.384  -1.678  1.00  0.00    -0.272 OA
ATOM      6  H   UNL     1       2.707  -2.684  -1.199  1.00  0.00     0.163 HD
BRANCH   4   7
ATOM      7  C   UNL     1       0.258  -0.760   0.065  1.00  0.00     0.157 C 
ATOM      8  C   UNL     1       0.559   0.699   0.439  1.00  0.00     0.055 C 
BRANCH   7   9
ATOM      9  O   UNL     1       0.445  -1.517   1.282  1.00  0.00    -0.378 OA
ATOM     10  H   UNL     1      -0.230  -1.260   1.930  1.00  0.00     0.212 HD
ENDBRANCH   7   9
BRANCH   7  11
ATOM     11  C   UNL     1      -1.244  -0.930  -0.344  1.00  0.00     0.160 C 
BRANCH  11  12
ATOM     12  N   UNL     1      -1.687  -0.326  -1.602  1.00  0.00    -0.352 N 
ATOM     13  C   UNL     1      -2.567  -0.730  -2.571  1.00  0.00     0.224 C 
ATOM     14  H   UNL     1      -1.268   0.545  -1.789  1.00  0.00     0.163 HD
ATOM     15  O   UNL     1      -2.941   0.137  -3.370  1.00  0.00    -0.275 OA
BRANCH  13  16
ATOM     16  C   UNL     1      -3.111  -2.160  -2.697  1.00  0.00     0.138 C 
BRANCH  16  17
ATOM     17  C   UNL     1      -2.082  -3.197  -3.134  1.00  0.00    -0.003 A 
ATOM     18  C   UNL     1      -2.040  -4.783  -2.239  1.00  0.00     0.010 A 
ATOM     19  C   UNL     1      -0.622  -2.598  -3.993  1.00  0.00     0.129 A 
ATOM     20  C   UNL     1      -0.455  -5.637  -2.064  1.00  0.00     0.040 A 
ATOM     21  C   UNL     1       0.948  -3.458  -3.833  1.00  0.00     0.078 A 
ATOM     22  F   UNL     1      -0.635  -1.391  -4.573  1.00  0.00    -0.207 F 
ATOM     23  C   UNL     1       1.026  -4.984  -2.902  1.00  0.00     0.126 A 
ATOM     24  F   UNL     1       2.206  -5.595  -2.728  1.00  0.00    -0.207 F 
ENDBRANCH  16  17
ENDBRANCH  13  16
ENDBRANCH  11  12
ENDBRANCH   7  11
ENDBRANCH   4   7
ENDBRANCH   2   3
ENDBRANCH   1   2
BRANCH   1  25
ATOM     25  C   UNL     1      -0.761  -4.737  -3.911  1.00  0.00     0.002 C 
BRANCH  25  26
ATOM     26  C   UNL     1      -0.387  -6.348  -4.480  1.00  0.00     0.002 C 
BRANCH  26  27
ATOM     27  C   UNL     1      -1.208  -7.550  -3.998  1.00  0.00     0.021 C 
BRANCH  27  28
ATOM     28  C   UNL     1      -2.661  -7.472  -4.421  1.00  0.00     0.116 C 
BRANCH  28  29
ATOM     29  N   UNL     1      -2.822  -8.115  -5.712  1.00  0.00    -0.352 N 
ATOM     30  C   UNL     1      -3.163  -9.424  -5.947  1.00  0.00     0.251 C 
ATOM     31  H   UNL     1      -2.671  -7.552  -6.505  1.00  0.00     0.163 HD
ATOM     32  O   UNL     1      -2.813  -9.979  -6.983  1.00  0.00    -0.269 OA
BRANCH  30  33
ATOM     33  C   UNL     1      -3.967 -10.156  -4.942  1.00  0.00     0.039 A 
ATOM     34  C   UNL     1      -3.773 -11.528  -4.775  1.00  0.00     0.014 A 
ATOM     35  C   UNL     1      -4.963  -9.497  -4.213  1.00  0.00     0.014 A 
ATOM     36  C   UNL     1      -4.587 -12.234  -3.888  1.00  0.00     0.010 A 
ATOM     37  C   UNL     1      -5.681 -10.175  -3.239  1.00  0.00     0.010 A 
ATOM     38  C   UNL     1      -5.547 -11.562  -3.113  1.00  0.00    -0.014 A 
BRANCH  38  39
ATOM     39  C   UNL     1      -6.496 -12.304  -2.248  1.00  0.00     0.031 A 
ATOM     40  C   UNL     1      -7.975 -12.236  -2.539  1.00  0.00     0.074 A 
ATOM     41  C   UNL     1      -6.036 -13.026  -1.210  1.00  0.00     0.049 A 
ATOM     42  N   UNL     1      -8.970 -12.792  -1.897  1.00  0.00    -0.248 NA
ATOM     43  C   UNL     1      -8.398 -11.410  -3.686  1.00  0.00     0.031 C 
ATOM     44  C   UNL     1      -4.631 -13.138  -0.815  1.00  0.00     0.029 A 
ATOM     45  N   UNL     1      -6.700 -13.812  -0.303  1.00  0.00    -0.354 N 
ATOM     46  C   UNL     1     -10.122 -12.380  -2.557  1.00  0.00     0.074 A 
ATOM     47  C   UNL     1      -9.717 -11.463  -3.595  1.00  0.00     0.031 C 
ATOM     48  C   UNL     1      -4.533 -13.985   0.221  1.00  0.00     0.029 A 
ATOM     49  C   UNL     1      -5.869 -14.439   0.593  1.00  0.00     0.049 A 
ATOM     50  H   UNL     1      -7.679 -13.916  -0.296  1.00  0.00     0.167 HD
ATOM     51  C   UNL     1     -11.402 -12.764  -2.344  1.00  0.00     0.037 A 
ATOM     52  C   UNL     1      -6.157 -15.288   1.598  1.00  0.00     0.037 A 
ATOM     53  C   UNL     1     -11.794 -13.704  -1.330  1.00  0.00     0.049 A 
ATOM     54  C   UNL     1      -7.591 -15.680   1.830  1.00  0.00     0.074 A 
ATOM     55  C   UNL     1     -13.059 -14.187  -1.049  1.00  0.00     0.029 A 
ATOM     56  N   UNL     1     -10.923 -14.309  -0.437  1.00  0.00    -0.354 N 
ATOM     57  N   UNL     1      -8.665 -15.316   1.170  1.00  0.00    -0.248 NA
ATOM     58  C   UNL     1      -7.854 -16.606   2.939  1.00  0.00     0.031 C 
ATOM     59  C   UNL     1     -12.961 -15.043   0.051  1.00  0.00     0.029 A 
ATOM     60  C   UNL     1     -11.627 -15.148   0.409  1.00  0.00     0.049 A 
ATOM     61  H   UNL     1      -9.950 -14.164  -0.409  1.00  0.00     0.167 HD
ATOM     62  C   UNL     1      -9.723 -15.997   1.758  1.00  0.00     0.074 A 
ATOM     63  C   UNL     1      -9.159 -16.805   2.820  1.00  0.00     0.031 C 
ATOM     64  C   UNL     1     -11.043 -15.959   1.447  1.00  0.00     0.037 A 
BRANCH  51  65
ATOM     65  C   UNL     1     -12.467 -12.191  -3.236  1.00  0.00     0.057 A 
ATOM     66  C   UNL     1     -13.455 -11.342  -2.720  1.00  0.00     0.134 A 
ATOM     67  C   UNL     1     -12.558 -12.534  -4.592  1.00  0.00     0.134 A 
ATOM     68  F   UNL     1     -13.431 -10.974  -1.430  1.00  0.00    -0.206 F 
ATOM     69  C   UNL     1     -14.501 -10.870  -3.514  1.00  0.00     0.040 A 
ATOM     70  C   UNL     1     -13.582 -12.043  -5.404  1.00  0.00     0.040 A 
ATOM     71  F   UNL     1     -11.637 -13.331  -5.155  1.00  0.00    -0.206 F 
ATOM     72  C   UNL     1     -14.565 -11.219  -4.862  1.00  0.00     0.006 A 
ENDBRANCH  51  65
BRANCH  52  73
ATOM     73  C   UNL     1      -5.062 -15.856   2.427  1.00  0.00     0.057 A 
ATOM     74  C   UNL     1      -4.297 -15.054   3.284  1.00  0.00     0.134 A 
ATOM     75  C   UNL     1      -4.748 -17.220   2.376  1.00  0.00     0.134 A 
ATOM     76  F   UNL     1      -4.537 -13.738   3.373  1.00  0.00    -0.206 F 
ATOM     77  C   UNL     1      -3.256 -15.584   4.049  1.00  0.00     0.040 A 
ATOM     78  C   UNL     1      -3.730 -17.768   3.158  1.00  0.00     0.040 A 
ATOM     79  F   UNL     1      -5.451 -18.044   1.585  1.00  0.00    -0.206 F 
ATOM     80  C   UNL     1      -2.976 -16.947   3.993  1.00  0.00     0.006 A 
ENDBRANCH  52  73
BRANCH  64  81
ATOM     81  C   UNL     1     -11.968 -16.849   2.227  1.00  0.00     0.057 A 
ATOM     82  C   UNL     1     -12.617 -17.920   1.598  1.00  0.00     0.134 A 
ATOM     83  C   UNL     1     -12.278 -16.605   3.570  1.00  0.00     0.134 A 
ATOM     84  F   UNL     1     -12.378 -18.200   0.307  1.00  0.00    -0.206 F 
ATOM     85  C   UNL     1     -13.549 -18.708   2.273  1.00  0.00     0.040 A 
ATOM     86  C   UNL     1     -13.182 -17.408   4.266  1.00  0.00     0.040 A 
ATOM     87  F   UNL     1     -11.687 -15.599   4.233  1.00  0.00    -0.206 F 
ATOM     88  C   UNL     1     -13.829 -18.456   3.614  1.00  0.00     0.006 A 
ENDBRANCH  64  81
ENDBRANCH  38  39
ENDBRANCH  30  33
ENDBRANCH  28  29
ENDBRANCH  27  28
ENDBRANCH  26  27
ENDBRANCH  25  26
ENDBRANCH   1  25
TORSDOF 18
