REMARK SMILES Cc1cc(Br)c(C)c([C@@H]2[NH2+][C@H](C(=O)NCCCCCCNC(=O)c3ccc(-c4c5nc(c(-c6c(F)cccc6F)c6ccc([nH]6)c(-c6c(F)cccc6F)c6nc(c(-c7c(F)cccc7F)c7ccc4[nH]7)C=C6)C=C5)cc3)CS2)c1O
REMARK SMILES IDX 17 1 16 2 15 3 14 4 12 5 13 6 11 8 9 9 10 10 79 11 78 14
REMARK SMILES IDX 8 15 1 16 2 17 3 18 80 19 4 20 5 21 6 22 7 23 81 24 18 26
REMARK SMILES IDX 19 27 20 28 21 29 22 30 23 32 24 33 25 34 77 35 26 36 76 37
REMARK SMILES IDX 27 38 28 39 29 40 70 41 30 42 75 43 69 44 71 45 31 46 74 47
REMARK SMILES IDX 68 48 67 49 32 51 58 52 41 53 57 54 42 55 45 56 56 57 72 58
REMARK SMILES IDX 43 59 44 60 55 62 73 63 46 64 33 65 34 66 39 67 35 68 36 69
REMARK SMILES IDX 38 70 40 71 37 72 59 73 60 74 65 75 61 76 62 77 64 78 66 79
REMARK SMILES IDX 63 80 47 81 48 82 53 83 49 84 50 85 52 86 54 87 51 88
REMARK H PARENT 14 7 10 12 10 13 81 25 21 31 71 50 45 61
REMARK Flexibility Score: inf
ROOT
ATOM      1  C   UNL     1       1.389   0.449   1.875  1.00  0.00     0.002 C 
ENDROOT
BRANCH   1   2
ATOM      2  C   UNL     1       2.255   1.669   1.528  1.00  0.00     0.021 C 
BRANCH   2   3
ATOM      3  C   UNL     1       3.293   1.470   0.421  1.00  0.00     0.116 C 
BRANCH   3   4
ATOM      4  N   UNL     1       2.778   1.373  -0.939  1.00  0.00    -0.351 N 
ATOM      5  C   UNL     1       2.755   2.239  -1.994  1.00  0.00     0.279 C 
ATOM      6  O   UNL     1       2.708   1.670  -3.098  1.00  0.00    -0.268 OA
ATOM      7  H   UNL     1       2.360   0.504  -1.138  1.00  0.00     0.163 HD
BRANCH   5   8
ATOM      8  C   UNL     1       2.658   3.788  -1.948  1.00  0.00     0.283 C 
ATOM      9  C   UNL     1       0.708   4.697  -0.787  1.00  0.00     0.278 C 
ATOM     10  N   UNL     1       1.259   4.275  -2.080  1.00  0.00    -0.320 N 
ATOM     11  S   UNL     1       2.118   4.998   0.335  1.00  0.00    -0.087 SA
ATOM     12  H   UNL     1       1.244   5.068  -2.721  1.00  0.00     0.348 HD
ATOM     13  H   UNL     1       0.687   3.509  -2.436  1.00  0.00     0.348 HD
ATOM     14  C   UNL     1       3.376   4.581  -0.886  1.00  0.00     0.151 C 
BRANCH   9  15
ATOM     15  C   UNL     1      -0.402   3.824  -0.174  1.00  0.00     0.066 A 
ATOM     16  C   UNL     1      -1.743   0.238  -0.541  1.00  0.00     0.048 C 
ATOM     17  C   UNL     1      -1.624   1.659  -0.065  1.00  0.00    -0.008 A 
ATOM     18  C   UNL     1      -2.411   2.140   0.970  1.00  0.00     0.023 A 
ATOM     19  C   UNL     1      -0.659   2.508  -0.621  1.00  0.00     0.128 A 
ATOM     20  C   UNL     1      -2.222   3.443   1.440  1.00  0.00     0.021 A 
ATOM     21  Br  UNL     1      -3.352   3.967   2.885  1.00  0.00    -0.051 Br
ATOM     22  C   UNL     1      -1.235   4.303   0.888  1.00  0.00    -0.023 A 
ATOM     23  C   UNL     1      -1.074   5.684   1.487  1.00  0.00     0.046 C 
BRANCH  19  24
ATOM     24  O   UNL     1       0.033   1.958  -1.655  1.00  0.00    -0.507 OA
ATOM     25  H   UNL     1      -0.157   1.083  -1.932  1.00  0.00     0.293 HD
ENDBRANCH  19  24
ENDBRANCH   9  15
ENDBRANCH   5   8
ENDBRANCH   3   4
ENDBRANCH   2   3
ENDBRANCH   1   2
BRANCH   1  26
ATOM     26  C   UNL     1       1.787  -0.302   3.156  1.00  0.00     0.002 C 
BRANCH  26  27
ATOM     27  C   UNL     1       1.719   0.497   4.465  1.00  0.00     0.021 C 
BRANCH  27  28
ATOM     28  C   UNL     1       0.327   0.974   4.880  1.00  0.00     0.116 C 
BRANCH  28  29
ATOM     29  N   UNL     1      -0.513  -0.102   5.392  1.00  0.00    -0.352 N 
ATOM     30  C   UNL     1      -0.979  -0.335   6.674  1.00  0.00     0.251 C 
ATOM     31  H   UNL     1      -0.793  -0.766   4.721  1.00  0.00     0.163 HD
ATOM     32  O   UNL     1      -1.541  -1.379   6.952  1.00  0.00    -0.269 OA
BRANCH  30  33
ATOM     33  C   UNL     1      -0.755   0.687   7.722  1.00  0.00     0.039 A 
ATOM     34  C   UNL     1      -1.067   2.023   7.476  1.00  0.00     0.014 A 
ATOM     35  C   UNL     1      -0.190   0.312   8.945  1.00  0.00     0.014 A 
ATOM     36  C   UNL     1      -0.615   3.002   8.352  1.00  0.00     0.010 A 
ATOM     37  C   UNL     1       0.179   1.297   9.870  1.00  0.00     0.010 A 
ATOM     38  C   UNL     1       0.036   2.656   9.550  1.00  0.00    -0.014 A 
BRANCH  38  39
ATOM     39  C   UNL     1       0.598   3.739  10.405  1.00  0.00     0.031 A 
ATOM     40  C   UNL     1       2.085   3.855  10.628  1.00  0.00     0.074 A 
ATOM     41  C   UNL     1      -0.226   4.687  10.896  1.00  0.00     0.049 A 
ATOM     42  N   UNL     1       2.754   4.787  11.264  1.00  0.00    -0.248 NA
ATOM     43  C   UNL     1       2.936   2.791  10.072  1.00  0.00     0.031 C 
ATOM     44  C   UNL     1      -1.681   4.694  10.743  1.00  0.00     0.029 A 
ATOM     45  N   UNL     1       0.042   5.846  11.580  1.00  0.00    -0.354 N 
ATOM     46  C   UNL     1       4.092   4.414  11.195  1.00  0.00     0.074 A 
ATOM     47  C   UNL     1       4.141   3.153  10.490  1.00  0.00     0.031 C 
ATOM     48  C   UNL     1      -2.170   5.837  11.246  1.00  0.00     0.029 A 
ATOM     49  C   UNL     1      -1.074   6.614  11.816  1.00  0.00     0.049 A 
ATOM     50  H   UNL     1       0.946   6.104  11.873  1.00  0.00     0.167 HD
ATOM     51  C   UNL     1       5.182   5.073  11.657  1.00  0.00     0.037 A 
ATOM     52  C   UNL     1      -1.206   7.807  12.426  1.00  0.00     0.037 A 
ATOM     53  C   UNL     1       5.137   6.346  12.327  1.00  0.00     0.049 A 
ATOM     54  C   UNL     1       0.013   8.491  12.974  1.00  0.00     0.074 A 
ATOM     55  C   UNL     1       6.194   7.109  12.793  1.00  0.00     0.029 A 
ATOM     56  N   UNL     1       3.977   7.044  12.623  1.00  0.00    -0.354 N 
ATOM     57  N   UNL     1       1.271   8.136  12.876  1.00  0.00    -0.248 NA
ATOM     58  C   UNL     1      -0.205   9.731  13.733  1.00  0.00     0.031 C 
ATOM     59  C   UNL     1       5.670   8.247  13.414  1.00  0.00     0.029 A 
ATOM     60  C   UNL     1       4.290   8.213  13.297  1.00  0.00     0.049 A 
ATOM     61  H   UNL     1       3.066   6.753  12.389  1.00  0.00     0.167 HD
ATOM     62  C   UNL     1       1.993   9.104  13.562  1.00  0.00     0.074 A 
ATOM     63  C   UNL     1       1.036  10.078  14.044  1.00  0.00     0.031 C 
ATOM     64  C   UNL     1       3.328   9.169  13.781  1.00  0.00     0.037 A 
BRANCH  51  65
ATOM     65  C   UNL     1       6.527   4.435  11.457  1.00  0.00     0.057 A 
ATOM     66  C   UNL     1       7.140   4.384  10.198  1.00  0.00     0.134 A 
ATOM     67  C   UNL     1       7.251   3.936  12.548  1.00  0.00     0.134 A 
ATOM     68  F   UNL     1       6.499   4.837   9.111  1.00  0.00    -0.206 F 
ATOM     69  C   UNL     1       8.418   3.846  10.030  1.00  0.00     0.040 A 
ATOM     70  C   UNL     1       8.538   3.418  12.396  1.00  0.00     0.040 A 
ATOM     71  F   UNL     1       6.728   3.965  13.783  1.00  0.00    -0.206 F 
ATOM     72  C   UNL     1       9.124   3.369  11.133  1.00  0.00     0.006 A 
ENDBRANCH  51  65
BRANCH  52  73
ATOM     73  C   UNL     1      -2.551   8.423  12.552  1.00  0.00     0.057 A 
ATOM     74  C   UNL     1      -2.886   9.582  11.844  1.00  0.00     0.134 A 
ATOM     75  C   UNL     1      -3.542   7.853  13.361  1.00  0.00     0.134 A 
ATOM     76  F   UNL     1      -1.974  10.187  11.068  1.00  0.00    -0.206 F 
ATOM     77  C   UNL     1      -4.157  10.152  11.935  1.00  0.00     0.040 A 
ATOM     78  C   UNL     1      -4.825   8.396  13.441  1.00  0.00     0.040 A 
ATOM     79  F   UNL     1      -3.285   6.740  14.064  1.00  0.00    -0.206 F 
ATOM     80  C   UNL     1      -5.134   9.553  12.728  1.00  0.00     0.006 A 
ENDBRANCH  52  73
BRANCH  64  81
ATOM     81  C   UNL     1       3.842  10.319  14.594  1.00  0.00     0.057 A 
ATOM     82  C   UNL     1       3.672  10.359  15.983  1.00  0.00     0.134 A 
ATOM     83  C   UNL     1       4.590  11.344  14.001  1.00  0.00     0.134 A 
ATOM     84  F   UNL     1       2.956   9.412  16.608  1.00  0.00    -0.206 F 
ATOM     85  C   UNL     1       4.225  11.381  16.755  1.00  0.00     0.040 A 
ATOM     86  C   UNL     1       5.168  12.359  14.765  1.00  0.00     0.040 A 
ATOM     87  F   UNL     1       4.798  11.358  12.676  1.00  0.00    -0.206 F 
ATOM     88  C   UNL     1       4.986  12.379  16.147  1.00  0.00     0.006 A 
ENDBRANCH  64  81
ENDBRANCH  38  39
ENDBRANCH  30  33
ENDBRANCH  28  29
ENDBRANCH  27  28
ENDBRANCH  26  27
ENDBRANCH   1  26
TORSDOF 15
