REMARK SMILES O=C(NCCCCCCNC(=O)C1([C@H]2CS(=O)(=O)C[C@H]2O)CCCC1)c1ccc(-c2c3nc(c(-c4c(F)cccc4F)c4ccc([nH]4)c(-c4c(F)cccc4F)c4nc(c(-c5c(F)cccc5F)c5ccc2[nH]5)C=C4)C=C3)cc1
REMARK SMILES IDX 6 1 5 2 4 3 3 4 1 5 2 6 26 8 27 9 79 10 28 11 78 12 29 13
REMARK SMILES IDX 30 14 31 15 72 16 32 17 77 18 71 19 73 20 33 21 76 22 70 23
REMARK SMILES IDX 69 24 34 26 60 27 43 28 59 29 44 30 47 31 58 32 74 33 45 34
REMARK SMILES IDX 46 35 57 37 75 38 48 39 35 40 36 41 41 42 37 43 38 44 40 45
REMARK SMILES IDX 42 46 39 47 61 48 62 49 67 50 63 51 64 52 66 53 68 54 65 55
REMARK SMILES IDX 49 56 50 57 55 58 51 59 52 60 54 61 56 62 53 63 7 64 8 65
REMARK SMILES IDX 9 66 10 67 11 68 12 70 13 71 22 72 25 73 23 74 24 75 14 76
REMARK SMILES IDX 15 77 20 78 16 79 19 80 17 81 18 82 21 83
REMARK H PARENT 3 7 73 25 47 36 10 69 21 84
REMARK Flexibility Score: inf
ROOT
ATOM      1  C   UNL     1       5.481   0.169  -9.700  1.00  0.00     0.002 C 
ENDROOT
BRANCH   1   2
ATOM      2  C   UNL     1       6.550   0.963 -10.450  1.00  0.00     0.021 C 
BRANCH   2   3
ATOM      3  C   UNL     1       6.827   0.507 -11.876  1.00  0.00     0.116 C 
BRANCH   3   4
ATOM      4  N   UNL     1       5.676   0.641 -12.752  1.00  0.00    -0.352 N 
ATOM      5  O   UNL     1       4.468   1.444 -14.483  1.00  0.00    -0.269 OA
ATOM      6  C   UNL     1       5.562   1.319 -13.942  1.00  0.00     0.251 C 
ATOM      7  H   UNL     1       4.860   0.179 -12.450  1.00  0.00     0.163 HD
BRANCH   6   8
ATOM      8  C   UNL     1       6.763   1.920 -14.561  1.00  0.00     0.039 A 
ATOM      9  C   UNL     1       7.957   1.199 -14.641  1.00  0.00     0.014 A 
ATOM     10  C   UNL     1       6.693   3.219 -15.071  1.00  0.00     0.014 A 
ATOM     11  C   UNL     1       9.112   1.824 -15.094  1.00  0.00     0.010 A 
ATOM     12  C   UNL     1       7.834   3.813 -15.618  1.00  0.00     0.010 A 
ATOM     13  C   UNL     1       9.059   3.128 -15.612  1.00  0.00    -0.014 A 
BRANCH  13  14
ATOM     14  C   UNL     1      10.280   3.717 -16.217  1.00  0.00     0.031 A 
ATOM     15  C   UNL     1      10.928   4.944 -15.642  1.00  0.00     0.074 A 
ATOM     16  C   UNL     1      10.814   3.111 -17.296  1.00  0.00     0.049 A 
ATOM     17  N   UNL     1      11.998   5.577 -16.052  1.00  0.00    -0.248 NA
ATOM     18  C   UNL     1      10.292   5.545 -14.460  1.00  0.00     0.031 C 
ATOM     19  C   UNL     1      10.265   1.919 -17.949  1.00  0.00     0.029 A 
ATOM     20  N   UNL     1      11.937   3.400 -18.027  1.00  0.00    -0.354 N 
ATOM     21  C   UNL     1      12.158   6.656 -15.191  1.00  0.00     0.074 A 
ATOM     22  C   UNL     1      11.056   6.609 -14.253  1.00  0.00     0.031 C 
ATOM     23  C   UNL     1      11.074   1.554 -18.953  1.00  0.00     0.029 A 
ATOM     24  C   UNL     1      12.155   2.525 -19.063  1.00  0.00     0.049 A 
ATOM     25  H   UNL     1      12.529   4.161 -17.828  1.00  0.00     0.167 HD
ATOM     26  C   UNL     1      13.139   7.592 -15.182  1.00  0.00     0.037 A 
ATOM     27  C   UNL     1      13.104   2.517 -20.016  1.00  0.00     0.037 A 
ATOM     28  C   UNL     1      14.231   7.629 -16.122  1.00  0.00     0.049 A 
ATOM     29  C   UNL     1      14.148   3.595 -20.010  1.00  0.00     0.074 A 
ATOM     30  C   UNL     1      15.290   8.519 -16.178  1.00  0.00     0.029 A 
ATOM     31  N   UNL     1      14.398   6.746 -17.180  1.00  0.00    -0.354 N 
ATOM     32  N   UNL     1      14.309   4.583 -19.164  1.00  0.00    -0.248 NA
ATOM     33  C   UNL     1      15.139   3.558 -21.092  1.00  0.00     0.031 C 
ATOM     34  C   UNL     1      16.065   8.210 -17.302  1.00  0.00     0.029 A 
ATOM     35  C   UNL     1      15.527   7.088 -17.910  1.00  0.00     0.049 A 
ATOM     36  H   UNL     1      13.803   5.988 -17.382  1.00  0.00     0.167 HD
ATOM     37  C   UNL     1      15.434   5.272 -19.597  1.00  0.00     0.074 A 
ATOM     38  C   UNL     1      15.925   4.574 -20.768  1.00  0.00     0.031 C 
ATOM     39  C   UNL     1      16.006   6.383 -19.072  1.00  0.00     0.037 A 
BRANCH  26  40
ATOM     40  C   UNL     1      13.067   8.669 -14.136  1.00  0.00     0.057 A 
ATOM     41  C   UNL     1      13.293   8.405 -12.779  1.00  0.00     0.134 A 
ATOM     42  C   UNL     1      12.816  10.000 -14.498  1.00  0.00     0.134 A 
ATOM     43  F   UNL     1      13.531   7.152 -12.360  1.00  0.00    -0.206 F 
ATOM     44  C   UNL     1      13.249   9.418 -11.818  1.00  0.00     0.040 A 
ATOM     45  C   UNL     1      12.796  11.026 -13.551  1.00  0.00     0.040 A 
ATOM     46  F   UNL     1      12.599  10.328 -15.780  1.00  0.00    -0.206 F 
ATOM     47  C   UNL     1      13.007  10.735 -12.205  1.00  0.00     0.006 A 
ENDBRANCH  26  40
BRANCH  27  48
ATOM     48  C   UNL     1      13.097   1.461 -21.059  1.00  0.00     0.057 A 
ATOM     49  C   UNL     1      14.110   0.498 -21.125  1.00  0.00     0.134 A 
ATOM     50  C   UNL     1      12.075   1.388 -22.015  1.00  0.00     0.134 A 
ATOM     51  F   UNL     1      15.123   0.523 -20.247  1.00  0.00    -0.206 F 
ATOM     52  C   UNL     1      14.119  -0.486 -22.115  1.00  0.00     0.040 A 
ATOM     53  C   UNL     1      12.054   0.391 -22.989  1.00  0.00     0.040 A 
ATOM     54  F   UNL     1      11.068   2.274 -21.999  1.00  0.00    -0.206 F 
ATOM     55  C   UNL     1      13.084  -0.544 -23.047  1.00  0.00     0.006 A 
ENDBRANCH  27  48
BRANCH  39  56
ATOM     56  C   UNL     1      17.253   6.887 -19.740  1.00  0.00     0.057 A 
ATOM     57  C   UNL     1      17.230   7.484 -21.007  1.00  0.00     0.134 A 
ATOM     58  C   UNL     1      18.493   6.794 -19.093  1.00  0.00     0.134 A 
ATOM     59  F   UNL     1      16.078   7.590 -21.687  1.00  0.00    -0.206 F 
ATOM     60  C   UNL     1      18.397   7.944 -21.618  1.00  0.00     0.040 A 
ATOM     61  C   UNL     1      19.662   7.279 -19.680  1.00  0.00     0.040 A 
ATOM     62  F   UNL     1      18.586   6.240 -17.875  1.00  0.00    -0.206 F 
ATOM     63  C   UNL     1      19.617   7.848 -20.951  1.00  0.00     0.006 A 
ENDBRANCH  39  56
ENDBRANCH  13  14
ENDBRANCH   6   8
ENDBRANCH   3   4
ENDBRANCH   2   3
ENDBRANCH   1   2
BRANCH   1  64
ATOM     64  C   UNL     1       5.658  -1.351  -9.677  1.00  0.00     0.002 C 
BRANCH  64  65
ATOM     65  C   UNL     1       7.024  -1.883  -9.240  1.00  0.00     0.021 C 
BRANCH  65  66
ATOM     66  C   UNL     1       7.531  -1.453  -7.868  1.00  0.00     0.116 C 
BRANCH  66  67
ATOM     67  N   UNL     1       6.719  -1.907  -6.760  1.00  0.00    -0.356 N 
ATOM     68  C   UNL     1       6.995  -2.141  -5.447  1.00  0.00     0.226 C 
ATOM     69  H   UNL     1       5.781  -2.082  -7.004  1.00  0.00     0.163 HD
ATOM     70  O   UNL     1       6.004  -2.366  -4.745  1.00  0.00    -0.274 OA
BRANCH  68  71
ATOM     71  C   UNL     1       8.446  -2.188  -4.851  1.00  0.00     0.055 C 
ATOM     72  C   UNL     1       8.347  -2.365  -3.311  1.00  0.00     0.017 C 
ATOM     73  C   UNL     1       9.056  -3.545  -5.288  1.00  0.00     0.017 C 
ATOM     74  C   UNL     1       9.500  -3.260  -2.893  1.00  0.00     0.001 C 
ATOM     75  C   UNL     1       9.722  -4.192  -4.070  1.00  0.00     0.001 C 
BRANCH  71  76
ATOM     76  C   UNL     1       9.298  -0.934  -5.275  1.00  0.00     0.049 C 
ATOM     77  C   UNL     1       8.570   0.403  -5.035  1.00  0.00     0.144 C 
ATOM     78  C   UNL     1      10.754  -0.694  -4.811  1.00  0.00     0.134 C 
ATOM     79  S   UNL     1       9.434   1.270  -3.738  1.00  0.00     0.153 S 
ATOM     80  C   UNL     1      10.749   0.102  -3.520  1.00  0.00     0.169 C 
ATOM     81  O   UNL     1       9.985   2.480  -4.307  1.00  0.00    -0.229 OA
ATOM     82  O   UNL     1       8.609   1.281  -2.547  1.00  0.00    -0.229 OA
BRANCH  78  83
ATOM     83  O   UNL     1      11.532  -1.865  -4.701  1.00  0.00    -0.392 OA
ATOM     84  H   UNL     1      11.157  -2.439  -4.014  1.00  0.00     0.211 HD
ENDBRANCH  78  83
ENDBRANCH  71  76
ENDBRANCH  68  71
ENDBRANCH  66  67
ENDBRANCH  65  66
ENDBRANCH  64  65
ENDBRANCH   1  64
TORSDOF 15
