REMARK SMILES COc1ccc([C@H]2CC(c3ccc(S(C)(=O)=O)cc3)=NN2c2ccc(C(=O)NCCCCCCNC(=O)c3ccc(-c4c5nc(c(-c6c(F)cccc6F)c6ccc([nH]6)c(-c6c(F)cccc6F)c6nc(c(-c7c(F)cccc7F)c7ccc4[nH]7)C=C6)C=C5)cc3)cc2)cc1OC
REMARK SMILES IDX 31 1 30 2 29 3 28 4 26 5 27 6 25 8 22 9 23 10 93 11 24 12
REMARK SMILES IDX 92 13 21 14 7 15 8 16 9 17 20 18 6 19 3 20 4 21 95 22 5 23
REMARK SMILES IDX 94 24 2 25 1 26 96 27 97 28 10 29 11 30 19 31 12 32 18 33
REMARK SMILES IDX 13 34 14 35 15 36 16 37 17 38 32 39 33 40 34 41 35 42 36 43
REMARK SMILES IDX 37 45 38 46 39 47 91 48 40 49 90 50 41 51 42 52 43 53 84 54
REMARK SMILES IDX 44 55 89 56 83 57 85 58 45 59 88 60 82 61 81 62 46 64 72 65
REMARK SMILES IDX 55 66 71 67 56 68 59 69 70 70 86 71 57 72 58 73 69 75 87 76
REMARK SMILES IDX 60 77 47 78 48 79 53 80 49 81 50 82 52 83 54 84 51 85 73 86
REMARK SMILES IDX 74 87 79 88 75 89 76 90 78 91 80 92 77 93 61 94 62 95 67 96
REMARK SMILES IDX 63 97 64 98 66 99 68 100 65 101
REMARK H PARENT 28 7 35 44 85 63 59 74
REMARK Flexibility Score: inf
ROOT
ATOM      1  C   UNL     1       1.212  -1.962  11.438  1.00  0.00     0.002 C 
ENDROOT
BRANCH   1   2
ATOM      2  C   UNL     1       1.186  -2.770  10.133  1.00  0.00     0.021 C 
BRANCH   2   3
ATOM      3  C   UNL     1       1.473  -1.917   8.896  1.00  0.00     0.116 C 
BRANCH   3   4
ATOM      4  N   UNL     1       2.891  -1.634   8.818  1.00  0.00    -0.352 N 
ATOM      5  C   UNL     1       3.905  -2.184   8.080  1.00  0.00     0.251 C 
ATOM      6  O   UNL     1       5.041  -1.748   8.270  1.00  0.00    -0.269 OA
ATOM      7  H   UNL     1       3.182  -0.904   9.410  1.00  0.00     0.163 HD
BRANCH   5   8
ATOM      8  C   UNL     1       3.687  -3.215   7.029  1.00  0.00     0.039 A 
ATOM      9  C   UNL     1       3.380  -5.017   4.873  1.00  0.00     0.060 A 
ATOM     10  C   UNL     1       4.460  -4.129   4.919  1.00  0.00     0.029 A 
ATOM     11  C   UNL     1       2.491  -5.036   5.948  1.00  0.00     0.029 A 
ATOM     12  C   UNL     1       4.601  -3.223   5.970  1.00  0.00     0.016 A 
ATOM     13  C   UNL     1       2.669  -4.174   7.038  1.00  0.00     0.016 A 
BRANCH   9  14
ATOM     14  N   UNL     1       3.238  -5.854   3.784  1.00  0.00    -0.257 N 
ATOM     15  C   UNL     1       2.073  -5.922   2.899  1.00  0.00     0.144 C 
ATOM     16  C   UNL     1       2.527  -6.962   1.860  1.00  0.00     0.091 C 
ATOM     17  C   UNL     1       3.701  -7.546   2.599  1.00  0.00     0.071 C 
ATOM     18  N   UNL     1       4.093  -6.894   3.648  1.00  0.00    -0.176 NA
BRANCH  15  19
ATOM     19  C   UNL     1       1.724  -4.563   2.316  1.00  0.00    -0.019 A 
ATOM     20  C   UNL     1       1.172  -1.921   1.487  1.00  0.00     0.160 A 
ATOM     21  C   UNL     1       0.163  -2.721   2.042  1.00  0.00     0.051 A 
ATOM     22  C   UNL     1       2.461  -2.438   1.321  1.00  0.00     0.161 A 
ATOM     23  C   UNL     1       0.435  -4.033   2.449  1.00  0.00     0.010 A 
ATOM     24  C   UNL     1       2.713  -3.757   1.723  1.00  0.00     0.056 A 
BRANCH  20  25
ATOM     25  O   UNL     1       0.899  -0.601   1.245  1.00  0.00    -0.493 OA
ATOM     26  C   UNL     1       0.007  -0.421   0.148  1.00  0.00     0.278 C 
ENDBRANCH  20  25
BRANCH  22  27
ATOM     27  O   UNL     1       3.577  -1.818   0.829  1.00  0.00    -0.493 OA
ATOM     28  C   UNL     1       3.451  -0.510   0.295  1.00  0.00     0.278 C 
ENDBRANCH  22  27
ENDBRANCH  15  19
BRANCH  17  29
ATOM     29  C   UNL     1       4.361  -8.787   2.182  1.00  0.00    -0.002 A 
ATOM     30  C   UNL     1       4.552  -9.781   3.149  1.00  0.00     0.011 A 
ATOM     31  C   UNL     1       4.856  -8.942   0.886  1.00  0.00     0.011 A 
ATOM     32  C   UNL     1       5.235 -10.950   2.820  1.00  0.00     0.021 A 
ATOM     33  C   UNL     1       5.567 -10.101   0.561  1.00  0.00     0.021 A 
ATOM     34  C   UNL     1       5.756 -11.094   1.532  1.00  0.00     0.067 A 
BRANCH  34  35
ATOM     35  S   UNL     1       6.665 -12.570   1.134  1.00  0.00     0.175 S 
ATOM     36  C   UNL     1       8.041 -12.553   2.254  1.00  0.00     0.163 C 
ATOM     37  O   UNL     1       5.806 -13.690   1.479  1.00  0.00    -0.224 OA
ATOM     38  O   UNL     1       7.189 -12.415  -0.207  1.00  0.00    -0.224 OA
ENDBRANCH  34  35
ENDBRANCH  17  29
ENDBRANCH   9  14
ENDBRANCH   5   8
ENDBRANCH   3   4
ENDBRANCH   2   3
ENDBRANCH   1   2
BRANCH   1  39
ATOM     39  C   UNL     1       0.121  -0.890  11.549  1.00  0.00     0.002 C 
BRANCH  39  40
ATOM     40  C   UNL     1      -1.309  -1.406  11.368  1.00  0.00     0.021 C 
BRANCH  40  41
ATOM     41  C   UNL     1      -1.731  -2.451  12.394  1.00  0.00     0.116 C 
BRANCH  41  42
ATOM     42  N   UNL     1      -1.808  -1.890  13.733  1.00  0.00    -0.352 N 
ATOM     43  C   UNL     1      -2.853  -1.913  14.621  1.00  0.00     0.251 C 
ATOM     44  H   UNL     1      -0.996  -1.428  14.046  1.00  0.00     0.163 HD
ATOM     45  O   UNL     1      -2.834  -1.206  15.623  1.00  0.00    -0.269 OA
BRANCH  43  46
ATOM     46  C   UNL     1      -4.013  -2.789  14.360  1.00  0.00     0.039 A 
ATOM     47  C   UNL     1      -5.302  -2.278  14.531  1.00  0.00     0.014 A 
ATOM     48  C   UNL     1      -3.826  -4.117  13.965  1.00  0.00     0.014 A 
ATOM     49  C   UNL     1      -6.407  -3.087  14.261  1.00  0.00     0.010 A 
ATOM     50  C   UNL     1      -4.926  -4.901  13.634  1.00  0.00     0.010 A 
ATOM     51  C   UNL     1      -6.226  -4.397  13.789  1.00  0.00    -0.014 A 
BRANCH  51  52
ATOM     52  C   UNL     1      -7.384  -5.267  13.470  1.00  0.00     0.031 A 
ATOM     53  C   UNL     1      -7.644  -6.499  14.288  1.00  0.00     0.074 A 
ATOM     54  C   UNL     1      -8.158  -4.985  12.406  1.00  0.00     0.049 A 
ATOM     55  N   UNL     1      -8.557  -7.423  14.127  1.00  0.00    -0.248 NA
ATOM     56  C   UNL     1      -6.738  -6.740  15.422  1.00  0.00     0.031 C 
ATOM     57  C   UNL     1      -7.985  -3.838  11.513  1.00  0.00     0.029 A 
ATOM     58  N   UNL     1      -9.243  -5.648  11.892  1.00  0.00    -0.354 N 
ATOM     59  C   UNL     1      -8.322  -8.363  15.122  1.00  0.00     0.074 A 
ATOM     60  C   UNL     1      -7.152  -7.923  15.851  1.00  0.00     0.031 C 
ATOM     61  C   UNL     1      -8.949  -3.862  10.579  1.00  0.00     0.029 A 
ATOM     62  C   UNL     1      -9.784  -5.042  10.785  1.00  0.00     0.049 A 
ATOM     63  H   UNL     1      -9.600  -6.480  12.280  1.00  0.00     0.167 HD
ATOM     64  C   UNL     1      -9.028  -9.481  15.415  1.00  0.00     0.037 A 
ATOM     65  C   UNL     1     -10.835  -5.398  10.025  1.00  0.00     0.037 A 
ATOM     66  C   UNL     1     -10.210  -9.899  14.707  1.00  0.00     0.049 A 
ATOM     67  C   UNL     1     -11.601  -6.645  10.365  1.00  0.00     0.074 A 
ATOM     68  C   UNL     1     -11.039 -10.974  14.970  1.00  0.00     0.029 A 
ATOM     69  N   UNL     1     -10.728  -9.257  13.592  1.00  0.00    -0.354 N 
ATOM     70  N   UNL     1     -11.406  -7.493  11.345  1.00  0.00    -0.248 NA
ATOM     71  C   UNL     1     -12.734  -6.982   9.492  1.00  0.00     0.031 C 
ATOM     72  C   UNL     1     -12.037 -11.006  13.990  1.00  0.00     0.029 A 
ATOM     73  C   UNL     1     -11.853  -9.927  13.140  1.00  0.00     0.049 A 
ATOM     74  H   UNL     1     -10.351  -8.445  13.181  1.00  0.00     0.167 HD
ATOM     75  C   UNL     1     -12.406  -8.448  11.226  1.00  0.00     0.074 A 
ATOM     76  C   UNL     1     -13.210  -8.072  10.080  1.00  0.00     0.031 C 
ATOM     77  C   UNL     1     -12.641  -9.537  11.999  1.00  0.00     0.037 A 
BRANCH  64  78
ATOM     78  C   UNL     1      -8.528 -10.328  16.548  1.00  0.00     0.057 A 
ATOM     79  C   UNL     1      -8.605  -9.902  17.881  1.00  0.00     0.134 A 
ATOM     80  C   UNL     1      -7.958 -11.584  16.303  1.00  0.00     0.134 A 
ATOM     81  F   UNL     1      -9.127  -8.704  18.182  1.00  0.00    -0.206 F 
ATOM     82  C   UNL     1      -8.098 -10.677  18.926  1.00  0.00     0.040 A 
ATOM     83  C   UNL     1      -7.472 -12.379  17.343  1.00  0.00     0.040 A 
ATOM     84  F   UNL     1      -7.858 -12.055  15.051  1.00  0.00    -0.206 F 
ATOM     85  C   UNL     1      -7.532 -11.921  18.657  1.00  0.00     0.006 A 
ENDBRANCH  64  78
BRANCH  65  86
ATOM     86  C   UNL     1     -11.252  -4.532   8.896  1.00  0.00     0.057 A 
ATOM     87  C   UNL     1     -12.408  -3.749   8.987  1.00  0.00     0.134 A 
ATOM     88  C   UNL     1     -10.504  -4.448   7.716  1.00  0.00     0.134 A 
ATOM     89  F   UNL     1     -13.173  -3.802  10.088  1.00  0.00    -0.206 F 
ATOM     90  C   UNL     1     -12.811  -2.916   7.943  1.00  0.00     0.040 A 
ATOM     91  C   UNL     1     -10.885  -3.605   6.671  1.00  0.00     0.040 A 
ATOM     92  F   UNL     1      -9.383  -5.169   7.572  1.00  0.00    -0.206 F 
ATOM     93  C   UNL     1     -12.044  -2.838   6.782  1.00  0.00     0.006 A 
ENDBRANCH  65  86
BRANCH  77  94
ATOM     94  C   UNL     1     -13.831 -10.380  11.649  1.00  0.00     0.057 A 
ATOM     95  C   UNL     1     -13.830 -11.234  10.539  1.00  0.00     0.134 A 
ATOM     96  C   UNL     1     -14.976 -10.364  12.454  1.00  0.00     0.134 A 
ATOM     97  F   UNL     1     -12.768 -11.283   9.720  1.00  0.00    -0.206 F 
ATOM     98  C   UNL     1     -14.934 -12.030  10.232  1.00  0.00     0.040 A 
ATOM     99  C   UNL     1     -16.078 -11.172  12.171  1.00  0.00     0.040 A 
ATOM    100  F   UNL     1     -15.038  -9.572  13.536  1.00  0.00    -0.206 F 
ATOM    101  C   UNL     1     -16.060 -12.005  11.054  1.00  0.00     0.006 A 
ENDBRANCH  77  94
ENDBRANCH  51  52
ENDBRANCH  43  46
ENDBRANCH  41  42
ENDBRANCH  40  41
ENDBRANCH  39  40
ENDBRANCH   1  39
TORSDOF 19
