REMARK SMILES COc1ccc(/C=C2/SC(=S)N(c3ccc(C(=O)NCCCCCCNC(=O)c4ccc(-c5c6nc(c(-c7c(F)cccc7F)c7ccc([nH]7)c(-c7c(F)cccc7F)c7nc(c(-c8c(F)cccc8F)c8ccc5[nH]8)C=C7)C=C6)cc4)c(O)c3)C2=O)cc1OC
REMARK SMILES IDX 22 1 21 2 20 3 19 4 17 5 18 6 16 8 13 9 14 10 85 11 15 12
REMARK SMILES IDX 83 13 12 14 7 15 8 16 9 17 86 18 10 19 87 20 11 21 6 22 3 23
REMARK SMILES IDX 4 24 89 25 5 26 88 27 2 28 1 29 90 30 91 31 84 32 23 34
REMARK SMILES IDX 24 35 25 36 26 37 27 38 28 40 29 41 30 42 82 43 31 44 81 45
REMARK SMILES IDX 32 46 33 47 34 48 75 49 35 50 80 51 74 52 76 53 36 54 79 55
REMARK SMILES IDX 73 56 72 57 37 59 63 60 46 61 62 62 47 63 50 64 61 65 77 66
REMARK SMILES IDX 48 67 49 68 60 70 78 71 51 72 38 73 39 74 44 75 40 76 41 77
REMARK SMILES IDX 43 78 45 79 42 80 64 81 65 82 70 83 66 84 67 85 69 86 71 87
REMARK SMILES IDX 68 88 52 89 53 90 58 91 54 92 55 93 57 94 59 95 56 96
REMARK H PARENT 19 7 84 33 26 39 76 58 50 69
REMARK Flexibility Score: inf
ROOT
ATOM      1  C   UNL     1      12.008   7.424  -0.636  1.00  0.00     0.002 C 
ENDROOT
BRANCH   1   2
ATOM      2  C   UNL     1      10.908   7.033   0.356  1.00  0.00     0.021 C 
BRANCH   2   3
ATOM      3  C   UNL     1      10.079   8.225   0.849  1.00  0.00     0.116 C 
BRANCH   3   4
ATOM      4  N   UNL     1       9.035   8.522  -0.109  1.00  0.00    -0.352 N 
ATOM      5  C   UNL     1       7.697   8.232  -0.122  1.00  0.00     0.255 C 
ATOM      6  O   UNL     1       7.065   8.551  -1.131  1.00  0.00    -0.269 OA
ATOM      7  H   UNL     1       9.344   9.027  -0.896  1.00  0.00     0.163 HD
BRANCH   5   8
ATOM      8  C   UNL     1       6.949   7.665   1.037  1.00  0.00     0.081 A 
ATOM      9  C   UNL     1       5.275   6.776   3.134  1.00  0.00     0.054 A 
ATOM     10  C   UNL     1       4.806   7.719   2.220  1.00  0.00     0.028 A 
ATOM     11  C   UNL     1       6.558   6.242   2.975  1.00  0.00     0.073 A 
ATOM     12  C   UNL     1       5.647   8.176   1.202  1.00  0.00     0.020 A 
ATOM     13  C   UNL     1       7.367   6.649   1.904  1.00  0.00     0.130 A 
BRANCH   9  14
ATOM     14  N   UNL     1       4.418   6.259   4.138  1.00  0.00    -0.261 N 
ATOM     15  C   UNL     1       1.902   3.791   4.949  1.00  0.00     0.029 C 
ATOM     16  C   UNL     1       2.708   4.863   4.949  1.00  0.00     0.081 C 
ATOM     17  S   UNL     1       3.362   5.556   6.384  1.00  0.00    -0.054 SA
ATOM     18  C   UNL     1       3.299   5.532   3.751  1.00  0.00     0.270 C 
ATOM     19  C   UNL     1       4.638   6.396   5.497  1.00  0.00     0.152 C 
ATOM     20  O   UNL     1       2.851   5.429   2.621  1.00  0.00    -0.268 OA
ATOM     21  S   UNL     1       5.847   7.239   6.286  1.00  0.00    -0.051 S 
BRANCH  15  22
ATOM     22  C   UNL     1       1.581   3.028   3.739  1.00  0.00    -0.020 A 
ATOM     23  C   UNL     1       1.101   1.673   1.332  1.00  0.00     0.160 A 
ATOM     24  C   UNL     1       0.087   2.429   1.942  1.00  0.00     0.051 A 
ATOM     25  C   UNL     1       2.364   1.584   1.927  1.00  0.00     0.161 A 
ATOM     26  C   UNL     1       0.323   3.100   3.147  1.00  0.00     0.012 A 
ATOM     27  C   UNL     1       2.583   2.255   3.136  1.00  0.00     0.058 A 
BRANCH  23  28
ATOM     28  O   UNL     1       0.859   1.122   0.102  1.00  0.00    -0.493 OA
ATOM     29  C   UNL     1      -0.100   0.068   0.165  1.00  0.00     0.278 C 
ENDBRANCH  23  28
BRANCH  25  30
ATOM     30  O   UNL     1       3.479   0.925   1.485  1.00  0.00    -0.493 OA
ATOM     31  C   UNL     1       3.368   0.096   0.339  1.00  0.00     0.278 C 
ENDBRANCH  25  30
ENDBRANCH  15  22
ENDBRANCH   9  14
BRANCH  13  32
ATOM     32  O   UNL     1       8.531   5.964   1.701  1.00  0.00    -0.507 OA
ATOM     33  H   UNL     1       9.100   6.205   0.996  1.00  0.00     0.293 HD
ENDBRANCH  13  32
ENDBRANCH   5   8
ENDBRANCH   3   4
ENDBRANCH   2   3
ENDBRANCH   1   2
BRANCH   1  34
ATOM     34  C   UNL     1      13.162   8.224  -0.023  1.00  0.00     0.002 C 
BRANCH  34  35
ATOM     35  C   UNL     1      13.876   7.545   1.152  1.00  0.00     0.021 C 
BRANCH  35  36
ATOM     36  C   UNL     1      14.472   6.176   0.836  1.00  0.00     0.116 C 
BRANCH  36  37
ATOM     37  N   UNL     1      15.505   6.258  -0.183  1.00  0.00    -0.352 N 
ATOM     38  C   UNL     1      16.799   5.808  -0.160  1.00  0.00     0.251 C 
ATOM     39  H   UNL     1      15.233   6.706  -1.016  1.00  0.00     0.163 HD
ATOM     40  O   UNL     1      17.585   6.168  -1.032  1.00  0.00    -0.269 OA
BRANCH  38  41
ATOM     41  C   UNL     1      17.262   4.896   0.909  1.00  0.00     0.039 A 
ATOM     42  C   UNL     1      18.538   5.091   1.444  1.00  0.00     0.014 A 
ATOM     43  C   UNL     1      16.480   3.820   1.342  1.00  0.00     0.014 A 
ATOM     44  C   UNL     1      19.017   4.229   2.431  1.00  0.00     0.010 A 
ATOM     45  C   UNL     1      16.934   2.996   2.372  1.00  0.00     0.010 A 
ATOM     46  C   UNL     1      18.213   3.184   2.915  1.00  0.00    -0.014 A 
BRANCH  46  47
ATOM     47  C   UNL     1      18.717   2.287   3.984  1.00  0.00     0.031 A 
ATOM     48  C   UNL     1      19.007   0.840   3.697  1.00  0.00     0.074 A 
ATOM     49  C   UNL     1      18.902   2.778   5.224  1.00  0.00     0.049 A 
ATOM     50  N   UNL     1      19.498  -0.077   4.493  1.00  0.00    -0.248 NA
ATOM     51  C   UNL     1      18.682   0.351   2.349  1.00  0.00     0.031 C 
ATOM     52  C   UNL     1      18.598   4.147   5.644  1.00  0.00     0.029 A 
ATOM     53  N   UNL     1      19.396   2.184   6.357  1.00  0.00    -0.354 N 
ATOM     54  C   UNL     1      19.536  -1.248   3.746  1.00  0.00     0.074 A 
ATOM     55  C   UNL     1      18.968  -0.939   2.451  1.00  0.00     0.031 C 
ATOM     56  C   UNL     1      18.948   4.299   6.931  1.00  0.00     0.029 A 
ATOM     57  C   UNL     1      19.482   3.036   7.431  1.00  0.00     0.049 A 
ATOM     58  H   UNL     1      19.664   1.237   6.397  1.00  0.00     0.167 HD
ATOM     59  C   UNL     1      20.022  -2.462   4.097  1.00  0.00     0.037 A 
ATOM     60  C   UNL     1      19.956   2.826   8.673  1.00  0.00     0.037 A 
ATOM     61  C   UNL     1      20.608  -2.763   5.377  1.00  0.00     0.049 A 
ATOM     62  C   UNL     1      20.525   1.482   9.025  1.00  0.00     0.074 A 
ATOM     63  C   UNL     1      21.179  -3.947   5.811  1.00  0.00     0.029 A 
ATOM     64  N   UNL     1      20.697  -1.867   6.432  1.00  0.00    -0.354 N 
ATOM     65  N   UNL     1      20.624   0.406   8.284  1.00  0.00    -0.248 NA
ATOM     66  C   UNL     1      21.064   1.329  10.384  1.00  0.00     0.031 C 
ATOM     67  C   UNL     1      21.586  -3.777   7.139  1.00  0.00     0.029 A 
ATOM     68  C   UNL     1      21.302  -2.475   7.520  1.00  0.00     0.049 A 
ATOM     69  H   UNL     1      20.377  -0.936   6.412  1.00  0.00     0.167 HD
ATOM     70  C   UNL     1      21.251  -0.545   9.076  1.00  0.00     0.074 A 
ATOM     71  C   UNL     1      21.531   0.089  10.348  1.00  0.00     0.031 C 
ATOM     72  C   UNL     1      21.566  -1.830   8.780  1.00  0.00     0.037 A 
BRANCH  59  73
ATOM     73  C   UNL     1      19.949  -3.556   3.071  1.00  0.00     0.057 A 
ATOM     74  C   UNL     1      20.770  -3.555   1.935  1.00  0.00     0.134 A 
ATOM     75  C   UNL     1      19.071  -4.635   3.233  1.00  0.00     0.134 A 
ATOM     76  F   UNL     1      21.624  -2.545   1.715  1.00  0.00    -0.206 F 
ATOM     77  C   UNL     1      20.701  -4.575   0.984  1.00  0.00     0.040 A 
ATOM     78  C   UNL     1      19.011  -5.673   2.300  1.00  0.00     0.040 A 
ATOM     79  F   UNL     1      18.261  -4.701   4.300  1.00  0.00    -0.206 F 
ATOM     80  C   UNL     1      19.823  -5.641   1.169  1.00  0.00     0.006 A 
ENDBRANCH  59  73
BRANCH  60  81
ATOM     81  C   UNL     1      19.961   3.934   9.659  1.00  0.00     0.057 A 
ATOM     82  C   UNL     1      21.156   4.558  10.035  1.00  0.00     0.134 A 
ATOM     83  C   UNL     1      18.777   4.395  10.246  1.00  0.00     0.134 A 
ATOM     84  F   UNL     1      22.323   4.147   9.517  1.00  0.00    -0.206 F 
ATOM     85  C   UNL     1      21.177   5.590  10.974  1.00  0.00     0.040 A 
ATOM     86  C   UNL     1      18.781   5.441  11.171  1.00  0.00     0.040 A 
ATOM     87  F   UNL     1      17.599   3.844   9.919  1.00  0.00    -0.206 F 
ATOM     88  C   UNL     1      19.985   6.037  11.542  1.00  0.00     0.006 A 
ENDBRANCH  60  81
BRANCH  72  89
ATOM     89  C   UNL     1      22.260  -2.620   9.850  1.00  0.00     0.057 A 
ATOM     90  C   UNL     1      21.583  -3.064  10.993  1.00  0.00     0.134 A 
ATOM     91  C   UNL     1      23.617  -2.945   9.733  1.00  0.00     0.134 A 
ATOM     92  F   UNL     1      20.285  -2.774  11.171  1.00  0.00    -0.206 F 
ATOM     93  C   UNL     1      22.239  -3.777  11.998  1.00  0.00     0.040 A 
ATOM     94  C   UNL     1      24.278  -3.678  10.719  1.00  0.00     0.040 A 
ATOM     95  F   UNL     1      24.320  -2.556   8.659  1.00  0.00    -0.206 F 
ATOM     96  C   UNL     1      23.591  -4.088  11.860  1.00  0.00     0.006 A 
ENDBRANCH  72  89
ENDBRANCH  46  47
ENDBRANCH  38  41
ENDBRANCH  36  37
ENDBRANCH  35  36
ENDBRANCH  34  35
ENDBRANCH   1  34
TORSDOF 18
