REMARK SMILES CC(C)(C)c1cc2c(cc1Cl)C=C(C(=O)NCCCCCCNC(=O)c1ccc(-c3c4nc(c(-c5c(F)cccc5F)c5ccc([nH]5)c(-c5c(F)cccc5F)c5nc(c(-c6c(F)cccc6F)c6ccc3[nH]6)C=C5)C=C4)cc1)[C@@H](C(F)(F)F)O2
REMARK SMILES IDX 20 1 19 2 18 3 17 4 16 5 14 6 15 7 13 9 5 10 6 11 10 12 7 13
REMARK SMILES IDX 9 14 11 15 8 16 85 17 12 18 80 19 2 20 1 21 3 22 4 23 81 24
REMARK SMILES IDX 82 25 83 26 84 27 21 28 22 29 23 30 24 31 25 33 26 34 27 35
REMARK SMILES IDX 79 36 28 37 78 38 29 39 30 40 31 41 72 42 32 43 77 44 71 45
REMARK SMILES IDX 73 46 33 47 76 48 70 49 69 50 34 52 60 53 43 54 59 55 44 56
REMARK SMILES IDX 47 57 58 58 74 59 45 60 46 61 57 63 75 64 48 65 35 66 36 67
REMARK SMILES IDX 41 68 37 69 38 70 40 71 42 72 39 73 61 74 62 75 67 76 63 77
REMARK SMILES IDX 64 78 66 79 68 80 65 81 49 82 50 83 55 84 51 85 52 86 54 87
REMARK SMILES IDX 56 88 53 89
REMARK H PARENT 16 8 23 32 73 51 47 62
REMARK Flexibility Score: inf
ROOT
ATOM      1  C   UNL     1       8.640  -8.907   4.895  1.00  0.00     0.002 C 
ENDROOT
BRANCH   1   2
ATOM      2  C   UNL     1       7.308  -8.692   5.625  1.00  0.00     0.002 C 
BRANCH   2   3
ATOM      3  C   UNL     1       6.610  -7.355   5.354  1.00  0.00     0.021 C 
BRANCH   3   4
ATOM      4  C   UNL     1       6.355  -7.069   3.877  1.00  0.00     0.116 C 
BRANCH   4   5
ATOM      5  N   UNL     1       5.161  -7.736   3.391  1.00  0.00    -0.352 N 
ATOM      6  C   UNL     1       3.982  -7.382   2.830  1.00  0.00     0.251 C 
ATOM      7  O   UNL     1       3.241  -8.325   2.532  1.00  0.00    -0.270 OA
ATOM      8  H   UNL     1       5.228  -8.713   3.499  1.00  0.00     0.163 HD
BRANCH   6   9
ATOM      9  C   UNL     1       3.534  -5.983   2.560  1.00  0.00     0.067 C 
ATOM     10  C   UNL     1       0.749  -1.867   1.415  1.00  0.00    -0.020 A 
ATOM     11  C   UNL     1       2.023  -2.119   1.974  1.00  0.00     0.053 A 
ATOM     12  C   UNL     1       0.012  -3.012   1.036  1.00  0.00     0.045 A 
ATOM     13  C   UNL     1       2.508  -3.409   2.191  1.00  0.00     0.128 A 
ATOM     14  C   UNL     1       0.497  -4.313   1.284  1.00  0.00     0.032 A 
ATOM     15  Cl  UNL     1      -1.497  -2.975   0.195  1.00  0.00    -0.084 Cl
ATOM     16  C   UNL     1       1.743  -4.517   1.870  1.00  0.00     0.019 A 
ATOM     17  O   UNL     1       3.739  -3.496   2.765  1.00  0.00    -0.475 OA
ATOM     18  C   UNL     1       2.252  -5.848   2.169  1.00  0.00     0.025 C 
ATOM     19  C   UNL     1       4.421  -4.774   2.661  1.00  0.00     0.314 C 
BRANCH  10  20
ATOM     20  C   UNL     1       0.330  -0.387   1.221  1.00  0.00    -0.012 C 
ATOM     21  C   UNL     1       0.885   0.087  -0.137  1.00  0.00     0.016 C 
ATOM     22  C   UNL     1       0.923   0.532   2.330  1.00  0.00     0.016 C 
ATOM     23  C   UNL     1      -1.189  -0.110   1.261  1.00  0.00     0.016 C 
ENDBRANCH  10  20
BRANCH  19  24
ATOM     24  C   UNL     1       5.453  -4.696   1.522  1.00  0.00     0.429 C 
ATOM     25  F   UNL     1       6.415  -3.784   1.814  1.00  0.00    -0.167 F 
ATOM     26  F   UNL     1       6.094  -5.870   1.317  1.00  0.00    -0.167 F 
ATOM     27  F   UNL     1       4.898  -4.336   0.343  1.00  0.00    -0.167 F 
ENDBRANCH  19  24
ENDBRANCH   6   9
ENDBRANCH   4   5
ENDBRANCH   3   4
ENDBRANCH   2   3
ENDBRANCH   1   2
BRANCH   1  28
ATOM     28  C   UNL     1       9.642  -7.753   4.983  1.00  0.00     0.021 C 
BRANCH  28  29
ATOM     29  C   UNL     1      10.037  -7.348   6.397  1.00  0.00     0.116 C 
BRANCH  29  30
ATOM     30  N   UNL     1      10.743  -8.402   7.107  1.00  0.00    -0.352 N 
ATOM     31  C   UNL     1      11.916  -8.329   7.820  1.00  0.00     0.251 C 
ATOM     32  H   UNL     1      10.323  -9.291   7.072  1.00  0.00     0.163 HD
ATOM     33  O   UNL     1      12.451  -9.348   8.243  1.00  0.00    -0.269 OA
BRANCH  31  34
ATOM     34  C   UNL     1      12.551  -7.013   8.044  1.00  0.00     0.039 A 
ATOM     35  C   UNL     1      11.793  -5.921   8.474  1.00  0.00     0.014 A 
ATOM     36  C   UNL     1      13.917  -6.865   7.790  1.00  0.00     0.014 A 
ATOM     37  C   UNL     1      12.365  -4.654   8.497  1.00  0.00     0.010 A 
ATOM     38  C   UNL     1      14.508  -5.603   7.889  1.00  0.00     0.010 A 
ATOM     39  C   UNL     1      13.726  -4.479   8.197  1.00  0.00    -0.014 A 
BRANCH  39  40
ATOM     40  C   UNL     1      14.303  -3.110   8.196  1.00  0.00     0.031 A 
ATOM     41  C   UNL     1      14.799  -2.486   6.919  1.00  0.00     0.074 A 
ATOM     42  C   UNL     1      14.328  -2.405   9.344  1.00  0.00     0.049 A 
ATOM     43  N   UNL     1      15.315  -1.298   6.726  1.00  0.00    -0.248 NA
ATOM     44  C   UNL     1      14.707  -3.303   5.699  1.00  0.00     0.031 C 
ATOM     45  C   UNL     1      13.868  -2.895  10.645  1.00  0.00     0.029 A 
ATOM     46  N   UNL     1      14.735  -1.121   9.597  1.00  0.00    -0.354 N 
ATOM     47  C   UNL     1      15.624  -1.231   5.373  1.00  0.00     0.074 A 
ATOM     48  C   UNL     1      15.264  -2.509   4.796  1.00  0.00     0.031 C 
ATOM     49  C   UNL     1      13.973  -1.909  11.547  1.00  0.00     0.029 A 
ATOM     50  C   UNL     1      14.560  -0.738  10.904  1.00  0.00     0.049 A 
ATOM     51  H   UNL     1      15.116  -0.530   8.908  1.00  0.00     0.167 HD
ATOM     52  C   UNL     1      16.147  -0.196   4.673  1.00  0.00     0.037 A 
ATOM     53  C   UNL     1      14.853   0.422  11.519  1.00  0.00     0.037 A 
ATOM     54  C   UNL     1      16.488   1.082   5.243  1.00  0.00     0.049 A 
ATOM     55  C   UNL     1      15.476   1.534  10.728  1.00  0.00     0.074 A 
ATOM     56  C   UNL     1      16.999   2.202   4.610  1.00  0.00     0.029 A 
ATOM     57  N   UNL     1      16.352   1.409   6.583  1.00  0.00    -0.354 N 
ATOM     58  N   UNL     1      15.750   1.586   9.447  1.00  0.00    -0.248 NA
ATOM     59  C   UNL     1      15.843   2.746  11.473  1.00  0.00     0.031 C 
ATOM     60  C   UNL     1      17.207   3.195   5.574  1.00  0.00     0.029 A 
ATOM     61  C   UNL     1      16.790   2.706   6.801  1.00  0.00     0.049 A 
ATOM     62  H   UNL     1      15.997   0.809   7.278  1.00  0.00     0.167 HD
ATOM     63  C   UNL     1      16.315   2.835   9.231  1.00  0.00     0.074 A 
ATOM     64  C   UNL     1      16.318   3.520  10.508  1.00  0.00     0.031 C 
ATOM     65  C   UNL     1      16.796   3.366   8.081  1.00  0.00     0.037 A 
BRANCH  52  66
ATOM     66  C   UNL     1      16.398  -0.410   3.208  1.00  0.00     0.057 A 
ATOM     67  C   UNL     1      17.703  -0.537   2.718  1.00  0.00     0.134 A 
ATOM     68  C   UNL     1      15.350  -0.462   2.279  1.00  0.00     0.134 A 
ATOM     69  F   UNL     1      18.752  -0.490   3.553  1.00  0.00    -0.206 F 
ATOM     70  C   UNL     1      17.959  -0.709   1.356  1.00  0.00     0.040 A 
ATOM     71  C   UNL     1      15.592  -0.656   0.918  1.00  0.00     0.040 A 
ATOM     72  F   UNL     1      14.076  -0.361   2.686  1.00  0.00    -0.206 F 
ATOM     73  C   UNL     1      16.900  -0.775   0.452  1.00  0.00     0.006 A 
ENDBRANCH  52  66
BRANCH  53  74
ATOM     74  C   UNL     1      14.574   0.586  12.967  1.00  0.00     0.057 A 
ATOM     75  C   UNL     1      15.309  -0.111  13.934  1.00  0.00     0.134 A 
ATOM     76  C   UNL     1      13.574   1.454  13.416  1.00  0.00     0.134 A 
ATOM     77  F   UNL     1      16.279  -0.960  13.565  1.00  0.00    -0.206 F 
ATOM     78  C   UNL     1      15.054   0.043  15.296  1.00  0.00     0.040 A 
ATOM     79  C   UNL     1      13.324   1.637  14.777  1.00  0.00     0.040 A 
ATOM     80  F   UNL     1      12.850   2.163  12.537  1.00  0.00    -0.206 F 
ATOM     81  C   UNL     1      14.062   0.926  15.721  1.00  0.00     0.006 A 
ENDBRANCH  53  74
BRANCH  65  82
ATOM     82  C   UNL     1      17.354   4.755   8.162  1.00  0.00     0.057 A 
ATOM     83  C   UNL     1      16.651   5.843   7.631  1.00  0.00     0.134 A 
ATOM     84  C   UNL     1      18.592   5.013   8.765  1.00  0.00     0.134 A 
ATOM     85  F   UNL     1      15.462   5.661   7.037  1.00  0.00    -0.206 F 
ATOM     86  C   UNL     1      17.158   7.141   7.700  1.00  0.00     0.040 A 
ATOM     87  C   UNL     1      19.098   6.310   8.861  1.00  0.00     0.040 A 
ATOM     88  F   UNL     1      19.305   4.015   9.308  1.00  0.00    -0.206 F 
ATOM     89  C   UNL     1      18.382   7.378   8.324  1.00  0.00     0.006 A 
ENDBRANCH  65  82
ENDBRANCH  39  40
ENDBRANCH  31  34
ENDBRANCH  29  30
ENDBRANCH  28  29
ENDBRANCH   1  28
TORSDOF 15
