REMARK SMILES O=C(Cc1c(C(=O)c2cc3c(cn2)CCCC3)[nH]c2cc(Cl)ccc12)NCCCCCCNC(=O)c1ccc(-c2c3nc(c(-c4c(F)cccc4F)c4ccc([nH]4)c(-c4c(F)cccc4F)c4nc(c(-c5c(F)cccc5F)c5ccc2[nH]5)C=C4)C=C3)cc1
REMARK SMILES IDX 29 1 28 2 27 3 26 4 1 5 2 6 3 8 4 9 5 10 25 11 18 12 19 13
REMARK SMILES IDX 24 14 20 16 23 17 21 18 22 19 6 20 7 21 8 22 9 23 13 24
REMARK SMILES IDX 10 25 12 26 11 27 17 28 14 29 16 30 15 31 30 32 31 33 32 34
REMARK SMILES IDX 33 35 34 36 35 38 36 39 37 40 89 41 38 42 88 43 39 44 40 45
REMARK SMILES IDX 41 46 82 47 42 48 87 49 81 50 83 51 43 52 86 53 80 54 79 55
REMARK SMILES IDX 44 57 70 58 53 59 69 60 54 61 57 62 68 63 84 64 55 65 56 66
REMARK SMILES IDX 67 68 85 69 58 70 45 71 46 72 51 73 47 74 48 75 50 76 52 77
REMARK SMILES IDX 49 78 71 79 72 80 77 81 73 82 74 83 76 84 78 85 75 86 59 87
REMARK SMILES IDX 60 88 65 89 61 90 62 91 64 92 66 93 63 94
REMARK H PARENT 26 7 18 15 33 37 83 56 57 67
REMARK Flexibility Score: inf
ROOT
ATOM      1  C   UNL     1       3.909   3.886   0.797  1.00  0.00     0.002 C 
ENDROOT
BRANCH   1   2
ATOM      2  C   UNL     1       2.410   3.556   0.855  1.00  0.00     0.021 C 
BRANCH   2   3
ATOM      3  C   UNL     1       1.942   2.427  -0.068  1.00  0.00     0.116 C 
BRANCH   3   4
ATOM      4  N   UNL     1       2.659   1.192   0.154  1.00  0.00    -0.356 N 
ATOM      5  O   UNL     1       1.145  -0.180  -0.889  1.00  0.00    -0.275 OA
ATOM      6  C   UNL     1       2.211  -0.030  -0.297  1.00  0.00     0.224 C 
ATOM      7  H   UNL     1       3.508   1.226   0.652  1.00  0.00     0.163 HD
BRANCH   6   8
ATOM      8  C   UNL     1       3.169  -1.180  -0.008  1.00  0.00     0.138 C 
BRANCH   8   9
ATOM      9  C   UNL     1       4.012  -1.565  -1.196  1.00  0.00    -0.002 A 
ATOM     10  C   UNL     1       4.905  -0.756  -1.901  1.00  0.00     0.093 A 
ATOM     11  C   UNL     1       4.120  -2.887  -1.745  1.00  0.00     0.004 A 
ATOM     12  N   UNL     1       5.449  -1.529  -2.901  1.00  0.00    -0.351 N 
ATOM     13  C   UNL     1       5.025  -2.829  -2.802  1.00  0.00     0.048 A 
ATOM     14  C   UNL     1       3.559  -4.139  -1.413  1.00  0.00     0.012 A 
ATOM     15  H   UNL     1       6.062  -1.194  -3.595  1.00  0.00     0.167 HD
ATOM     16  C   UNL     1       5.398  -3.952  -3.551  1.00  0.00     0.047 A 
ATOM     17  C   UNL     1       3.936  -5.280  -2.135  1.00  0.00     0.021 A 
ATOM     18  C   UNL     1       4.841  -5.180  -3.186  1.00  0.00     0.043 A 
ATOM     19  Cl  UNL     1       5.301  -6.598  -4.049  1.00  0.00    -0.084 Cl
BRANCH  10  20
ATOM     20  C   UNL     1       5.305   0.616  -1.618  1.00  0.00     0.227 C 
ATOM     21  O   UNL     1       5.273   1.070  -0.475  1.00  0.00    -0.285 OA
BRANCH  20  22
ATOM     22  C   UNL     1       5.789   1.489  -2.737  1.00  0.00     0.113 A 
ATOM     23  C   UNL     1       5.181   1.470  -3.990  1.00  0.00     0.036 A 
ATOM     24  N   UNL     1       6.836   2.294  -2.432  1.00  0.00    -0.252 NA
ATOM     25  C   UNL     1       5.700   2.289  -5.003  1.00  0.00    -0.041 A 
ATOM     26  C   UNL     1       7.310   3.084  -3.417  1.00  0.00     0.115 A 
ATOM     27  C   UNL     1       6.807   3.100  -4.714  1.00  0.00    -0.026 A 
ATOM     28  C   UNL     1       5.109   2.229  -6.391  1.00  0.00     0.036 C 
ATOM     29  C   UNL     1       7.419   4.010  -5.744  1.00  0.00     0.037 C 
ATOM     30  C   UNL     1       5.590   3.348  -7.317  1.00  0.00     0.005 C 
ATOM     31  C   UNL     1       7.090   3.572  -7.169  1.00  0.00     0.005 C 
ENDBRANCH  20  22
ENDBRANCH  10  20
ENDBRANCH   8   9
ENDBRANCH   6   8
ENDBRANCH   3   4
ENDBRANCH   2   3
ENDBRANCH   1   2
BRANCH   1  32
ATOM     32  C   UNL     1       4.457   4.234  -0.589  1.00  0.00     0.002 C 
BRANCH  32  33
ATOM     33  C   UNL     1       3.873   5.484  -1.240  1.00  0.00     0.021 C 
BRANCH  33  34
ATOM     34  C   UNL     1       4.022   6.762  -0.429  1.00  0.00     0.116 C 
BRANCH  34  35
ATOM     35  N   UNL     1       5.405   7.172  -0.229  1.00  0.00    -0.352 N 
ATOM     36  C   UNL     1       5.928   8.448  -0.227  1.00  0.00     0.251 C 
ATOM     37  H   UNL     1       6.050   6.444  -0.076  1.00  0.00     0.163 HD
ATOM     38  O   UNL     1       7.131   8.636  -0.143  1.00  0.00    -0.269 OA
BRANCH  36  39
ATOM     39  C   UNL     1       5.005   9.597  -0.387  1.00  0.00     0.039 A 
ATOM     40  C   UNL     1       3.830   9.672   0.361  1.00  0.00     0.014 A 
ATOM     41  C   UNL     1       5.289  10.565  -1.355  1.00  0.00     0.014 A 
ATOM     42  C   UNL     1       2.856  10.602   0.016  1.00  0.00     0.010 A 
ATOM     43  C   UNL     1       4.342  11.551  -1.643  1.00  0.00     0.010 A 
ATOM     44  C   UNL     1       3.093  11.541  -1.002  1.00  0.00    -0.014 A 
BRANCH  44  45
ATOM     45  C   UNL     1       2.009  12.477  -1.395  1.00  0.00     0.031 A 
ATOM     46  C   UNL     1       1.380  12.397  -2.762  1.00  0.00     0.074 A 
ATOM     47  C   UNL     1       1.541  13.361  -0.493  1.00  0.00     0.049 A 
ATOM     48  N   UNL     1       0.409  13.117  -3.268  1.00  0.00    -0.248 NA
ATOM     49  C   UNL     1       1.910  11.379  -3.683  1.00  0.00     0.031 C 
ATOM     50  C   UNL     1       2.054  13.526   0.868  1.00  0.00     0.029 A 
ATOM     51  N   UNL     1       0.513  14.264  -0.575  1.00  0.00    -0.354 N 
ATOM     52  C   UNL     1       0.230  12.658  -4.567  1.00  0.00     0.074 A 
ATOM     53  C   UNL     1       1.206  11.612  -4.782  1.00  0.00     0.031 C 
ATOM     54  C   UNL     1       1.304  14.433   1.512  1.00  0.00     0.029 A 
ATOM     55  C   UNL     1       0.297  14.954   0.593  1.00  0.00     0.049 A 
ATOM     56  H   UNL     1      -0.019  14.404  -1.391  1.00  0.00     0.167 HD
ATOM     57  C   UNL     1      -0.671  13.065  -5.494  1.00  0.00     0.037 A 
ATOM     58  C   UNL     1      -0.604  15.908   0.888  1.00  0.00     0.037 A 
ATOM     59  C   UNL     1      -1.666  14.082  -5.272  1.00  0.00     0.049 A 
ATOM     60  C   UNL     1      -1.566  16.363  -0.169  1.00  0.00     0.074 A 
ATOM     61  C   UNL     1      -2.646  14.536  -6.139  1.00  0.00     0.029 A 
ATOM     62  N   UNL     1      -1.809  14.802  -4.097  1.00  0.00    -0.354 N 
ATOM     63  N   UNL     1      -1.723  15.916  -1.391  1.00  0.00    -0.248 NA
ATOM     64  C   UNL     1      -2.465  17.467   0.192  1.00  0.00     0.031 C 
ATOM     65  C   UNL     1      -3.361  15.555  -5.499  1.00  0.00     0.029 A 
ATOM     66  C   UNL     1      -2.847  15.712  -4.222  1.00  0.00     0.049 A 
ATOM     67  H   UNL     1      -1.255  14.685  -3.291  1.00  0.00     0.167 HD
ATOM     68  C   UNL     1      -2.742  16.680  -1.943  1.00  0.00     0.074 A 
ATOM     69  C   UNL     1      -3.182  17.601  -0.915  1.00  0.00     0.031 C 
ATOM     70  C   UNL     1      -3.264  16.627  -3.193  1.00  0.00     0.037 A 
BRANCH  57  71
ATOM     71  C   UNL     1      -0.616  12.415  -6.846  1.00  0.00     0.057 A 
ATOM     72  C   UNL     1      -0.127  13.120  -7.954  1.00  0.00     0.134 A 
ATOM     73  C   UNL     1      -1.080  11.112  -7.061  1.00  0.00     0.134 A 
ATOM     74  F   UNL     1       0.328  14.374  -7.817  1.00  0.00    -0.206 F 
ATOM     75  C   UNL     1      -0.105  12.551  -9.228  1.00  0.00     0.040 A 
ATOM     76  C   UNL     1      -1.044  10.525  -8.328  1.00  0.00     0.040 A 
ATOM     77  F   UNL     1      -1.548  10.380  -6.039  1.00  0.00    -0.206 F 
ATOM     78  C   UNL     1      -0.561  11.248  -9.417  1.00  0.00     0.006 A 
ENDBRANCH  57  71
BRANCH  58  79
ATOM     79  C   UNL     1      -0.632  16.505   2.245  1.00  0.00     0.057 A 
ATOM     80  C   UNL     1       0.390  17.352   2.689  1.00  0.00     0.134 A 
ATOM     81  C   UNL     1      -1.688  16.245   3.125  1.00  0.00     0.134 A 
ATOM     82  F   UNL     1       1.429  17.636   1.891  1.00  0.00    -0.206 F 
ATOM     83  C   UNL     1       0.369  17.912   3.967  1.00  0.00     0.040 A 
ATOM     84  C   UNL     1      -1.733  16.816   4.397  1.00  0.00     0.040 A 
ATOM     85  F   UNL     1      -2.704  15.457   2.746  1.00  0.00    -0.206 F 
ATOM     86  C   UNL     1      -0.699  17.648   4.823  1.00  0.00     0.006 A 
ENDBRANCH  58  79
BRANCH  70  87
ATOM     87  C   UNL     1      -4.369  17.590  -3.502  1.00  0.00     0.057 A 
ATOM     88  C   UNL     1      -5.697  17.154  -3.587  1.00  0.00     0.134 A 
ATOM     89  C   UNL     1      -4.116  18.950  -3.717  1.00  0.00     0.134 A 
ATOM     90  F   UNL     1      -6.003  15.862  -3.395  1.00  0.00    -0.206 F 
ATOM     91  C   UNL     1      -6.736  18.040  -3.873  1.00  0.00     0.040 A 
ATOM     92  C   UNL     1      -5.150  19.849  -3.983  1.00  0.00     0.040 A 
ATOM     93  F   UNL     1      -2.866  19.431  -3.631  1.00  0.00    -0.206 F 
ATOM     94  C   UNL     1      -6.464  19.393  -4.065  1.00  0.00     0.006 A 
ENDBRANCH  70  87
ENDBRANCH  44  45
ENDBRANCH  36  39
ENDBRANCH  34  35
ENDBRANCH  33  34
ENDBRANCH  32  33
ENDBRANCH   1  32
TORSDOF 16
