REMARK SMILES NC(=O)CC[C@H](C(=O)NCCCCCCNC(=O)c1ccc(-c2c3nc(c(-c4c(F)cccc4F)c4ccc([nH]4)c(-c4c(F)cccc4F)c4nc(c(-c5c(F)cccc5F)c5ccc2[nH]5)C=C4)C=C3)cc1)N1C(=O)/C(=C/c2ccc(O)c(O)c2)SC1=S
REMARK SMILES IDX 12 1 11 2 10 3 9 4 7 5 8 6 6 8 5 9 4 10 2 11 1 12 3 15 73 16
REMARK SMILES IDX 74 17 87 18 75 19 76 20 86 21 88 22 77 23 78 24 79 25 85 26
REMARK SMILES IDX 80 27 83 28 81 29 84 30 82 32 13 34 14 35 15 36 16 37 17 38
REMARK SMILES IDX 18 40 19 41 20 42 72 43 21 44 71 45 22 46 23 47 24 48 65 49
REMARK SMILES IDX 25 50 70 51 64 52 66 53 26 54 69 55 63 56 62 57 27 59 53 60
REMARK SMILES IDX 36 61 52 62 37 63 40 64 51 65 67 66 38 67 39 68 50 70 68 71
REMARK SMILES IDX 41 72 28 73 29 74 34 75 30 76 31 77 33 78 35 79 32 80 54 81
REMARK SMILES IDX 55 82 60 83 56 84 57 85 59 86 61 87 58 88 42 89 43 90 48 91
REMARK SMILES IDX 44 92 45 93 47 94 49 95 46 96
REMARK H PARENT 9 7 1 13 1 14 84 31 82 33 16 39 66 58 40 69
REMARK Flexibility Score: inf
ROOT
ATOM      1  C   UNL     1       2.580  -5.676   5.124  1.00  0.00     0.002 C 
ENDROOT
BRANCH   1   2
ATOM      2  C   UNL     1       3.689  -4.810   4.530  1.00  0.00     0.021 C 
BRANCH   2   3
ATOM      3  C   UNL     1       3.417  -4.187   3.168  1.00  0.00     0.116 C 
BRANCH   3   4
ATOM      4  N   UNL     1       2.309  -3.266   3.133  1.00  0.00    -0.354 N 
ATOM      5  C   UNL     1       1.980  -2.327   2.206  1.00  0.00     0.243 C 
ATOM      6  O   UNL     1       1.008  -1.611   2.478  1.00  0.00    -0.273 OA
ATOM      7  H   UNL     1       1.695  -3.326   3.900  1.00  0.00     0.163 HD
BRANCH   5   8
ATOM      8  C   UNL     1       2.834  -1.996   0.941  1.00  0.00     0.181 C 
BRANCH   8   9
ATOM      9  C   UNL     1       3.544  -0.636   1.209  1.00  0.00     0.045 C 
BRANCH   9  10
ATOM     10  C   UNL     1       4.855  -0.169   0.576  1.00  0.00     0.102 C 
BRANCH  10  11
ATOM     11  C   UNL     1       5.244  -0.572  -0.827  1.00  0.00     0.217 C 
ATOM     12  N   UNL     1       4.261  -0.885  -1.706  1.00  0.00    -0.370 N 
ATOM     13  H   UNL     1       4.489  -1.151  -2.626  1.00  0.00     0.159 HD
ATOM     14  H   UNL     1       3.318  -0.847  -1.424  1.00  0.00     0.159 HD
ATOM     15  O   UNL     1       6.412  -0.582  -1.205  1.00  0.00    -0.275 OA
ENDBRANCH  10  11
ENDBRANCH   9  10
ENDBRANCH   8   9
BRANCH   8  16
ATOM     16  N   UNL     1       3.538  -3.133   0.323  1.00  0.00    -0.280 N 
ATOM     17  C   UNL     1       4.889  -3.359   0.480  1.00  0.00     0.266 C 
ATOM     18  C   UNL     1       2.858  -4.109  -0.395  1.00  0.00     0.149 C 
ATOM     19  O   UNL     1       5.636  -2.776   1.248  1.00  0.00    -0.268 OA
ATOM     20  C   UNL     1       5.334  -4.525  -0.331  1.00  0.00     0.081 C 
ATOM     21  S   UNL     1       3.969  -5.366  -0.918  1.00  0.00    -0.054 SA
ATOM     22  S   UNL     1       1.230  -4.205  -0.755  1.00  0.00    -0.052 S 
ATOM     23  C   UNL     1       6.640  -4.804  -0.446  1.00  0.00     0.029 C 
BRANCH  23  24
ATOM     24  C   UNL     1       7.319  -5.988  -1.004  1.00  0.00    -0.020 A 
ATOM     25  C   UNL     1       8.569  -6.316  -0.444  1.00  0.00     0.012 A 
ATOM     26  C   UNL     1       6.803  -6.806  -2.018  1.00  0.00     0.058 A 
ATOM     27  C   UNL     1       9.251  -7.472  -0.824  1.00  0.00     0.051 A 
ATOM     28  C   UNL     1       7.475  -7.975  -2.373  1.00  0.00     0.157 A 
ATOM     29  C   UNL     1       8.683  -8.307  -1.770  1.00  0.00     0.157 A 
BRANCH  28  30
ATOM     30  O   UNL     1       6.969  -8.842  -3.303  1.00  0.00    -0.504 OA
ATOM     31  H   UNL     1       7.442  -9.620  -3.524  1.00  0.00     0.293 HD
ENDBRANCH  28  30
BRANCH  29  32
ATOM     32  O   UNL     1       9.319  -9.469  -2.093  1.00  0.00    -0.504 OA
ATOM     33  H   UNL     1      10.132  -9.687  -1.683  1.00  0.00     0.293 HD
ENDBRANCH  29  32
ENDBRANCH  23  24
ENDBRANCH   8  16
ENDBRANCH   5   8
ENDBRANCH   3   4
ENDBRANCH   2   3
ENDBRANCH   1   2
BRANCH   1  34
ATOM     34  C   UNL     1       1.992  -6.764   4.224  1.00  0.00     0.002 C 
BRANCH  34  35
ATOM     35  C   UNL     1       2.978  -7.726   3.561  1.00  0.00     0.021 C 
BRANCH  35  36
ATOM     36  C   UNL     1       4.035  -8.350   4.465  1.00  0.00     0.116 C 
BRANCH  36  37
ATOM     37  N   UNL     1       3.483  -9.034   5.619  1.00  0.00    -0.352 N 
ATOM     38  C   UNL     1       3.832 -10.246   6.162  1.00  0.00     0.251 C 
ATOM     39  H   UNL     1       2.752  -8.561   6.079  1.00  0.00     0.163 HD
ATOM     40  O   UNL     1       3.194 -10.705   7.104  1.00  0.00    -0.269 OA
BRANCH  38  41
ATOM     41  C   UNL     1       4.953 -11.021   5.587  1.00  0.00     0.039 A 
ATOM     42  C   UNL     1       4.767 -12.386   5.354  1.00  0.00     0.014 A 
ATOM     43  C   UNL     1       6.175 -10.417   5.275  1.00  0.00     0.014 A 
ATOM     44  C   UNL     1       5.782 -13.132   4.752  1.00  0.00     0.010 A 
ATOM     45  C   UNL     1       7.158 -11.145   4.610  1.00  0.00     0.010 A 
ATOM     46  C   UNL     1       6.973 -12.510   4.345  1.00  0.00    -0.014 A 
BRANCH  46  47
ATOM     47  C   UNL     1       8.032 -13.276   3.641  1.00  0.00     0.031 A 
ATOM     48  C   UNL     1       9.378 -13.471   4.280  1.00  0.00     0.074 A 
ATOM     49  C   UNL     1       7.799 -13.748   2.401  1.00  0.00     0.049 A 
ATOM     50  N   UNL     1      10.442 -14.067   3.804  1.00  0.00    -0.248 NA
ATOM     51  C   UNL     1       9.561 -12.899   5.623  1.00  0.00     0.031 C 
ATOM     52  C   UNL     1       6.550 -13.583   1.654  1.00  0.00     0.029 A 
ATOM     53  N   UNL     1       8.606 -14.455   1.546  1.00  0.00    -0.354 N 
ATOM     54  C   UNL     1      11.421 -13.929   4.779  1.00  0.00     0.074 A 
ATOM     55  C   UNL     1      10.841 -13.148   5.851  1.00  0.00     0.031 C 
ATOM     56  C   UNL     1       6.668 -14.190   0.462  1.00  0.00     0.029 A 
ATOM     57  C   UNL     1       8.009 -14.754   0.345  1.00  0.00     0.049 A 
ATOM     58  H   UNL     1       9.526 -14.723   1.772  1.00  0.00     0.167 HD
ATOM     59  C   UNL     1      12.680 -14.426   4.791  1.00  0.00     0.037 A 
ATOM     60  C   UNL     1       8.491 -15.404  -0.731  1.00  0.00     0.037 A 
ATOM     61  C   UNL     1      13.247 -15.218   3.730  1.00  0.00     0.049 A 
ATOM     62  C   UNL     1       9.894 -15.942  -0.696  1.00  0.00     0.074 A 
ATOM     63  C   UNL     1      14.492 -15.820   3.674  1.00  0.00     0.029 A 
ATOM     64  N   UNL     1      12.606 -15.511   2.535  1.00  0.00    -0.354 N 
ATOM     65  N   UNL     1      10.784 -15.871   0.264  1.00  0.00    -0.248 NA
ATOM     66  C   UNL     1      10.357 -16.660  -1.892  1.00  0.00     0.031 C 
ATOM     67  C   UNL     1      14.621 -16.439   2.426  1.00  0.00     0.029 A 
ATOM     68  C   UNL     1      13.438 -16.266   1.725  1.00  0.00     0.049 A 
ATOM     69  H   UNL     1      11.694 -15.225   2.298  1.00  0.00     0.167 HD
ATOM     70  C   UNL     1      11.901 -16.552  -0.201  1.00  0.00     0.074 A 
ATOM     71  C   UNL     1      11.570 -17.044  -1.522  1.00  0.00     0.031 C 
ATOM     72  C   UNL     1      13.094 -16.753   0.413  1.00  0.00     0.037 A 
BRANCH  59  73
ATOM     73  C   UNL     1      13.530 -14.125   5.992  1.00  0.00     0.057 A 
ATOM     74  C   UNL     1      13.263 -14.688   7.247  1.00  0.00     0.134 A 
ATOM     75  C   UNL     1      14.640 -13.278   5.889  1.00  0.00     0.134 A 
ATOM     76  F   UNL     1      12.208 -15.499   7.418  1.00  0.00    -0.206 F 
ATOM     77  C   UNL     1      14.050 -14.395   8.363  1.00  0.00     0.040 A 
ATOM     78  C   UNL     1      15.452 -13.000   6.991  1.00  0.00     0.040 A 
ATOM     79  F   UNL     1      14.959 -12.709   4.717  1.00  0.00    -0.206 F 
ATOM     80  C   UNL     1      15.152 -13.553   8.235  1.00  0.00     0.006 A 
ENDBRANCH  59  73
BRANCH  60  81
ATOM     81  C   UNL     1       7.627 -15.606  -1.920  1.00  0.00     0.057 A 
ATOM     82  C   UNL     1       7.136 -16.876  -2.246  1.00  0.00     0.134 A 
ATOM     83  C   UNL     1       7.265 -14.541  -2.754  1.00  0.00     0.134 A 
ATOM     84  F   UNL     1       7.461 -17.938  -1.495  1.00  0.00    -0.206 F 
ATOM     85  C   UNL     1       6.329 -17.083  -3.366  1.00  0.00     0.040 A 
ATOM     86  C   UNL     1       6.439 -14.729  -3.863  1.00  0.00     0.040 A 
ATOM     87  F   UNL     1       7.695 -13.298  -2.492  1.00  0.00    -0.206 F 
ATOM     88  C   UNL     1       5.973 -16.005  -4.175  1.00  0.00     0.006 A 
ENDBRANCH  60  81
BRANCH  72  89
ATOM     89  C   UNL     1      14.117 -17.565  -0.325  1.00  0.00     0.057 A 
ATOM     90  C   UNL     1      14.798 -17.062  -1.441  1.00  0.00     0.134 A 
ATOM     91  C   UNL     1      14.453 -18.853   0.112  1.00  0.00     0.134 A 
ATOM     92  F   UNL     1      14.513 -15.841  -1.918  1.00  0.00    -0.206 F 
ATOM     93  C   UNL     1      15.761 -17.820  -2.110  1.00  0.00     0.040 A 
ATOM     94  C   UNL     1      15.434 -19.610  -0.532  1.00  0.00     0.040 A 
ATOM     95  F   UNL     1      13.845 -19.391   1.180  1.00  0.00    -0.206 F 
ATOM     96  C   UNL     1      16.086 -19.095  -1.650  1.00  0.00     0.006 A 
ENDBRANCH  72  89
ENDBRANCH  46  47
ENDBRANCH  38  41
ENDBRANCH  36  37
ENDBRANCH  35  36
ENDBRANCH  34  35
ENDBRANCH   1  34
TORSDOF 20
