REMARK SMILES CCCCCCNC(=O)Oc1cccc(-c2ccc([C@@H](C)C(=O)NCCCCCCNC(=O)c3ccc(-c4c5nc(c(-c6c(F)cccc6F)c6ccc([nH]6)c(-c6c(F)cccc6F)c6nc(c(-c7c(F)cccc7F)c7ccc4[nH]7)C=C6)C=C5)cc3)cc2)c1
REMARK SMILES IDX 22 1 23 2 24 3 20 5 21 6 19 7 16 8 17 9 89 10 18 11 88 12
REMARK SMILES IDX 15 13 11 14 12 15 90 16 13 17 14 18 10 19 8 20 7 21 9 23
REMARK SMILES IDX 6 24 5 25 4 26 3 27 2 28 1 29 25 30 26 31 27 32 28 33 29 34
REMARK SMILES IDX 30 35 31 36 32 37 33 39 34 40 35 41 87 42 36 43 86 44 37 45
REMARK SMILES IDX 38 46 39 47 80 48 40 49 85 50 79 51 81 52 41 53 84 54 78 55
REMARK SMILES IDX 77 56 42 58 68 59 51 60 67 61 52 62 55 63 66 64 82 65 53 66
REMARK SMILES IDX 54 67 65 69 83 70 56 71 43 72 44 73 49 74 45 75 46 76 48 77
REMARK SMILES IDX 50 78 47 79 69 80 70 81 75 82 71 83 72 84 74 85 76 86 73 87
REMARK SMILES IDX 57 88 58 89 63 90 59 91 60 92 62 93 64 94 61 95
REMARK H PARENT 24 4 7 22 31 38 81 57 55 68
REMARK Flexibility Score: inf
ROOT
ATOM      1  C   UNL     1      -3.794   2.125  14.193  1.00  0.00     0.227 C 
ATOM      2  O   UNL     1      -2.855   2.931  14.185  1.00  0.00    -0.274 OA
ATOM      3  N   UNL     1      -3.657   1.048  15.014  1.00  0.00    -0.356 N 
ATOM      4  H   UNL     1      -2.848   1.068  15.573  1.00  0.00     0.163 HD
ENDROOT
BRANCH   1   5
ATOM      5  C   UNL     1      -5.034   2.388  13.327  1.00  0.00     0.105 C 
ATOM      6  C   UNL     1      -6.326   2.556  14.129  1.00  0.00     0.023 C 
BRANCH   5   7
ATOM      7  C   UNL     1      -5.132   1.494  12.100  1.00  0.00    -0.036 A 
ATOM      8  C   UNL     1      -5.193  -0.173   9.775  1.00  0.00    -0.018 A 
ATOM      9  C   UNL     1      -5.798  -0.561  10.980  1.00  0.00     0.009 A 
ATOM     10  C   UNL     1      -4.568   1.083   9.758  1.00  0.00     0.009 A 
ATOM     11  C   UNL     1      -5.800   0.269  12.105  1.00  0.00     0.005 A 
ATOM     12  C   UNL     1      -4.519   1.893  10.903  1.00  0.00     0.005 A 
BRANCH   8  13
ATOM     13  C   UNL     1      -5.229  -1.061   8.589  1.00  0.00    -0.015 A 
ATOM     14  C   UNL     1      -4.237  -1.956   6.557  1.00  0.00     0.133 A 
ATOM     15  C   UNL     1      -5.328  -2.792   6.345  1.00  0.00     0.047 A 
ATOM     16  C   UNL     1      -4.178  -1.097   7.657  1.00  0.00     0.056 A 
ATOM     17  C   UNL     1      -6.378  -2.775   7.253  1.00  0.00     0.004 A 
ATOM     18  C   UNL     1      -6.331  -1.911   8.351  1.00  0.00     0.009 A 
BRANCH  14  19
ATOM     19  O   UNL     1      -3.273  -1.915   5.538  1.00  0.00    -0.410 OA
BRANCH  19  20
ATOM     20  C   UNL     1      -1.940  -2.093   5.870  1.00  0.00     0.412 C 
ATOM     21  N   UNL     1      -1.109  -1.968   4.791  1.00  0.00    -0.321 N 
ATOM     22  H   UNL     1      -0.147  -2.099   4.955  1.00  0.00     0.167 HD
ATOM     23  O   UNL     1      -1.500  -2.347   6.984  1.00  0.00    -0.224 OA
BRANCH  21  24
ATOM     24  C   UNL     1      -1.503  -1.661   3.430  1.00  0.00     0.119 C 
BRANCH  24  25
ATOM     25  C   UNL     1      -0.908  -0.339   2.948  1.00  0.00     0.021 C 
BRANCH  25  26
ATOM     26  C   UNL     1       0.622  -0.328   2.841  1.00  0.00     0.002 C 
BRANCH  26  27
ATOM     27  C   UNL     1       1.226  -1.399   1.925  1.00  0.00    -0.000 C 
BRANCH  27  28
ATOM     28  C   UNL     1       0.732  -1.378   0.476  1.00  0.00    -0.003 C 
ATOM     29  C   UNL     1       1.083  -0.094  -0.260  1.00  0.00     0.004 C 
ENDBRANCH  27  28
ENDBRANCH  26  27
ENDBRANCH  25  26
ENDBRANCH  24  25
ENDBRANCH  21  24
ENDBRANCH  19  20
ENDBRANCH  14  19
ENDBRANCH   8  13
ENDBRANCH   5   7
ENDBRANCH   1   5
BRANCH   3  30
ATOM     30  C   UNL     1      -4.487  -0.120  15.213  1.00  0.00     0.116 C 
BRANCH  30  31
ATOM     31  C   UNL     1      -3.936  -1.340  14.473  1.00  0.00     0.021 C 
BRANCH  31  32
ATOM     32  C   UNL     1      -2.945  -2.167  15.298  1.00  0.00     0.002 C 
BRANCH  32  33
ATOM     33  C   UNL     1      -3.530  -2.817  16.559  1.00  0.00     0.002 C 
BRANCH  33  34
ATOM     34  C   UNL     1      -4.759  -3.704  16.332  1.00  0.00     0.021 C 
BRANCH  34  35
ATOM     35  C   UNL     1      -4.523  -4.894  15.406  1.00  0.00     0.116 C 
BRANCH  35  36
ATOM     36  N   UNL     1      -3.550  -5.823  15.958  1.00  0.00    -0.352 N 
ATOM     37  C   UNL     1      -3.694  -7.147  16.290  1.00  0.00     0.251 C 
ATOM     38  H   UNL     1      -2.655  -5.446  16.118  1.00  0.00     0.163 HD
ATOM     39  O   UNL     1      -2.836  -7.713  16.960  1.00  0.00    -0.269 OA
BRANCH  37  40
ATOM     40  C   UNL     1      -4.889  -7.895  15.845  1.00  0.00     0.039 A 
ATOM     41  C   UNL     1      -5.529  -8.749  16.748  1.00  0.00     0.014 A 
ATOM     42  C   UNL     1      -5.355  -7.782  14.533  1.00  0.00     0.014 A 
ATOM     43  C   UNL     1      -6.670  -9.449  16.349  1.00  0.00     0.010 A 
ATOM     44  C   UNL     1      -6.529  -8.429  14.156  1.00  0.00     0.010 A 
ATOM     45  C   UNL     1      -7.194  -9.274  15.058  1.00  0.00    -0.014 A 
BRANCH  45  46
ATOM     46  C   UNL     1      -8.426  -9.978  14.621  1.00  0.00     0.031 A 
ATOM     47  C   UNL     1      -8.357 -10.996  13.516  1.00  0.00     0.074 A 
ATOM     48  C   UNL     1      -9.612  -9.659  15.174  1.00  0.00     0.049 A 
ATOM     49  N   UNL     1      -9.329 -11.642  12.923  1.00  0.00    -0.248 NA
ATOM     50  C   UNL     1      -7.018 -11.313  12.992  1.00  0.00     0.031 C 
ATOM     51  C   UNL     1      -9.815  -8.669  16.234  1.00  0.00     0.029 A 
ATOM     52  N   UNL     1     -10.876 -10.126  14.911  1.00  0.00    -0.354 N 
ATOM     53  C   UNL     1      -8.722 -12.431  11.954  1.00  0.00     0.074 A 
ATOM     54  C   UNL     1      -7.304 -12.145  12.002  1.00  0.00     0.031 C 
ATOM     55  C   UNL     1     -11.121  -8.616  16.542  1.00  0.00     0.029 A 
ATOM     56  C   UNL     1     -11.852  -9.537  15.677  1.00  0.00     0.049 A 
ATOM     57  H   UNL     1     -11.064 -10.819  14.237  1.00  0.00     0.167 HD
ATOM     58  C   UNL     1      -9.290 -13.331  11.117  1.00  0.00     0.037 A 
ATOM     59  C   UNL     1     -13.187  -9.712  15.672  1.00  0.00     0.037 A 
ATOM     60  C   UNL     1     -10.697 -13.630  11.086  1.00  0.00     0.049 A 
ATOM     61  C   UNL     1     -13.795 -10.699  14.713  1.00  0.00     0.074 A 
ATOM     62  C   UNL     1     -11.367 -14.545  10.292  1.00  0.00     0.029 A 
ATOM     63  N   UNL     1     -11.650 -13.024  11.890  1.00  0.00    -0.354 N 
ATOM     64  N   UNL     1     -13.204 -11.467  13.830  1.00  0.00    -0.248 NA
ATOM     65  C   UNL     1     -15.257 -10.847  14.753  1.00  0.00     0.031 C 
ATOM     66  C   UNL     1     -12.730 -14.471  10.594  1.00  0.00     0.029 A 
ATOM     67  C   UNL     1     -12.903 -13.540  11.606  1.00  0.00     0.049 A 
ATOM     68  H   UNL     1     -11.463 -12.331  12.563  1.00  0.00     0.167 HD
ATOM     69  C   UNL     1     -14.214 -12.214  13.239  1.00  0.00     0.074 A 
ATOM     70  C   UNL     1     -15.455 -11.814  13.869  1.00  0.00     0.031 C 
ATOM     71  C   UNL     1     -14.124 -13.148  12.262  1.00  0.00     0.037 A 
BRANCH  58  72
ATOM     72  C   UNL     1      -8.386 -14.070  10.175  1.00  0.00     0.057 A 
ATOM     73  C   UNL     1      -7.502 -15.057  10.630  1.00  0.00     0.134 A 
ATOM     74  C   UNL     1      -8.431 -13.829   8.796  1.00  0.00     0.134 A 
ATOM     75  F   UNL     1      -7.403 -15.328  11.941  1.00  0.00    -0.206 F 
ATOM     76  C   UNL     1      -6.682 -15.764   9.751  1.00  0.00     0.040 A 
ATOM     77  C   UNL     1      -7.634 -14.548   7.904  1.00  0.00     0.040 A 
ATOM     78  F   UNL     1      -9.259 -12.901   8.293  1.00  0.00    -0.206 F 
ATOM     79  C   UNL     1      -6.752 -15.516   8.382  1.00  0.00     0.006 A 
ENDBRANCH  58  72
BRANCH  59  80
ATOM     80  C   UNL     1     -14.049  -8.951  16.613  1.00  0.00     0.057 A 
ATOM     81  C   UNL     1     -14.716  -9.598  17.660  1.00  0.00     0.134 A 
ATOM     82  C   UNL     1     -14.256  -7.575  16.468  1.00  0.00     0.134 A 
ATOM     83  F   UNL     1     -14.572 -10.919  17.838  1.00  0.00    -0.206 F 
ATOM     84  C   UNL     1     -15.581  -8.909  18.513  1.00  0.00     0.040 A 
ATOM     85  C   UNL     1     -15.098  -6.869  17.330  1.00  0.00     0.040 A 
ATOM     86  F   UNL     1     -13.642  -6.895  15.489  1.00  0.00    -0.206 F 
ATOM     87  C   UNL     1     -15.772  -7.539  18.349  1.00  0.00     0.006 A 
ENDBRANCH  59  80
BRANCH  71  88
ATOM     88  C   UNL     1     -15.389 -13.842  11.854  1.00  0.00     0.057 A 
ATOM     89  C   UNL     1     -16.373 -13.201  11.092  1.00  0.00     0.134 A 
ATOM     90  C   UNL     1     -15.604 -15.184  12.195  1.00  0.00     0.134 A 
ATOM     91  F   UNL     1     -16.233 -11.913  10.745  1.00  0.00    -0.206 F 
ATOM     92  C   UNL     1     -17.537 -13.864  10.700  1.00  0.00     0.040 A 
ATOM     93  C   UNL     1     -16.751 -15.865  11.787  1.00  0.00     0.040 A 
ATOM     94  F   UNL     1     -14.695 -15.857  12.917  1.00  0.00    -0.206 F 
ATOM     95  C   UNL     1     -17.724 -15.203  11.042  1.00  0.00     0.006 A 
ENDBRANCH  71  88
ENDBRANCH  45  46
ENDBRANCH  37  40
ENDBRANCH  35  36
ENDBRANCH  34  35
ENDBRANCH  33  34
ENDBRANCH  32  33
ENDBRANCH  31  32
ENDBRANCH  30  31
ENDBRANCH   3  30
TORSDOF 22
