REMARK SMILES COc1cc(S(=O)(=O)Nc2cccc(C(=O)NCCCCCCNC(=O)c3ccc(-c4c5nc(c(-c6c(F)cccc6F)c6ccc([nH]6)c(-c6c(F)cccc6F)c6nc(c(-c7c(F)cccc7F)c7ccc4[nH]7)C=C6)C=C5)cc3)c2)c(OC)cc1C
REMARK SMILES IDX 19 1 18 2 17 3 15 4 16 5 14 7 10 8 11 9 81 10 12 11 13 12
REMARK SMILES IDX 9 13 6 15 7 16 8 17 5 18 3 19 4 20 86 21 85 22 87 23 82 24
REMARK SMILES IDX 2 25 1 26 83 27 84 28 20 29 21 30 22 31 23 32 24 33 25 34
REMARK SMILES IDX 26 36 27 37 28 38 80 39 29 40 79 41 30 42 31 43 32 44 73 45
REMARK SMILES IDX 33 46 78 47 72 48 74 49 34 50 77 51 71 52 70 53 35 55 61 56
REMARK SMILES IDX 44 57 60 58 45 59 48 60 59 61 75 62 46 63 47 64 58 66 76 67
REMARK SMILES IDX 49 68 36 69 37 70 42 71 38 72 39 73 41 74 43 75 40 76 62 77
REMARK SMILES IDX 63 78 68 79 64 80 65 81 67 82 69 83 66 84 50 85 51 86 56 87
REMARK SMILES IDX 52 88 53 89 55 90 57 91 54 92
REMARK H PARENT 17 6 9 14 24 35 74 54 48 65
REMARK Flexibility Score: inf
ROOT
ATOM      1  C   UNL     1       7.198  -8.499  -4.180  1.00  0.00     0.021 C 
ENDROOT
BRANCH   1   2
ATOM      2  C   UNL     1       5.991  -7.588  -4.402  1.00  0.00     0.116 C 
BRANCH   2   3
ATOM      3  N   UNL     1       4.908  -8.329  -5.018  1.00  0.00    -0.352 N 
ATOM      4  C   UNL     1       3.716  -8.792  -4.530  1.00  0.00     0.251 C 
ATOM      5  O   UNL     1       2.971  -9.404  -5.294  1.00  0.00    -0.269 OA
ATOM      6  H   UNL     1       5.059  -8.538  -5.968  1.00  0.00     0.163 HD
BRANCH   4   7
ATOM      7  C   UNL     1       3.241  -8.477  -3.162  1.00  0.00     0.041 A 
ATOM      8  C   UNL     1       1.391  -7.573  -1.868  1.00  0.00     0.050 A 
ATOM      9  C   UNL     1       2.177  -7.609  -0.719  1.00  0.00     0.027 A 
ATOM     10  C   UNL     1       1.904  -8.075  -3.066  1.00  0.00     0.040 A 
ATOM     11  C   UNL     1       3.495  -8.078  -0.793  1.00  0.00     0.003 A 
ATOM     12  C   UNL     1       4.031  -8.507  -2.013  1.00  0.00     0.014 A 
BRANCH   8  13
ATOM     13  N   UNL     1       0.094  -7.002  -1.944  1.00  0.00    -0.279 N 
ATOM     14  H   UNL     1      -0.517  -7.372  -2.622  1.00  0.00     0.180 HD
BRANCH  13  15
ATOM     15  S   UNL     1      -0.492  -5.766  -0.994  1.00  0.00     0.265 S 
ATOM     16  O   UNL     1      -0.506  -6.234   0.377  1.00  0.00    -0.201 OA
ATOM     17  O   UNL     1      -1.726  -5.355  -1.638  1.00  0.00    -0.201 OA
BRANCH  15  18
ATOM     18  C   UNL     1       0.571  -4.339  -1.021  1.00  0.00     0.133 A 
ATOM     19  C   UNL     1       1.005  -2.222   0.106  1.00  0.00     0.123 A 
ATOM     20  C   UNL     1       0.189  -3.328  -0.116  1.00  0.00     0.073 A 
ATOM     21  C   UNL     1       2.272  -2.170  -0.472  1.00  0.00    -0.005 A 
ATOM     22  C   UNL     1       2.601  -3.127  -1.444  1.00  0.00     0.055 A 
ATOM     23  C   UNL     1       3.288  -1.126  -0.114  1.00  0.00     0.048 C 
ATOM     24  C   UNL     1       1.738  -4.187  -1.771  1.00  0.00     0.139 A 
BRANCH  19  25
ATOM     25  O   UNL     1       0.526  -1.273   0.966  1.00  0.00    -0.496 OA
ATOM     26  C   UNL     1       0.433   0.018   0.356  1.00  0.00     0.278 C 
ENDBRANCH  19  25
BRANCH  24  27
ATOM     27  O   UNL     1       1.978  -5.021  -2.822  1.00  0.00    -0.495 OA
ATOM     28  C   UNL     1       3.245  -4.933  -3.469  1.00  0.00     0.278 C 
ENDBRANCH  24  27
ENDBRANCH  15  18
ENDBRANCH  13  15
ENDBRANCH   8  13
ENDBRANCH   4   7
ENDBRANCH   2   3
ENDBRANCH   1   2
BRANCH   1  29
ATOM     29  C   UNL     1       7.912  -8.927  -5.473  1.00  0.00     0.002 C 
BRANCH  29  30
ATOM     30  C   UNL     1       8.461  -7.793  -6.356  1.00  0.00     0.002 C 
BRANCH  30  31
ATOM     31  C   UNL     1       9.320  -6.748  -5.642  1.00  0.00     0.021 C 
BRANCH  31  32
ATOM     32  C   UNL     1      10.641  -7.292  -5.119  1.00  0.00     0.116 C 
BRANCH  32  33
ATOM     33  N   UNL     1      11.726  -7.273  -6.090  1.00  0.00    -0.352 N 
ATOM     34  C   UNL     1      13.035  -7.708  -5.984  1.00  0.00     0.251 C 
ATOM     35  H   UNL     1      11.490  -6.888  -6.964  1.00  0.00     0.163 HD
ATOM     36  O   UNL     1      13.819  -7.464  -6.899  1.00  0.00    -0.269 OA
BRANCH  34  37
ATOM     37  C   UNL     1      13.463  -8.604  -4.877  1.00  0.00     0.039 A 
ATOM     38  C   UNL     1      14.433  -9.582  -5.160  1.00  0.00     0.014 A 
ATOM     39  C   UNL     1      12.769  -8.663  -3.678  1.00  0.00     0.014 A 
ATOM     40  C   UNL     1      14.489 -10.745  -4.394  1.00  0.00     0.010 A 
ATOM     41  C   UNL     1      12.717  -9.859  -3.008  1.00  0.00     0.010 A 
ATOM     42  C   UNL     1      13.535 -10.921  -3.403  1.00  0.00    -0.014 A 
BRANCH  42  43
ATOM     43  C   UNL     1      13.248 -12.159  -2.701  1.00  0.00     0.031 A 
ATOM     44  C   UNL     1      13.573 -12.252  -1.265  1.00  0.00     0.074 A 
ATOM     45  C   UNL     1      12.399 -13.036  -3.280  1.00  0.00     0.049 A 
ATOM     46  N   UNL     1      13.372 -13.299  -0.546  1.00  0.00    -0.248 NA
ATOM     47  C   UNL     1      14.201 -11.163  -0.524  1.00  0.00     0.031 C 
ATOM     48  C   UNL     1      11.538 -14.011  -2.617  1.00  0.00     0.029 A 
ATOM     49  N   UNL     1      12.285 -13.348  -4.642  1.00  0.00    -0.354 N 
ATOM     50  C   UNL     1      13.567 -12.954   0.771  1.00  0.00     0.074 A 
ATOM     51  C   UNL     1      14.191 -11.656   0.718  1.00  0.00     0.031 C 
ATOM     52  C   UNL     1      11.203 -14.967  -3.497  1.00  0.00     0.029 A 
ATOM     53  C   UNL     1      11.998 -14.736  -4.689  1.00  0.00     0.049 A 
ATOM     54  H   UNL     1      12.384 -12.733  -5.404  1.00  0.00     0.167 HD
ATOM     55  C   UNL     1      13.068 -13.786   1.730  1.00  0.00     0.037 A 
ATOM     56  C   UNL     1      12.913 -15.620  -5.193  1.00  0.00     0.037 A 
ATOM     57  C   UNL     1      12.605 -15.039   1.125  1.00  0.00     0.049 A 
ATOM     58  C   UNL     1      13.418 -16.654  -4.205  1.00  0.00     0.074 A 
ATOM     59  C   UNL     1      11.376 -15.579   0.790  1.00  0.00     0.029 A 
ATOM     60  N   UNL     1      13.552 -15.845   0.525  1.00  0.00    -0.354 N 
ATOM     61  N   UNL     1      13.122 -16.661  -2.935  1.00  0.00    -0.248 NA
ATOM     62  C   UNL     1      14.369 -17.712  -4.553  1.00  0.00     0.031 C 
ATOM     63  C   UNL     1      11.610 -16.714  -0.047  1.00  0.00     0.029 A 
ATOM     64  C   UNL     1      12.977 -16.867  -0.195  1.00  0.00     0.049 A 
ATOM     65  H   UNL     1      14.523 -15.705   0.603  1.00  0.00     0.167 HD
ATOM     66  C   UNL     1      13.867 -17.614  -2.294  1.00  0.00     0.074 A 
ATOM     67  C   UNL     1      14.620 -18.261  -3.351  1.00  0.00     0.031 C 
ATOM     68  C   UNL     1      13.853 -17.759  -0.938  1.00  0.00     0.037 A 
BRANCH  55  69
ATOM     69  C   UNL     1      12.859 -13.476   3.197  1.00  0.00     0.057 A 
ATOM     70  C   UNL     1      12.203 -14.416   4.021  1.00  0.00     0.134 A 
ATOM     71  C   UNL     1      13.184 -12.276   3.856  1.00  0.00     0.134 A 
ATOM     72  F   UNL     1      11.859 -15.631   3.571  1.00  0.00    -0.206 F 
ATOM     73  C   UNL     1      11.852 -14.161   5.354  1.00  0.00     0.040 A 
ATOM     74  C   UNL     1      12.856 -12.015   5.195  1.00  0.00     0.040 A 
ATOM     75  F   UNL     1      13.824 -11.271   3.260  1.00  0.00    -0.206 F 
ATOM     76  C   UNL     1      12.171 -12.951   5.946  1.00  0.00     0.006 A 
ENDBRANCH  55  69
BRANCH  56  77
ATOM     77  C   UNL     1      13.729 -15.009  -6.277  1.00  0.00     0.057 A 
ATOM     78  C   UNL     1      13.077 -14.621  -7.462  1.00  0.00     0.134 A 
ATOM     79  C   UNL     1      14.956 -14.402  -5.991  1.00  0.00     0.134 A 
ATOM     80  F   UNL     1      11.897 -15.168  -7.793  1.00  0.00    -0.206 F 
ATOM     81  C   UNL     1      13.550 -13.568  -8.247  1.00  0.00     0.040 A 
ATOM     82  C   UNL     1      15.447 -13.357  -6.782  1.00  0.00     0.040 A 
ATOM     83  F   UNL     1      15.627 -14.712  -4.872  1.00  0.00    -0.206 F 
ATOM     84  C   UNL     1      14.719 -12.905  -7.882  1.00  0.00     0.006 A 
ENDBRANCH  56  77
BRANCH  68  85
ATOM     85  C   UNL     1      14.704 -18.746  -0.191  1.00  0.00     0.057 A 
ATOM     86  C   UNL     1      14.769 -20.099  -0.542  1.00  0.00     0.134 A 
ATOM     87  C   UNL     1      15.381 -18.386   0.993  1.00  0.00     0.134 A 
ATOM     88  F   UNL     1      14.134 -20.559  -1.629  1.00  0.00    -0.206 F 
ATOM     89  C   UNL     1      15.473 -21.032   0.231  1.00  0.00     0.040 A 
ATOM     90  C   UNL     1      16.039 -19.316   1.800  1.00  0.00     0.040 A 
ATOM     91  F   UNL     1      15.456 -17.112   1.403  1.00  0.00    -0.206 F 
ATOM     92  C   UNL     1      16.093 -20.646   1.415  1.00  0.00     0.006 A 
ENDBRANCH  68  85
ENDBRANCH  42  43
ENDBRANCH  34  37
ENDBRANCH  32  33
ENDBRANCH  31  32
ENDBRANCH  30  31
ENDBRANCH  29  30
ENDBRANCH   1  29
TORSDOF 18
