REMARK SMILES Cc1ccc(/C=C2/SC(=O)N(CC(=O)NCCCCCCNC(=O)c3ccc(-c4c5nc(c(-c6c(F)cccc6F)c6ccc([nH]6)c(-c6c(F)cccc6F)c6nc(c(-c7c(F)cccc7F)c7ccc4[nH]7)C=C6)C=C5)cc3)C2=O)cc1
REMARK SMILES IDX 18 1 17 2 16 3 15 4 13 5 14 6 12 8 11 9 6 10 7 11 8 12 79 13
REMARK SMILES IDX 9 14 80 15 10 16 5 17 1 18 2 19 3 20 82 21 4 22 81 23 19 24
REMARK SMILES IDX 20 25 21 26 22 27 23 28 24 30 25 31 26 32 78 33 27 34 77 35
REMARK SMILES IDX 28 36 29 37 30 38 71 39 31 40 76 41 70 42 72 43 32 44 75 45
REMARK SMILES IDX 69 46 68 47 33 49 59 50 42 51 58 52 43 53 46 54 57 55 73 56
REMARK SMILES IDX 44 57 45 58 56 60 74 61 47 62 34 63 35 64 40 65 36 66 37 67
REMARK SMILES IDX 39 68 41 69 38 70 60 71 61 72 66 73 62 74 63 75 65 76 67 77
REMARK SMILES IDX 64 78 48 79 49 80 54 81 50 82 51 83 53 84 55 85 52 86
REMARK H PARENT 15 7 22 29 72 48 46 59
REMARK Flexibility Score: inf
ROOT
ATOM      1  C   UNL     1      -4.169   6.164  -1.187  1.00  0.00     0.002 C 
ENDROOT
BRANCH   1   2
ATOM      2  C   UNL     1      -4.750   4.819  -1.650  1.00  0.00     0.021 C 
BRANCH   2   3
ATOM      3  C   UNL     1      -4.717   4.596  -3.160  1.00  0.00     0.116 C 
BRANCH   3   4
ATOM      4  N   UNL     1      -3.372   4.412  -3.652  1.00  0.00    -0.355 N 
ATOM      5  C   UNL     1      -2.836   3.372  -4.351  1.00  0.00     0.240 C 
ATOM      6  O   UNL     1      -1.764   3.575  -4.928  1.00  0.00    -0.273 OA
ATOM      7  H   UNL     1      -2.749   5.148  -3.453  1.00  0.00     0.163 HD
BRANCH   5   8
ATOM      8  C   UNL     1      -3.604   2.060  -4.546  1.00  0.00     0.229 C 
BRANCH   8   9
ATOM      9  N   UNL     1      -4.043   1.471  -3.294  1.00  0.00    -0.259 N 
ATOM     10  C   UNL     1      -3.213   0.034  -0.056  1.00  0.00     0.029 C 
ATOM     11  C   UNL     1      -3.794   0.459  -1.187  1.00  0.00     0.083 C 
ATOM     12  S   UNL     1      -5.504   0.510  -1.414  1.00  0.00    -0.022 SA
ATOM     13  C   UNL     1      -3.115   0.970  -2.416  1.00  0.00     0.268 C 
ATOM     14  C   UNL     1      -5.358   1.230  -3.009  1.00  0.00     0.294 C 
ATOM     15  O   UNL     1      -1.914   0.936  -2.632  1.00  0.00    -0.268 OA
ATOM     16  O   UNL     1      -6.319   1.463  -3.714  1.00  0.00    -0.261 OA
BRANCH  10  17
ATOM     17  C   UNL     1      -1.762   0.011   0.136  1.00  0.00    -0.024 A 
ATOM     18  C   UNL     1       2.539  -0.055   0.073  1.00  0.00     0.044 C 
ATOM     19  C   UNL     1       1.042  -0.028   0.161  1.00  0.00    -0.051 A 
ATOM     20  C   UNL     1       0.317  -1.225   0.100  1.00  0.00     0.004 A 
ATOM     21  C   UNL     1       0.353   1.184   0.267  1.00  0.00     0.004 A 
ATOM     22  C   UNL     1      -1.079  -1.207   0.087  1.00  0.00     0.008 A 
ATOM     23  C   UNL     1      -1.042   1.204   0.266  1.00  0.00     0.008 A 
ENDBRANCH  10  17
ENDBRANCH   8   9
ENDBRANCH   5   8
ENDBRANCH   3   4
ENDBRANCH   2   3
ENDBRANCH   1   2
BRANCH   1  24
ATOM     24  C   UNL     1      -4.679   7.415  -1.919  1.00  0.00     0.002 C 
BRANCH  24  25
ATOM     25  C   UNL     1      -6.194   7.523  -2.076  1.00  0.00     0.021 C 
BRANCH  25  26
ATOM     26  C   UNL     1      -6.942   7.777  -0.778  1.00  0.00     0.116 C 
BRANCH  26  27
ATOM     27  N   UNL     1      -7.129   9.194  -0.479  1.00  0.00    -0.352 N 
ATOM     28  C   UNL     1      -7.873   9.810   0.514  1.00  0.00     0.251 C 
ATOM     29  H   UNL     1      -6.651   9.810  -1.080  1.00  0.00     0.163 HD
ATOM     30  O   UNL     1      -7.906  11.035   0.580  1.00  0.00    -0.269 OA
BRANCH  28  31
ATOM     31  C   UNL     1      -8.457   9.000   1.612  1.00  0.00     0.039 A 
ATOM     32  C   UNL     1      -8.137   9.422   2.909  1.00  0.00     0.014 A 
ATOM     33  C   UNL     1      -8.847   7.691   1.373  1.00  0.00     0.014 A 
ATOM     34  C   UNL     1      -7.812   8.467   3.856  1.00  0.00     0.010 A 
ATOM     35  C   UNL     1      -8.384   6.740   2.243  1.00  0.00     0.010 A 
ATOM     36  C   UNL     1      -7.783   7.145   3.437  1.00  0.00    -0.014 A 
BRANCH  36  37
ATOM     37  C   UNL     1      -7.179   6.069   4.186  1.00  0.00     0.031 A 
ATOM     38  C   UNL     1      -8.079   5.281   5.030  1.00  0.00     0.074 A 
ATOM     39  C   UNL     1      -5.896   5.750   3.907  1.00  0.00     0.049 A 
ATOM     40  N   UNL     1      -7.700   4.483   5.957  1.00  0.00    -0.248 NA
ATOM     41  C   UNL     1      -9.535   5.393   4.927  1.00  0.00     0.031 C 
ATOM     42  C   UNL     1      -5.154   4.542   4.248  1.00  0.00     0.029 A 
ATOM     43  N   UNL     1      -4.921   6.613   3.390  1.00  0.00    -0.354 N 
ATOM     44  C   UNL     1      -8.800   3.738   6.323  1.00  0.00     0.074 A 
ATOM     45  C   UNL     1      -9.927   4.447   5.781  1.00  0.00     0.031 C 
ATOM     46  C   UNL     1      -3.837   4.824   4.230  1.00  0.00     0.029 A 
ATOM     47  C   UNL     1      -3.714   6.260   4.031  1.00  0.00     0.049 A 
ATOM     48  H   UNL     1      -5.051   7.321   2.717  1.00  0.00     0.167 HD
ATOM     49  C   UNL     1      -8.572   2.517   6.880  1.00  0.00     0.037 A 
ATOM     50  C   UNL     1      -3.156   7.122   4.934  1.00  0.00     0.037 A 
ATOM     51  C   UNL     1      -7.149   2.409   7.228  1.00  0.00     0.049 A 
ATOM     52  C   UNL     1      -3.179   6.554   6.337  1.00  0.00     0.074 A 
ATOM     53  C   UNL     1      -6.077   1.809   6.590  1.00  0.00     0.029 A 
ATOM     54  N   UNL     1      -6.607   3.318   8.139  1.00  0.00    -0.354 N 
ATOM     55  N   UNL     1      -4.053   5.678   6.761  1.00  0.00    -0.248 NA
ATOM     56  C   UNL     1      -2.175   6.882   7.345  1.00  0.00     0.031 C 
ATOM     57  C   UNL     1      -4.893   2.470   7.026  1.00  0.00     0.029 A 
ATOM     58  C   UNL     1      -5.240   3.435   7.958  1.00  0.00     0.049 A 
ATOM     59  H   UNL     1      -7.126   3.808   8.816  1.00  0.00     0.167 HD
ATOM     60  C   UNL     1      -3.740   5.306   8.042  1.00  0.00     0.074 A 
ATOM     61  C   UNL     1      -2.554   6.085   8.358  1.00  0.00     0.031 C 
ATOM     62  C   UNL     1      -4.454   4.378   8.749  1.00  0.00     0.037 A 
BRANCH  49  63
ATOM     63  C   UNL     1      -9.528   1.335   6.836  1.00  0.00     0.057 A 
ATOM     64  C   UNL     1      -9.065   0.053   7.199  1.00  0.00     0.134 A 
ATOM     65  C   UNL     1     -10.853   1.337   6.351  1.00  0.00     0.134 A 
ATOM     66  F   UNL     1      -7.840  -0.130   7.710  1.00  0.00    -0.206 F 
ATOM     67  C   UNL     1      -9.826  -1.117   7.040  1.00  0.00     0.040 A 
ATOM     68  C   UNL     1     -11.628   0.177   6.197  1.00  0.00     0.040 A 
ATOM     69  F   UNL     1     -11.491   2.446   5.978  1.00  0.00    -0.206 F 
ATOM     70  C   UNL     1     -11.112  -1.060   6.529  1.00  0.00     0.006 A 
ENDBRANCH  49  63
BRANCH  50  71
ATOM     71  C   UNL     1      -3.385   8.551   4.554  1.00  0.00     0.057 A 
ATOM     72  C   UNL     1      -2.884   8.978   3.306  1.00  0.00     0.134 A 
ATOM     73  C   UNL     1      -4.420   9.309   5.108  1.00  0.00     0.134 A 
ATOM     74  F   UNL     1      -1.868   8.316   2.728  1.00  0.00    -0.206 F 
ATOM     75  C   UNL     1      -3.513   9.976   2.557  1.00  0.00     0.040 A 
ATOM     76  C   UNL     1      -5.031  10.340   4.380  1.00  0.00     0.040 A 
ATOM     77  F   UNL     1      -4.947   8.983   6.297  1.00  0.00    -0.206 F 
ATOM     78  C   UNL     1      -4.623  10.629   3.078  1.00  0.00     0.006 A 
ENDBRANCH  50  71
BRANCH  62  79
ATOM     79  C   UNL     1      -4.375   4.204  10.250  1.00  0.00     0.057 A 
ATOM     80  C   UNL     1      -3.956   5.208  11.136  1.00  0.00     0.134 A 
ATOM     81  C   UNL     1      -4.863   3.033  10.873  1.00  0.00     0.134 A 
ATOM     82  F   UNL     1      -3.624   6.434  10.709  1.00  0.00    -0.206 F 
ATOM     83  C   UNL     1      -3.913   5.023  12.523  1.00  0.00     0.040 A 
ATOM     84  C   UNL     1      -4.895   2.865  12.260  1.00  0.00     0.040 A 
ATOM     85  F   UNL     1      -5.360   2.006  10.168  1.00  0.00    -0.206 F 
ATOM     86  C   UNL     1      -4.389   3.850  13.091  1.00  0.00     0.006 A 
ENDBRANCH  62  79
ENDBRANCH  36  37
ENDBRANCH  28  31
ENDBRANCH  26  27
ENDBRANCH  25  26
ENDBRANCH  24  25
ENDBRANCH   1  24
TORSDOF 15
