REMARK SMILES O=C(NCCCCCCNC(=O)c1c(S(=O)(=O)N2CCCCC2)sc2c1CC[NH2+]C2)c1ccc(-c2c3nc(c(-c4c(F)cccc4F)c4ccc([nH]4)c(-c4c(F)cccc4F)c4nc(c(-c5c(F)cccc5F)c5ccc2[nH]5)C=C4)C=C3)cc1
REMARK SMILES IDX 6 1 5 2 4 3 3 4 1 5 2 6 31 8 32 9 84 10 33 11 83 12 34 13
REMARK SMILES IDX 35 14 36 15 77 16 37 17 82 18 76 19 78 20 38 21 81 22 75 23
REMARK SMILES IDX 74 24 39 26 65 27 48 28 64 29 49 30 52 31 63 32 79 33 50 34
REMARK SMILES IDX 51 35 62 37 80 38 53 39 40 40 41 41 46 42 42 43 43 44 45 45
REMARK SMILES IDX 47 46 44 47 66 48 67 49 72 50 68 51 69 52 71 53 73 54 70 55
REMARK SMILES IDX 54 56 55 57 60 58 56 59 57 60 59 61 61 62 58 63 7 64 8 65
REMARK SMILES IDX 9 66 10 67 11 68 12 70 13 71 14 72 26 73 24 74 25 75 27 76
REMARK SMILES IDX 30 77 28 78 29 79 15 82 16 83 17 84 18 85 19 86 23 87 20 88
REMARK SMILES IDX 22 89 21 90
REMARK H PARENT 3 7 78 25 52 36 10 69 29 80 29 81
REMARK Flexibility Score: inf
ROOT
ATOM      1  C   UNL     1       4.222   3.336   1.216  1.00  0.00     0.002 C 
ENDROOT
BRANCH   1   2
ATOM      2  C   UNL     1       4.760   2.236   0.290  1.00  0.00     0.021 C 
BRANCH   2   3
ATOM      3  C   UNL     1       4.559   0.805   0.785  1.00  0.00     0.116 C 
BRANCH   3   4
ATOM      4  N   UNL     1       3.173   0.433   0.979  1.00  0.00    -0.352 N 
ATOM      5  O   UNL     1       1.093  -0.259   0.730  1.00  0.00    -0.269 OA
ATOM      6  C   UNL     1       2.151   0.031   0.165  1.00  0.00     0.251 C 
ATOM      7  H   UNL     1       2.901   0.482   1.924  1.00  0.00     0.163 HD
BRANCH   6   8
ATOM      8  C   UNL     1       2.208  -0.057  -1.323  1.00  0.00     0.039 A 
ATOM      9  C   UNL     1       3.365  -0.037  -2.102  1.00  0.00     0.014 A 
ATOM     10  C   UNL     1       0.970  -0.206  -1.979  1.00  0.00     0.014 A 
ATOM     11  C   UNL     1       3.288  -0.131  -3.494  1.00  0.00     0.010 A 
ATOM     12  C   UNL     1       0.889  -0.316  -3.367  1.00  0.00     0.010 A 
ATOM     13  C   UNL     1       2.051  -0.262  -4.133  1.00  0.00    -0.014 A 
BRANCH  13  14
ATOM     14  C   UNL     1       2.039  -0.429  -5.590  1.00  0.00     0.031 A 
ATOM     15  C   UNL     1       2.676  -1.665  -6.145  1.00  0.00     0.074 A 
ATOM     16  C   UNL     1       1.351   0.363  -6.436  1.00  0.00     0.049 A 
ATOM     17  N   UNL     1       3.593  -1.771  -7.057  1.00  0.00    -0.248 NA
ATOM     18  C   UNL     1       2.218  -2.956  -5.607  1.00  0.00     0.031 C 
ATOM     19  C   UNL     1       0.381   1.411  -6.113  1.00  0.00     0.029 A 
ATOM     20  N   UNL     1       1.317   0.312  -7.801  1.00  0.00    -0.354 N 
ATOM     21  C   UNL     1       3.737  -3.136  -7.311  1.00  0.00     0.074 A 
ATOM     22  C   UNL     1       2.909  -3.821  -6.349  1.00  0.00     0.031 C 
ATOM     23  C   UNL     1      -0.287   1.756  -7.236  1.00  0.00     0.029 A 
ATOM     24  C   UNL     1       0.297   1.056  -8.369  1.00  0.00     0.049 A 
ATOM     25  H   UNL     1       1.961  -0.208  -8.334  1.00  0.00     0.167 HD
ATOM     26  C   UNL     1       4.429  -3.633  -8.374  1.00  0.00     0.037 A 
ATOM     27  C   UNL     1      -0.080   1.060  -9.668  1.00  0.00     0.037 A 
ATOM     28  C   UNL     1       5.324  -2.673  -8.952  1.00  0.00     0.049 A 
ATOM     29  C   UNL     1       1.025   0.510 -10.485  1.00  0.00     0.074 A 
ATOM     30  C   UNL     1       6.429  -1.975  -8.508  1.00  0.00     0.029 A 
ATOM     31  N   UNL     1       4.986  -2.095 -10.148  1.00  0.00    -0.354 N 
ATOM     32  N   UNL     1       2.154   1.117 -10.717  1.00  0.00    -0.248 NA
ATOM     33  C   UNL     1       1.001  -0.907 -10.814  1.00  0.00     0.031 C 
ATOM     34  C   UNL     1       6.393  -0.732  -9.204  1.00  0.00     0.029 A 
ATOM     35  C   UNL     1       5.263  -0.758 -10.023  1.00  0.00     0.049 A 
ATOM     36  H   UNL     1       4.617  -2.549 -10.939  1.00  0.00     0.167 HD
ATOM     37  C   UNL     1       3.087   0.100 -10.837  1.00  0.00     0.074 A 
ATOM     38  C   UNL     1       2.302  -1.113 -11.025  1.00  0.00     0.031 C 
ATOM     39  C   UNL     1       4.394   0.294 -10.498  1.00  0.00     0.037 A 
BRANCH  26  40
ATOM     40  C   UNL     1       4.139  -4.953  -9.036  1.00  0.00     0.057 A 
ATOM     41  C   UNL     1       5.095  -5.563  -9.867  1.00  0.00     0.134 A 
ATOM     42  C   UNL     1       2.851  -5.522  -9.078  1.00  0.00     0.134 A 
ATOM     43  F   UNL     1       6.344  -5.082  -9.948  1.00  0.00    -0.206 F 
ATOM     44  C   UNL     1       4.786  -6.653 -10.692  1.00  0.00     0.040 A 
ATOM     45  C   UNL     1       2.542  -6.638  -9.863  1.00  0.00     0.040 A 
ATOM     46  F   UNL     1       1.818  -4.970  -8.428  1.00  0.00    -0.206 F 
ATOM     47  C   UNL     1       3.507  -7.197 -10.689  1.00  0.00     0.006 A 
ENDBRANCH  26  40
BRANCH  27  48
ATOM     48  C   UNL     1      -1.423   1.304 -10.232  1.00  0.00     0.057 A 
ATOM     49  C   UNL     1      -1.598   1.690 -11.567  1.00  0.00     0.134 A 
ATOM     50  C   UNL     1      -2.585   0.922  -9.539  1.00  0.00     0.134 A 
ATOM     51  F   UNL     1      -0.543   2.026 -12.323  1.00  0.00    -0.206 F 
ATOM     52  C   UNL     1      -2.856   1.688 -12.181  1.00  0.00     0.040 A 
ATOM     53  C   UNL     1      -3.848   0.925 -10.136  1.00  0.00     0.040 A 
ATOM     54  F   UNL     1      -2.519   0.451  -8.284  1.00  0.00    -0.206 F 
ATOM     55  C   UNL     1      -3.985   1.298 -11.467  1.00  0.00     0.006 A 
ENDBRANCH  27  48
BRANCH  39  56
ATOM     56  C   UNL     1       4.859   1.707 -10.288  1.00  0.00     0.057 A 
ATOM     57  C   UNL     1       4.367   2.540  -9.273  1.00  0.00     0.134 A 
ATOM     58  C   UNL     1       5.934   2.194 -11.041  1.00  0.00     0.134 A 
ATOM     59  F   UNL     1       3.416   2.115  -8.430  1.00  0.00    -0.206 F 
ATOM     60  C   UNL     1       4.881   3.821  -9.056  1.00  0.00     0.040 A 
ATOM     61  C   UNL     1       6.480   3.460 -10.811  1.00  0.00     0.040 A 
ATOM     62  F   UNL     1       6.502   1.427 -11.986  1.00  0.00    -0.206 F 
ATOM     63  C   UNL     1       5.945   4.283  -9.824  1.00  0.00     0.006 A 
ENDBRANCH  39  56
ENDBRANCH  13  14
ENDBRANCH   6   8
ENDBRANCH   3   4
ENDBRANCH   2   3
ENDBRANCH   1   2
BRANCH   1  64
ATOM     64  C   UNL     1       4.662   3.290   2.686  1.00  0.00     0.002 C 
BRANCH  64  65
ATOM     65  C   UNL     1       6.164   3.163   2.966  1.00  0.00     0.021 C 
BRANCH  65  66
ATOM     66  C   UNL     1       7.049   4.233   2.337  1.00  0.00     0.116 C 
BRANCH  66  67
ATOM     67  N   UNL     1       6.920   5.543   2.940  1.00  0.00    -0.352 N 
ATOM     68  C   UNL     1       7.877   6.452   3.311  1.00  0.00     0.253 C 
ATOM     69  H   UNL     1       5.993   5.827   3.111  1.00  0.00     0.163 HD
ATOM     70  O   UNL     1       7.503   7.508   3.818  1.00  0.00    -0.269 OA
BRANCH  68  71
ATOM     71  C   UNL     1       9.302   6.130   3.227  1.00  0.00     0.074 A 
ATOM     72  C   UNL     1      10.024   5.926   2.048  1.00  0.00     0.148 A 
ATOM     73  C   UNL     1      10.191   6.156   4.376  1.00  0.00    -0.009 A 
ATOM     74  S   UNL     1      11.686   5.653   2.380  1.00  0.00    -0.120 S 
ATOM     75  C   UNL     1      11.502   5.903   4.031  1.00  0.00     0.064 A 
ATOM     76  C   UNL     1       9.842   6.422   5.816  1.00  0.00     0.099 C 
ATOM     77  C   UNL     1      12.668   5.910   4.974  1.00  0.00     0.308 C 
ATOM     78  C   UNL     1      11.114   6.691   6.659  1.00  0.00     0.265 C 
ATOM     79  N   UNL     1      12.218   5.752   6.368  1.00  0.00    -0.342 N 
ATOM     80  H   UNL     1      11.893   4.796   6.510  1.00  0.00     0.346 HD
ATOM     81  H   UNL     1      12.998   5.953   6.993  1.00  0.00     0.346 HD
BRANCH  72  82
ATOM     82  S   UNL     1       9.563   5.968   0.305  1.00  0.00     0.253 S 
ATOM     83  O   UNL     1       8.687   4.838   0.130  1.00  0.00    -0.206 OA
ATOM     84  O   UNL     1       9.096   7.328   0.104  1.00  0.00    -0.206 OA
BRANCH  82  85
ATOM     85  N   UNL     1      10.889   5.694  -0.746  1.00  0.00    -0.197 NA
ATOM     86  C   UNL     1      11.850   6.811  -0.883  1.00  0.00     0.102 C 
ATOM     87  C   UNL     1      11.405   4.298  -0.746  1.00  0.00     0.102 C 
ATOM     88  C   UNL     1      12.959   6.505  -1.880  1.00  0.00     0.017 C 
ATOM     89  C   UNL     1      12.557   4.077  -1.712  1.00  0.00     0.017 C 
ATOM     90  C   UNL     1      13.609   5.164  -1.580  1.00  0.00     0.003 C 
ENDBRANCH  82  85
ENDBRANCH  72  82
ENDBRANCH  68  71
ENDBRANCH  66  67
ENDBRANCH  65  66
ENDBRANCH  64  65
ENDBRANCH   1  64
TORSDOF 15
