REMARK SMILES Cc1cc(C(=O)NCCCCCCNC(=O)c2ccc(-c3c4nc(c(-c5c(F)cccc5F)c5ccc([nH]5)c(-c5c(F)cccc5F)c5nc(c(-c6c(F)cccc6F)c6ccc3[nH]6)C=C5)C=C4)cc2)c(C#Cc2ccccc2)s1
REMARK SMILES IDX 10 1 9 2 8 3 7 4 5 5 6 6 4 8 1 9 2 10 3 11 80 12 71 13 72 14
REMARK SMILES IDX 73 15 74 16 75 17 79 18 76 19 78 20 77 21 11 22 12 23 13 24
REMARK SMILES IDX 14 25 15 26 16 28 17 29 18 30 70 31 19 32 69 33 20 34 21 35
REMARK SMILES IDX 22 36 63 37 23 38 68 39 62 40 64 41 24 42 67 43 61 44 60 45
REMARK SMILES IDX 25 47 51 48 34 49 50 50 35 51 38 52 49 53 65 54 36 55 37 56
REMARK SMILES IDX 48 58 66 59 39 60 26 61 27 62 32 63 28 64 29 65 31 66 33 67
REMARK SMILES IDX 30 68 52 69 53 70 58 71 54 72 55 73 57 74 59 75 56 76 40 77
REMARK SMILES IDX 41 78 46 79 42 80 43 81 45 82 47 83 44 84
REMARK H PARENT 7 7 14 27 64 46 38 57
REMARK Flexibility Score: inf
ROOT
ATOM      1  C   UNL     1      -5.572   2.322  -2.206  1.00  0.00     0.002 C 
ENDROOT
BRANCH   1   2
ATOM      2  C   UNL     1      -4.298   1.737  -1.579  1.00  0.00     0.021 C 
BRANCH   2   3
ATOM      3  C   UNL     1      -3.038   2.050  -2.386  1.00  0.00     0.116 C 
BRANCH   3   4
ATOM      4  N   UNL     1      -2.568   3.388  -2.103  1.00  0.00    -0.352 N 
ATOM      5  C   UNL     1      -1.501   3.931  -1.436  1.00  0.00     0.253 C 
ATOM      6  O   UNL     1      -1.504   5.165  -1.410  1.00  0.00    -0.269 OA
ATOM      7  H   UNL     1      -3.159   4.078  -2.483  1.00  0.00     0.163 HD
BRANCH   5   8
ATOM      8  C   UNL     1      -0.421   3.135  -0.824  1.00  0.00     0.066 A 
ATOM      9  C   UNL     1       1.337  -0.120   0.105  1.00  0.00     0.056 C 
ATOM     10  C   UNL     1       0.889   1.282  -0.124  1.00  0.00     0.004 A 
ATOM     11  C   UNL     1      -0.317   1.709  -0.638  1.00  0.00     0.030 A 
ATOM     12  S   UNL     1       1.877   2.596   0.285  1.00  0.00    -0.131 S 
ATOM     13  C   UNL     1       0.722   3.730  -0.282  1.00  0.00     0.090 A 
BRANCH  13  14
ATOM     14  C   UNL     1       1.008   5.123  -0.169  1.00  0.00    -0.050 C 
ATOM     15  C   UNL     1       1.294   6.292  -0.051  1.00  0.00    -0.061 C 
BRANCH  15  16
ATOM     16  C   UNL     1       1.675   7.659   0.078  1.00  0.00     0.025 A 
ATOM     17  C   UNL     1       0.708   8.667   0.070  1.00  0.00     0.017 A 
ATOM     18  C   UNL     1       3.027   7.993   0.197  1.00  0.00     0.017 A 
ATOM     19  C   UNL     1       1.095  10.006   0.169  1.00  0.00     0.001 A 
ATOM     20  C   UNL     1       3.412   9.331   0.295  1.00  0.00     0.001 A 
ATOM     21  C   UNL     1       2.447  10.336   0.277  1.00  0.00     0.000 A 
ENDBRANCH  15  16
ENDBRANCH  13  14
ENDBRANCH   5   8
ENDBRANCH   3   4
ENDBRANCH   2   3
ENDBRANCH   1   2
BRANCH   1  22
ATOM     22  C   UNL     1      -5.891   1.804  -3.617  1.00  0.00     0.002 C 
BRANCH  22  23
ATOM     23  C   UNL     1      -5.994   0.276  -3.745  1.00  0.00     0.021 C 
BRANCH  23  24
ATOM     24  C   UNL     1      -7.061  -0.346  -2.845  1.00  0.00     0.116 C 
BRANCH  24  25
ATOM     25  N   UNL     1      -8.377   0.206  -3.084  1.00  0.00    -0.352 N 
ATOM     26  C   UNL     1      -9.456  -0.126  -3.847  1.00  0.00     0.251 C 
ATOM     27  H   UNL     1      -8.532   1.027  -2.563  1.00  0.00     0.163 HD
ATOM     28  O   UNL     1     -10.445   0.600  -3.712  1.00  0.00    -0.269 OA
BRANCH  26  29
ATOM     29  C   UNL     1      -9.510  -1.210  -4.863  1.00  0.00     0.039 A 
ATOM     30  C   UNL     1      -8.484  -2.097  -5.185  1.00  0.00     0.014 A 
ATOM     31  C   UNL     1     -10.701  -1.261  -5.617  1.00  0.00     0.014 A 
ATOM     32  C   UNL     1      -8.579  -2.874  -6.339  1.00  0.00     0.010 A 
ATOM     33  C   UNL     1     -10.819  -2.070  -6.736  1.00  0.00     0.010 A 
ATOM     34  C   UNL     1      -9.719  -2.797  -7.155  1.00  0.00    -0.014 A 
BRANCH  34  35
ATOM     35  C   UNL     1      -9.770  -3.583  -8.387  1.00  0.00     0.031 A 
ATOM     36  C   UNL     1      -9.527  -5.035  -8.155  1.00  0.00     0.074 A 
ATOM     37  C   UNL     1     -10.055  -3.067  -9.607  1.00  0.00     0.049 A 
ATOM     38  N   UNL     1      -8.503  -5.727  -8.528  1.00  0.00    -0.248 NA
ATOM     39  C   UNL     1     -10.427  -5.755  -7.238  1.00  0.00     0.031 C 
ATOM     40  C   UNL     1     -10.508  -1.719  -9.967  1.00  0.00     0.029 A 
ATOM     41  N   UNL     1     -10.017  -3.694 -10.823  1.00  0.00    -0.354 N 
ATOM     42  C   UNL     1      -8.710  -7.021  -8.054  1.00  0.00     0.074 A 
ATOM     43  C   UNL     1      -9.832  -6.947  -7.157  1.00  0.00     0.031 C 
ATOM     44  C   UNL     1     -10.910  -1.696 -11.263  1.00  0.00     0.029 A 
ATOM     45  C   UNL     1     -10.595  -2.973 -11.875  1.00  0.00     0.049 A 
ATOM     46  H   UNL     1      -9.614  -4.583 -10.948  1.00  0.00     0.167 HD
ATOM     47  C   UNL     1      -8.044  -8.078  -8.596  1.00  0.00     0.037 A 
ATOM     48  C   UNL     1     -10.783  -3.413 -13.151  1.00  0.00     0.037 A 
ATOM     49  C   UNL     1      -6.874  -7.633  -9.310  1.00  0.00     0.049 A 
ATOM     50  C   UNL     1      -9.835  -4.535 -13.368  1.00  0.00     0.074 A 
ATOM     51  C   UNL     1      -5.679  -7.047  -8.941  1.00  0.00     0.029 A 
ATOM     52  N   UNL     1      -7.006  -7.399 -10.656  1.00  0.00    -0.354 N 
ATOM     53  N   UNL     1      -8.541  -4.371 -13.399  1.00  0.00    -0.248 NA
ATOM     54  C   UNL     1     -10.298  -5.866 -13.008  1.00  0.00     0.031 C 
ATOM     55  C   UNL     1      -5.418  -6.079  -9.956  1.00  0.00     0.029 A 
ATOM     56  C   UNL     1      -6.407  -6.196 -10.933  1.00  0.00     0.049 A 
ATOM     57  H   UNL     1      -7.451  -7.989 -11.307  1.00  0.00     0.167 HD
ATOM     58  C   UNL     1      -8.040  -5.419 -12.642  1.00  0.00     0.074 A 
ATOM     59  C   UNL     1      -9.174  -6.326 -12.450  1.00  0.00     0.031 C 
ATOM     60  C   UNL     1      -6.846  -5.314 -11.989  1.00  0.00     0.037 A 
BRANCH  47  61
ATOM     61  C   UNL     1      -8.645  -9.446  -8.808  1.00  0.00     0.057 A 
ATOM     62  C   UNL     1     -10.030  -9.706  -8.816  1.00  0.00     0.134 A 
ATOM     63  C   UNL     1      -7.842 -10.473  -9.340  1.00  0.00     0.134 A 
ATOM     64  F   UNL     1     -10.931  -8.816  -8.385  1.00  0.00    -0.206 F 
ATOM     65  C   UNL     1     -10.579 -10.867  -9.365  1.00  0.00     0.040 A 
ATOM     66  C   UNL     1      -8.385 -11.622  -9.929  1.00  0.00     0.040 A 
ATOM     67  F   UNL     1      -6.506 -10.355  -9.380  1.00  0.00    -0.206 F 
ATOM     68  C   UNL     1      -9.760 -11.814  -9.959  1.00  0.00     0.006 A 
ENDBRANCH  47  61
BRANCH  48  69
ATOM     69  C   UNL     1     -11.945  -3.201 -14.053  1.00  0.00     0.057 A 
ATOM     70  C   UNL     1     -13.238  -3.045 -13.525  1.00  0.00     0.134 A 
ATOM     71  C   UNL     1     -11.879  -3.452 -15.435  1.00  0.00     0.134 A 
ATOM     72  F   UNL     1     -13.424  -2.893 -12.206  1.00  0.00    -0.206 F 
ATOM     73  C   UNL     1     -14.393  -3.137 -14.313  1.00  0.00     0.040 A 
ATOM     74  C   UNL     1     -13.029  -3.543 -16.239  1.00  0.00     0.040 A 
ATOM     75  F   UNL     1     -10.699  -3.681 -16.030  1.00  0.00    -0.206 F 
ATOM     76  C   UNL     1     -14.293  -3.395 -15.675  1.00  0.00     0.006 A 
ENDBRANCH  48  69
BRANCH  60  77
ATOM     77  C   UNL     1      -6.011  -4.088 -12.259  1.00  0.00     0.057 A 
ATOM     78  C   UNL     1      -4.718  -4.255 -12.762  1.00  0.00     0.134 A 
ATOM     79  C   UNL     1      -6.392  -2.777 -11.927  1.00  0.00     0.134 A 
ATOM     80  F   UNL     1      -4.258  -5.484 -13.041  1.00  0.00    -0.206 F 
ATOM     81  C   UNL     1      -3.852  -3.175 -12.950  1.00  0.00     0.040 A 
ATOM     82  C   UNL     1      -5.546  -1.681 -12.139  1.00  0.00     0.040 A 
ATOM     83  F   UNL     1      -7.567  -2.524 -11.341  1.00  0.00    -0.206 F 
ATOM     84  C   UNL     1      -4.269  -1.881 -12.653  1.00  0.00     0.006 A 
ENDBRANCH  60  77
ENDBRANCH  34  35
ENDBRANCH  26  29
ENDBRANCH  24  25
ENDBRANCH  23  24
ENDBRANCH  22  23
ENDBRANCH   1  22
TORSDOF 15
