REMARK SMILES COc1ccc(NS(=O)(=O)c2ccc(NC(=O)[C@H]3CCCC[C@@H]3C(=O)NCCCCCCNC(=O)c3ccc(-c4c5nc(c(-c6c(F)cccc6F)c6ccc([nH]6)c(-c6c(F)cccc6F)c6nc(c(-c7c(F)cccc7F)c7ccc4[nH]7)C=C6)C=C5)cc3)cc2)cc1
REMARK SMILES IDX 27 1 26 2 24 3 25 4 23 6 18 7 19 8 20 9 22 10 21 11 16 12
REMARK SMILES IDX 15 13 17 15 14 16 11 17 12 18 91 19 13 20 90 21 8 22 9 23
REMARK SMILES IDX 10 24 7 25 6 27 3 28 4 29 93 30 5 31 92 32 2 33 1 34 28 35
REMARK SMILES IDX 29 36 30 37 31 38 32 39 33 40 34 41 35 43 36 44 37 45 89 46
REMARK SMILES IDX 38 47 88 48 39 49 40 50 41 51 82 52 42 53 87 54 81 55 83 56
REMARK SMILES IDX 43 57 86 58 80 59 79 60 44 62 70 63 53 64 69 65 54 66 57 67
REMARK SMILES IDX 68 68 84 69 55 70 56 71 67 73 85 74 58 75 45 76 46 77 51 78
REMARK SMILES IDX 47 79 48 80 50 81 52 82 49 83 71 84 72 85 77 86 73 87 74 88
REMARK SMILES IDX 76 89 78 90 75 91 59 92 60 93 65 94 61 95 62 96 64 97 66 98
REMARK SMILES IDX 63 99
REMARK H PARENT 26 5 15 14 7 26 33 42 83 61 57 72
REMARK Flexibility Score: inf
ROOT
ATOM      1  C   UNL     1      -7.114   4.100  -4.905  1.00  0.00     0.116 C 
ENDROOT
BRANCH   1   2
ATOM      2  N   UNL     1      -6.289   4.561  -6.001  1.00  0.00    -0.356 N 
ATOM      3  C   UNL     1      -5.017   5.056  -5.876  1.00  0.00     0.223 C 
ATOM      4  O   UNL     1      -4.119   4.461  -6.478  1.00  0.00    -0.275 OA
ATOM      5  H   UNL     1      -6.672   4.515  -6.907  1.00  0.00     0.163 HD
BRANCH   3   6
ATOM      6  C   UNL     1      -4.773   6.476  -5.322  1.00  0.00     0.091 C 
ATOM      7  C   UNL     1      -5.201   6.778  -3.870  1.00  0.00     0.091 C 
ATOM      8  C   UNL     1      -6.608   7.350  -3.655  1.00  0.00     0.014 C 
ATOM      9  C   UNL     1      -7.306   8.042  -4.829  1.00  0.00     0.001 C 
ATOM     10  C   UNL     1      -5.322   7.411  -6.408  1.00  0.00     0.014 C 
ATOM     11  C   UNL     1      -6.797   7.765  -6.244  1.00  0.00     0.001 C 
BRANCH   7  12
ATOM     12  C   UNL     1      -4.084   7.359  -2.936  1.00  0.00     0.228 C 
ATOM     13  N   UNL     1      -3.824   8.667  -2.619  1.00  0.00    -0.326 N 
ATOM     14  H   UNL     1      -3.194   8.754  -1.868  1.00  0.00     0.169 HD
ATOM     15  O   UNL     1      -3.354   6.538  -2.354  1.00  0.00    -0.274 OA
BRANCH  13  16
ATOM     16  C   UNL     1      -4.244   9.912  -3.113  1.00  0.00     0.041 A 
ATOM     17  C   UNL     1      -5.248  12.364  -4.098  1.00  0.00     0.087 A 
ATOM     18  C   UNL     1      -5.462  11.190  -4.793  1.00  0.00     0.024 A 
ATOM     19  C   UNL     1      -4.420  12.344  -2.967  1.00  0.00     0.024 A 
ATOM     20  C   UNL     1      -4.930  10.010  -4.296  1.00  0.00     0.027 A 
ATOM     21  C   UNL     1      -3.940  11.112  -2.463  1.00  0.00     0.027 A 
BRANCH  17  22
ATOM     22  S   UNL     1      -5.983  13.844  -4.740  1.00  0.00     0.261 S 
ATOM     23  O   UNL     1      -6.673  13.496  -5.972  1.00  0.00    -0.201 OA
ATOM     24  O   UNL     1      -4.966  14.867  -4.743  1.00  0.00    -0.201 OA
BRANCH  22  25
ATOM     25  N   UNL     1      -7.212  14.371  -3.683  1.00  0.00    -0.280 N 
ATOM     26  H   UNL     1      -7.973  14.888  -4.032  1.00  0.00     0.180 HD
BRANCH  25  27
ATOM     27  C   UNL     1      -7.135  14.060  -2.290  1.00  0.00     0.049 A 
ATOM     28  C   UNL     1      -6.883  13.425   0.410  1.00  0.00     0.119 A 
ATOM     29  C   UNL     1      -7.220  12.432  -0.507  1.00  0.00     0.048 A 
ATOM     30  C   UNL     1      -6.694  14.741  -0.013  1.00  0.00     0.048 A 
ATOM     31  C   UNL     1      -7.384  12.758  -1.853  1.00  0.00     0.030 A 
ATOM     32  C   UNL     1      -6.818  15.059  -1.368  1.00  0.00     0.030 A 
BRANCH  28  33
ATOM     33  O   UNL     1      -6.633  13.032   1.695  1.00  0.00    -0.497 OA
ATOM     34  C   UNL     1      -7.513  13.643   2.634  1.00  0.00     0.278 C 
ENDBRANCH  28  33
ENDBRANCH  25  27
ENDBRANCH  22  25
ENDBRANCH  17  22
ENDBRANCH  13  16
ENDBRANCH   7  12
ENDBRANCH   3   6
ENDBRANCH   1   2
BRANCH   1  35
ATOM     35  C   UNL     1      -8.545   4.626  -4.934  1.00  0.00     0.021 C 
BRANCH  35  36
ATOM     36  C   UNL     1      -9.469   4.076  -6.021  1.00  0.00     0.002 C 
BRANCH  36  37
ATOM     37  C   UNL     1      -9.654   2.559  -6.049  1.00  0.00     0.002 C 
BRANCH  37  38
ATOM     38  C   UNL     1      -9.930   1.890  -4.701  1.00  0.00     0.021 C 
BRANCH  38  39
ATOM     39  C   UNL     1     -11.097   2.459  -3.900  1.00  0.00     0.116 C 
BRANCH  39  40
ATOM     40  N   UNL     1     -12.367   2.313  -4.583  1.00  0.00    -0.352 N 
ATOM     41  C   UNL     1     -13.519   1.697  -4.165  1.00  0.00     0.251 C 
ATOM     42  H   UNL     1     -12.410   2.717  -5.479  1.00  0.00     0.163 HD
ATOM     43  O   UNL     1     -14.447   1.537  -4.953  1.00  0.00    -0.269 OA
BRANCH  41  44
ATOM     44  C   UNL     1     -13.649   1.205  -2.775  1.00  0.00     0.039 A 
ATOM     45  C   UNL     1     -14.222  -0.052  -2.567  1.00  0.00     0.014 A 
ATOM     46  C   UNL     1     -13.259   1.985  -1.681  1.00  0.00     0.014 A 
ATOM     47  C   UNL     1     -14.374  -0.540  -1.269  1.00  0.00     0.010 A 
ATOM     48  C   UNL     1     -13.349   1.469  -0.389  1.00  0.00     0.010 A 
ATOM     49  C   UNL     1     -13.926   0.210  -0.169  1.00  0.00    -0.014 A 
BRANCH  49  50
ATOM     50  C   UNL     1     -14.085  -0.318   1.208  1.00  0.00     0.031 A 
ATOM     51  C   UNL     1     -15.029   0.340   2.175  1.00  0.00     0.074 A 
ATOM     52  C   UNL     1     -13.360  -1.383   1.598  1.00  0.00     0.049 A 
ATOM     53  N   UNL     1     -15.345  -0.018   3.395  1.00  0.00    -0.248 NA
ATOM     54  C   UNL     1     -15.683   1.578   1.725  1.00  0.00     0.031 C 
ATOM     55  C   UNL     1     -12.351  -2.061   0.782  1.00  0.00     0.029 A 
ATOM     56  N   UNL     1     -13.360  -2.081   2.778  1.00  0.00    -0.354 N 
ATOM     57  C   UNL     1     -16.225   0.952   3.858  1.00  0.00     0.074 A 
ATOM     58  C   UNL     1     -16.348   1.943   2.811  1.00  0.00     0.031 C 
ATOM     59  C   UNL     1     -11.848  -3.093   1.477  1.00  0.00     0.029 A 
ATOM     60  C   UNL     1     -12.491  -3.143   2.787  1.00  0.00     0.049 A 
ATOM     61  H   UNL     1     -13.929  -1.843   3.546  1.00  0.00     0.167 HD
ATOM     62  C   UNL     1     -16.891   1.000   5.037  1.00  0.00     0.037 A 
ATOM     63  C   UNL     1     -12.252  -4.066   3.737  1.00  0.00     0.037 A 
ATOM     64  C   UNL     1     -16.784   0.000   6.067  1.00  0.00     0.049 A 
ATOM     65  C   UNL     1     -13.047  -4.035   5.011  1.00  0.00     0.074 A 
ATOM     66  C   UNL     1     -17.470  -0.083   7.266  1.00  0.00     0.029 A 
ATOM     67  N   UNL     1     -15.930  -1.091   6.019  1.00  0.00    -0.354 N 
ATOM     68  N   UNL     1     -13.953  -3.168   5.396  1.00  0.00    -0.248 NA
ATOM     69  C   UNL     1     -12.807  -5.122   5.969  1.00  0.00     0.031 C 
ATOM     70  C   UNL     1     -17.005  -1.207   7.959  1.00  0.00     0.029 A 
ATOM     71  C   UNL     1     -16.059  -1.846   7.174  1.00  0.00     0.049 A 
ATOM     72  H   UNL     1     -15.321  -1.300   5.274  1.00  0.00     0.167 HD
ATOM     73  C   UNL     1     -14.404  -3.613   6.632  1.00  0.00     0.074 A 
ATOM     74  C   UNL     1     -13.684  -4.837   6.922  1.00  0.00     0.031 C 
ATOM     75  C   UNL     1     -15.330  -3.058   7.451  1.00  0.00     0.037 A 
BRANCH  62  76
ATOM     76  C   UNL     1     -17.796   2.176   5.264  1.00  0.00     0.057 A 
ATOM     77  C   UNL     1     -18.993   2.334   4.552  1.00  0.00     0.134 A 
ATOM     78  C   UNL     1     -17.470   3.160   6.205  1.00  0.00     0.134 A 
ATOM     79  F   UNL     1     -19.358   1.434   3.626  1.00  0.00    -0.206 F 
ATOM     80  C   UNL     1     -19.814   3.447   4.741  1.00  0.00     0.040 A 
ATOM     81  C   UNL     1     -18.297   4.264   6.422  1.00  0.00     0.040 A 
ATOM     82  F   UNL     1     -16.342   3.068   6.925  1.00  0.00    -0.206 F 
ATOM     83  C   UNL     1     -19.468   4.415   5.682  1.00  0.00     0.006 A 
ENDBRANCH  62  76
BRANCH  63  84
ATOM     84  C   UNL     1     -11.250  -5.129   3.484  1.00  0.00     0.057 A 
ATOM     85  C   UNL     1     -11.644  -6.440   3.194  1.00  0.00     0.134 A 
ATOM     86  C   UNL     1      -9.878  -4.850   3.487  1.00  0.00     0.134 A 
ATOM     87  F   UNL     1     -12.944  -6.769   3.190  1.00  0.00    -0.206 F 
ATOM     88  C   UNL     1     -10.709  -7.440   2.923  1.00  0.00     0.040 A 
ATOM     89  C   UNL     1      -8.933  -5.835   3.198  1.00  0.00     0.040 A 
ATOM     90  F   UNL     1      -9.441  -3.610   3.747  1.00  0.00    -0.206 F 
ATOM     91  C   UNL     1      -9.348  -7.136   2.917  1.00  0.00     0.006 A 
ENDBRANCH  63  84
BRANCH  75  92
ATOM     92  C   UNL     1     -15.626  -3.779   8.732  1.00  0.00     0.057 A 
ATOM     93  C   UNL     1     -14.723  -3.780   9.803  1.00  0.00     0.134 A 
ATOM     94  C   UNL     1     -16.837  -4.460   8.905  1.00  0.00     0.134 A 
ATOM     95  F   UNL     1     -13.540  -3.156   9.695  1.00  0.00    -0.206 F 
ATOM     96  C   UNL     1     -15.004  -4.455  10.992  1.00  0.00     0.040 A 
ATOM     97  C   UNL     1     -17.139  -5.119  10.097  1.00  0.00     0.040 A 
ATOM     98  F   UNL     1     -17.748  -4.491   7.921  1.00  0.00    -0.206 F 
ATOM     99  C   UNL     1     -16.218  -5.123  11.143  1.00  0.00     0.006 A 
ENDBRANCH  75  92
ENDBRANCH  49  50
ENDBRANCH  41  44
ENDBRANCH  39  40
ENDBRANCH  38  39
ENDBRANCH  37  38
ENDBRANCH  36  37
ENDBRANCH  35  36
ENDBRANCH   1  35
TORSDOF 19
