REMARK SMILES O=C(CC[NH+]1CCC(n2nccc2NC(=O)c2ccccc2Cl)CC1)NCCCCCCNC(=O)c1ccc(-c2c3nc(c(-c4c(F)cccc4F)c4ccc([nH]4)c(-c4c(F)cccc4F)c4nc(c(-c5c(F)cccc5F)c5ccc2[nH]5)C=C4)C=C3)cc1
REMARK SMILES IDX 28 1 27 2 26 3 1 4 2 5 3 7 4 8 5 9 6 10 25 11 7 13 24 14
REMARK SMILES IDX 8 15 9 16 10 17 13 18 11 19 12 20 14 21 15 22 16 24 17 25
REMARK SMILES IDX 18 26 22 27 19 28 21 29 23 30 20 31 29 32 30 33 31 34 32 35
REMARK SMILES IDX 33 36 34 37 35 39 36 40 37 41 89 42 38 43 88 44 39 45 40 46
REMARK SMILES IDX 41 47 82 48 42 49 87 50 81 51 83 52 43 53 86 54 80 55 79 56
REMARK SMILES IDX 44 58 70 59 53 60 69 61 54 62 57 63 68 64 84 65 55 66 56 67
REMARK SMILES IDX 67 69 85 70 58 71 45 72 46 73 51 74 47 75 48 76 50 77 52 78
REMARK SMILES IDX 49 79 71 80 72 81 77 82 73 83 74 84 76 85 78 86 75 87 59 88
REMARK SMILES IDX 60 89 65 90 61 91 62 92 64 93 66 94 63 95
REMARK H PARENT 26 6 5 12 14 23 33 38 83 57 57 68
REMARK Flexibility Score: inf
ROOT
ATOM      1  C   UNL     1       2.086   3.143  -1.823  1.00  0.00     0.021 C 
ENDROOT
BRANCH   1   2
ATOM      2  C   UNL     1       1.583   1.724  -1.521  1.00  0.00     0.116 C 
BRANCH   2   3
ATOM      3  N   UNL     1       2.059   1.144  -0.273  1.00  0.00    -0.356 N 
ATOM      4  O   UNL     1       0.901  -0.812  -0.584  1.00  0.00    -0.275 OA
ATOM      5  C   UNL     1       1.749  -0.176   0.035  1.00  0.00     0.225 C 
ATOM      6  H   UNL     1       2.598   1.683   0.349  1.00  0.00     0.163 HD
BRANCH   5   7
ATOM      7  C   UNL     1       2.623  -0.838   1.097  1.00  0.00     0.161 C 
BRANCH   7   8
ATOM      8  C   UNL     1       3.525  -1.935   0.460  1.00  0.00     0.272 C 
BRANCH   8   9
ATOM      9  N   UNL     1       4.760  -1.520  -0.272  1.00  0.00    -0.334 N 
ATOM     10  C   UNL     1       4.984  -2.376  -1.458  1.00  0.00     0.264 C 
ATOM     11  C   UNL     1       4.713  -0.126  -0.656  1.00  0.00     0.264 C 
ATOM     12  H   UNL     1       5.546  -1.639   0.368  1.00  0.00     0.348 HD
ATOM     13  C   UNL     1       6.186  -1.935  -2.320  1.00  0.00     0.089 C 
ATOM     14  C   UNL     1       5.943   0.335  -1.375  1.00  0.00     0.089 C 
ATOM     15  C   UNL     1       6.130  -0.436  -2.665  1.00  0.00     0.121 C 
BRANCH  15  16
ATOM     16  N   UNL     1       7.268   0.023  -3.459  1.00  0.00    -0.246 N 
ATOM     17  N   UNL     1       7.432  -0.561  -4.668  1.00  0.00    -0.179 NA
ATOM     18  C   UNL     1       8.144   1.093  -3.278  1.00  0.00     0.131 A 
ATOM     19  C   UNL     1       8.562  -0.035  -5.132  1.00  0.00     0.137 A 
ATOM     20  C   UNL     1       9.101   0.919  -4.253  1.00  0.00     0.069 A 
BRANCH  18  21
ATOM     21  N   UNL     1       8.061   2.113  -2.340  1.00  0.00    -0.307 N 
ATOM     22  C   UNL     1       8.628   3.417  -2.306  1.00  0.00     0.258 C 
ATOM     23  H   UNL     1       7.509   1.894  -1.555  1.00  0.00     0.171 HD
ATOM     24  O   UNL     1       8.247   4.094  -1.356  1.00  0.00    -0.269 OA
BRANCH  22  25
ATOM     25  C   UNL     1       9.634   3.935  -3.221  1.00  0.00     0.058 A 
ATOM     26  C   UNL     1      10.849   4.329  -2.645  1.00  0.00     0.015 A 
ATOM     27  C   UNL     1       9.414   4.108  -4.586  1.00  0.00     0.053 A 
ATOM     28  C   UNL     1      11.866   4.830  -3.452  1.00  0.00     0.001 A 
ATOM     29  C   UNL     1      10.430   4.625  -5.389  1.00  0.00     0.021 A 
ATOM     30  Cl  UNL     1       7.950   3.647  -5.345  1.00  0.00    -0.083 Cl
ATOM     31  C   UNL     1      11.659   4.970  -4.824  1.00  0.00     0.002 A 
ENDBRANCH  22  25
ENDBRANCH  18  21
ENDBRANCH  15  16
ENDBRANCH   8   9
ENDBRANCH   7   8
ENDBRANCH   5   7
ENDBRANCH   2   3
ENDBRANCH   1   2
BRANCH   1  32
ATOM     32  C   UNL     1       3.570   3.307  -2.189  1.00  0.00     0.002 C 
BRANCH  32  33
ATOM     33  C   UNL     1       4.070   2.612  -3.468  1.00  0.00     0.002 C 
BRANCH  33  34
ATOM     34  C   UNL     1       3.437   3.009  -4.809  1.00  0.00     0.021 C 
BRANCH  34  35
ATOM     35  C   UNL     1       3.695   4.441  -5.270  1.00  0.00     0.116 C 
BRANCH  35  36
ATOM     36  N   UNL     1       5.070   4.669  -5.717  1.00  0.00    -0.352 N 
ATOM     37  C   UNL     1       5.670   5.857  -6.106  1.00  0.00     0.251 C 
ATOM     38  H   UNL     1       5.646   3.871  -5.747  1.00  0.00     0.163 HD
ATOM     39  O   UNL     1       6.644   5.885  -6.838  1.00  0.00    -0.269 OA
BRANCH  37  40
ATOM     40  C   UNL     1       5.114   7.118  -5.612  1.00  0.00     0.039 A 
ATOM     41  C   UNL     1       5.019   8.219  -6.466  1.00  0.00     0.014 A 
ATOM     42  C   UNL     1       4.636   7.159  -4.307  1.00  0.00     0.014 A 
ATOM     43  C   UNL     1       4.305   9.326  -6.038  1.00  0.00     0.010 A 
ATOM     44  C   UNL     1       3.812   8.186  -3.940  1.00  0.00     0.010 A 
ATOM     45  C   UNL     1       3.663   9.277  -4.793  1.00  0.00    -0.014 A 
BRANCH  45  46
ATOM     46  C   UNL     1       2.667  10.280  -4.456  1.00  0.00     0.031 A 
ATOM     47  C   UNL     1       1.560  10.375  -5.447  1.00  0.00     0.074 A 
ATOM     48  C   UNL     1       2.620  10.870  -3.245  1.00  0.00     0.049 A 
ATOM     49  N   UNL     1       1.317  11.339  -6.270  1.00  0.00    -0.248 NA
ATOM     50  C   UNL     1       0.730   9.179  -5.677  1.00  0.00     0.031 C 
ATOM     51  C   UNL     1       3.457  10.587  -2.072  1.00  0.00     0.029 A 
ATOM     52  N   UNL     1       1.729  11.777  -2.769  1.00  0.00    -0.354 N 
ATOM     53  C   UNL     1       0.159  10.971  -6.954  1.00  0.00     0.074 A 
ATOM     54  C   UNL     1      -0.014   9.565  -6.717  1.00  0.00     0.031 C 
ATOM     55  C   UNL     1       2.893  11.131  -0.973  1.00  0.00     0.029 A 
ATOM     56  C   UNL     1       1.769  11.945  -1.391  1.00  0.00     0.049 A 
ATOM     57  H   UNL     1       1.109  12.274  -3.351  1.00  0.00     0.167 HD
ATOM     58  C   UNL     1      -0.714  11.918  -7.400  1.00  0.00     0.037 A 
ATOM     59  C   UNL     1       0.924  12.696  -0.648  1.00  0.00     0.037 A 
ATOM     60  C   UNL     1      -0.097  13.222  -7.360  1.00  0.00     0.049 A 
ATOM     61  C   UNL     1       0.272  13.657  -1.566  1.00  0.00     0.074 A 
ATOM     62  C   UNL     1       0.942  13.851  -8.011  1.00  0.00     0.029 A 
ATOM     63  N   UNL     1      -0.349  13.941  -6.220  1.00  0.00    -0.354 N 
ATOM     64  N   UNL     1       0.907  14.622  -2.171  1.00  0.00    -0.248 NA
ATOM     65  C   UNL     1      -1.025  13.317  -2.132  1.00  0.00     0.031 C 
ATOM     66  C   UNL     1       1.504  14.748  -7.053  1.00  0.00     0.029 A 
ATOM     67  C   UNL     1       0.753  14.675  -5.877  1.00  0.00     0.049 A 
ATOM     68  H   UNL     1      -1.198  13.931  -5.721  1.00  0.00     0.167 HD
ATOM     69  C   UNL     1       0.311  14.707  -3.418  1.00  0.00     0.074 A 
ATOM     70  C   UNL     1      -0.962  14.009  -3.273  1.00  0.00     0.031 C 
ATOM     71  C   UNL     1       1.045  15.064  -4.513  1.00  0.00     0.037 A 
BRANCH  58  72
ATOM     72  C   UNL     1      -2.228  11.776  -7.404  1.00  0.00     0.057 A 
ATOM     73  C   UNL     1      -3.003  12.846  -7.897  1.00  0.00     0.134 A 
ATOM     74  C   UNL     1      -2.956  10.809  -6.681  1.00  0.00     0.134 A 
ATOM     75  F   UNL     1      -2.440  13.837  -8.605  1.00  0.00    -0.206 F 
ATOM     76  C   UNL     1      -4.367  12.991  -7.606  1.00  0.00     0.040 A 
ATOM     77  C   UNL     1      -4.327  10.920  -6.427  1.00  0.00     0.040 A 
ATOM     78  F   UNL     1      -2.380   9.757  -6.092  1.00  0.00    -0.206 F 
ATOM     79  C   UNL     1      -5.032  12.030  -6.858  1.00  0.00     0.006 A 
ENDBRANCH  58  72
BRANCH  59  80
ATOM     80  C   UNL     1       0.474  12.493   0.744  1.00  0.00     0.057 A 
ATOM     81  C   UNL     1      -0.093  13.541   1.481  1.00  0.00     0.134 A 
ATOM     82  C   UNL     1       0.333  11.204   1.285  1.00  0.00     0.134 A 
ATOM     83  F   UNL     1      -0.033  14.801   1.028  1.00  0.00    -0.206 F 
ATOM     84  C   UNL     1      -0.794  13.316   2.672  1.00  0.00     0.040 A 
ATOM     85  C   UNL     1      -0.362  10.966   2.475  1.00  0.00     0.040 A 
ATOM     86  F   UNL     1       0.787  10.125   0.629  1.00  0.00    -0.206 F 
ATOM     87  C   UNL     1      -0.944  12.023   3.164  1.00  0.00     0.006 A 
ENDBRANCH  59  80
BRANCH  71  88
ATOM     88  C   UNL     1       2.359  15.751  -4.265  1.00  0.00     0.057 A 
ATOM     89  C   UNL     1       3.474  15.154  -3.658  1.00  0.00     0.134 A 
ATOM     90  C   UNL     1       2.532  17.047  -4.764  1.00  0.00     0.134 A 
ATOM     91  F   UNL     1       3.436  13.888  -3.227  1.00  0.00    -0.206 F 
ATOM     92  C   UNL     1       4.689  15.831  -3.518  1.00  0.00     0.040 A 
ATOM     93  C   UNL     1       3.749  17.721  -4.663  1.00  0.00     0.040 A 
ATOM     94  F   UNL     1       1.524  17.664  -5.401  1.00  0.00    -0.206 F 
ATOM     95  C   UNL     1       4.831  17.118  -4.027  1.00  0.00     0.006 A 
ENDBRANCH  71  88
ENDBRANCH  45  46
ENDBRANCH  37  40
ENDBRANCH  35  36
ENDBRANCH  34  35
ENDBRANCH  33  34
ENDBRANCH  32  33
ENDBRANCH   1  32
TORSDOF 18
