REMARK SMILES C/C(=N\[NH+]=C1/NC(=O)[C@@H](CC(=O)NCCCCCCNC(=O)c2ccc(-c3c4nc(c(-c5c(F)cccc5F)c5ccc([nH]5)c(-c5c(F)cccc5F)c5nc(c(-c6c(F)cccc6F)c6ccc3[nH]6)C=C5)C=C4)cc2)S1)c1ccc(Br)cc1
REMARK SMILES IDX 16 1 15 2 14 3 13 4 11 5 12 6 10 8 9 9 4 10 5 11 6 13 77 14
REMARK SMILES IDX 7 15 8 17 3 18 1 19 2 20 78 21 79 22 84 23 80 24 83 25 81 26
REMARK SMILES IDX 82 27 17 28 18 29 19 30 20 31 21 32 22 34 23 35 24 36 76 37
REMARK SMILES IDX 25 38 75 39 26 40 27 41 28 42 69 43 29 44 74 45 68 46 70 47
REMARK SMILES IDX 30 48 73 49 67 50 66 51 31 53 57 54 40 55 56 56 41 57 44 58
REMARK SMILES IDX 55 59 71 60 42 61 43 62 54 64 72 65 45 66 32 67 33 68 38 69
REMARK SMILES IDX 34 70 35 71 37 72 39 73 36 74 58 75 59 76 64 77 60 78 61 79
REMARK SMILES IDX 63 80 65 81 62 82 46 83 47 84 52 85 48 86 49 87 51 88 53 89
REMARK SMILES IDX 50 90
REMARK H PARENT 13 7 4 12 6 16 20 33 70 52 44 63
REMARK Flexibility Score: inf
ROOT
ATOM      1  C   UNL     1      -1.580  -5.545   5.572  1.00  0.00     0.002 C 
ENDROOT
BRANCH   1   2
ATOM      2  C   UNL     1      -1.505  -4.994   4.143  1.00  0.00     0.021 C 
BRANCH   2   3
ATOM      3  C   UNL     1      -2.875  -4.779   3.502  1.00  0.00     0.116 C 
BRANCH   3   4
ATOM      4  N   UNL     1      -3.585  -3.695   4.155  1.00  0.00    -0.356 N 
ATOM      5  C   UNL     1      -3.961  -2.484   3.658  1.00  0.00     0.221 C 
ATOM      6  O   UNL     1      -4.506  -1.674   4.404  1.00  0.00    -0.275 OA
ATOM      7  H   UNL     1      -3.831  -3.859   5.094  1.00  0.00     0.163 HD
BRANCH   5   8
ATOM      8  C   UNL     1      -3.722  -2.183   2.200  1.00  0.00     0.127 C 
BRANCH   8   9
ATOM      9  C   UNL     1      -2.243  -1.947   1.945  1.00  0.00     0.183 C 
ATOM     10  N   UNL     1      -0.668  -1.260  -1.488  1.00  0.00    -0.142 N 
ATOM     11  C   UNL     1      -1.304  -1.315  -0.369  1.00  0.00     0.337 C 
ATOM     12  H   UNL     1      -0.414  -2.062  -1.999  1.00  0.00     0.343 HD
ATOM     13  N   UNL     1      -1.644  -0.249   0.386  1.00  0.00    -0.202 N 
ATOM     14  S   UNL     1      -1.704  -2.801   0.412  1.00  0.00    -0.020 SA
ATOM     15  C   UNL     1      -1.993  -0.477   1.679  1.00  0.00     0.322 C 
ATOM     16  H   UNL     1      -1.640   0.662   0.012  1.00  0.00     0.316 HD
ATOM     17  O   UNL     1      -2.042   0.402   2.523  1.00  0.00    -0.246 OA
BRANCH  10  18
ATOM     18  N   UNL     1      -0.367   0.035  -1.915  1.00  0.00    -0.090 NA
ATOM     19  C   UNL     1       1.587  -0.074  -0.363  1.00  0.00     0.071 C 
ATOM     20  C   UNL     1       0.731   0.564  -1.447  1.00  0.00     0.088 C 
BRANCH  20  21
ATOM     21  C   UNL     1       1.094   1.937  -1.918  1.00  0.00    -0.000 A 
ATOM     22  C   UNL     1       0.101   2.733  -2.511  1.00  0.00     0.011 A 
ATOM     23  C   UNL     1       2.392   2.444  -1.791  1.00  0.00     0.011 A 
ATOM     24  C   UNL     1       0.401   4.018  -2.968  1.00  0.00     0.016 A 
ATOM     25  C   UNL     1       2.693   3.728  -2.255  1.00  0.00     0.016 A 
ATOM     26  C   UNL     1       1.697   4.508  -2.840  1.00  0.00     0.018 A 
ATOM     27  Br  UNL     1       2.115   6.239  -3.472  1.00  0.00    -0.051 Br
ENDBRANCH  20  21
ENDBRANCH  10  18
ENDBRANCH   8   9
ENDBRANCH   5   8
ENDBRANCH   3   4
ENDBRANCH   2   3
ENDBRANCH   1   2
BRANCH   1  28
ATOM     28  C   UNL     1      -2.334  -6.872   5.702  1.00  0.00     0.002 C 
BRANCH  28  29
ATOM     29  C   UNL     1      -1.802  -7.997   4.813  1.00  0.00     0.021 C 
BRANCH  29  30
ATOM     30  C   UNL     1      -0.342  -8.354   5.069  1.00  0.00     0.116 C 
BRANCH  30  31
ATOM     31  N   UNL     1      -0.140  -8.862   6.417  1.00  0.00    -0.352 N 
ATOM     32  C   UNL     1       0.398 -10.058   6.821  1.00  0.00     0.251 C 
ATOM     33  H   UNL     1      -0.430  -8.263   7.143  1.00  0.00     0.163 HD
ATOM     34  O   UNL     1       0.292 -10.425   7.986  1.00  0.00    -0.269 OA
BRANCH  32  35
ATOM     35  C   UNL     1       1.091 -10.911   5.835  1.00  0.00     0.039 A 
ATOM     36  C   UNL     1       0.813 -12.279   5.808  1.00  0.00     0.014 A 
ATOM     37  C   UNL     1       2.006 -10.357   4.935  1.00  0.00     0.014 A 
ATOM     38  C   UNL     1       1.408 -13.083   4.834  1.00  0.00     0.010 A 
ATOM     39  C   UNL     1       2.537 -11.144   3.919  1.00  0.00     0.010 A 
ATOM     40  C   UNL     1       2.245 -12.515   3.859  1.00  0.00    -0.014 A 
BRANCH  40  41
ATOM     41  C   UNL     1       2.818 -13.336   2.764  1.00  0.00     0.031 A 
ATOM     42  C   UNL     1       4.307 -13.505   2.645  1.00  0.00     0.074 A 
ATOM     43  C   UNL     1       2.000 -13.874   1.838  1.00  0.00     0.049 A 
ATOM     44  N   UNL     1       4.998 -14.120   1.720  1.00  0.00    -0.248 NA
ATOM     45  C   UNL     1       5.130 -12.876   3.691  1.00  0.00     0.031 C 
ATOM     46  C   UNL     1       0.542 -13.745   1.820  1.00  0.00     0.029 A 
ATOM     47  N   UNL     1       2.281 -14.628   0.727  1.00  0.00    -0.354 N 
ATOM     48  C   UNL     1       6.332 -13.944   2.064  1.00  0.00     0.074 A 
ATOM     49  C   UNL     1       6.356 -13.116   3.250  1.00  0.00     0.031 C 
ATOM     50  C   UNL     1       0.055 -14.416   0.764  1.00  0.00     0.029 A 
ATOM     51  C   UNL     1       1.166 -14.984   0.007  1.00  0.00     0.049 A 
ATOM     52  H   UNL     1       3.194 -14.890   0.469  1.00  0.00     0.167 HD
ATOM     53  C   UNL     1       7.435 -14.445   1.460  1.00  0.00     0.037 A 
ATOM     54  C   UNL     1       1.052 -15.678  -1.141  1.00  0.00     0.037 A 
ATOM     55  C   UNL     1       7.405 -15.280   0.288  1.00  0.00     0.049 A 
ATOM     56  C   UNL     1       2.295 -16.202  -1.807  1.00  0.00     0.074 A 
ATOM     57  C   UNL     1       8.464 -15.884  -0.367  1.00  0.00     0.029 A 
ATOM     58  N   UNL     1       6.256 -15.624  -0.408  1.00  0.00    -0.354 N 
ATOM     59  N   UNL     1       3.546 -16.087  -1.432  1.00  0.00    -0.248 NA
ATOM     60  C   UNL     1       2.110 -16.956  -3.055  1.00  0.00     0.031 C 
ATOM     61  C   UNL     1       7.962 -16.547  -1.492  1.00  0.00     0.029 A 
ATOM     62  C   UNL     1       6.583 -16.408  -1.503  1.00  0.00     0.049 A 
ATOM     63  H   UNL     1       5.342 -15.352  -0.161  1.00  0.00     0.167 HD
ATOM     64  C   UNL     1       4.293 -16.778  -2.377  1.00  0.00     0.074 A 
ATOM     65  C   UNL     1       3.353 -17.321  -3.336  1.00  0.00     0.031 C 
ATOM     66  C   UNL     1       5.636 -16.948  -2.445  1.00  0.00     0.037 A 
BRANCH  53  67
ATOM     67  C   UNL     1       8.770 -14.100   2.055  1.00  0.00     0.057 A 
ATOM     68  C   UNL     1       9.180 -14.605   3.297  1.00  0.00     0.134 A 
ATOM     69  C   UNL     1       9.673 -13.283   1.363  1.00  0.00     0.134 A 
ATOM     70  F   UNL     1       8.361 -15.385   4.018  1.00  0.00    -0.206 F 
ATOM     71  C   UNL     1      10.426 -14.287   3.841  1.00  0.00     0.040 A 
ATOM     72  C   UNL     1      10.934 -12.983   1.882  1.00  0.00     0.040 A 
ATOM     73  F   UNL     1       9.349 -12.770   0.167  1.00  0.00    -0.206 F 
ATOM     74  C   UNL     1      11.310 -13.479   3.128  1.00  0.00     0.006 A 
ENDBRANCH  53  67
BRANCH  54  75
ATOM     75  C   UNL     1      -0.288 -15.931  -1.730  1.00  0.00     0.057 A 
ATOM     76  C   UNL     1      -0.828 -17.222  -1.769  1.00  0.00     0.134 A 
ATOM     77  C   UNL     1      -1.054 -14.896  -2.278  1.00  0.00     0.134 A 
ATOM     78  F   UNL     1      -0.135 -18.259  -1.276  1.00  0.00    -0.206 F 
ATOM     79  C   UNL     1      -2.071 -17.478  -2.351  1.00  0.00     0.040 A 
ATOM     80  C   UNL     1      -2.311 -15.133  -2.838  1.00  0.00     0.040 A 
ATOM     81  F   UNL     1      -0.598 -13.634  -2.264  1.00  0.00    -0.206 F 
ATOM     82  C   UNL     1      -2.818 -16.430  -2.884  1.00  0.00     0.006 A 
ENDBRANCH  54  75
BRANCH  66  83
ATOM     83  C   UNL     1       6.169 -17.788  -3.571  1.00  0.00     0.057 A 
ATOM     84  C   UNL     1       6.164 -17.341  -4.898  1.00  0.00     0.134 A 
ATOM     85  C   UNL     1       6.734 -19.044  -3.314  1.00  0.00     0.134 A 
ATOM     86  F   UNL     1       5.626 -16.153  -5.214  1.00  0.00    -0.206 F 
ATOM     87  C   UNL     1       6.682 -18.123  -5.932  1.00  0.00     0.040 A 
ATOM     88  C   UNL     1       7.282 -19.821  -4.335  1.00  0.00     0.040 A 
ATOM     89  F   UNL     1       6.779 -19.529  -2.064  1.00  0.00    -0.206 F 
ATOM     90  C   UNL     1       7.250 -19.363  -5.650  1.00  0.00     0.006 A 
ENDBRANCH  66  83
ENDBRANCH  40  41
ENDBRANCH  32  35
ENDBRANCH  30  31
ENDBRANCH  29  30
ENDBRANCH  28  29
ENDBRANCH   1  28
TORSDOF 16
