REMARK SMILES CC(=O)N[C@@H](C(=O)N(CC(=O)NCCCCCCNC(=O)c1ccc(-c2c3nc(c(-c4c(F)cccc4F)c4ccc([nH]4)c(-c4c(F)cccc4F)c4nc(c(-c5c(F)cccc5F)c5ccc2[nH]5)C=C4)C=C3)cc1)C(C)(C)C)C(C)C
REMARK SMILES IDX 14 1 13 2 12 3 10 4 11 5 9 7 8 8 6 9 7 10 5 11 4 12 1 13
REMARK SMILES IDX 2 14 3 15 80 17 81 18 82 19 76 20 77 21 78 22 79 23 15 24
REMARK SMILES IDX 16 25 17 26 18 27 19 28 20 29 21 31 22 32 23 33 75 34 24 35
REMARK SMILES IDX 74 36 25 37 26 38 27 39 68 40 28 41 73 42 67 43 69 44 29 45
REMARK SMILES IDX 72 46 66 47 65 48 30 50 56 51 39 52 55 53 40 54 43 55 54 56
REMARK SMILES IDX 70 57 41 58 42 59 53 61 71 62 44 63 31 64 32 65 37 66 33 67
REMARK SMILES IDX 34 68 36 69 38 70 35 71 57 72 58 73 63 74 59 75 60 76 62 77
REMARK SMILES IDX 64 78 61 79 45 80 46 81 51 82 47 83 48 84 50 85 52 86 49 87
REMARK H PARENT 12 6 4 16 19 30 69 49 43 60
REMARK Flexibility Score: inf
ROOT
ATOM      1  C   UNL     1       1.766   4.947  -3.613  1.00  0.00     0.021 C 
ENDROOT
BRANCH   1   2
ATOM      2  C   UNL     1       1.718   3.558  -2.994  1.00  0.00     0.116 C 
BRANCH   2   3
ATOM      3  N   UNL     1       2.660   2.623  -3.559  1.00  0.00    -0.355 N 
ATOM      4  C   UNL     1       3.440   1.697  -2.930  1.00  0.00     0.239 C 
ATOM      5  O   UNL     1       3.930   0.804  -3.630  1.00  0.00    -0.273 OA
ATOM      6  H   UNL     1       2.755   2.658  -4.539  1.00  0.00     0.163 HD
BRANCH   4   7
ATOM      7  C   UNL     1       3.606   1.644  -1.394  1.00  0.00     0.220 C 
BRANCH   7   8
ATOM      8  N   UNL     1       3.882   2.894  -0.665  1.00  0.00    -0.327 N 
BRANCH   8   9
ATOM      9  C   UNL     1       2.955   3.479   0.223  1.00  0.00     0.246 C 
ATOM     10  O   UNL     1       3.074   4.664   0.553  1.00  0.00    -0.272 OA
BRANCH   9  11
ATOM     11  C   UNL     1       1.768   2.634   0.848  1.00  0.00     0.174 C 
BRANCH  11  12
ATOM     12  N   UNL     1       0.776   2.266  -0.171  1.00  0.00    -0.344 N 
ATOM     13  C   UNL     1       0.622  -0.147   0.356  1.00  0.00     0.114 C 
ATOM     14  C   UNL     1       0.199   1.061  -0.435  1.00  0.00     0.217 C 
ATOM     15  O   UNL     1      -0.658   0.998  -1.315  1.00  0.00    -0.275 OA
ATOM     16  H   UNL     1       0.483   3.005  -0.752  1.00  0.00     0.164 HD
ENDBRANCH  11  12
BRANCH  11  17
ATOM     17  C   UNL     1       1.039   3.463   1.959  1.00  0.00     0.015 C 
ATOM     18  C   UNL     1      -0.302   2.858   2.400  1.00  0.00     0.010 C 
ATOM     19  C   UNL     1       1.914   3.652   3.203  1.00  0.00     0.010 C 
ENDBRANCH  11  17
ENDBRANCH   9  11
ENDBRANCH   8   9
BRANCH   8  20
ATOM     20  C   UNL     1       5.200   3.600  -0.936  1.00  0.00     0.035 C 
ATOM     21  C   UNL     1       4.999   4.938  -1.675  1.00  0.00     0.034 C 
ATOM     22  C   UNL     1       5.946   3.848   0.397  1.00  0.00     0.034 C 
ATOM     23  C   UNL     1       6.191   2.783  -1.811  1.00  0.00     0.034 C 
ENDBRANCH   8  20
ENDBRANCH   7   8
ENDBRANCH   4   7
ENDBRANCH   2   3
ENDBRANCH   1   2
BRANCH   1  24
ATOM     24  C   UNL     1       1.171   5.056  -5.013  1.00  0.00     0.002 C 
BRANCH  24  25
ATOM     25  C   UNL     1      -0.300   4.655  -5.138  1.00  0.00     0.002 C 
BRANCH  25  26
ATOM     26  C   UNL     1      -1.269   5.328  -4.160  1.00  0.00     0.021 C 
BRANCH  26  27
ATOM     27  C   UNL     1      -1.200   6.852  -4.088  1.00  0.00     0.116 C 
BRANCH  27  28
ATOM     28  N   UNL     1      -1.355   7.487  -5.383  1.00  0.00    -0.352 N 
ATOM     29  C   UNL     1      -2.140   8.544  -5.758  1.00  0.00     0.251 C 
ATOM     30  H   UNL     1      -0.811   7.097  -6.106  1.00  0.00     0.163 HD
ATOM     31  O   UNL     1      -2.215   8.856  -6.946  1.00  0.00    -0.269 OA
BRANCH  29  32
ATOM     32  C   UNL     1      -2.923   9.300  -4.757  1.00  0.00     0.039 A 
ATOM     33  C   UNL     1      -4.240   9.644  -5.073  1.00  0.00     0.014 A 
ATOM     34  C   UNL     1      -2.368   9.704  -3.538  1.00  0.00     0.014 A 
ATOM     35  C   UNL     1      -5.015  10.351  -4.152  1.00  0.00     0.010 A 
ATOM     36  C   UNL     1      -3.161  10.358  -2.594  1.00  0.00     0.010 A 
ATOM     37  C   UNL     1      -4.490  10.692  -2.895  1.00  0.00    -0.014 A 
BRANCH  37  38
ATOM     38  C   UNL     1      -5.337  11.390  -1.896  1.00  0.00     0.031 A 
ATOM     39  C   UNL     1      -5.041  12.807  -1.493  1.00  0.00     0.074 A 
ATOM     40  C   UNL     1      -6.370  10.733  -1.335  1.00  0.00     0.049 A 
ATOM     41  N   UNL     1      -5.694  13.583  -0.664  1.00  0.00    -0.248 NA
ATOM     42  C   UNL     1      -3.843  13.428  -2.079  1.00  0.00     0.031 C 
ATOM     43  C   UNL     1      -6.727   9.338  -1.600  1.00  0.00     0.029 A 
ATOM     44  N   UNL     1      -7.313  11.152  -0.431  1.00  0.00    -0.354 N 
ATOM     45  C   UNL     1      -4.986  14.777  -0.626  1.00  0.00     0.074 A 
ATOM     46  C   UNL     1      -3.826  14.607  -1.475  1.00  0.00     0.031 C 
ATOM     47  C   UNL     1      -7.830   9.027  -0.900  1.00  0.00     0.029 A 
ATOM     48  C   UNL     1      -8.244  10.191  -0.123  1.00  0.00     0.049 A 
ATOM     49  H   UNL     1      -7.321  12.056  -0.041  1.00  0.00     0.167 HD
ATOM     50  C   UNL     1      -5.288  15.920   0.036  1.00  0.00     0.037 A 
ATOM     51  C   UNL     1      -9.318  10.245   0.686  1.00  0.00     0.037 A 
ATOM     52  C   UNL     1      -6.453  16.096   0.864  1.00  0.00     0.049 A 
ATOM     53  C   UNL     1      -9.643  11.530   1.393  1.00  0.00     0.074 A 
ATOM     54  C   UNL     1      -6.878  17.234   1.527  1.00  0.00     0.029 A 
ATOM     55  N   UNL     1      -7.380  15.102   1.143  1.00  0.00    -0.354 N 
ATOM     56  N   UNL     1      -9.008  12.676   1.358  1.00  0.00    -0.248 NA
ATOM     57  C   UNL     1     -10.843  11.532   2.241  1.00  0.00     0.031 C 
ATOM     58  C   UNL     1      -8.043  16.920   2.236  1.00  0.00     0.029 A 
ATOM     59  C   UNL     1      -8.365  15.596   1.983  1.00  0.00     0.049 A 
ATOM     60  H   UNL     1      -7.343  14.182   0.795  1.00  0.00     0.167 HD
ATOM     61  C   UNL     1      -9.738  13.540   2.162  1.00  0.00     0.074 A 
ATOM     62  C   UNL     1     -10.877  12.791   2.654  1.00  0.00     0.031 C 
ATOM     63  C   UNL     1      -9.488  14.836   2.468  1.00  0.00     0.037 A 
BRANCH  50  64
ATOM     64  C   UNL     1      -4.343  17.075  -0.116  1.00  0.00     0.057 A 
ATOM     65  C   UNL     1      -4.252  17.799  -1.312  1.00  0.00     0.134 A 
ATOM     66  C   UNL     1      -3.539  17.490   0.953  1.00  0.00     0.134 A 
ATOM     67  F   UNL     1      -4.987  17.445  -2.378  1.00  0.00    -0.206 F 
ATOM     68  C   UNL     1      -3.377  18.878  -1.448  1.00  0.00     0.040 A 
ATOM     69  C   UNL     1      -2.678  18.583   0.837  1.00  0.00     0.040 A 
ATOM     70  F   UNL     1      -3.581  16.846   2.128  1.00  0.00    -0.206 F 
ATOM     71  C   UNL     1      -2.591  19.277  -0.369  1.00  0.00     0.006 A 
ENDBRANCH  50  64
BRANCH  51  72
ATOM     72  C   UNL     1     -10.191   9.055   0.839  1.00  0.00     0.057 A 
ATOM     73  C   UNL     1     -11.469   9.022   0.271  1.00  0.00     0.134 A 
ATOM     74  C   UNL     1      -9.770   7.927   1.553  1.00  0.00     0.134 A 
ATOM     75  F   UNL     1     -11.933  10.081  -0.410  1.00  0.00    -0.206 F 
ATOM     76  C   UNL     1     -12.307   7.917   0.421  1.00  0.00     0.040 A 
ATOM     77  C   UNL     1     -10.589   6.806   1.693  1.00  0.00     0.040 A 
ATOM     78  F   UNL     1      -8.553   7.896   2.114  1.00  0.00    -0.206 F 
ATOM     79  C   UNL     1     -11.865   6.802   1.131  1.00  0.00     0.006 A 
ENDBRANCH  51  72
BRANCH  63  80
ATOM     80  C   UNL     1     -10.474  15.525   3.364  1.00  0.00     0.057 A 
ATOM     81  C   UNL     1     -10.549  15.238   4.733  1.00  0.00     0.134 A 
ATOM     82  C   UNL     1     -11.349  16.493   2.856  1.00  0.00     0.134 A 
ATOM     83  F   UNL     1      -9.749  14.310   5.279  1.00  0.00    -0.206 F 
ATOM     84  C   UNL     1     -11.479  15.871   5.560  1.00  0.00     0.040 A 
ATOM     85  C   UNL     1     -12.265  17.150   3.677  1.00  0.00     0.040 A 
ATOM     86  F   UNL     1     -11.323  16.819   1.554  1.00  0.00    -0.206 F 
ATOM     87  C   UNL     1     -12.337  16.834   5.032  1.00  0.00     0.006 A 
ENDBRANCH  63  80
ENDBRANCH  37  38
ENDBRANCH  29  32
ENDBRANCH  27  28
ENDBRANCH  26  27
ENDBRANCH  25  26
ENDBRANCH  24  25
ENDBRANCH   1  24
TORSDOF 19
