REMARK SMILES CCc1nc(NCC2CC2)nc(OCC(=O)NCCCCCCNC(=O)c2ccc(-c3c4nc(c(-c5c(F)cccc5F)c5ccc([nH]5)c(-c5c(F)cccc5F)c5nc(c(-c6c(F)cccc6F)c6ccc3[nH]6)C=C5)C=C4)cc2)c1C
REMARK SMILES IDX 19 1 18 2 17 3 15 4 16 5 14 7 13 8 12 9 3 10 4 11 81 12 5 13
REMARK SMILES IDX 82 14 11 15 2 16 1 17 6 18 7 20 8 21 9 22 10 23 20 24 21 25
REMARK SMILES IDX 22 26 23 27 24 28 25 29 26 31 27 32 28 33 80 34 29 35 79 36
REMARK SMILES IDX 30 37 31 38 32 39 73 40 33 41 78 42 72 43 74 44 34 45 77 46
REMARK SMILES IDX 71 47 70 48 35 50 61 51 44 52 60 53 45 54 48 55 59 56 75 57
REMARK SMILES IDX 46 58 47 59 58 61 76 62 49 63 36 64 37 65 42 66 38 67 39 68
REMARK SMILES IDX 41 69 43 70 40 71 62 72 63 73 68 74 64 75 65 76 67 77 69 78
REMARK SMILES IDX 66 79 50 80 51 81 56 82 52 83 53 84 55 85 57 86 54 87
REMARK H PARENT 17 6 6 19 24 30 74 49 48 60
REMARK Flexibility Score: inf
ROOT
ATOM      1  C   UNL     1      -1.028  -3.101   6.838  1.00  0.00     0.021 C 
ENDROOT
BRANCH   1   2
ATOM      2  C   UNL     1      -0.107  -4.308   6.689  1.00  0.00     0.116 C 
BRANCH   2   3
ATOM      3  N   UNL     1      -0.254  -4.948   5.399  1.00  0.00    -0.353 N 
ATOM      4  C   UNL     1       0.693  -5.140   4.441  1.00  0.00     0.258 C 
ATOM      5  O   UNL     1       0.400  -5.809   3.449  1.00  0.00    -0.271 OA
ATOM      6  H   UNL     1      -1.153  -5.288   5.189  1.00  0.00     0.163 HD
BRANCH   4   7
ATOM      7  C   UNL     1       2.104  -4.580   4.648  1.00  0.00     0.331 C 
BRANCH   7   8
ATOM      8  O   UNL     1       2.315  -3.198   4.801  1.00  0.00    -0.467 OA
BRANCH   8   9
ATOM      9  C   UNL     1       1.827  -2.242   3.973  1.00  0.00     0.221 A 
ATOM     10  C   UNL     1       0.977  -1.143   2.084  1.00  0.00     0.052 A 
ATOM     11  N   UNL     1       0.956   0.021   2.765  1.00  0.00    -0.218 NA
ATOM     12  C   UNL     1       1.457  -2.335   2.638  1.00  0.00     0.033 A 
ATOM     13  C   UNL     1       1.412   0.032   4.011  1.00  0.00     0.226 A 
ATOM     14  C   UNL     1       1.534  -3.552   1.774  1.00  0.00     0.052 C 
ATOM     15  N   UNL     1       1.814  -1.067   4.644  1.00  0.00    -0.177 NA
BRANCH  10  16
ATOM     16  C   UNL     1       0.388  -1.041   0.694  1.00  0.00     0.053 C 
ATOM     17  C   UNL     1       0.972   0.122  -0.102  1.00  0.00     0.011 C 
ENDBRANCH  10  16
BRANCH  13  18
ATOM     18  N   UNL     1       1.507   1.210   4.699  1.00  0.00    -0.354 N 
ATOM     19  H   UNL     1       1.614   1.183   5.677  1.00  0.00     0.163 HD
BRANCH  18  20
ATOM     20  C   UNL     1       1.455   2.489   4.040  1.00  0.00     0.119 C 
BRANCH  20  21
ATOM     21  C   UNL     1       0.367   3.317   4.656  1.00  0.00     0.008 C 
ATOM     22  C   UNL     1      -0.145   4.551   3.954  1.00  0.00     0.006 C 
ATOM     23  C   UNL     1      -1.017   3.329   4.055  1.00  0.00     0.006 C 
ENDBRANCH  20  21
ENDBRANCH  18  20
ENDBRANCH  13  18
ENDBRANCH   8   9
ENDBRANCH   7   8
ENDBRANCH   4   7
ENDBRANCH   2   3
ENDBRANCH   1   2
BRANCH   1  24
ATOM     24  C   UNL     1      -2.523  -3.401   6.667  1.00  0.00     0.002 C 
BRANCH  24  25
ATOM     25  C   UNL     1      -3.073  -4.554   7.513  1.00  0.00     0.002 C 
BRANCH  25  26
ATOM     26  C   UNL     1      -2.797  -4.457   9.014  1.00  0.00     0.021 C 
BRANCH  26  27
ATOM     27  C   UNL     1      -3.309  -3.186   9.678  1.00  0.00     0.116 C 
BRANCH  27  28
ATOM     28  N   UNL     1      -4.758  -3.084   9.630  1.00  0.00    -0.352 N 
ATOM     29  C   UNL     1      -5.646  -2.862  10.651  1.00  0.00     0.251 C 
ATOM     30  H   UNL     1      -5.160  -3.189   8.737  1.00  0.00     0.163 HD
ATOM     31  O   UNL     1      -6.854  -2.988  10.457  1.00  0.00    -0.269 OA
BRANCH  29  32
ATOM     32  C   UNL     1      -5.152  -2.491  11.995  1.00  0.00     0.039 A 
ATOM     33  C   UNL     1      -5.733  -3.091  13.115  1.00  0.00     0.014 A 
ATOM     34  C   UNL     1      -4.130  -1.551  12.154  1.00  0.00     0.014 A 
ATOM     35  C   UNL     1      -5.254  -2.785  14.390  1.00  0.00     0.010 A 
ATOM     36  C   UNL     1      -3.598  -1.311  13.418  1.00  0.00     0.010 A 
ATOM     37  C   UNL     1      -4.162  -1.916  14.551  1.00  0.00    -0.014 A 
BRANCH  37  38
ATOM     38  C   UNL     1      -3.611  -1.623  15.899  1.00  0.00     0.031 A 
ATOM     39  C   UNL     1      -3.659  -0.223  16.450  1.00  0.00     0.074 A 
ATOM     40  C   UNL     1      -3.028  -2.607  16.610  1.00  0.00     0.049 A 
ATOM     41  N   UNL     1      -3.206   0.232  17.591  1.00  0.00    -0.248 NA
ATOM     42  C   UNL     1      -4.274   0.806  15.596  1.00  0.00     0.031 C 
ATOM     43  C   UNL     1      -2.874  -3.994  16.166  1.00  0.00     0.029 A 
ATOM     44  N   UNL     1      -2.454  -2.592  17.856  1.00  0.00    -0.354 N 
ATOM     45  C   UNL     1      -3.473   1.596  17.587  1.00  0.00     0.074 A 
ATOM     46  C   UNL     1      -4.069   1.905  16.306  1.00  0.00     0.031 C 
ATOM     47  C   UNL     1      -2.276  -4.702  17.138  1.00  0.00     0.029 A 
ATOM     48  C   UNL     1      -1.968  -3.814  18.254  1.00  0.00     0.049 A 
ATOM     49  H   UNL     1      -2.395  -1.782  18.412  1.00  0.00     0.167 HD
ATOM     50  C   UNL     1      -3.265   2.504  18.570  1.00  0.00     0.037 A 
ATOM     51  C   UNL     1      -1.343  -4.177  19.390  1.00  0.00     0.037 A 
ATOM     52  C   UNL     1      -2.686   2.190  19.851  1.00  0.00     0.049 A 
ATOM     53  C   UNL     1      -1.112  -3.147  20.461  1.00  0.00     0.074 A 
ATOM     54  C   UNL     1      -2.481   3.028  20.933  1.00  0.00     0.029 A 
ATOM     55  N   UNL     1      -2.214   0.939  20.219  1.00  0.00    -0.354 N 
ATOM     56  N   UNL     1      -1.434  -1.876  20.472  1.00  0.00    -0.248 NA
ATOM     57  C   UNL     1      -0.440  -3.606  21.685  1.00  0.00     0.031 C 
ATOM     58  C   UNL     1      -1.836   2.297  21.936  1.00  0.00     0.029 A 
ATOM     59  C   UNL     1      -1.697   0.988  21.504  1.00  0.00     0.049 A 
ATOM     60  H   UNL     1      -2.243   0.134  19.652  1.00  0.00     0.167 HD
ATOM     61  C   UNL     1      -1.035  -1.393  21.712  1.00  0.00     0.074 A 
ATOM     62  C   UNL     1      -0.463  -2.511  22.431  1.00  0.00     0.031 C 
ATOM     63  C   UNL     1      -1.135  -0.136  22.211  1.00  0.00     0.037 A 
BRANCH  50  64
ATOM     64  C   UNL     1      -3.668   3.925  18.297  1.00  0.00     0.057 A 
ATOM     65  C   UNL     1      -5.013   4.304  18.177  1.00  0.00     0.134 A 
ATOM     66  C   UNL     1      -2.703   4.934  18.185  1.00  0.00     0.134 A 
ATOM     67  F   UNL     1      -5.988   3.387  18.263  1.00  0.00    -0.206 F 
ATOM     68  C   UNL     1      -5.380   5.627  17.925  1.00  0.00     0.040 A 
ATOM     69  C   UNL     1      -3.060   6.266  17.965  1.00  0.00     0.040 A 
ATOM     70  F   UNL     1      -1.398   4.645  18.297  1.00  0.00    -0.206 F 
ATOM     71  C   UNL     1      -4.402   6.614  17.826  1.00  0.00     0.006 A 
ENDBRANCH  50  64
BRANCH  51  72
ATOM     72  C   UNL     1      -0.910  -5.585  19.586  1.00  0.00     0.057 A 
ATOM     73  C   UNL     1      -1.522  -6.403  20.543  1.00  0.00     0.134 A 
ATOM     74  C   UNL     1       0.133  -6.141  18.836  1.00  0.00     0.134 A 
ATOM     75  F   UNL     1      -2.516  -5.923  21.305  1.00  0.00    -0.206 F 
ATOM     76  C   UNL     1      -1.097  -7.714  20.765  1.00  0.00     0.040 A 
ATOM     77  C   UNL     1       0.550  -7.459  19.028  1.00  0.00     0.040 A 
ATOM     78  F   UNL     1       0.756  -5.413  17.897  1.00  0.00    -0.206 F 
ATOM     79  C   UNL     1      -0.060  -8.247  20.002  1.00  0.00     0.006 A 
ENDBRANCH  51  72
BRANCH  63  80
ATOM     80  C   UNL     1      -0.656   0.085  23.617  1.00  0.00     0.057 A 
ATOM     81  C   UNL     1       0.702   0.042  23.957  1.00  0.00     0.134 A 
ATOM     82  C   UNL     1      -1.569   0.368  24.642  1.00  0.00     0.134 A 
ATOM     83  F   UNL     1       1.628  -0.236  23.027  1.00  0.00    -0.206 F 
ATOM     84  C   UNL     1       1.132   0.240  25.271  1.00  0.00     0.040 A 
ATOM     85  C   UNL     1      -1.149   0.600  25.952  1.00  0.00     0.040 A 
ATOM     86  F   UNL     1      -2.884   0.435  24.385  1.00  0.00    -0.206 F 
ATOM     87  C   UNL     1       0.205   0.527  26.271  1.00  0.00     0.006 A 
ENDBRANCH  63  80
ENDBRANCH  37  38
ENDBRANCH  29  32
ENDBRANCH  27  28
ENDBRANCH  26  27
ENDBRANCH  25  26
ENDBRANCH  24  25
ENDBRANCH   1  24
TORSDOF 19
