REMARK SMILES C[C@@H](Oc1ccc2c(c1)OCO2)C(=O)N1CCn2nc(C(=O)NCCCCCCNC(=O)c3ccc(-c4c5nc(c(-c6c(F)cccc6F)c6ccc([nH]6)c(-c6c(F)cccc6F)c6nc(c(-c7c(F)cccc7F)c7ccc4[nH]7)C=C6)C=C5)cc3)cc2C1
REMARK SMILES IDX 25 1 24 2 23 3 21 4 22 5 20 7 15 8 16 9 89 10 17 11 88 12
REMARK SMILES IDX 18 13 87 14 19 15 13 16 14 17 2 18 1 19 3 20 4 21 5 22 9 23
REMARK SMILES IDX 6 24 8 25 7 26 10 27 12 28 11 29 26 30 27 31 28 32 29 33
REMARK SMILES IDX 30 34 31 35 32 37 33 38 34 39 86 40 35 41 85 42 36 43 37 44
REMARK SMILES IDX 38 45 79 46 39 47 84 48 78 49 80 50 40 51 83 52 77 53 76 54
REMARK SMILES IDX 41 56 67 57 50 58 66 59 51 60 54 61 65 62 81 63 52 64 53 65
REMARK SMILES IDX 64 67 82 68 55 69 42 70 43 71 48 72 44 73 45 74 47 75 49 76
REMARK SMILES IDX 46 77 68 78 69 79 74 80 70 81 71 82 73 83 75 84 72 85 56 86
REMARK SMILES IDX 57 87 62 88 58 89 59 90 61 91 63 92 60 93
REMARK H PARENT 23 6 30 36 80 55 54 66
REMARK Flexibility Score: inf
ROOT
ATOM      1  C   UNL     1      -6.961  -4.644   4.336  1.00  0.00     0.021 C 
ENDROOT
BRANCH   1   2
ATOM      2  C   UNL     1      -7.214  -3.238   3.792  1.00  0.00     0.116 C 
BRANCH   2   3
ATOM      3  N   UNL     1      -6.927  -2.245   4.802  1.00  0.00    -0.351 N 
ATOM      4  C   UNL     1      -5.876  -1.375   4.977  1.00  0.00     0.271 C 
ATOM      5  O   UNL     1      -5.955  -0.636   5.962  1.00  0.00    -0.267 OA
ATOM      6  H   UNL     1      -7.617  -2.179   5.501  1.00  0.00     0.163 HD
BRANCH   4   7
ATOM      7  C   UNL     1      -4.753  -1.303   4.017  1.00  0.00     0.150 A 
ATOM      8  N   UNL     1      -1.494  -1.107   0.771  1.00  0.00    -0.332 N 
ATOM      9  C   UNL     1      -1.042  -0.066   1.708  1.00  0.00     0.143 C 
ATOM     10  C   UNL     1      -2.761  -1.793   0.961  1.00  0.00     0.175 C 
ATOM     11  C   UNL     1      -2.040   0.496   2.716  1.00  0.00     0.166 C 
ATOM     12  C   UNL     1      -3.386  -1.522   2.263  1.00  0.00     0.059 A 
ATOM     13  N   UNL     1      -3.099  -0.429   3.001  1.00  0.00    -0.265 N 
ATOM     14  C   UNL     1      -4.334  -2.199   2.992  1.00  0.00     0.061 A 
ATOM     15  N   UNL     1      -3.931  -0.230   4.027  1.00  0.00    -0.167 NA
BRANCH   8  16
ATOM     16  C   UNL     1      -0.744  -1.579  -0.310  1.00  0.00     0.263 C 
ATOM     17  O   UNL     1      -1.281  -2.229  -1.216  1.00  0.00    -0.271 OA
BRANCH  16  18
ATOM     18  C   UNL     1       0.779  -1.364  -0.338  1.00  0.00     0.259 C 
ATOM     19  C   UNL     1       1.157   0.097  -0.548  1.00  0.00     0.064 C 
BRANCH  18  20
ATOM     20  O   UNL     1       1.257  -1.920   0.898  1.00  0.00    -0.481 OA
BRANCH  20  21
ATOM     21  C   UNL     1       2.578  -2.262   0.886  1.00  0.00     0.124 A 
ATOM     22  C   UNL     1       3.544  -1.266   1.109  1.00  0.00     0.050 A 
ATOM     23  C   UNL     1       2.935  -3.611   0.831  1.00  0.00     0.097 A 
ATOM     24  C   UNL     1       4.891  -1.600   1.227  1.00  0.00     0.054 A 
ATOM     25  C   UNL     1       4.275  -3.914   0.972  1.00  0.00     0.169 A 
ATOM     26  C   UNL     1       5.224  -2.934   1.160  1.00  0.00     0.166 A 
ATOM     27  O   UNL     1       4.820  -5.161   0.976  1.00  0.00    -0.453 OA
ATOM     28  O   UNL     1       6.479  -3.438   1.297  1.00  0.00    -0.454 OA
ATOM     29  C   UNL     1       6.213  -4.851   1.201  1.00  0.00     0.468 C 
ENDBRANCH  20  21
ENDBRANCH  18  20
ENDBRANCH  16  18
ENDBRANCH   8  16
ENDBRANCH   4   7
ENDBRANCH   2   3
ENDBRANCH   1   2
BRANCH   1  30
ATOM     30  C   UNL     1      -8.136  -5.179   5.165  1.00  0.00     0.002 C 
BRANCH  30  31
ATOM     31  C   UNL     1      -9.487  -5.214   4.430  1.00  0.00     0.002 C 
BRANCH  31  32
ATOM     32  C   UNL     1      -9.476  -5.904   3.058  1.00  0.00     0.021 C 
BRANCH  32  33
ATOM     33  C   UNL     1      -9.216  -7.399   3.151  1.00  0.00     0.116 C 
BRANCH  33  34
ATOM     34  N   UNL     1     -10.322  -8.091   3.802  1.00  0.00    -0.352 N 
ATOM     35  C   UNL     1     -10.491  -9.443   4.003  1.00  0.00     0.251 C 
ATOM     36  H   UNL     1     -11.044  -7.516   4.144  1.00  0.00     0.163 HD
ATOM     37  O   UNL     1     -11.598  -9.907   4.226  1.00  0.00    -0.269 OA
BRANCH  35  38
ATOM     38  C   UNL     1      -9.312 -10.326   3.948  1.00  0.00     0.039 A 
ATOM     39  C   UNL     1      -9.406 -11.584   3.349  1.00  0.00     0.014 A 
ATOM     40  C   UNL     1      -8.113  -9.893   4.516  1.00  0.00     0.014 A 
ATOM     41  C   UNL     1      -8.265 -12.375   3.267  1.00  0.00     0.010 A 
ATOM     42  C   UNL     1      -6.962 -10.624   4.338  1.00  0.00     0.010 A 
ATOM     43  C   UNL     1      -7.039 -11.880   3.746  1.00  0.00    -0.014 A 
BRANCH  43  44
ATOM     44  C   UNL     1      -5.799 -12.594   3.454  1.00  0.00     0.031 A 
ATOM     45  C   UNL     1      -5.593 -12.823   1.997  1.00  0.00     0.074 A 
ATOM     46  C   UNL     1      -4.835 -12.832   4.372  1.00  0.00     0.049 A 
ATOM     47  N   UNL     1      -5.608 -13.952   1.372  1.00  0.00    -0.248 NA
ATOM     48  C   UNL     1      -5.543 -11.653   1.101  1.00  0.00     0.031 C 
ATOM     49  C   UNL     1      -4.790 -12.383   5.767  1.00  0.00     0.029 A 
ATOM     50  N   UNL     1      -3.627 -13.450   4.225  1.00  0.00    -0.354 N 
ATOM     51  C   UNL     1      -5.326 -13.655   0.040  1.00  0.00     0.074 A 
ATOM     52  C   UNL     1      -5.504 -12.236  -0.100  1.00  0.00     0.031 C 
ATOM     53  C   UNL     1      -3.539 -12.535   6.258  1.00  0.00     0.029 A 
ATOM     54  C   UNL     1      -2.734 -13.239   5.276  1.00  0.00     0.049 A 
ATOM     55  H   UNL     1      -3.404 -14.001   3.441  1.00  0.00     0.167 HD
ATOM     56  C   UNL     1      -4.689 -14.567  -0.745  1.00  0.00     0.037 A 
ATOM     57  C   UNL     1      -1.426 -13.601   5.326  1.00  0.00     0.037 A 
ATOM     58  C   UNL     1      -4.762 -15.882  -0.151  1.00  0.00     0.049 A 
ATOM     59  C   UNL     1      -1.216 -14.638   4.291  1.00  0.00     0.074 A 
ATOM     60  C   UNL     1      -5.775 -16.743   0.218  1.00  0.00     0.029 A 
ATOM     61  N   UNL     1      -3.639 -16.314   0.509  1.00  0.00    -0.354 N 
ATOM     62  N   UNL     1      -1.701 -15.843   4.364  1.00  0.00    -0.248 NA
ATOM     63  C   UNL     1      -0.827 -14.197   2.962  1.00  0.00     0.031 C 
ATOM     64  C   UNL     1      -5.317 -17.365   1.418  1.00  0.00     0.029 A 
ATOM     65  C   UNL     1      -4.020 -16.918   1.674  1.00  0.00     0.049 A 
ATOM     66  H   UNL     1      -2.712 -16.207   0.194  1.00  0.00     0.167 HD
ATOM     67  C   UNL     1      -2.121 -16.121   3.074  1.00  0.00     0.074 A 
ATOM     68  C   UNL     1      -1.452 -15.127   2.236  1.00  0.00     0.031 C 
ATOM     69  C   UNL     1      -3.198 -16.935   2.861  1.00  0.00     0.037 A 
BRANCH  56  70
ATOM     70  C   UNL     1      -3.615 -14.219  -1.760  1.00  0.00     0.057 A 
ATOM     71  C   UNL     1      -3.023 -15.264  -2.497  1.00  0.00     0.134 A 
ATOM     72  C   UNL     1      -2.916 -12.995  -1.807  1.00  0.00     0.134 A 
ATOM     73  F   UNL     1      -3.586 -16.482  -2.541  1.00  0.00    -0.206 F 
ATOM     74  C   UNL     1      -1.779 -15.134  -3.128  1.00  0.00     0.040 A 
ATOM     75  C   UNL     1      -1.697 -12.841  -2.476  1.00  0.00     0.040 A 
ATOM     76  F   UNL     1      -3.307 -11.908  -1.137  1.00  0.00    -0.206 F 
ATOM     77  C   UNL     1      -1.104 -13.922  -3.106  1.00  0.00     0.006 A 
ENDBRANCH  56  70
BRANCH  57  78
ATOM     78  C   UNL     1      -0.272 -12.965   6.005  1.00  0.00     0.057 A 
ATOM     79  C   UNL     1       0.935 -13.660   6.188  1.00  0.00     0.134 A 
ATOM     80  C   UNL     1      -0.217 -11.576   6.202  1.00  0.00     0.134 A 
ATOM     81  F   UNL     1       0.996 -14.985   5.988  1.00  0.00    -0.206 F 
ATOM     82  C   UNL     1       2.135 -13.008   6.504  1.00  0.00     0.040 A 
ATOM     83  C   UNL     1       0.974 -10.912   6.522  1.00  0.00     0.040 A 
ATOM     84  F   UNL     1      -1.295 -10.807   5.992  1.00  0.00    -0.206 F 
ATOM     85  C   UNL     1       2.160 -11.625   6.657  1.00  0.00     0.006 A 
ENDBRANCH  57  78
BRANCH  69  86
ATOM     86  C   UNL     1      -3.676 -17.771   4.017  1.00  0.00     0.057 A 
ATOM     87  C   UNL     1      -4.164 -17.266   5.232  1.00  0.00     0.134 A 
ATOM     88  C   UNL     1      -3.733 -19.159   3.843  1.00  0.00     0.134 A 
ATOM     89  F   UNL     1      -4.242 -15.948   5.459  1.00  0.00    -0.206 F 
ATOM     90  C   UNL     1      -4.631 -18.109   6.246  1.00  0.00     0.040 A 
ATOM     91  C   UNL     1      -4.233 -20.008   4.831  1.00  0.00     0.040 A 
ATOM     92  F   UNL     1      -3.332 -19.712   2.687  1.00  0.00    -0.206 F 
ATOM     93  C   UNL     1      -4.670 -19.486   6.045  1.00  0.00     0.006 A 
ENDBRANCH  69  86
ENDBRANCH  43  44
ENDBRANCH  35  38
ENDBRANCH  33  34
ENDBRANCH  32  33
ENDBRANCH  31  32
ENDBRANCH  30  31
ENDBRANCH   1  30
TORSDOF 17
