REMARK SMILES CCN1C(=O)[C@@H](CC(=O)Nc2cccc(C(=O)NCCCCCCNC(=O)c3ccc(-c4c5nc(c(-c6c(F)cccc6F)c6ccc([nH]6)c(-c6c(F)cccc6F)c6nc(c(-c7c(F)cccc7F)c7ccc4[nH]7)C=C6)C=C5)cc3)c2)S/C1=[NH+]\c1cc(Cl)c(O)c(Cl)c1
REMARK SMILES IDX 20 1 19 2 18 3 16 4 17 5 15 7 11 8 12 9 82 10 13 11 14 12
REMARK SMILES IDX 10 13 8 14 9 15 7 17 6 18 3 19 4 20 84 21 5 22 83 23 85 24
REMARK SMILES IDX 2 26 1 27 86 28 87 29 94 30 88 31 92 32 89 33 90 34 93 35
REMARK SMILES IDX 91 36 21 38 22 39 23 40 24 41 25 42 26 43 27 45 28 46 29 47
REMARK SMILES IDX 81 48 30 49 80 50 31 51 32 52 33 53 74 54 34 55 79 56 73 57
REMARK SMILES IDX 75 58 35 59 78 60 72 61 71 62 36 64 62 65 45 66 61 67 46 68
REMARK SMILES IDX 49 69 60 70 76 71 47 72 48 73 59 75 77 76 50 77 37 78 38 79
REMARK SMILES IDX 43 80 39 81 40 82 42 83 44 84 41 85 63 86 64 87 69 88 65 89
REMARK SMILES IDX 66 90 68 91 70 92 67 93 51 94 52 95 57 96 53 97 54 98 56 99
REMARK SMILES IDX 58 100 55 101
REMARK H PARENT 18 6 10 16 85 25 91 37 25 44 75 63 49 74
REMARK Flexibility Score: inf
ROOT
ATOM      1  C   UNL     1      -0.548  -4.163   2.416  1.00  0.00     0.021 C 
ENDROOT
BRANCH   1   2
ATOM      2  C   UNL     1       0.824  -3.856   1.824  1.00  0.00     0.116 C 
BRANCH   2   3
ATOM      3  N   UNL     1       1.907  -4.077   2.749  1.00  0.00    -0.352 N 
ATOM      4  C   UNL     1       3.063  -4.811   2.687  1.00  0.00     0.251 C 
ATOM      5  O   UNL     1       3.877  -4.617   3.592  1.00  0.00    -0.269 OA
ATOM      6  H   UNL     1       1.792  -3.602   3.604  1.00  0.00     0.163 HD
BRANCH   4   7
ATOM      7  C   UNL     1       3.425  -5.773   1.596  1.00  0.00     0.041 A 
ATOM      8  C   UNL     1       3.000  -7.171  -0.360  1.00  0.00     0.041 A 
ATOM      9  C   UNL     1       4.343  -7.539  -0.405  1.00  0.00     0.026 A 
ATOM     10  C   UNL     1       2.531  -6.389   0.708  1.00  0.00     0.040 A 
ATOM     11  C   UNL     1       5.240  -6.997   0.514  1.00  0.00     0.003 A 
ATOM     12  C   UNL     1       4.788  -6.097   1.482  1.00  0.00     0.014 A 
BRANCH   8  13
ATOM     13  N   UNL     1       2.129  -7.690  -1.331  1.00  0.00    -0.326 N 
ATOM     14  C   UNL     1       1.138  -7.086  -2.064  1.00  0.00     0.226 C 
ATOM     15  O   UNL     1       0.157  -7.767  -2.377  1.00  0.00    -0.275 OA
ATOM     16  H   UNL     1       2.249  -8.649  -1.517  1.00  0.00     0.169 HD
BRANCH  14  17
ATOM     17  C   UNL     1       1.338  -5.706  -2.715  1.00  0.00     0.128 C 
BRANCH  17  18
ATOM     18  C   UNL     1       1.435  -4.536  -1.768  1.00  0.00     0.183 C 
ATOM     19  N   UNL     1       1.389  -2.151  -1.488  1.00  0.00    -0.190 N 
ATOM     20  C   UNL     1       0.732  -3.226  -2.097  1.00  0.00     0.324 C 
ATOM     21  C   UNL     1       2.662  -2.401  -1.033  1.00  0.00     0.319 C 
ATOM     22  O   UNL     1      -0.325  -3.154  -2.711  1.00  0.00    -0.245 OA
ATOM     23  S   UNL     1       3.134  -4.011  -1.485  1.00  0.00    -0.022 SA
ATOM     24  N   UNL     1       3.354  -1.551  -0.352  1.00  0.00    -0.235 N 
ATOM     25  H   UNL     1       2.994  -0.639  -0.258  1.00  0.00     0.313 HD
BRANCH  19  26
ATOM     26  C   UNL     1       0.755  -0.828  -1.489  1.00  0.00     0.243 C 
ATOM     27  C   UNL     1       1.016   0.075  -0.287  1.00  0.00     0.054 C 
ENDBRANCH  19  26
BRANCH  24  28
ATOM     28  C   UNL     1       4.587  -1.832   0.267  1.00  0.00     0.128 A 
ATOM     29  C   UNL     1       4.757  -1.389   1.585  1.00  0.00     0.076 A 
ATOM     30  C   UNL     1       5.661  -2.473  -0.357  1.00  0.00     0.076 A 
ATOM     31  C   UNL     1       5.946  -1.629   2.282  1.00  0.00     0.088 A 
ATOM     32  C   UNL     1       6.825  -2.766   0.355  1.00  0.00     0.088 A 
ATOM     33  Cl  UNL     1       6.103  -1.012   3.886  1.00  0.00    -0.080 Cl
ATOM     34  C   UNL     1       6.978  -2.342   1.675  1.00  0.00     0.153 A 
ATOM     35  Cl  UNL     1       8.072  -3.676  -0.420  1.00  0.00    -0.080 Cl
BRANCH  34  36
ATOM     36  O   UNL     1       8.131  -2.609   2.367  1.00  0.00    -0.505 OA
ATOM     37  H   UNL     1       8.223  -2.319   3.253  1.00  0.00     0.293 HD
ENDBRANCH  34  36
ENDBRANCH  24  28
ENDBRANCH  17  18
ENDBRANCH  14  17
ENDBRANCH   8  13
ENDBRANCH   4   7
ENDBRANCH   2   3
ENDBRANCH   1   2
BRANCH   1  38
ATOM     38  C   UNL     1      -1.362  -2.902   2.713  1.00  0.00     0.002 C 
BRANCH  38  39
ATOM     39  C   UNL     1      -1.689  -2.040   1.488  1.00  0.00     0.002 C 
BRANCH  39  40
ATOM     40  C   UNL     1      -2.461  -2.732   0.365  1.00  0.00     0.021 C 
BRANCH  40  41
ATOM     41  C   UNL     1      -3.797  -3.326   0.791  1.00  0.00     0.116 C 
BRANCH  41  42
ATOM     42  N   UNL     1      -4.662  -2.336   1.416  1.00  0.00    -0.352 N 
ATOM     43  C   UNL     1      -5.953  -1.989   1.119  1.00  0.00     0.251 C 
ATOM     44  H   UNL     1      -4.259  -1.842   2.166  1.00  0.00     0.163 HD
ATOM     45  O   UNL     1      -6.453  -0.987   1.630  1.00  0.00    -0.269 OA
BRANCH  43  46
ATOM     46  C   UNL     1      -6.740  -2.806   0.176  1.00  0.00     0.039 A 
ATOM     47  C   UNL     1      -7.554  -2.164  -0.760  1.00  0.00     0.014 A 
ATOM     48  C   UNL     1      -6.687  -4.202   0.223  1.00  0.00     0.014 A 
ATOM     49  C   UNL     1      -8.271  -2.922  -1.686  1.00  0.00     0.010 A 
ATOM     50  C   UNL     1      -7.331  -4.952  -0.754  1.00  0.00     0.010 A 
ATOM     51  C   UNL     1      -8.138  -4.320  -1.712  1.00  0.00    -0.014 A 
BRANCH  51  52
ATOM     52  C   UNL     1      -8.844  -5.139  -2.727  1.00  0.00     0.031 A 
ATOM     53  C   UNL     1      -9.874  -6.148  -2.300  1.00  0.00     0.074 A 
ATOM     54  C   UNL     1      -8.514  -5.014  -4.027  1.00  0.00     0.049 A 
ATOM     55  N   UNL     1     -10.555  -6.995  -3.029  1.00  0.00    -0.248 NA
ATOM     56  C   UNL     1     -10.157  -6.237  -0.858  1.00  0.00     0.031 C 
ATOM     57  C   UNL     1      -7.495  -4.106  -4.558  1.00  0.00     0.029 A 
ATOM     58  N   UNL     1      -8.996  -5.660  -5.137  1.00  0.00    -0.354 N 
ATOM     59  C   UNL     1     -11.333  -7.721  -2.137  1.00  0.00     0.074 A 
ATOM     60  C   UNL     1     -10.998  -7.259  -0.809  1.00  0.00     0.031 C 
ATOM     61  C   UNL     1      -7.448  -4.233  -5.894  1.00  0.00     0.029 A 
ATOM     62  C   UNL     1      -8.399  -5.259  -6.308  1.00  0.00     0.049 A 
ATOM     63  H   UNL     1      -9.701  -6.345  -5.099  1.00  0.00     0.167 HD
ATOM     64  C   UNL     1     -12.262  -8.669  -2.404  1.00  0.00     0.037 A 
ATOM     65  C   UNL     1      -8.592  -5.679  -7.573  1.00  0.00     0.037 A 
ATOM     66  C   UNL     1     -12.604  -9.112  -3.730  1.00  0.00     0.049 A 
ATOM     67  C   UNL     1      -9.617  -6.746  -7.840  1.00  0.00     0.074 A 
ATOM     68  C   UNL     1     -13.571 -10.025  -4.111  1.00  0.00     0.029 A 
ATOM     69  N   UNL     1     -11.984  -8.676  -4.892  1.00  0.00    -0.354 N 
ATOM     70  N   UNL     1     -10.400  -7.372  -6.994  1.00  0.00    -0.248 NA
ATOM     71  C   UNL     1      -9.790  -7.162  -9.238  1.00  0.00     0.031 C 
ATOM     72  C   UNL     1     -13.501 -10.181  -5.499  1.00  0.00     0.029 A 
ATOM     73  C   UNL     1     -12.530  -9.322  -5.989  1.00  0.00     0.049 A 
ATOM     74  H   UNL     1     -11.263  -8.007  -4.931  1.00  0.00     0.167 HD
ATOM     75  C   UNL     1     -11.176  -8.233  -7.759  1.00  0.00     0.074 A 
ATOM     76  C   UNL     1     -10.782  -8.035  -9.139  1.00  0.00     0.031 C 
ATOM     77  C   UNL     1     -12.129  -9.109  -7.357  1.00  0.00     0.037 A 
BRANCH  64  78
ATOM     78  C   UNL     1     -12.973  -9.291  -1.236  1.00  0.00     0.057 A 
ATOM     79  C   UNL     1     -13.884  -8.568  -0.453  1.00  0.00     0.134 A 
ATOM     80  C   UNL     1     -12.772 -10.638  -0.909  1.00  0.00     0.134 A 
ATOM     81  F   UNL     1     -14.115  -7.270  -0.703  1.00  0.00    -0.206 F 
ATOM     82  C   UNL     1     -14.545  -9.153   0.629  1.00  0.00     0.040 A 
ATOM     83  C   UNL     1     -13.450 -11.243   0.150  1.00  0.00     0.040 A 
ATOM     84  F   UNL     1     -11.920 -11.392  -1.620  1.00  0.00    -0.206 F 
ATOM     85  C   UNL     1     -14.334 -10.497   0.928  1.00  0.00     0.006 A 
ENDBRANCH  64  78
BRANCH  65  86
ATOM     86  C   UNL     1      -7.811  -5.080  -8.685  1.00  0.00     0.057 A 
ATOM     87  C   UNL     1      -8.428  -4.274  -9.649  1.00  0.00     0.134 A 
ATOM     88  C   UNL     1      -6.436  -5.306  -8.819  1.00  0.00     0.134 A 
ATOM     89  F   UNL     1      -9.746  -4.035  -9.586  1.00  0.00    -0.206 F 
ATOM     90  C   UNL     1      -7.712  -3.734 -10.719  1.00  0.00     0.040 A 
ATOM     91  C   UNL     1      -5.701  -4.748  -9.867  1.00  0.00     0.040 A 
ATOM     92  F   UNL     1      -5.782  -6.061  -7.924  1.00  0.00    -0.206 F 
ATOM     93  C   UNL     1      -6.342  -3.967 -10.826  1.00  0.00     0.006 A 
ENDBRANCH  65  86
BRANCH  77  94
ATOM     94  C   UNL     1     -12.836  -9.893  -8.424  1.00  0.00     0.057 A 
ATOM     95  C   UNL     1     -12.199 -10.915  -9.139  1.00  0.00     0.134 A 
ATOM     96  C   UNL     1     -14.185  -9.647  -8.712  1.00  0.00     0.134 A 
ATOM     97  F   UNL     1     -10.905 -11.194  -8.921  1.00  0.00    -0.206 F 
ATOM     98  C   UNL     1     -12.871 -11.646 -10.121  1.00  0.00     0.040 A 
ATOM     99  C   UNL     1     -14.875 -10.391  -9.669  1.00  0.00     0.040 A 
ATOM    100  F   UNL     1     -14.858  -8.689  -8.057  1.00  0.00    -0.206 F 
ATOM    101  C   UNL     1     -14.215 -11.389 -10.382  1.00  0.00     0.006 A 
ENDBRANCH  77  94
ENDBRANCH  51  52
ENDBRANCH  43  46
ENDBRANCH  41  42
ENDBRANCH  40  41
ENDBRANCH  39  40
ENDBRANCH  38  39
ENDBRANCH   1  38
TORSDOF 19
