REMARK SMILES O=C(CCCNC(=O)[C@@H]1CCCN(S(=O)(=O)c2ccc(F)cc2)C1)NCCCCCCNC(=O)c1ccc(-c2c3nc(c(-c4c(F)cccc4F)c4ccc([nH]4)c(-c4c(F)cccc4F)c4nc(c(-c5c(F)cccc5F)c5ccc2[nH]5)C=C4)C=C3)cc1
REMARK SMILES IDX 26 1 25 2 1 3 2 4 3 6 4 7 5 8 6 9 7 10 8 12 9 13 10 14 24 15
REMARK SMILES IDX 11 16 13 17 12 18 14 19 15 20 16 21 17 22 18 23 23 24 19 25
REMARK SMILES IDX 22 26 20 27 21 28 27 29 28 30 29 31 30 32 31 33 32 34 33 35
REMARK SMILES IDX 34 37 35 38 36 39 88 40 37 41 87 42 38 43 39 44 40 45 81 46
REMARK SMILES IDX 41 47 86 48 80 49 82 50 42 51 85 52 79 53 78 54 43 56 69 57
REMARK SMILES IDX 52 58 68 59 53 60 56 61 67 62 83 63 54 64 55 65 66 67 84 68
REMARK SMILES IDX 57 69 44 70 45 71 50 72 46 73 47 74 49 75 51 76 48 77 70 78
REMARK SMILES IDX 71 79 76 80 72 81 73 82 75 83 77 84 74 85 58 86 59 87 64 88
REMARK SMILES IDX 60 89 61 90 63 91 65 92 62 93
REMARK H PARENT 25 5 6 11 32 36 82 55 56 66
REMARK Flexibility Score: inf
ROOT
ATOM      1  C   UNL     1       2.076   0.069  -2.292  1.00  0.00     0.116 C 
ENDROOT
BRANCH   1   2
ATOM      2  N   UNL     1       2.664   0.254  -0.982  1.00  0.00    -0.356 N 
ATOM      3  O   UNL     1       0.872  -0.564   0.198  1.00  0.00    -0.275 OA
ATOM      4  C   UNL     1       2.003  -0.094   0.172  1.00  0.00     0.220 C 
ATOM      5  H   UNL     1       3.567   0.640  -0.916  1.00  0.00     0.163 HD
BRANCH   4   6
ATOM      6  C   UNL     1       2.819   0.122   1.428  1.00  0.00     0.102 C 
BRANCH   6   7
ATOM      7  C   UNL     1       3.682  -1.095   1.765  1.00  0.00     0.031 C 
BRANCH   7   8
ATOM      8  C   UNL     1       4.845  -1.363   0.806  1.00  0.00     0.116 C 
BRANCH   8   9
ATOM      9  N   UNL     1       5.796  -0.269   0.793  1.00  0.00    -0.356 N 
ATOM     10  C   UNL     1       7.145  -0.216   0.818  1.00  0.00     0.224 C 
ATOM     11  H   UNL     1       5.371   0.619   0.758  1.00  0.00     0.163 HD
ATOM     12  O   UNL     1       7.628   0.924   0.793  1.00  0.00    -0.275 OA
BRANCH  10  13
ATOM     13  C   UNL     1       8.084  -1.417   0.769  1.00  0.00     0.093 C 
ATOM     14  C   UNL     1       8.408  -1.812  -0.669  1.00  0.00     0.016 C 
ATOM     15  C   UNL     1       7.829  -2.575   1.731  1.00  0.00     0.116 C 
ATOM     16  C   UNL     1       7.542  -2.954  -1.157  1.00  0.00     0.018 C 
ATOM     17  N   UNL     1       7.155  -3.790   1.135  1.00  0.00    -0.197 NA
ATOM     18  C   UNL     1       7.663  -4.141  -0.216  1.00  0.00     0.102 C 
BRANCH  17  19
ATOM     19  S   UNL     1       7.196  -5.105   2.270  1.00  0.00     0.243 S 
ATOM     20  O   UNL     1       8.533  -5.657   2.244  1.00  0.00    -0.207 OA
ATOM     21  O   UNL     1       6.616  -4.616   3.504  1.00  0.00    -0.207 OA
BRANCH  19  22
ATOM     22  C   UNL     1       6.091  -6.335   1.607  1.00  0.00     0.082 A 
ATOM     23  C   UNL     1       6.546  -7.207   0.608  1.00  0.00     0.025 A 
ATOM     24  C   UNL     1       4.825  -6.513   2.177  1.00  0.00     0.025 A 
ATOM     25  C   UNL     1       5.703  -8.209   0.126  1.00  0.00     0.040 A 
ATOM     26  C   UNL     1       3.997  -7.537   1.710  1.00  0.00     0.040 A 
ATOM     27  C   UNL     1       4.438  -8.366   0.683  1.00  0.00     0.123 A 
ATOM     28  F   UNL     1       3.639  -9.341   0.233  1.00  0.00    -0.207 F 
ENDBRANCH  19  22
ENDBRANCH  17  19
ENDBRANCH  10  13
ENDBRANCH   8   9
ENDBRANCH   7   8
ENDBRANCH   6   7
ENDBRANCH   4   6
ENDBRANCH   1   2
BRANCH   1  29
ATOM     29  C   UNL     1       2.645   1.052  -3.313  1.00  0.00     0.021 C 
BRANCH  29  30
ATOM     30  C   UNL     1       4.151   0.916  -3.575  1.00  0.00     0.002 C 
BRANCH  30  31
ATOM     31  C   UNL     1       4.607  -0.438  -4.125  1.00  0.00     0.002 C 
BRANCH  31  32
ATOM     32  C   UNL     1       3.948  -0.868  -5.438  1.00  0.00     0.021 C 
BRANCH  32  33
ATOM     33  C   UNL     1       4.069   0.129  -6.588  1.00  0.00     0.116 C 
BRANCH  33  34
ATOM     34  N   UNL     1       5.447   0.360  -6.993  1.00  0.00    -0.352 N 
ATOM     35  C   UNL     1       5.984   0.408  -8.256  1.00  0.00     0.251 C 
ATOM     36  H   UNL     1       6.085   0.502  -6.257  1.00  0.00     0.163 HD
ATOM     37  O   UNL     1       7.200   0.477  -8.406  1.00  0.00    -0.269 OA
BRANCH  35  38
ATOM     38  C   UNL     1       5.101   0.344  -9.442  1.00  0.00     0.039 A 
ATOM     39  C   UNL     1       5.448  -0.511 -10.492  1.00  0.00     0.014 A 
ATOM     40  C   UNL     1       3.941   1.119  -9.524  1.00  0.00     0.014 A 
ATOM     41  C   UNL     1       4.596  -0.641 -11.593  1.00  0.00     0.010 A 
ATOM     42  C   UNL     1       3.064   0.945 -10.594  1.00  0.00     0.010 A 
ATOM     43  C   UNL     1       3.379   0.059 -11.635  1.00  0.00    -0.014 A 
BRANCH  43  44
ATOM     44  C   UNL     1       2.416  -0.139 -12.748  1.00  0.00     0.031 A 
ATOM     45  C   UNL     1       2.091   0.992 -13.683  1.00  0.00     0.074 A 
ATOM     46  C   UNL     1       1.783  -1.322 -12.878  1.00  0.00     0.049 A 
ATOM     47  N   UNL     1       1.214   1.033 -14.654  1.00  0.00    -0.248 NA
ATOM     48  C   UNL     1       2.831   2.249 -13.489  1.00  0.00     0.031 C 
ATOM     49  C   UNL     1       1.978  -2.485 -12.011  1.00  0.00     0.029 A 
ATOM     50  N   UNL     1       0.835  -1.737 -13.781  1.00  0.00    -0.354 N 
ATOM     51  C   UNL     1       1.285   2.318 -15.174  1.00  0.00     0.074 A 
ATOM     52  C   UNL     1       2.263   3.040 -14.390  1.00  0.00     0.031 C 
ATOM     53  C   UNL     1       1.189  -3.486 -12.433  1.00  0.00     0.029 A 
ATOM     54  C   UNL     1       0.405  -3.026 -13.575  1.00  0.00     0.049 A 
ATOM     55  H   UNL     1       0.496  -1.165 -14.507  1.00  0.00     0.167 HD
ATOM     56  C   UNL     1       0.610   2.842 -16.224  1.00  0.00     0.037 A 
ATOM     57  C   UNL     1      -0.523  -3.754 -14.226  1.00  0.00     0.037 A 
ATOM     58  C   UNL     1      -0.334   2.114 -17.029  1.00  0.00     0.049 A 
ATOM     59  C   UNL     1      -1.253  -3.149 -15.393  1.00  0.00     0.074 A 
ATOM     60  C   UNL     1      -1.017   2.546 -18.153  1.00  0.00     0.029 A 
ATOM     61  N   UNL     1      -0.726   0.804 -16.801  1.00  0.00    -0.354 N 
ATOM     62  N   UNL     1      -1.136  -1.949 -15.905  1.00  0.00    -0.248 NA
ATOM     63  C   UNL     1      -2.242  -3.998 -16.074  1.00  0.00     0.031 C 
ATOM     64  C   UNL     1      -1.849   1.510 -18.584  1.00  0.00     0.029 A 
ATOM     65  C   UNL     1      -1.653   0.419 -17.754  1.00  0.00     0.049 A 
ATOM     66  H   UNL     1      -0.394   0.234 -16.071  1.00  0.00     0.167 HD
ATOM     67  C   UNL     1      -2.016  -1.905 -16.978  1.00  0.00     0.074 A 
ATOM     68  C   UNL     1      -2.653  -3.203 -17.052  1.00  0.00     0.031 C 
ATOM     69  C   UNL     1      -2.273  -0.879 -17.823  1.00  0.00     0.037 A 
BRANCH  56  70
ATOM     70  C   UNL     1       0.876   4.272 -16.587  1.00  0.00     0.057 A 
ATOM     71  C   UNL     1      -0.101   5.255 -16.381  1.00  0.00     0.134 A 
ATOM     72  C   UNL     1       2.060   4.658 -17.226  1.00  0.00     0.134 A 
ATOM     73  F   UNL     1      -1.261   4.949 -15.781  1.00  0.00    -0.206 F 
ATOM     74  C   UNL     1       0.086   6.569 -16.813  1.00  0.00     0.040 A 
ATOM     75  C   UNL     1       2.268   5.974 -17.643  1.00  0.00     0.040 A 
ATOM     76  F   UNL     1       3.037   3.765 -17.444  1.00  0.00    -0.206 F 
ATOM     77  C   UNL     1       1.274   6.931 -17.447  1.00  0.00     0.006 A 
ENDBRANCH  56  70
BRANCH  57  78
ATOM     78  C   UNL     1      -0.802  -5.146 -13.796  1.00  0.00     0.057 A 
ATOM     79  C   UNL     1      -1.468  -5.422 -12.596  1.00  0.00     0.134 A 
ATOM     80  C   UNL     1      -0.396  -6.236 -14.575  1.00  0.00     0.134 A 
ATOM     81  F   UNL     1      -1.876  -4.421 -11.802  1.00  0.00    -0.206 F 
ATOM     82  C   UNL     1      -1.711  -6.732 -12.180  1.00  0.00     0.040 A 
ATOM     83  C   UNL     1      -0.653  -7.551 -14.182  1.00  0.00     0.040 A 
ATOM     84  F   UNL     1       0.229  -6.034 -15.743  1.00  0.00    -0.206 F 
ATOM     85  C   UNL     1      -1.307  -7.801 -12.977  1.00  0.00     0.006 A 
ENDBRANCH  57  78
BRANCH  69  86
ATOM     86  C   UNL     1      -3.268  -1.112 -18.920  1.00  0.00     0.057 A 
ATOM     87  C   UNL     1      -2.848  -1.214 -20.253  1.00  0.00     0.134 A 
ATOM     88  C   UNL     1      -4.644  -1.148 -18.668  1.00  0.00     0.134 A 
ATOM     89  F   UNL     1      -1.543  -1.175 -20.561  1.00  0.00    -0.206 F 
ATOM     90  C   UNL     1      -3.765  -1.329 -21.298  1.00  0.00     0.040 A 
ATOM     91  C   UNL     1      -5.570  -1.285 -19.703  1.00  0.00     0.040 A 
ATOM     92  F   UNL     1      -5.107  -1.065 -17.412  1.00  0.00    -0.206 F 
ATOM     93  C   UNL     1      -5.131  -1.365 -21.024  1.00  0.00     0.006 A 
ENDBRANCH  69  86
ENDBRANCH  43  44
ENDBRANCH  35  38
ENDBRANCH  33  34
ENDBRANCH  32  33
ENDBRANCH  31  32
ENDBRANCH  30  31
ENDBRANCH  29  30
ENDBRANCH   1  29
TORSDOF 19
