REMARK SMILES Cc1cc(OCC(C)(C)C(=O)NCCCCCCNC(=O)c2ccc(-c3c4nc(c(-c5c(F)cccc5F)c5ccc([nH]5)c(-c5c(F)cccc5F)c5nc(c(-c6c(F)cccc6F)c6ccc3[nH]6)C=C5)C=C4)cc2)cc(C(C)C)c1
REMARK SMILES IDX 14 1 13 2 12 3 10 4 11 5 7 7 8 8 9 9 6 10 5 11 4 12 1 13
REMARK SMILES IDX 2 14 3 15 81 16 77 17 76 18 78 19 79 20 80 21 15 22 16 23
REMARK SMILES IDX 17 24 18 25 19 26 20 27 21 29 22 30 23 31 75 32 24 33 74 34
REMARK SMILES IDX 25 35 26 36 27 37 68 38 28 39 73 40 67 41 69 42 29 43 72 44
REMARK SMILES IDX 66 45 65 46 30 48 56 49 39 50 55 51 40 52 43 53 54 54 70 55
REMARK SMILES IDX 41 56 42 57 53 59 71 60 44 61 31 62 32 63 37 64 33 65 34 66
REMARK SMILES IDX 36 67 38 68 35 69 57 70 58 71 63 72 59 73 60 74 62 75 64 76
REMARK SMILES IDX 61 77 45 78 46 79 51 80 47 81 48 82 50 83 52 84 49 85
REMARK H PARENT 12 6 19 28 69 47 43 58
REMARK Flexibility Score: inf
ROOT
ATOM      1  C   UNL     1      -5.689  -1.475   5.310  1.00  0.00     0.021 C 
ENDROOT
BRANCH   1   2
ATOM      2  C   UNL     1      -4.765  -1.179   4.134  1.00  0.00     0.116 C 
BRANCH   2   3
ATOM      3  N   UNL     1      -3.992  -2.307   3.657  1.00  0.00    -0.356 N 
ATOM      4  C   UNL     1      -3.502  -2.592   2.408  1.00  0.00     0.229 C 
ATOM      5  O   UNL     1      -2.782  -3.590   2.326  1.00  0.00    -0.274 OA
ATOM      6  H   UNL     1      -3.783  -2.981   4.343  1.00  0.00     0.163 HD
BRANCH   4   7
ATOM      7  C   UNL     1      -3.908  -1.777   1.157  1.00  0.00     0.077 C 
ATOM      8  C   UNL     1      -3.722  -0.272   1.362  1.00  0.00     0.025 C 
ATOM      9  C   UNL     1      -5.390  -2.075   0.843  1.00  0.00     0.025 C 
BRANCH   7  10
ATOM     10  C   UNL     1      -3.104  -2.263  -0.107  1.00  0.00     0.245 C 
BRANCH  10  11
ATOM     11  O   UNL     1      -1.675  -2.192  -0.060  1.00  0.00    -0.492 OA
BRANCH  11  12
ATOM     12  C   UNL     1      -1.004  -1.032  -0.312  1.00  0.00     0.119 A 
ATOM     13  C   UNL     1       2.611   0.001   0.232  1.00  0.00     0.044 C 
ATOM     14  C   UNL     1       1.140   0.082  -0.043  1.00  0.00    -0.047 A 
ATOM     15  C   UNL     1       0.363  -1.081  -0.034  1.00  0.00     0.049 A 
ATOM     16  C   UNL     1       0.513   1.311  -0.273  1.00  0.00     0.007 A 
ATOM     17  C   UNL     1      -0.853   1.375  -0.589  1.00  0.00    -0.042 A 
ATOM     18  C   UNL     1      -1.566   0.174  -0.718  1.00  0.00     0.050 A 
BRANCH  17  19
ATOM     19  C   UNL     1      -1.548   2.730  -0.608  1.00  0.00     0.013 C 
ATOM     20  C   UNL     1      -2.613   2.886  -1.695  1.00  0.00     0.012 C 
ATOM     21  C   UNL     1      -2.167   3.013   0.770  1.00  0.00     0.012 C 
ENDBRANCH  17  19
ENDBRANCH  11  12
ENDBRANCH  10  11
ENDBRANCH   7  10
ENDBRANCH   4   7
ENDBRANCH   2   3
ENDBRANCH   1   2
BRANCH   1  22
ATOM     22  C   UNL     1      -5.035  -1.721   6.669  1.00  0.00     0.002 C 
BRANCH  22  23
ATOM     23  C   UNL     1      -4.023  -0.683   7.178  1.00  0.00     0.002 C 
BRANCH  23  24
ATOM     24  C   UNL     1      -4.376   0.799   7.021  1.00  0.00     0.021 C 
BRANCH  24  25
ATOM     25  C   UNL     1      -5.652   1.249   7.719  1.00  0.00     0.116 C 
BRANCH  25  26
ATOM     26  N   UNL     1      -5.457   1.844   9.034  1.00  0.00    -0.352 N 
ATOM     27  C   UNL     1      -6.406   2.243   9.966  1.00  0.00     0.251 C 
ATOM     28  H   UNL     1      -4.519   1.982   9.300  1.00  0.00     0.163 HD
ATOM     29  O   UNL     1      -6.061   2.754  11.013  1.00  0.00    -0.269 OA
BRANCH  27  30
ATOM     30  C   UNL     1      -7.838   1.911   9.733  1.00  0.00     0.039 A 
ATOM     31  C   UNL     1      -8.546   1.332  10.792  1.00  0.00     0.014 A 
ATOM     32  C   UNL     1      -8.401   1.958   8.461  1.00  0.00     0.014 A 
ATOM     33  C   UNL     1      -9.673   0.561  10.518  1.00  0.00     0.010 A 
ATOM     34  C   UNL     1      -9.461   1.122   8.170  1.00  0.00     0.010 A 
ATOM     35  C   UNL     1     -10.045   0.364   9.188  1.00  0.00    -0.014 A 
BRANCH  35  36
ATOM     36  C   UNL     1     -10.912  -0.729   8.766  1.00  0.00     0.031 A 
ATOM     37  C   UNL     1     -12.313  -0.484   8.378  1.00  0.00     0.074 A 
ATOM     38  C   UNL     1     -10.399  -1.977   8.681  1.00  0.00     0.049 A 
ATOM     39  N   UNL     1     -13.256  -1.356   8.505  1.00  0.00    -0.248 NA
ATOM     40  C   UNL     1     -12.768   0.788   7.829  1.00  0.00     0.031 C 
ATOM     41  C   UNL     1     -11.020  -3.155   8.083  1.00  0.00     0.029 A 
ATOM     42  N   UNL     1      -9.255  -2.472   9.322  1.00  0.00    -0.354 N 
ATOM     43  C   UNL     1     -14.353  -0.879   7.831  1.00  0.00     0.074 A 
ATOM     44  C   UNL     1     -14.021   0.483   7.476  1.00  0.00     0.031 C 
ATOM     45  C   UNL     1     -10.443  -4.253   8.596  1.00  0.00     0.029 A 
ATOM     46  C   UNL     1      -9.526  -3.820   9.636  1.00  0.00     0.049 A 
ATOM     47  H   UNL     1      -8.426  -1.977   9.514  1.00  0.00     0.167 HD
ATOM     48  C   UNL     1     -15.379  -1.719   7.517  1.00  0.00     0.037 A 
ATOM     49  C   UNL     1      -9.550  -4.249  10.931  1.00  0.00     0.037 A 
ATOM     50  C   UNL     1     -15.141  -3.071   8.006  1.00  0.00     0.049 A 
ATOM     51  C   UNL     1     -10.894  -4.778  11.377  1.00  0.00     0.074 A 
ATOM     52  C   UNL     1     -14.608  -4.199   7.405  1.00  0.00     0.029 A 
ATOM     53  N   UNL     1     -15.135  -3.316   9.375  1.00  0.00    -0.354 N 
ATOM     54  N   UNL     1     -12.004  -4.595  10.717  1.00  0.00    -0.248 NA
ATOM     55  C   UNL     1     -11.104  -5.515  12.622  1.00  0.00     0.031 C 
ATOM     56  C   UNL     1     -14.207  -5.095   8.425  1.00  0.00     0.029 A 
ATOM     57  C   UNL     1     -14.520  -4.525   9.645  1.00  0.00     0.049 A 
ATOM     58  H   UNL     1     -15.514  -2.714  10.055  1.00  0.00     0.167 HD
ATOM     59  C   UNL     1     -13.053  -5.110  11.432  1.00  0.00     0.074 A 
ATOM     60  C   UNL     1     -12.435  -5.705  12.602  1.00  0.00     0.031 C 
ATOM     61  C   UNL     1     -14.346  -4.983  11.014  1.00  0.00     0.037 A 
BRANCH  48  62
ATOM     62  C   UNL     1     -16.424  -1.344   6.502  1.00  0.00     0.057 A 
ATOM     63  C   UNL     1     -16.859  -2.256   5.523  1.00  0.00     0.134 A 
ATOM     64  C   UNL     1     -16.994  -0.063   6.413  1.00  0.00     0.134 A 
ATOM     65  F   UNL     1     -16.461  -3.534   5.524  1.00  0.00    -0.206 F 
ATOM     66  C   UNL     1     -17.712  -1.892   4.474  1.00  0.00     0.040 A 
ATOM     67  C   UNL     1     -17.809   0.330   5.342  1.00  0.00     0.040 A 
ATOM     68  F   UNL     1     -16.783   0.854   7.369  1.00  0.00    -0.206 F 
ATOM     69  C   UNL     1     -18.161  -0.585   4.359  1.00  0.00     0.006 A 
ENDBRANCH  48  62
BRANCH  49  70
ATOM     70  C   UNL     1      -8.576  -3.537  11.798  1.00  0.00     0.057 A 
ATOM     71  C   UNL     1      -7.203  -3.706  11.539  1.00  0.00     0.134 A 
ATOM     72  C   UNL     1      -8.945  -2.441  12.582  1.00  0.00     0.134 A 
ATOM     73  F   UNL     1      -6.781  -4.740  10.794  1.00  0.00    -0.206 F 
ATOM     74  C   UNL     1      -6.254  -2.763  11.939  1.00  0.00     0.040 A 
ATOM     75  C   UNL     1      -8.000  -1.496  12.999  1.00  0.00     0.040 A 
ATOM     76  F   UNL     1     -10.236  -2.202  12.856  1.00  0.00    -0.206 F 
ATOM     77  C   UNL     1      -6.658  -1.633  12.642  1.00  0.00     0.006 A 
ENDBRANCH  49  70
BRANCH  61  78
ATOM     78  C   UNL     1     -15.564  -5.342  11.820  1.00  0.00     0.057 A 
ATOM     79  C   UNL     1     -15.652  -5.199  13.211  1.00  0.00     0.134 A 
ATOM     80  C   UNL     1     -16.763  -5.710  11.171  1.00  0.00     0.134 A 
ATOM     81  F   UNL     1     -14.615  -4.758  13.936  1.00  0.00    -0.206 F 
ATOM     82  C   UNL     1     -16.837  -5.453  13.915  1.00  0.00     0.040 A 
ATOM     83  C   UNL     1     -17.962  -5.918  11.857  1.00  0.00     0.040 A 
ATOM     84  F   UNL     1     -16.821  -5.861   9.839  1.00  0.00    -0.206 F 
ATOM     85  C   UNL     1     -17.999  -5.802  13.238  1.00  0.00     0.006 A 
ENDBRANCH  61  78
ENDBRANCH  35  36
ENDBRANCH  27  30
ENDBRANCH  25  26
ENDBRANCH  24  25
ENDBRANCH  23  24
ENDBRANCH  22  23
ENDBRANCH   1  22
TORSDOF 17
