REMARK SMILES CC[C@@](O)(C(=O)NCCCCCCNC(=O)c1ccc(-c2c3nc(c(-c4c(F)cccc4F)c4ccc([nH]4)c(-c4c(F)cccc4F)c4nc(c(-c5c(F)cccc5F)c5ccc2[nH]5)C=C4)C=C3)cc1)[C@@H](C)c1ccc(OC(C)C)cc1
REMARK SMILES IDX 9 1 8 2 7 3 5 4 6 5 3 7 2 8 1 9 4 10 71 12 72 13 73 14 74 15
REMARK SMILES IDX 82 16 75 17 81 18 76 19 77 20 78 21 79 22 80 23 10 24 11 25
REMARK SMILES IDX 12 26 13 27 14 28 15 29 16 31 17 32 18 33 70 34 19 35 69 36
REMARK SMILES IDX 20 37 21 38 22 39 63 40 23 41 68 42 62 43 64 44 24 45 67 46
REMARK SMILES IDX 61 47 60 48 25 50 51 51 34 52 50 53 35 54 38 55 49 56 65 57
REMARK SMILES IDX 36 58 37 59 48 61 66 62 39 63 26 64 27 65 32 66 28 67 29 68
REMARK SMILES IDX 31 69 33 70 30 71 52 72 53 73 58 74 54 75 55 76 57 77 59 78
REMARK SMILES IDX 56 79 40 80 41 81 46 82 42 83 43 84 45 85 47 86 44 87
REMARK H PARENT 7 6 4 11 14 30 64 49 38 60
REMARK Flexibility Score: inf
ROOT
ATOM      1  C   UNL     1      -2.753   1.191   2.660  1.00  0.00     0.021 C 
ENDROOT
BRANCH   1   2
ATOM      2  C   UNL     1      -1.893   2.271   1.998  1.00  0.00     0.116 C 
BRANCH   2   3
ATOM      3  N   UNL     1      -0.799   2.652   2.865  1.00  0.00    -0.354 N 
ATOM      4  C   UNL     1       0.545   2.449   2.747  1.00  0.00     0.252 C 
ATOM      5  O   UNL     1       1.232   2.908   3.665  1.00  0.00    -0.272 OA
ATOM      6  H   UNL     1      -1.070   3.139   3.677  1.00  0.00     0.163 HD
BRANCH   4   7
ATOM      7  C   UNL     1       1.165   1.734   1.502  1.00  0.00     0.149 C 
BRANCH   7   8
ATOM      8  C   UNL     1       0.580   0.314   1.258  1.00  0.00     0.043 C 
ATOM      9  C   UNL     1       0.190  -0.008  -0.187  1.00  0.00     0.007 C 
ENDBRANCH   7   8
BRANCH   7  10
ATOM     10  O   UNL     1       0.773   2.617   0.419  1.00  0.00    -0.379 OA
ATOM     11  H   UNL     1      -0.193   2.617   0.335  1.00  0.00     0.212 HD
ENDBRANCH   7  10
BRANCH   7  12
ATOM     12  C   UNL     1       2.745   1.736   1.637  1.00  0.00     0.057 C 
ATOM     13  C   UNL     1       3.298   0.926   2.826  1.00  0.00     0.016 C 
BRANCH  12  14
ATOM     14  C   UNL     1       3.425   1.312   0.333  1.00  0.00    -0.042 A 
ATOM     15  C   UNL     1       3.578  -0.030  -0.034  1.00  0.00     0.008 A 
ATOM     16  C   UNL     1       3.815   2.297  -0.584  1.00  0.00     0.008 A 
ATOM     17  C   UNL     1       3.983  -0.367  -1.326  1.00  0.00     0.047 A 
ATOM     18  C   UNL     1       4.245   1.951  -1.868  1.00  0.00     0.047 A 
ATOM     19  C   UNL     1       4.288   0.620  -2.265  1.00  0.00     0.119 A 
BRANCH  19  20
ATOM     20  O   UNL     1       4.569   0.131  -3.503  1.00  0.00    -0.491 OA
BRANCH  20  21
ATOM     21  C   UNL     1       5.033   0.945  -4.582  1.00  0.00     0.167 C 
ATOM     22  C   UNL     1       3.992   1.919  -5.130  1.00  0.00     0.052 C 
ATOM     23  C   UNL     1       6.410   1.543  -4.316  1.00  0.00     0.052 C 
ENDBRANCH  20  21
ENDBRANCH  19  20
ENDBRANCH  12  14
ENDBRANCH   7  12
ENDBRANCH   4   7
ENDBRANCH   2   3
ENDBRANCH   1   2
BRANCH   1  24
ATOM     24  C   UNL     1      -3.490   1.671   3.915  1.00  0.00     0.002 C 
BRANCH  24  25
ATOM     25  C   UNL     1      -4.442   2.848   3.687  1.00  0.00     0.002 C 
BRANCH  25  26
ATOM     26  C   UNL     1      -5.474   2.626   2.581  1.00  0.00     0.021 C 
BRANCH  26  27
ATOM     27  C   UNL     1      -6.361   1.404   2.792  1.00  0.00     0.116 C 
BRANCH  27  28
ATOM     28  N   UNL     1      -7.198   1.538   3.974  1.00  0.00    -0.352 N 
ATOM     29  C   UNL     1      -8.564   1.453   4.074  1.00  0.00     0.251 C 
ATOM     30  H   UNL     1      -6.720   1.714   4.817  1.00  0.00     0.163 HD
ATOM     31  O   UNL     1      -9.140   1.796   5.102  1.00  0.00    -0.269 OA
BRANCH  29  32
ATOM     32  C   UNL     1      -9.339   0.961   2.919  1.00  0.00     0.039 A 
ATOM     33  C   UNL     1     -10.464   1.675   2.499  1.00  0.00     0.014 A 
ATOM     34  C   UNL     1      -8.935  -0.190   2.238  1.00  0.00     0.014 A 
ATOM     35  C   UNL     1     -11.150   1.266   1.354  1.00  0.00     0.010 A 
ATOM     36  C   UNL     1      -9.570  -0.548   1.056  1.00  0.00     0.010 A 
ATOM     37  C   UNL     1     -10.686   0.173   0.604  1.00  0.00    -0.014 A 
BRANCH  37  38
ATOM     38  C   UNL     1     -11.349  -0.241  -0.657  1.00  0.00     0.031 A 
ATOM     39  C   UNL     1     -11.972  -1.603  -0.764  1.00  0.00     0.074 A 
ATOM     40  C   UNL     1     -11.306   0.569  -1.732  1.00  0.00     0.049 A 
ATOM     41  N   UNL     1     -12.494  -2.196  -1.807  1.00  0.00    -0.248 NA
ATOM     42  C   UNL     1     -11.978  -2.421   0.460  1.00  0.00     0.031 C 
ATOM     43  C   UNL     1     -10.686   1.894  -1.769  1.00  0.00     0.029 A 
ATOM     44  N   UNL     1     -11.773   0.384  -3.010  1.00  0.00    -0.354 N 
ATOM     45  C   UNL     1     -12.868  -3.461  -1.371  1.00  0.00     0.074 A 
ATOM     46  C   UNL     1     -12.463  -3.569   0.013  1.00  0.00     0.031 C 
ATOM     47  C   UNL     1     -10.813   2.403  -3.005  1.00  0.00     0.029 A 
ATOM     48  C   UNL     1     -11.483   1.425  -3.857  1.00  0.00     0.049 A 
ATOM     49  H   UNL     1     -12.267  -0.419  -3.292  1.00  0.00     0.167 HD
ATOM     50  C   UNL     1     -13.509  -4.437  -2.058  1.00  0.00     0.037 A 
ATOM     51  C   UNL     1     -11.710   1.569  -5.176  1.00  0.00     0.037 A 
ATOM     52  C   UNL     1     -13.922  -4.315  -3.432  1.00  0.00     0.049 A 
ATOM     53  C   UNL     1     -12.415   0.472  -5.925  1.00  0.00     0.074 A 
ATOM     54  C   UNL     1     -14.641  -5.215  -4.198  1.00  0.00     0.029 A 
ATOM     55  N   UNL     1     -13.640  -3.229  -4.248  1.00  0.00    -0.354 N 
ATOM     56  N   UNL     1     -12.838  -0.688  -5.483  1.00  0.00    -0.248 NA
ATOM     57  C   UNL     1     -12.681   0.704  -7.351  1.00  0.00     0.031 C 
ATOM     58  C   UNL     1     -14.741  -4.701  -5.495  1.00  0.00     0.029 A 
ATOM     59  C   UNL     1     -14.141  -3.452  -5.520  1.00  0.00     0.049 A 
ATOM     60  H   UNL     1     -13.156  -2.420  -3.965  1.00  0.00     0.167 HD
ATOM     61  C   UNL     1     -13.441  -1.313  -6.567  1.00  0.00     0.074 A 
ATOM     62  C   UNL     1     -13.337  -0.400  -7.686  1.00  0.00     0.031 C 
ATOM     63  C   UNL     1     -14.032  -2.532  -6.626  1.00  0.00     0.037 A 
BRANCH  50  64
ATOM     64  C   UNL     1     -13.782  -5.724  -1.333  1.00  0.00     0.057 A 
ATOM     65  C   UNL     1     -14.683  -5.799  -0.262  1.00  0.00     0.134 A 
ATOM     66  C   UNL     1     -13.137  -6.908  -1.714  1.00  0.00     0.134 A 
ATOM     67  F   UNL     1     -15.329  -4.702   0.162  1.00  0.00    -0.206 F 
ATOM     68  C   UNL     1     -14.897  -6.992   0.432  1.00  0.00     0.040 A 
ATOM     69  C   UNL     1     -13.369  -8.114  -1.050  1.00  0.00     0.040 A 
ATOM     70  F   UNL     1     -12.269  -6.913  -2.737  1.00  0.00    -0.206 F 
ATOM     71  C   UNL     1     -14.242  -8.155   0.035  1.00  0.00     0.006 A 
ENDBRANCH  50  64
BRANCH  51  72
ATOM     72  C   UNL     1     -11.264   2.806  -5.865  1.00  0.00     0.057 A 
ATOM     73  C   UNL     1     -12.185   3.760  -6.311  1.00  0.00     0.134 A 
ATOM     74  C   UNL     1      -9.905   3.078  -6.064  1.00  0.00     0.134 A 
ATOM     75  F   UNL     1     -13.501   3.550  -6.164  1.00  0.00    -0.206 F 
ATOM     76  C   UNL     1     -11.771   4.937  -6.940  1.00  0.00     0.040 A 
ATOM     77  C   UNL     1      -9.476   4.262  -6.668  1.00  0.00     0.040 A 
ATOM     78  F   UNL     1      -8.972   2.208  -5.649  1.00  0.00    -0.206 F 
ATOM     79  C   UNL     1     -10.412   5.193  -7.112  1.00  0.00     0.006 A 
ENDBRANCH  51  72
BRANCH  63  80
ATOM     80  C   UNL     1     -14.645  -2.944  -7.933  1.00  0.00     0.057 A 
ATOM     81  C   UNL     1     -13.865  -3.309  -9.037  1.00  0.00     0.134 A 
ATOM     82  C   UNL     1     -16.037  -3.046  -8.062  1.00  0.00     0.134 A 
ATOM     83  F   UNL     1     -12.527  -3.222  -8.983  1.00  0.00    -0.206 F 
ATOM     84  C   UNL     1     -14.448  -3.749 -10.227  1.00  0.00     0.040 A 
ATOM     85  C   UNL     1     -16.630  -3.512  -9.236  1.00  0.00     0.040 A 
ATOM     86  F   UNL     1     -16.842  -2.720  -7.039  1.00  0.00    -0.206 F 
ATOM     87  C   UNL     1     -15.834  -3.862 -10.324  1.00  0.00     0.006 A 
ENDBRANCH  63  80
ENDBRANCH  37  38
ENDBRANCH  29  32
ENDBRANCH  27  28
ENDBRANCH  26  27
ENDBRANCH  25  26
ENDBRANCH  24  25
ENDBRANCH   1  24
TORSDOF 19
