REMARK SMILES CN1C(=O)C[C@@H](C(=O)NCCCCCCNC(=O)c2ccc(-c3c4nc(c(-c5c(F)cccc5F)c5ccc([nH]5)c(-c5c(F)cccc5F)c5nc(c(-c6c(F)cccc6F)c6ccc3[nH]6)C=C5)C=C4)cc2)C12CCN(C(=O)c1ccccc1-n1cccn1)CC2
REMARK SMILES IDX 12 1 11 2 10 3 9 4 7 5 8 6 6 8 1 9 2 10 3 11 73 12 4 13 5 14
REMARK SMILES IDX 74 15 91 16 75 17 90 18 76 19 77 20 78 21 79 22 80 23 84 24
REMARK SMILES IDX 81 25 83 26 82 27 85 28 86 29 89 30 87 31 88 32 13 33 14 34
REMARK SMILES IDX 15 35 16 36 17 37 18 39 19 40 20 41 72 42 21 43 71 44 22 45
REMARK SMILES IDX 23 46 24 47 65 48 25 49 70 50 64 51 66 52 26 53 69 54 63 55
REMARK SMILES IDX 62 56 27 58 53 59 36 60 52 61 37 62 40 63 51 64 67 65 38 66
REMARK SMILES IDX 39 67 50 69 68 70 41 71 28 72 29 73 34 74 30 75 31 76 33 77
REMARK SMILES IDX 35 78 32 79 54 80 55 81 60 82 56 83 57 84 59 85 61 86 58 87
REMARK SMILES IDX 42 88 43 89 48 90 44 91 45 92 47 93 49 94 46 95
REMARK H PARENT 9 7 16 38 66 57 40 68
REMARK Flexibility Score: inf
ROOT
ATOM      1  C   UNL     1       1.332   0.997  -5.534  1.00  0.00     0.002 C 
ENDROOT
BRANCH   1   2
ATOM      2  C   UNL     1       1.195   0.565  -4.077  1.00  0.00     0.021 C 
BRANCH   2   3
ATOM      3  C   UNL     1      -0.066  -0.252  -3.767  1.00  0.00     0.116 C 
BRANCH   3   4
ATOM      4  N   UNL     1      -0.031  -1.605  -4.298  1.00  0.00    -0.356 N 
ATOM      5  C   UNL     1      -0.078  -2.837  -3.728  1.00  0.00     0.226 C 
ATOM      6  O   UNL     1      -0.030  -3.796  -4.507  1.00  0.00    -0.275 OA
ATOM      7  H   UNL     1       0.042  -1.634  -5.280  1.00  0.00     0.163 HD
BRANCH   5   8
ATOM      8  C   UNL     1      -0.169  -3.124  -2.221  1.00  0.00     0.113 C 
ATOM      9  C   UNL     1       0.917  -0.393   0.114  1.00  0.00     0.147 C 
ATOM     10  N   UNL     1       0.279  -1.397  -0.714  1.00  0.00    -0.339 N 
ATOM     11  C   UNL     1      -1.106  -1.445  -0.808  1.00  0.00     0.223 C 
ATOM     12  C   UNL     1       0.946  -2.577  -1.297  1.00  0.00     0.058 C 
ATOM     13  O   UNL     1      -1.894  -0.651  -0.314  1.00  0.00    -0.275 OA
ATOM     14  C   UNL     1      -1.492  -2.631  -1.638  1.00  0.00     0.116 C 
ATOM     15  C   UNL     1       2.237  -2.262  -2.072  1.00  0.00     0.051 C 
ATOM     16  C   UNL     1       1.314  -3.553  -0.138  1.00  0.00     0.051 C 
ATOM     17  C   UNL     1       2.983  -3.508  -2.528  1.00  0.00     0.122 C 
ATOM     18  C   UNL     1       2.229  -4.716  -0.548  1.00  0.00     0.122 C 
ATOM     19  N   UNL     1       3.365  -4.256  -1.346  1.00  0.00    -0.338 N 
ATOM     20  C   UNL     1       4.672  -4.554  -0.959  1.00  0.00     0.256 C 
ATOM     21  O   UNL     1       4.945  -5.194   0.055  1.00  0.00    -0.269 OA
BRANCH  20  22
ATOM     22  C   UNL     1       5.815  -4.141  -1.817  1.00  0.00     0.065 A 
ATOM     23  C   UNL     1       6.502  -5.189  -2.453  1.00  0.00     0.016 A 
ATOM     24  C   UNL     1       6.199  -2.815  -2.077  1.00  0.00     0.077 A 
ATOM     25  C   UNL     1       7.533  -4.922  -3.358  1.00  0.00     0.001 A 
ATOM     26  C   UNL     1       7.197  -2.556  -3.037  1.00  0.00     0.029 A 
ATOM     27  C   UNL     1       7.870  -3.606  -3.660  1.00  0.00     0.002 A 
BRANCH  24  28
ATOM     28  N   UNL     1       5.650  -1.702  -1.398  1.00  0.00    -0.240 N 
ATOM     29  C   UNL     1       5.206  -1.621  -0.097  1.00  0.00     0.115 A 
ATOM     30  N   UNL     1       5.535  -0.503  -2.033  1.00  0.00    -0.177 NA
ATOM     31  C   UNL     1       4.772  -0.331   0.101  1.00  0.00     0.042 A 
ATOM     32  C   UNL     1       4.970   0.303  -1.134  1.00  0.00     0.135 A 
ENDBRANCH  24  28
ENDBRANCH  20  22
ENDBRANCH   5   8
ENDBRANCH   3   4
ENDBRANCH   2   3
ENDBRANCH   1   2
BRANCH   1  33
ATOM     33  C   UNL     1       0.182   1.868  -6.039  1.00  0.00     0.002 C 
BRANCH  33  34
ATOM     34  C   UNL     1      -0.141   3.075  -5.154  1.00  0.00     0.021 C 
BRANCH  34  35
ATOM     35  C   UNL     1       1.043   3.997  -4.881  1.00  0.00     0.116 C 
BRANCH  35  36
ATOM     36  N   UNL     1       1.593   4.541  -6.109  1.00  0.00    -0.352 N 
ATOM     37  C   UNL     1       1.770   5.849  -6.474  1.00  0.00     0.251 C 
ATOM     38  H   UNL     1       1.881   3.875  -6.774  1.00  0.00     0.163 HD
ATOM     39  O   UNL     1       2.020   6.135  -7.641  1.00  0.00    -0.269 OA
BRANCH  37  40
ATOM     40  C   UNL     1       1.655   6.918  -5.461  1.00  0.00     0.039 A 
ATOM     41  C   UNL     1       0.986   8.095  -5.799  1.00  0.00     0.014 A 
ATOM     42  C   UNL     1       2.232   6.774  -4.195  1.00  0.00     0.014 A 
ATOM     43  C   UNL     1       0.871   9.117  -4.857  1.00  0.00     0.010 A 
ATOM     44  C   UNL     1       2.047   7.760  -3.231  1.00  0.00     0.010 A 
ATOM     45  C   UNL     1       1.382   8.950  -3.559  1.00  0.00    -0.014 A 
BRANCH  45  46
ATOM     46  C   UNL     1       1.246  10.026  -2.545  1.00  0.00     0.031 A 
ATOM     47  C   UNL     1       2.470  10.704  -1.993  1.00  0.00     0.074 A 
ATOM     48  C   UNL     1       0.023  10.368  -2.099  1.00  0.00     0.049 A 
ATOM     49  N   UNL     1       2.556  11.650  -1.092  1.00  0.00    -0.248 NA
ATOM     50  C   UNL     1       3.773  10.242  -2.501  1.00  0.00     0.031 C 
ATOM     51  C   UNL     1      -1.235   9.751  -2.524  1.00  0.00     0.029 A 
ATOM     52  N   UNL     1      -0.364  11.318  -1.189  1.00  0.00    -0.354 N 
ATOM     53  C   UNL     1       3.914  11.888  -0.921  1.00  0.00     0.074 A 
ATOM     54  C   UNL     1       4.618  10.946  -1.762  1.00  0.00     0.031 C 
ATOM     55  C   UNL     1      -2.256  10.361  -1.900  1.00  0.00     0.029 A 
ATOM     56  C   UNL     1      -1.724  11.382  -1.004  1.00  0.00     0.049 A 
ATOM     57  H   UNL     1       0.273  11.900  -0.713  1.00  0.00     0.167 HD
ATOM     58  C   UNL     1       4.519  12.825  -0.152  1.00  0.00     0.037 A 
ATOM     59  C   UNL     1      -2.458  12.173  -0.199  1.00  0.00     0.037 A 
ATOM     60  C   UNL     1       3.812  13.771   0.671  1.00  0.00     0.049 A 
ATOM     61  C   UNL     1      -1.761  13.198   0.653  1.00  0.00     0.074 A 
ATOM     62  C   UNL     1       4.330  14.792   1.449  1.00  0.00     0.029 A 
ATOM     63  N   UNL     1       2.434  13.810   0.825  1.00  0.00    -0.354 N 
ATOM     64  N   UNL     1      -0.480  13.458   0.754  1.00  0.00    -0.248 NA
ATOM     65  C   UNL     1      -2.614  14.048   1.495  1.00  0.00     0.031 C 
ATOM     66  C   UNL     1       3.269  15.413   2.116  1.00  0.00     0.029 A 
ATOM     67  C   UNL     1       2.085  14.823   1.703  1.00  0.00     0.049 A 
ATOM     68  H   UNL     1       1.798  13.207   0.376  1.00  0.00     0.167 HD
ATOM     69  C   UNL     1      -0.376  14.523   1.639  1.00  0.00     0.074 A 
ATOM     70  C   UNL     1      -1.725  14.867   2.038  1.00  0.00     0.031 C 
ATOM     71  C   UNL     1       0.736  15.161   2.080  1.00  0.00     0.037 A 
BRANCH  58  72
ATOM     72  C   UNL     1       6.021  12.870  -0.166  1.00  0.00     0.057 A 
ATOM     73  C   UNL     1       6.740  13.277  -1.299  1.00  0.00     0.134 A 
ATOM     74  C   UNL     1       6.758  12.536   0.978  1.00  0.00     0.134 A 
ATOM     75  F   UNL     1       6.099  13.599  -2.432  1.00  0.00    -0.206 F 
ATOM     76  C   UNL     1       8.136  13.321  -1.303  1.00  0.00     0.040 A 
ATOM     77  C   UNL     1       8.152  12.607   0.996  1.00  0.00     0.040 A 
ATOM     78  F   UNL     1       6.135  12.145   2.100  1.00  0.00    -0.206 F 
ATOM     79  C   UNL     1       8.845  12.993  -0.149  1.00  0.00     0.006 A 
ENDBRANCH  58  72
BRANCH  59  80
ATOM     80  C   UNL     1      -3.938  12.048  -0.182  1.00  0.00     0.057 A 
ATOM     81  C   UNL     1      -4.757  13.063  -0.689  1.00  0.00     0.134 A 
ATOM     82  C   UNL     1      -4.569  10.917   0.349  1.00  0.00     0.134 A 
ATOM     83  F   UNL     1      -4.213  14.179  -1.196  1.00  0.00    -0.206 F 
ATOM     84  C   UNL     1      -6.149  12.971  -0.646  1.00  0.00     0.040 A 
ATOM     85  C   UNL     1      -5.960  10.798   0.372  1.00  0.00     0.040 A 
ATOM     86  F   UNL     1      -3.842   9.903   0.842  1.00  0.00    -0.206 F 
ATOM     87  C   UNL     1      -6.754  11.832  -0.118  1.00  0.00     0.006 A 
ENDBRANCH  59  80
BRANCH  71  88
ATOM     88  C   UNL     1       0.539  16.331   3.001  1.00  0.00     0.057 A 
ATOM     89  C   UNL     1       0.099  16.177   4.322  1.00  0.00     0.134 A 
ATOM     90  C   UNL     1       0.828  17.631   2.565  1.00  0.00     0.134 A 
ATOM     91  F   UNL     1      -0.206  14.961   4.799  1.00  0.00    -0.206 F 
ATOM     92  C   UNL     1      -0.075  17.275   5.165  1.00  0.00     0.040 A 
ATOM     93  C   UNL     1       0.689  18.733   3.409  1.00  0.00     0.040 A 
ATOM     94  F   UNL     1       1.264  17.850   1.315  1.00  0.00    -0.206 F 
ATOM     95  C   UNL     1       0.228  18.558   4.711  1.00  0.00     0.006 A 
ENDBRANCH  71  88
ENDBRANCH  45  46
ENDBRANCH  37  40
ENDBRANCH  35  36
ENDBRANCH  34  35
ENDBRANCH  33  34
ENDBRANCH   1  33
TORSDOF 15
