REMARK SMILES COc1ccc(NC(=O)[C@H](CC(=O)NCCCCCCNC(=O)c2ccc(-c3c4nc(c(-c5c(F)cccc5F)c5ccc([nH]5)c(-c5c(F)cccc5F)c5nc(c(-c6c(F)cccc6F)c6ccc3[nH]6)C=C5)C=C4)cc2)Cc2ccccc2)cc1
REMARK SMILES IDX 16 1 15 2 14 3 12 4 13 5 11 7 10 8 8 9 7 10 9 12 6 13 3 14
REMARK SMILES IDX 4 15 86 16 5 17 85 18 2 19 1 20 78 21 79 22 80 23 84 24
REMARK SMILES IDX 81 25 83 26 82 27 17 28 18 29 19 30 20 31 21 32 22 33 23 35
REMARK SMILES IDX 24 36 25 37 77 38 26 39 76 40 27 41 28 42 29 43 70 44 30 45
REMARK SMILES IDX 75 46 69 47 71 48 31 49 74 50 68 51 67 52 32 54 58 55 41 56
REMARK SMILES IDX 57 57 42 58 45 59 56 60 72 61 43 62 44 63 55 65 73 66 46 67
REMARK SMILES IDX 33 68 34 69 39 70 35 71 36 72 38 73 40 74 37 75 59 76 60 77
REMARK SMILES IDX 65 78 61 79 62 80 64 81 66 82 63 83 47 84 48 85 53 86 49 87
REMARK SMILES IDX 50 88 52 89 54 90 51 91
REMARK H PARENT 14 6 7 11 21 34 71 53 45 64
REMARK Flexibility Score: inf
ROOT
ATOM      1  C   UNL     1      -0.399   1.950  -4.183  1.00  0.00     0.021 C 
ENDROOT
BRANCH   1   2
ATOM      2  C   UNL     1       0.837   1.693  -5.048  1.00  0.00     0.116 C 
BRANCH   2   3
ATOM      3  N   UNL     1       1.467   0.436  -4.705  1.00  0.00    -0.356 N 
ATOM      4  C   UNL     1       1.678  -0.678  -5.453  1.00  0.00     0.220 C 
ATOM      5  O   UNL     1       2.344  -1.590  -4.959  1.00  0.00    -0.275 OA
ATOM      6  H   UNL     1       1.796   0.379  -3.779  1.00  0.00     0.163 HD
BRANCH   4   7
ATOM      7  C   UNL     1       1.220  -0.750  -6.898  1.00  0.00     0.113 C 
BRANCH   7   8
ATOM      8  C   UNL     1      -0.243  -1.110  -7.209  1.00  0.00     0.092 C 
BRANCH   8   9
ATOM      9  C   UNL     1      -0.483  -2.507  -6.662  1.00  0.00     0.228 C 
ATOM     10  N   UNL     1      -0.472  -3.622  -7.453  1.00  0.00    -0.326 N 
ATOM     11  H   UNL     1      -0.493  -4.462  -6.940  1.00  0.00     0.169 HD
ATOM     12  O   UNL     1      -0.725  -2.665  -5.460  1.00  0.00    -0.274 OA
BRANCH  10  13
ATOM     13  C   UNL     1      -0.438  -3.821  -8.847  1.00  0.00     0.041 A 
ATOM     14  C   UNL     1      -0.910  -4.227 -11.593  1.00  0.00     0.119 A 
ATOM     15  C   UNL     1      -0.256  -3.084 -11.151  1.00  0.00     0.048 A 
ATOM     16  C   UNL     1      -1.206  -5.233 -10.678  1.00  0.00     0.048 A 
ATOM     17  C   UNL     1       0.017  -2.907  -9.793  1.00  0.00     0.030 A 
ATOM     18  C   UNL     1      -0.970  -5.029  -9.312  1.00  0.00     0.030 A 
BRANCH  14  19
ATOM     19  O   UNL     1      -1.166  -4.270 -12.934  1.00  0.00    -0.497 OA
ATOM     20  C   UNL     1      -2.292  -5.056 -13.309  1.00  0.00     0.278 C 
ENDBRANCH  14  19
ENDBRANCH  10  13
ENDBRANCH   8   9
BRANCH   8  21
ATOM     21  C   UNL     1      -1.402  -0.182  -6.812  1.00  0.00     0.049 C 
BRANCH  21  22
ATOM     22  C   UNL     1      -1.592   1.110  -7.606  1.00  0.00    -0.047 A 
ATOM     23  C   UNL     1      -0.574   1.737  -8.340  1.00  0.00     0.004 A 
ATOM     24  C   UNL     1      -2.833   1.765  -7.541  1.00  0.00     0.004 A 
ATOM     25  C   UNL     1      -0.738   3.016  -8.879  1.00  0.00     0.000 A 
ATOM     26  C   UNL     1      -3.017   3.024  -8.126  1.00  0.00     0.000 A 
ATOM     27  C   UNL     1      -1.959   3.665  -8.764  1.00  0.00     0.000 A 
ENDBRANCH  21  22
ENDBRANCH   8  21
ENDBRANCH   7   8
ENDBRANCH   4   7
ENDBRANCH   2   3
ENDBRANCH   1   2
BRANCH   1  28
ATOM     28  C   UNL     1      -0.253   3.180  -3.292  1.00  0.00     0.002 C 
BRANCH  28  29
ATOM     29  C   UNL     1      -0.170   4.503  -4.061  1.00  0.00     0.002 C 
BRANCH  29  30
ATOM     30  C   UNL     1      -1.405   4.858  -4.894  1.00  0.00     0.021 C 
BRANCH  30  31
ATOM     31  C   UNL     1      -2.726   4.858  -4.131  1.00  0.00     0.116 C 
BRANCH  31  32
ATOM     32  N   UNL     1      -2.668   5.693  -2.939  1.00  0.00    -0.352 N 
ATOM     33  C   UNL     1      -3.394   6.802  -2.601  1.00  0.00     0.251 C 
ATOM     34  H   UNL     1      -2.000   5.416  -2.272  1.00  0.00     0.163 HD
ATOM     35  O   UNL     1      -3.039   7.503  -1.651  1.00  0.00    -0.269 OA
BRANCH  33  36
ATOM     36  C   UNL     1      -4.598   7.169  -3.369  1.00  0.00     0.039 A 
ATOM     37  C   UNL     1      -4.818   8.513  -3.680  1.00  0.00     0.014 A 
ATOM     38  C   UNL     1      -5.525   6.197  -3.755  1.00  0.00     0.014 A 
ATOM     39  C   UNL     1      -5.941   8.876  -4.426  1.00  0.00     0.010 A 
ATOM     40  C   UNL     1      -6.602   6.549  -4.562  1.00  0.00     0.010 A 
ATOM     41  C   UNL     1      -6.824   7.892  -4.901  1.00  0.00    -0.014 A 
BRANCH  41  42
ATOM     42  C   UNL     1      -7.985   8.249  -5.752  1.00  0.00     0.031 A 
ATOM     43  C   UNL     1      -9.385   7.998  -5.265  1.00  0.00     0.074 A 
ATOM     44  C   UNL     1      -7.776   8.740  -6.989  1.00  0.00     0.049 A 
ATOM     45  N   UNL     1     -10.522   8.170  -5.891  1.00  0.00    -0.248 NA
ATOM     46  C   UNL     1      -9.526   7.456  -3.905  1.00  0.00     0.031 C 
ATOM     47  C   UNL     1      -6.463   8.989  -7.589  1.00  0.00     0.029 A 
ATOM     48  N   UNL     1      -8.664   9.106  -7.969  1.00  0.00    -0.354 N 
ATOM     49  C   UNL     1     -11.507   7.748  -5.008  1.00  0.00     0.074 A 
ATOM     50  C   UNL     1     -10.833   7.258  -3.825  1.00  0.00     0.031 C 
ATOM     51  C   UNL     1      -6.633   9.485  -8.825  1.00  0.00     0.029 A 
ATOM     52  C   UNL     1      -8.060   9.549  -9.121  1.00  0.00     0.049 A 
ATOM     53  H   UNL     1      -9.640   9.056  -7.857  1.00  0.00     0.167 HD
ATOM     54  C   UNL     1     -12.852   7.787  -5.160  1.00  0.00     0.037 A 
ATOM     55  C   UNL     1      -8.597   9.948 -10.289  1.00  0.00     0.037 A 
ATOM     56  C   UNL     1     -13.517   8.291  -6.333  1.00  0.00     0.049 A 
ATOM     57  C   UNL     1     -10.093   9.961 -10.441  1.00  0.00     0.074 A 
ATOM     58  C   UNL     1     -14.875   8.422  -6.565  1.00  0.00     0.029 A 
ATOM     59  N   UNL     1     -12.872   8.741  -7.476  1.00  0.00    -0.354 N 
ATOM     60  N   UNL     1     -11.016   9.621  -9.573  1.00  0.00    -0.248 NA
ATOM     61  C   UNL     1     -10.624  10.419 -11.733  1.00  0.00     0.031 C 
ATOM     62  C   UNL     1     -15.053   8.902  -7.866  1.00  0.00     0.029 A 
ATOM     63  C   UNL     1     -13.804   9.126  -8.425  1.00  0.00     0.049 A 
ATOM     64  H   UNL     1     -11.895   8.781  -7.594  1.00  0.00     0.167 HD
ATOM     65  C   UNL     1     -12.233   9.852 -10.201  1.00  0.00     0.074 A 
ATOM     66  C   UNL     1     -11.931  10.374 -11.518  1.00  0.00     0.031 C 
ATOM     67  C   UNL     1     -13.488   9.651  -9.729  1.00  0.00     0.037 A 
BRANCH  54  68
ATOM     68  C   UNL     1     -13.694   7.269  -4.029  1.00  0.00     0.057 A 
ATOM     69  C   UNL     1     -13.780   7.941  -2.802  1.00  0.00     0.134 A 
ATOM     70  C   UNL     1     -14.456   6.103  -4.179  1.00  0.00     0.134 A 
ATOM     71  F   UNL     1     -13.069   9.058  -2.587  1.00  0.00    -0.206 F 
ATOM     72  C   UNL     1     -14.569   7.457  -1.757  1.00  0.00     0.040 A 
ATOM     73  C   UNL     1     -15.273   5.626  -3.152  1.00  0.00     0.040 A 
ATOM     74  F   UNL     1     -14.428   5.413  -5.330  1.00  0.00    -0.206 F 
ATOM     75  C   UNL     1     -15.325   6.300  -1.934  1.00  0.00     0.006 A 
ENDBRANCH  54  68
BRANCH  55  76
ATOM     76  C   UNL     1      -7.716  10.382 -11.403  1.00  0.00     0.057 A 
ATOM     77  C   UNL     1      -7.675  11.719 -11.815  1.00  0.00     0.134 A 
ATOM     78  C   UNL     1      -6.899   9.472 -12.087  1.00  0.00     0.134 A 
ATOM     79  F   UNL     1      -8.447  12.635 -11.211  1.00  0.00    -0.206 F 
ATOM     80  C   UNL     1      -6.874  12.133 -12.880  1.00  0.00     0.040 A 
ATOM     81  C   UNL     1      -6.072   9.877 -13.135  1.00  0.00     0.040 A 
ATOM     82  F   UNL     1      -6.883   8.178 -11.735  1.00  0.00    -0.206 F 
ATOM     83  C   UNL     1      -6.064  11.210 -13.540  1.00  0.00     0.006 A 
ENDBRANCH  55  76
BRANCH  67  84
ATOM     84  C   UNL     1     -14.630  10.032 -10.626  1.00  0.00     0.057 A 
ATOM     85  C   UNL     1     -14.954   9.293 -11.771  1.00  0.00     0.134 A 
ATOM     86  C   UNL     1     -15.446  11.127 -10.311  1.00  0.00     0.134 A 
ATOM     87  F   UNL     1     -14.206   8.241 -12.136  1.00  0.00    -0.206 F 
ATOM     88  C   UNL     1     -16.034   9.644 -12.583  1.00  0.00     0.040 A 
ATOM     89  C   UNL     1     -16.546  11.469 -11.098  1.00  0.00     0.040 A 
ATOM     90  F   UNL     1     -15.197  11.871  -9.223  1.00  0.00    -0.206 F 
ATOM     91  C   UNL     1     -16.838  10.729 -12.242  1.00  0.00     0.006 A 
ENDBRANCH  67  84
ENDBRANCH  41  42
ENDBRANCH  33  36
ENDBRANCH  31  32
ENDBRANCH  30  31
ENDBRANCH  29  30
ENDBRANCH  28  29
ENDBRANCH   1  28
TORSDOF 19
