REMARK SMILES O=C(NCCCCCCNC(=O)c1cc(/C=C/c2cc(O)cc(O)c2)ccc1O)c1ccc(-c2c3nc(c(-c4c(F)cccc4F)c4ccc([nH]4)c(-c4c(F)cccc4F)c4nc(c(-c5c(F)cccc5F)c5ccc2[nH]5)C=C4)C=C3)cc1
REMARK SMILES IDX 7 1 6 2 5 3 4 4 3 5 1 6 2 7 30 9 31 10 83 11 32 12 82 13
REMARK SMILES IDX 33 14 34 15 35 16 76 17 36 18 81 19 75 20 77 21 37 22 80 23
REMARK SMILES IDX 74 24 73 25 38 27 64 28 47 29 63 30 48 31 51 32 62 33 78 34
REMARK SMILES IDX 49 35 50 36 61 38 79 39 52 40 39 41 40 42 45 43 41 44 42 45
REMARK SMILES IDX 44 46 46 47 43 48 65 49 66 50 71 51 67 52 68 53 70 54 72 55
REMARK SMILES IDX 69 56 53 57 54 58 59 59 55 60 56 61 58 62 60 63 57 64 8 65
REMARK SMILES IDX 9 66 10 67 11 68 12 70 13 71 14 72 28 73 15 74 27 75 26 76
REMARK SMILES IDX 29 77 16 79 17 80 18 81 19 82 25 83 20 84 23 85 22 86 21 87
REMARK SMILES IDX 24 89
REMARK H PARENT 3 8 77 26 51 37 10 69 29 78 21 88 24 90
REMARK Flexibility Score: inf
ROOT
ATOM      1  C   UNL     1       4.729  -4.082  -1.846  1.00  0.00     0.002 C 
ENDROOT
BRANCH   1   2
ATOM      2  C   UNL     1       4.181  -3.964  -0.421  1.00  0.00     0.002 C 
BRANCH   2   3
ATOM      3  C   UNL     1       4.644  -2.741   0.370  1.00  0.00     0.021 C 
BRANCH   3   4
ATOM      4  C   UNL     1       4.416  -1.396  -0.308  1.00  0.00     0.116 C 
BRANCH   4   5
ATOM      5  N   UNL     1       3.009  -1.093  -0.514  1.00  0.00    -0.352 N 
ATOM      6  O   UNL     1       1.083   0.067  -0.318  1.00  0.00    -0.269 OA
ATOM      7  C   UNL     1       2.302   0.035  -0.176  1.00  0.00     0.251 C 
ATOM      8  H   UNL     1       2.487  -1.798  -0.961  1.00  0.00     0.163 HD
BRANCH   7   9
ATOM      9  C   UNL     1       3.006   1.206   0.395  1.00  0.00     0.039 A 
ATOM     10  C   UNL     1       4.198   1.671  -0.165  1.00  0.00     0.014 A 
ATOM     11  C   UNL     1       2.462   1.843   1.514  1.00  0.00     0.014 A 
ATOM     12  C   UNL     1       4.920   2.669   0.482  1.00  0.00     0.010 A 
ATOM     13  C   UNL     1       3.150   2.900   2.116  1.00  0.00     0.010 A 
ATOM     14  C   UNL     1       4.406   3.295   1.629  1.00  0.00    -0.014 A 
BRANCH  14  15
ATOM     15  C   UNL     1       5.188   4.372   2.287  1.00  0.00     0.031 A 
ATOM     16  C   UNL     1       5.743   4.193   3.674  1.00  0.00     0.074 A 
ATOM     17  C   UNL     1       5.427   5.511   1.609  1.00  0.00     0.049 A 
ATOM     18  N   UNL     1       6.482   5.014   4.378  1.00  0.00    -0.248 NA
ATOM     19  C   UNL     1       5.422   2.935   4.364  1.00  0.00     0.031 C 
ATOM     20  C   UNL     1       4.934   5.809   0.263  1.00  0.00     0.029 A 
ATOM     21  N   UNL     1       6.161   6.619   1.948  1.00  0.00    -0.354 N 
ATOM     22  C   UNL     1       6.692   4.386   5.600  1.00  0.00     0.074 A 
ATOM     23  C   UNL     1       5.985   3.124   5.549  1.00  0.00     0.031 C 
ATOM     24  C   UNL     1       5.422   6.995  -0.131  1.00  0.00     0.029 A 
ATOM     25  C   UNL     1       6.217   7.563   0.952  1.00  0.00     0.049 A 
ATOM     26  H   UNL     1       6.605   6.727   2.820  1.00  0.00     0.167 HD
ATOM     27  C   UNL     1       7.413   4.819   6.662  1.00  0.00     0.037 A 
ATOM     28  C   UNL     1       6.836   8.757   0.914  1.00  0.00     0.037 A 
ATOM     29  C   UNL     1       8.136   6.064   6.702  1.00  0.00     0.049 A 
ATOM     30  C   UNL     1       7.624   9.213   2.106  1.00  0.00     0.074 A 
ATOM     31  C   UNL     1       8.934   6.567   7.716  1.00  0.00     0.029 A 
ATOM     32  N   UNL     1       8.147   7.005   5.683  1.00  0.00    -0.354 N 
ATOM     33  N   UNL     1       7.847   8.590   3.237  1.00  0.00    -0.248 NA
ATOM     34  C   UNL     1       8.246  10.541   2.016  1.00  0.00     0.031 C 
ATOM     35  C   UNL     1       9.395   7.830   7.326  1.00  0.00     0.029 A 
ATOM     36  C   UNL     1       8.921   8.094   6.052  1.00  0.00     0.049 A 
ATOM     37  H   UNL     1       7.674   6.913   4.825  1.00  0.00     0.167 HD
ATOM     38  C   UNL     1       8.654   9.437   3.985  1.00  0.00     0.074 A 
ATOM     39  C   UNL     1       8.890  10.613   3.172  1.00  0.00     0.031 C 
ATOM     40  C   UNL     1       9.154   9.255   5.231  1.00  0.00     0.037 A 
BRANCH  27  41
ATOM     41  C   UNL     1       7.439   3.945   7.884  1.00  0.00     0.057 A 
ATOM     42  C   UNL     1       8.156   2.743   7.923  1.00  0.00     0.134 A 
ATOM     43  C   UNL     1       6.761   4.331   9.048  1.00  0.00     0.134 A 
ATOM     44  F   UNL     1       8.817   2.309   6.839  1.00  0.00    -0.206 F 
ATOM     45  C   UNL     1       8.178   1.943   9.068  1.00  0.00     0.040 A 
ATOM     46  C   UNL     1       6.795   3.551  10.206  1.00  0.00     0.040 A 
ATOM     47  F   UNL     1       6.061   5.475   9.081  1.00  0.00    -0.206 F 
ATOM     48  C   UNL     1       7.500   2.350  10.215  1.00  0.00     0.006 A 
ENDBRANCH  27  41
BRANCH  28  49
ATOM     49  C   UNL     1       6.751   9.590  -0.309  1.00  0.00     0.057 A 
ATOM     50  C   UNL     1       7.864   9.764  -1.139  1.00  0.00     0.134 A 
ATOM     51  C   UNL     1       5.557  10.213  -0.688  1.00  0.00     0.134 A 
ATOM     52  F   UNL     1       9.040   9.204  -0.819  1.00  0.00    -0.206 F 
ATOM     53  C   UNL     1       7.795  10.538  -2.299  1.00  0.00     0.040 A 
ATOM     54  C   UNL     1       5.467  10.969  -1.857  1.00  0.00     0.040 A 
ATOM     55  F   UNL     1       4.454  10.076   0.063  1.00  0.00    -0.206 F 
ATOM     56  C   UNL     1       6.591  11.137  -2.663  1.00  0.00     0.006 A 
ENDBRANCH  28  49
BRANCH  40  57
ATOM     57  C   UNL     1      10.039  10.337   5.773  1.00  0.00     0.057 A 
ATOM     58  C   UNL     1       9.527  11.569   6.197  1.00  0.00     0.134 A 
ATOM     59  C   UNL     1      11.420  10.135   5.886  1.00  0.00     0.134 A 
ATOM     60  F   UNL     1       8.214  11.830   6.100  1.00  0.00    -0.206 F 
ATOM     61  C   UNL     1      10.361  12.572   6.693  1.00  0.00     0.040 A 
ATOM     62  C   UNL     1      12.261  11.121   6.402  1.00  0.00     0.040 A 
ATOM     63  F   UNL     1      11.973   8.974   5.502  1.00  0.00    -0.206 F 
ATOM     64  C   UNL     1      11.732  12.348   6.800  1.00  0.00     0.006 A 
ENDBRANCH  40  57
ENDBRANCH  14  15
ENDBRANCH   7   9
ENDBRANCH   4   5
ENDBRANCH   3   4
ENDBRANCH   2   3
ENDBRANCH   1   2
BRANCH   1  65
ATOM     65  C   UNL     1       6.252  -3.996  -1.990  1.00  0.00     0.021 C 
BRANCH  65  66
ATOM     66  C   UNL     1       7.051  -4.973  -1.130  1.00  0.00     0.116 C 
BRANCH  66  67
ATOM     67  N   UNL     1       6.747  -6.355  -1.441  1.00  0.00    -0.352 N 
ATOM     68  C   UNL     1       7.617  -7.396  -1.643  1.00  0.00     0.255 C 
ATOM     69  H   UNL     1       5.791  -6.576  -1.516  1.00  0.00     0.163 HD
ATOM     70  O   UNL     1       7.192  -8.504  -1.963  1.00  0.00    -0.269 OA
BRANCH  68  71
ATOM     71  C   UNL     1       9.075  -7.173  -1.569  1.00  0.00     0.082 A 
ATOM     72  C   UNL     1       9.817  -7.451  -2.726  1.00  0.00     0.025 A 
ATOM     73  C   UNL     1       9.720  -6.749  -0.405  1.00  0.00     0.128 A 
ATOM     74  C   UNL     1      11.205  -7.270  -2.748  1.00  0.00    -0.025 A 
ATOM     75  C   UNL     1      11.098  -6.554  -0.413  1.00  0.00     0.047 A 
ATOM     76  C   UNL     1      11.831  -6.807  -1.579  1.00  0.00     0.012 A 
BRANCH  73  77
ATOM     77  O   UNL     1       9.012  -6.521   0.741  1.00  0.00    -0.507 OA
ATOM     78  H   UNL     1       8.084  -6.651   0.752  1.00  0.00     0.293 HD
ENDBRANCH  73  77
BRANCH  74  79
ATOM     79  C   UNL     1      12.043  -7.551  -3.929  1.00  0.00     0.009 C 
ATOM     80  C   UNL     1      11.613  -8.042  -5.104  1.00  0.00     0.009 C 
BRANCH  80  81
ATOM     81  C   UNL     1      12.508  -8.332  -6.232  1.00  0.00    -0.018 A 
ATOM     82  C   UNL     1      13.712  -9.030  -6.054  1.00  0.00     0.054 A 
ATOM     83  C   UNL     1      12.113  -7.966  -7.527  1.00  0.00     0.054 A 
ATOM     84  C   UNL     1      14.510  -9.331  -7.156  1.00  0.00     0.119 A 
ATOM     85  C   UNL     1      12.928  -8.276  -8.614  1.00  0.00     0.119 A 
ATOM     86  C   UNL     1      14.128  -8.954  -8.437  1.00  0.00     0.092 A 
BRANCH  84  87
ATOM     87  O   UNL     1      15.684 -10.011  -7.016  1.00  0.00    -0.508 OA
ATOM     88  H   UNL     1      15.970 -10.280  -6.166  1.00  0.00     0.293 HD
ENDBRANCH  84  87
BRANCH  85  89
ATOM     89  O   UNL     1      12.575  -7.930  -9.886  1.00  0.00    -0.508 OA
ATOM     90  H   UNL     1      13.137  -8.147 -10.604  1.00  0.00     0.293 HD
ENDBRANCH  85  89
ENDBRANCH  80  81
ENDBRANCH  74  79
ENDBRANCH  68  71
ENDBRANCH  66  67
ENDBRANCH  65  66
ENDBRANCH   1  65
TORSDOF 18
