REMARK SMILES O=C(NCCCCCCNC(=O)c1ccc(-n2cc(CSc3nc4ccccc4c(=O)n3-c3ccc(Cl)cc3)nn2)cc1)c1ccc(-c2c3nc(c(-c4c(F)cccc4F)c4ccc([nH]4)c(-c4c(F)cccc4F)c4nc(c(-c5c(F)cccc5F)c5ccc2[nH]5)C=C4)C=C3)cc1
REMARK SMILES IDX 8 1 7 2 6 3 5 4 4 5 3 6 1 7 2 8 44 10 45 11 97 12 46 13
REMARK SMILES IDX 96 14 47 15 48 16 49 17 90 18 50 19 95 20 89 21 91 22 51 23
REMARK SMILES IDX 94 24 88 25 87 26 52 28 78 29 61 30 77 31 62 32 65 33 76 34
REMARK SMILES IDX 92 35 63 36 64 37 75 39 93 40 66 41 53 42 54 43 59 44 55 45
REMARK SMILES IDX 56 46 58 47 60 48 57 49 79 50 80 51 85 52 81 53 82 54 84 55
REMARK SMILES IDX 86 56 83 57 67 58 68 59 73 60 69 61 70 62 72 63 74 64 71 65
REMARK SMILES IDX 9 66 10 67 11 68 12 70 13 71 14 72 43 73 15 74 42 75 16 76
REMARK SMILES IDX 17 77 18 78 41 79 19 80 40 81 20 82 21 83 22 84 23 85 32 86
REMARK SMILES IDX 24 87 30 88 25 89 29 90 31 91 26 92 28 93 27 94 33 95 34 96
REMARK SMILES IDX 39 97 35 98 38 99 36 100 37 101
REMARK H PARENT 3 9 91 27 65 38 10 69
REMARK Flexibility Score: inf
ROOT
ATOM      1  C   UNL     1       6.329   1.865   3.912  1.00  0.00     0.021 C 
ENDROOT
BRANCH   1   2
ATOM      2  C   UNL     1       4.804   1.923   3.780  1.00  0.00     0.002 C 
BRANCH   2   3
ATOM      3  C   UNL     1       4.269   2.573   2.498  1.00  0.00     0.002 C 
BRANCH   3   4
ATOM      4  C   UNL     1       4.794   1.995   1.177  1.00  0.00     0.021 C 
BRANCH   4   5
ATOM      5  C   UNL     1       4.585   0.492   1.006  1.00  0.00     0.116 C 
BRANCH   5   6
ATOM      6  N   UNL     1       3.197   0.082   0.986  1.00  0.00    -0.352 N 
ATOM      7  O   UNL     1       1.165  -0.524   0.366  1.00  0.00    -0.269 OA
ATOM      8  C   UNL     1       2.223   0.014   0.029  1.00  0.00     0.251 C 
ATOM      9  H   UNL     1       2.880  -0.218   1.868  1.00  0.00     0.163 HD
BRANCH   8  10
ATOM     10  C   UNL     1       2.317   0.597  -1.337  1.00  0.00     0.039 A 
ATOM     11  C   UNL     1       3.491   0.925  -2.015  1.00  0.00     0.014 A 
ATOM     12  C   UNL     1       1.085   0.816  -1.985  1.00  0.00     0.014 A 
ATOM     13  C   UNL     1       3.432   1.528  -3.273  1.00  0.00     0.010 A 
ATOM     14  C   UNL     1       1.019   1.409  -3.241  1.00  0.00     0.010 A 
ATOM     15  C   UNL     1       2.195   1.792  -3.876  1.00  0.00    -0.014 A 
BRANCH  15  16
ATOM     16  C   UNL     1       2.172   2.249  -5.268  1.00  0.00     0.031 A 
ATOM     17  C   UNL     1       2.718   1.244  -6.232  1.00  0.00     0.074 A 
ATOM     18  C   UNL     1       1.565   3.380  -5.690  1.00  0.00     0.049 A 
ATOM     19  N   UNL     1       3.721   1.372  -7.037  1.00  0.00    -0.248 NA
ATOM     20  C   UNL     1       2.150  -0.117  -6.206  1.00  0.00     0.031 C 
ATOM     21  C   UNL     1       0.743   4.304  -4.906  1.00  0.00     0.029 A 
ATOM     22  N   UNL     1       1.481   3.903  -6.950  1.00  0.00    -0.354 N 
ATOM     23  C   UNL     1       3.797   0.178  -7.755  1.00  0.00     0.074 A 
ATOM     24  C   UNL     1       2.910  -0.747  -7.102  1.00  0.00     0.031 C 
ATOM     25  C   UNL     1       0.071   5.132  -5.741  1.00  0.00     0.029 A 
ATOM     26  C   UNL     1       0.509   4.891  -7.106  1.00  0.00     0.049 A 
ATOM     27  H   UNL     1       2.060   3.606  -7.689  1.00  0.00     0.167 HD
ATOM     28  C   UNL     1       4.418   0.116  -8.965  1.00  0.00     0.037 A 
ATOM     29  C   UNL     1       0.069   5.436  -8.272  1.00  0.00     0.037 A 
ATOM     30  C   UNL     1       5.320   1.223  -9.140  1.00  0.00     0.049 A 
ATOM     31  C   UNL     1       1.081   5.147  -9.314  1.00  0.00     0.074 A 
ATOM     32  C   UNL     1       6.447   1.676  -8.482  1.00  0.00     0.029 A 
ATOM     33  N   UNL     1       4.899   2.269  -9.921  1.00  0.00    -0.354 N 
ATOM     34  N   UNL     1       2.265   5.686  -9.348  1.00  0.00    -0.248 NA
ATOM     35  C   UNL     1       0.927   3.917 -10.073  1.00  0.00     0.031 C 
ATOM     36  C   UNL     1       6.345   3.097  -8.518  1.00  0.00     0.029 A 
ATOM     37  C   UNL     1       5.210   3.426  -9.259  1.00  0.00     0.049 A 
ATOM     38  H   UNL     1       4.455   2.200 -10.797  1.00  0.00     0.167 HD
ATOM     39  C   UNL     1       3.103   4.650  -9.728  1.00  0.00     0.074 A 
ATOM     40  C   UNL     1       2.215   3.609 -10.243  1.00  0.00     0.031 C 
ATOM     41  C   UNL     1       4.406   4.621  -9.325  1.00  0.00     0.037 A 
BRANCH  28  42
ATOM     42  C   UNL     1       3.926  -0.709 -10.133  1.00  0.00     0.057 A 
ATOM     43  C   UNL     1       4.684  -0.738 -11.320  1.00  0.00     0.134 A 
ATOM     44  C   UNL     1       2.614  -1.208 -10.256  1.00  0.00     0.134 A 
ATOM     45  F   UNL     1       5.947  -0.285 -11.344  1.00  0.00    -0.206 F 
ATOM     46  C   UNL     1       4.147  -1.144 -12.548  1.00  0.00     0.040 A 
ATOM     47  C   UNL     1       2.083  -1.662 -11.467  1.00  0.00     0.040 A 
ATOM     48  F   UNL     1       1.739  -1.191  -9.243  1.00  0.00    -0.206 F 
ATOM     49  C   UNL     1       2.837  -1.598 -12.627  1.00  0.00     0.006 A 
ENDBRANCH  28  42
BRANCH  29  50
ATOM     50  C   UNL     1      -1.282   5.929  -8.645  1.00  0.00     0.057 A 
ATOM     51  C   UNL     1      -1.484   6.714  -9.793  1.00  0.00     0.134 A 
ATOM     52  C   UNL     1      -2.441   5.389  -8.063  1.00  0.00     0.134 A 
ATOM     53  F   UNL     1      -0.441   7.240 -10.452  1.00  0.00    -0.206 F 
ATOM     54  C   UNL     1      -2.757   6.923 -10.345  1.00  0.00     0.040 A 
ATOM     55  C   UNL     1      -3.718   5.594  -8.601  1.00  0.00     0.040 A 
ATOM     56  F   UNL     1      -2.364   4.566  -7.008  1.00  0.00    -0.206 F 
ATOM     57  C   UNL     1      -3.879   6.350  -9.755  1.00  0.00     0.006 A 
ENDBRANCH  29  50
BRANCH  41  58
ATOM     58  C   UNL     1       4.979   5.860  -8.694  1.00  0.00     0.057 A 
ATOM     59  C   UNL     1       4.521   6.428  -7.495  1.00  0.00     0.134 A 
ATOM     60  C   UNL     1       6.138   6.411  -9.252  1.00  0.00     0.134 A 
ATOM     61  F   UNL     1       3.477   5.912  -6.833  1.00  0.00    -0.206 F 
ATOM     62  C   UNL     1       5.167   7.518  -6.904  1.00  0.00     0.040 A 
ATOM     63  C   UNL     1       6.812   7.475  -8.653  1.00  0.00     0.040 A 
ATOM     64  F   UNL     1       6.664   5.887 -10.371  1.00  0.00    -0.206 F 
ATOM     65  C   UNL     1       6.322   8.040  -7.479  1.00  0.00     0.006 A 
ENDBRANCH  41  58
ENDBRANCH  15  16
ENDBRANCH   8  10
ENDBRANCH   5   6
ENDBRANCH   4   5
ENDBRANCH   3   4
ENDBRANCH   2   3
ENDBRANCH   1   2
BRANCH   1  66
ATOM     66  C   UNL     1       7.034   3.218   3.863  1.00  0.00     0.116 C 
BRANCH  66  67
ATOM     67  N   UNL     1       6.735   4.045   5.022  1.00  0.00    -0.352 N 
ATOM     68  C   UNL     1       7.579   4.498   6.003  1.00  0.00     0.251 C 
ATOM     69  H   UNL     1       5.793   4.317   5.116  1.00  0.00     0.163 HD
ATOM     70  O   UNL     1       7.135   5.090   6.989  1.00  0.00    -0.269 OA
BRANCH  68  71
ATOM     71  C   UNL     1       9.027   4.246   5.894  1.00  0.00     0.039 A 
ATOM     72  C   UNL     1       9.669   3.565   6.936  1.00  0.00     0.016 A 
ATOM     73  C   UNL     1       9.743   4.671   4.771  1.00  0.00     0.016 A 
ATOM     74  C   UNL     1      11.015   3.218   6.817  1.00  0.00     0.029 A 
ATOM     75  C   UNL     1      11.097   4.363   4.665  1.00  0.00     0.029 A 
ATOM     76  C   UNL     1      11.724   3.623   5.684  1.00  0.00     0.066 A 
BRANCH  76  77
ATOM     77  N   UNL     1      13.108   3.378   5.615  1.00  0.00    -0.220 N 
ATOM     78  C   UNL     1      14.043   4.248   5.134  1.00  0.00     0.141 A 
ATOM     79  N   UNL     1      13.714   2.248   6.032  1.00  0.00    -0.062 NA
ATOM     80  C   UNL     1      15.254   3.616   5.259  1.00  0.00     0.093 A 
ATOM     81  N   UNL     1      15.015   2.357   5.756  1.00  0.00    -0.134 NA
BRANCH  80  82
ATOM     82  C   UNL     1      16.574   4.013   4.717  1.00  0.00     0.138 C 
BRANCH  82  83
ATOM     83  S   UNL     1      17.711   5.121   5.551  1.00  0.00    -0.081 SA
BRANCH  83  84
ATOM     84  C   UNL     1      16.972   6.106   6.786  1.00  0.00     0.176 A 
ATOM     85  N   UNL     1      17.745   6.218   7.826  1.00  0.00    -0.223 NA
ATOM     86  N   UNL     1      15.739   6.742   6.723  1.00  0.00    -0.255 N 
ATOM     87  C   UNL     1      17.262   6.871   8.962  1.00  0.00     0.079 A 
ATOM     88  C   UNL     1      15.062   6.797   7.955  1.00  0.00     0.266 A 
ATOM     89  C   UNL     1      18.125   7.270   9.984  1.00  0.00     0.029 A 
ATOM     90  C   UNL     1      15.897   7.011   9.148  1.00  0.00     0.066 A 
ATOM     91  O   UNL     1      13.851   6.659   8.120  1.00  0.00    -0.268 OA
ATOM     92  C   UNL     1      17.610   7.719  11.206  1.00  0.00     0.002 A 
ATOM     93  C   UNL     1      15.364   7.399  10.382  1.00  0.00     0.016 A 
ATOM     94  C   UNL     1      16.230   7.740  11.420  1.00  0.00     0.001 A 
BRANCH  86  95
ATOM     95  C   UNL     1      15.069   7.271   5.546  1.00  0.00     0.051 A 
ATOM     96  C   UNL     1      13.866   7.998   5.679  1.00  0.00     0.028 A 
ATOM     97  C   UNL     1      15.517   7.093   4.231  1.00  0.00     0.028 A 
ATOM     98  C   UNL     1      13.030   8.267   4.589  1.00  0.00     0.022 A 
ATOM     99  C   UNL     1      14.659   7.290   3.136  1.00  0.00     0.022 A 
ATOM    100  C   UNL     1      13.396   7.832   3.328  1.00  0.00     0.041 A 
ATOM    101  Cl  UNL     1      12.288   7.934   2.021  1.00  0.00    -0.084 Cl
ENDBRANCH  86  95
ENDBRANCH  83  84
ENDBRANCH  82  83
ENDBRANCH  80  82
ENDBRANCH  76  77
ENDBRANCH  68  71
ENDBRANCH  66  67
ENDBRANCH   1  66
TORSDOF 18
