REMARK SMILES Cc1c(CC(=O)NCCCCCCNC(=O)c2ccc(-c3c4nc(c(-c5c(F)cccc5F)c5ccc([nH]5)c(-c5c(F)cccc5F)c5nc(c(-c6c(F)cccc6F)c6ccc3[nH]6)C=C5)C=C4)cc2)cccc1-c1ccn(C(F)F)c(=O)c1
REMARK SMILES IDX 10 1 9 2 8 3 7 4 5 5 6 6 4 8 3 9 1 10 2 11 74 12 71 13 73 14
REMARK SMILES IDX 72 15 75 16 76 17 84 18 77 19 82 20 78 21 83 22 79 23 80 24
REMARK SMILES IDX 81 25 11 26 12 27 13 28 14 29 15 30 16 32 17 33 18 34 70 35
REMARK SMILES IDX 19 36 69 37 20 38 21 39 22 40 63 41 23 42 68 43 62 44 64 45
REMARK SMILES IDX 24 46 67 47 61 48 60 49 25 51 51 52 34 53 50 54 35 55 38 56
REMARK SMILES IDX 49 57 65 58 36 59 37 60 48 62 66 63 39 64 26 65 27 66 32 67
REMARK SMILES IDX 28 68 29 69 31 70 33 71 30 72 52 73 53 74 58 75 54 76 55 77
REMARK SMILES IDX 57 78 59 79 56 80 40 81 41 82 46 83 42 84 43 85 45 86 47 87
REMARK SMILES IDX 44 88
REMARK H PARENT 7 7 14 31 64 50 38 61
REMARK Flexibility Score: inf
ROOT
ATOM      1  C   UNL     1       0.400  -1.422   5.082  1.00  0.00     0.002 C 
ENDROOT
BRANCH   1   2
ATOM      2  C   UNL     1       0.633  -0.955   3.638  1.00  0.00     0.021 C 
BRANCH   2   3
ATOM      3  C   UNL     1       1.503  -1.884   2.790  1.00  0.00     0.116 C 
BRANCH   3   4
ATOM      4  N   UNL     1       0.781  -3.045   2.314  1.00  0.00    -0.356 N 
ATOM      5  C   UNL     1       0.474  -3.403   1.032  1.00  0.00     0.224 C 
ATOM      6  O   UNL     1      -0.133  -4.461   0.852  1.00  0.00    -0.275 OA
ATOM      7  H   UNL     1       0.468  -3.664   3.012  1.00  0.00     0.163 HD
BRANCH   5   8
ATOM      8  C   UNL     1       0.915  -2.540  -0.146  1.00  0.00     0.135 C 
BRANCH   8   9
ATOM      9  C   UNL     1       0.270  -1.166  -0.190  1.00  0.00    -0.035 A 
ATOM     10  C   UNL     1       2.516   0.008  -0.449  1.00  0.00     0.045 C 
ATOM     11  C   UNL     1       1.014   0.042  -0.265  1.00  0.00    -0.040 A 
ATOM     12  C   UNL     1       0.319   1.278  -0.213  1.00  0.00    -0.015 A 
ATOM     13  C   UNL     1      -1.136  -1.110  -0.143  1.00  0.00     0.004 A 
ATOM     14  C   UNL     1      -1.084   1.294  -0.151  1.00  0.00     0.009 A 
ATOM     15  C   UNL     1      -1.808   0.107  -0.128  1.00  0.00     0.001 A 
BRANCH  12  16
ATOM     16  C   UNL     1       1.026   2.577  -0.147  1.00  0.00    -0.011 A 
ATOM     17  C   UNL     1       1.780   3.139  -1.250  1.00  0.00     0.027 A 
ATOM     18  C   UNL     1       1.018   3.219   1.035  1.00  0.00     0.080 A 
ATOM     19  C   UNL     1       2.526   4.236  -1.069  1.00  0.00     0.095 A 
ATOM     20  C   UNL     1       1.806   4.463   1.238  1.00  0.00     0.255 A 
ATOM     21  N   UNL     1       2.562   4.880   0.154  1.00  0.00    -0.258 N 
ATOM     22  O   UNL     1       1.763   5.007   2.337  1.00  0.00    -0.269 OA
BRANCH  21  23
ATOM     23  C   UNL     1       3.398   6.037   0.350  1.00  0.00     0.451 C 
ATOM     24  F   UNL     1       2.656   7.132   0.639  1.00  0.00    -0.185 F 
ATOM     25  F   UNL     1       4.268   5.838   1.371  1.00  0.00    -0.185 F 
ENDBRANCH  21  23
ENDBRANCH  12  16
ENDBRANCH   8   9
ENDBRANCH   5   8
ENDBRANCH   3   4
ENDBRANCH   2   3
ENDBRANCH   1   2
BRANCH   1  26
ATOM     26  C   UNL     1       1.651  -1.800   5.894  1.00  0.00     0.002 C 
BRANCH  26  27
ATOM     27  C   UNL     1       2.827  -0.821   5.827  1.00  0.00     0.021 C 
BRANCH  27  28
ATOM     28  C   UNL     1       2.582   0.502   6.542  1.00  0.00     0.116 C 
BRANCH  28  29
ATOM     29  N   UNL     1       3.175   0.570   7.872  1.00  0.00    -0.352 N 
ATOM     30  C   UNL     1       3.025   1.536   8.852  1.00  0.00     0.251 C 
ATOM     31  H   UNL     1       3.768  -0.179   8.107  1.00  0.00     0.163 HD
ATOM     32  O   UNL     1       3.627   1.432   9.910  1.00  0.00    -0.269 OA
BRANCH  30  33
ATOM     33  C   UNL     1       2.024   2.617   8.666  1.00  0.00     0.039 A 
ATOM     34  C   UNL     1       1.154   2.880   9.731  1.00  0.00     0.014 A 
ATOM     35  C   UNL     1       1.809   3.209   7.424  1.00  0.00     0.014 A 
ATOM     36  C   UNL     1      -0.059   3.514   9.480  1.00  0.00     0.010 A 
ATOM     37  C   UNL     1       0.574   3.766   7.152  1.00  0.00     0.010 A 
ATOM     38  C   UNL     1      -0.386   3.847   8.165  1.00  0.00    -0.014 A 
BRANCH  38  39
ATOM     39  C   UNL     1      -1.755   4.129   7.752  1.00  0.00     0.031 A 
ATOM     40  C   UNL     1      -2.211   5.511   7.518  1.00  0.00     0.074 A 
ATOM     41  C   UNL     1      -2.613   3.100   7.575  1.00  0.00     0.049 A 
ATOM     42  N   UNL     1      -3.419   5.919   7.722  1.00  0.00    -0.248 NA
ATOM     43  C   UNL     1      -1.310   6.561   7.061  1.00  0.00     0.031 C 
ATOM     44  C   UNL     1      -3.945   3.147   6.982  1.00  0.00     0.029 A 
ATOM     45  N   UNL     1      -2.509   1.808   8.107  1.00  0.00    -0.354 N 
ATOM     46  C   UNL     1      -3.524   7.186   7.195  1.00  0.00     0.074 A 
ATOM     47  C   UNL     1      -2.170   7.564   6.853  1.00  0.00     0.031 C 
ATOM     48  C   UNL     1      -4.639   2.075   7.395  1.00  0.00     0.029 A 
ATOM     49  C   UNL     1      -3.823   1.381   8.379  1.00  0.00     0.049 A 
ATOM     50  H   UNL     1      -1.681   1.299   8.260  1.00  0.00     0.167 HD
ATOM     51  C   UNL     1      -4.755   7.731   6.968  1.00  0.00     0.037 A 
ATOM     52  C   UNL     1      -4.221   1.072   9.646  1.00  0.00     0.037 A 
ATOM     53  C   UNL     1      -5.825   6.816   7.353  1.00  0.00     0.049 A 
ATOM     54  C   UNL     1      -5.362   1.921  10.154  1.00  0.00     0.074 A 
ATOM     55  C   UNL     1      -6.561   5.900   6.618  1.00  0.00     0.029 A 
ATOM     56  N   UNL     1      -6.052   6.520   8.692  1.00  0.00    -0.354 N 
ATOM     57  N   UNL     1      -5.707   3.064   9.631  1.00  0.00    -0.248 NA
ATOM     58  C   UNL     1      -6.169   1.572  11.322  1.00  0.00     0.031 C 
ATOM     59  C   UNL     1      -7.190   5.013   7.520  1.00  0.00     0.029 A 
ATOM     60  C   UNL     1      -6.855   5.400   8.806  1.00  0.00     0.049 A 
ATOM     61  H   UNL     1      -5.694   7.035   9.451  1.00  0.00     0.167 HD
ATOM     62  C   UNL     1      -6.708   3.621  10.382  1.00  0.00     0.074 A 
ATOM     63  C   UNL     1      -6.983   2.638  11.412  1.00  0.00     0.031 C 
ATOM     64  C   UNL     1      -7.214   4.857  10.105  1.00  0.00     0.037 A 
BRANCH  51  65
ATOM     65  C   UNL     1      -4.962   8.940   6.084  1.00  0.00     0.057 A 
ATOM     66  C   UNL     1      -6.089   9.050   5.247  1.00  0.00     0.134 A 
ATOM     67  C   UNL     1      -4.050  10.002   5.971  1.00  0.00     0.134 A 
ATOM     68  F   UNL     1      -7.115   8.193   5.325  1.00  0.00    -0.206 F 
ATOM     69  C   UNL     1      -6.222  10.049   4.274  1.00  0.00     0.040 A 
ATOM     70  C   UNL     1      -4.141  10.979   4.968  1.00  0.00     0.040 A 
ATOM     71  F   UNL     1      -3.053  10.159   6.853  1.00  0.00    -0.206 F 
ATOM     72  C   UNL     1      -5.222  10.992   4.099  1.00  0.00     0.006 A 
ENDBRANCH  51  65
BRANCH  52  73
ATOM     73  C   UNL     1      -3.132   0.538  10.503  1.00  0.00     0.057 A 
ATOM     74  C   UNL     1      -2.554  -0.700  10.175  1.00  0.00     0.134 A 
ATOM     75  C   UNL     1      -2.430   1.353  11.396  1.00  0.00     0.134 A 
ATOM     76  F   UNL     1      -3.178  -1.531   9.324  1.00  0.00    -0.206 F 
ATOM     77  C   UNL     1      -1.286  -1.067  10.631  1.00  0.00     0.040 A 
ATOM     78  C   UNL     1      -1.163   0.991  11.867  1.00  0.00     0.040 A 
ATOM     79  F   UNL     1      -2.908   2.557  11.742  1.00  0.00    -0.206 F 
ATOM     80  C   UNL     1      -0.572  -0.203  11.455  1.00  0.00     0.006 A 
ENDBRANCH  52  73
BRANCH  64  81
ATOM     81  C   UNL     1      -8.165   5.620  10.985  1.00  0.00     0.057 A 
ATOM     82  C   UNL     1      -8.143   5.569  12.386  1.00  0.00     0.134 A 
ATOM     83  C   UNL     1      -9.060   6.557  10.426  1.00  0.00     0.134 A 
ATOM     84  F   UNL     1      -7.266   4.797  13.043  1.00  0.00    -0.206 F 
ATOM     85  C   UNL     1      -8.993   6.353  13.177  1.00  0.00     0.040 A 
ATOM     86  C   UNL     1      -9.879   7.378  11.206  1.00  0.00     0.040 A 
ATOM     87  F   UNL     1      -9.162   6.725   9.099  1.00  0.00    -0.206 F 
ATOM     88  C   UNL     1      -9.857   7.268  12.588  1.00  0.00     0.006 A 
ENDBRANCH  64  81
ENDBRANCH  38  39
ENDBRANCH  30  33
ENDBRANCH  28  29
ENDBRANCH  27  28
ENDBRANCH  26  27
ENDBRANCH   1  26
TORSDOF 16
