REMARK SMILES Cc1cc(C(=O)N[C@](C)(C(=O)NCCCCCCNC(=O)c2ccc(-c3c4nc(c(-c5c(F)cccc5F)c5ccc([nH]5)c(-c5c(F)cccc5F)c5nc(c(-c6c(F)cccc6F)c6ccc3[nH]6)C=C5)C=C4)cc2)C(F)(F)F)no1
REMARK SMILES IDX 15 1 14 2 13 3 12 4 10 5 11 6 8 8 9 9 7 10 5 11 6 12 4 14
REMARK SMILES IDX 1 15 2 16 3 17 81 18 80 19 76 20 77 21 78 22 79 23 16 24
REMARK SMILES IDX 17 25 18 26 19 27 20 28 21 30 22 31 23 32 75 33 24 34 74 35
REMARK SMILES IDX 25 36 26 37 27 38 68 39 28 40 73 41 67 42 69 43 29 44 72 45
REMARK SMILES IDX 66 46 65 47 30 49 56 50 39 51 55 52 40 53 43 54 54 55 70 56
REMARK SMILES IDX 41 57 42 58 53 60 71 61 44 62 31 63 32 64 37 65 33 66 34 67
REMARK SMILES IDX 36 68 38 69 35 70 57 71 58 72 63 73 59 74 60 75 62 76 64 77
REMARK SMILES IDX 61 78 45 79 46 80 51 81 47 82 48 83 50 84 52 85 49 86
REMARK H PARENT 12 7 7 13 19 29 69 48 43 59
REMARK Flexibility Score: inf
ROOT
ATOM      1  C   UNL     1      -4.868  -6.726  -2.433  1.00  0.00     0.002 C 
ENDROOT
BRANCH   1   2
ATOM      2  C   UNL     1      -5.010  -5.631  -1.367  1.00  0.00     0.021 C 
BRANCH   2   3
ATOM      3  C   UNL     1      -3.704  -5.280  -0.660  1.00  0.00     0.116 C 
BRANCH   3   4
ATOM      4  N   UNL     1      -2.807  -4.580  -1.563  1.00  0.00    -0.354 N 
ATOM      5  C   UNL     1      -1.711  -3.809  -1.312  1.00  0.00     0.254 C 
ATOM      6  O   UNL     1      -1.174  -3.301  -2.299  1.00  0.00    -0.272 OA
ATOM      7  H   UNL     1      -3.028  -4.678  -2.517  1.00  0.00     0.163 HD
BRANCH   5   8
ATOM      8  C   UNL     1      -1.256  -3.499   0.122  1.00  0.00     0.212 C 
ATOM      9  C   UNL     1      -2.301  -2.514   0.714  1.00  0.00     0.056 C 
BRANCH   8  10
ATOM     10  N   UNL     1      -1.177  -4.693   1.034  1.00  0.00    -0.329 N 
ATOM     11  C   UNL     1      -0.438  -5.860   0.934  1.00  0.00     0.274 C 
ATOM     12  O   UNL     1       0.007  -6.312   1.990  1.00  0.00    -0.267 OA
ATOM     13  H   UNL     1      -1.746  -4.636   1.836  1.00  0.00     0.165 HD
BRANCH  11  14
ATOM     14  C   UNL     1      -0.411  -6.618  -0.316  1.00  0.00     0.171 A 
ATOM     15  C   UNL     1      -0.797  -7.393  -3.869  1.00  0.00     0.091 C 
ATOM     16  C   UNL     1      -0.553  -7.247  -2.423  1.00  0.00     0.134 A 
ATOM     17  C   UNL     1      -0.028  -6.255  -1.631  1.00  0.00     0.082 A 
ATOM     18  O   UNL     1      -0.989  -8.258  -1.633  1.00  0.00    -0.361 OA
ATOM     19  N   UNL     1      -0.896  -7.875  -0.312  1.00  0.00    -0.074 NA
ENDBRANCH  11  14
ENDBRANCH   8  10
BRANCH   8  20
ATOM     20  C   UNL     1       0.102  -2.765   0.053  1.00  0.00     0.420 C 
ATOM     21  F   UNL     1       0.061  -1.619  -0.657  1.00  0.00    -0.168 F 
ATOM     22  F   UNL     1       0.492  -2.422   1.312  1.00  0.00    -0.168 F 
ATOM     23  F   UNL     1       1.081  -3.548  -0.453  1.00  0.00    -0.168 F 
ENDBRANCH   8  20
ENDBRANCH   5   8
ENDBRANCH   3   4
ENDBRANCH   2   3
ENDBRANCH   1   2
BRANCH   1  24
ATOM     24  C   UNL     1      -4.470  -8.104  -1.899  1.00  0.00     0.002 C 
BRANCH  24  25
ATOM     25  C   UNL     1      -5.370  -8.676  -0.806  1.00  0.00     0.021 C 
BRANCH  25  26
ATOM     26  C   UNL     1      -6.852  -8.694  -1.151  1.00  0.00     0.116 C 
BRANCH  26  27
ATOM     27  N   UNL     1      -7.151  -9.492  -2.329  1.00  0.00    -0.352 N 
ATOM     28  C   UNL     1      -8.211 -10.340  -2.533  1.00  0.00     0.251 C 
ATOM     29  H   UNL     1      -6.512  -9.415  -3.074  1.00  0.00     0.163 HD
ATOM     30  O   UNL     1      -8.271 -11.042  -3.538  1.00  0.00    -0.269 OA
BRANCH  28  31
ATOM     31  C   UNL     1      -9.266 -10.422  -1.504  1.00  0.00     0.039 A 
ATOM     32  C   UNL     1      -9.647 -11.677  -1.026  1.00  0.00     0.014 A 
ATOM     33  C   UNL     1      -9.832  -9.258  -0.976  1.00  0.00     0.014 A 
ATOM     34  C   UNL     1     -10.556 -11.762   0.029  1.00  0.00     0.010 A 
ATOM     35  C   UNL     1     -10.674  -9.342   0.126  1.00  0.00     0.010 A 
ATOM     36  C   UNL     1     -11.049 -10.595   0.636  1.00  0.00    -0.014 A 
BRANCH  36  37
ATOM     37  C   UNL     1     -11.970 -10.662   1.797  1.00  0.00     0.031 A 
ATOM     38  C   UNL     1     -13.368 -10.123   1.675  1.00  0.00     0.074 A 
ATOM     39  C   UNL     1     -11.531 -11.151   2.973  1.00  0.00     0.049 A 
ATOM     40  N   UNL     1     -14.299 -10.022   2.590  1.00  0.00    -0.248 NA
ATOM     41  C   UNL     1     -13.764  -9.601   0.357  1.00  0.00     0.031 C 
ATOM     42  C   UNL     1     -10.182 -11.661   3.230  1.00  0.00     0.029 A 
ATOM     43  N   UNL     1     -12.173 -11.293   4.177  1.00  0.00    -0.354 N 
ATOM     44  C   UNL     1     -15.380  -9.418   1.961  1.00  0.00     0.074 A 
ATOM     45  C   UNL     1     -14.971  -9.118   0.607  1.00  0.00     0.031 C 
ATOM     46  C   UNL     1     -10.107 -12.085   4.502  1.00  0.00     0.029 A 
ATOM     47  C   UNL     1     -11.386 -11.842   5.161  1.00  0.00     0.049 A 
ATOM     48  H   UNL     1     -13.109 -11.026   4.323  1.00  0.00     0.167 HD
ATOM     49  C   UNL     1     -16.613  -9.162   2.459  1.00  0.00     0.037 A 
ATOM     50  C   UNL     1     -11.667 -12.115   6.449  1.00  0.00     0.037 A 
ATOM     51  C   UNL     1     -17.025  -9.487   3.798  1.00  0.00     0.049 A 
ATOM     52  C   UNL     1     -13.041 -11.810   6.979  1.00  0.00     0.074 A 
ATOM     53  C   UNL     1     -18.266  -9.312   4.384  1.00  0.00     0.029 A 
ATOM     54  N   UNL     1     -16.205 -10.059   4.759  1.00  0.00    -0.354 N 
ATOM     55  N   UNL     1     -14.073 -11.293   6.357  1.00  0.00    -0.248 NA
ATOM     56  C   UNL     1     -13.292 -12.133   8.391  1.00  0.00     0.031 C 
ATOM     57  C   UNL     1     -18.186  -9.743   5.712  1.00  0.00     0.029 A 
ATOM     58  C   UNL     1     -16.909 -10.229   5.939  1.00  0.00     0.049 A 
ATOM     59  H   UNL     1     -15.262 -10.307   4.622  1.00  0.00     0.167 HD
ATOM     60  C   UNL     1     -15.102 -11.259   7.289  1.00  0.00     0.074 A 
ATOM     61  C   UNL     1     -14.574 -11.820   8.515  1.00  0.00     0.031 C 
ATOM     62  C   UNL     1     -16.370 -10.804   7.144  1.00  0.00     0.037 A 
BRANCH  49  63
ATOM     63  C   UNL     1     -17.607  -8.512   1.542  1.00  0.00     0.057 A 
ATOM     64  C   UNL     1     -18.168  -9.200   0.457  1.00  0.00     0.134 A 
ATOM     65  C   UNL     1     -18.036  -7.197   1.764  1.00  0.00     0.134 A 
ATOM     66  F   UNL     1     -17.789 -10.457   0.180  1.00  0.00    -0.206 F 
ATOM     67  C   UNL     1     -19.101  -8.596  -0.387  1.00  0.00     0.040 A 
ATOM     68  C   UNL     1     -18.989  -6.592   0.943  1.00  0.00     0.040 A 
ATOM     69  F   UNL     1     -17.543  -6.483   2.787  1.00  0.00    -0.206 F 
ATOM     70  C   UNL     1     -19.520  -7.290  -0.140  1.00  0.00     0.006 A 
ENDBRANCH  49  63
BRANCH  50  71
ATOM     71  C   UNL     1     -10.639 -12.731   7.327  1.00  0.00     0.057 A 
ATOM     72  C   UNL     1     -10.778 -14.046   7.786  1.00  0.00     0.134 A 
ATOM     73  C   UNL     1      -9.511 -12.017   7.748  1.00  0.00     0.134 A 
ATOM     74  F   UNL     1     -11.847 -14.774   7.432  1.00  0.00    -0.206 F 
ATOM     75  C   UNL     1      -9.848 -14.621   8.653  1.00  0.00     0.040 A 
ATOM     76  C   UNL     1      -8.559 -12.589   8.594  1.00  0.00     0.040 A 
ATOM     77  F   UNL     1      -9.315 -10.755   7.338  1.00  0.00    -0.206 F 
ATOM     78  C   UNL     1      -8.732 -13.892   9.057  1.00  0.00     0.006 A 
ENDBRANCH  50  71
BRANCH  62  79
ATOM     79  C   UNL     1     -17.285 -10.935   8.326  1.00  0.00     0.057 A 
ATOM     80  C   UNL     1     -17.151 -10.124   9.460  1.00  0.00     0.134 A 
ATOM     81  C   UNL     1     -18.338 -11.858   8.309  1.00  0.00     0.134 A 
ATOM     82  F   UNL     1     -16.155  -9.229   9.542  1.00  0.00    -0.206 F 
ATOM     83  C   UNL     1     -18.018 -10.244  10.546  1.00  0.00     0.040 A 
ATOM     84  C   UNL     1     -19.228 -11.968   9.378  1.00  0.00     0.040 A 
ATOM     85  F   UNL     1     -18.528 -12.658   7.249  1.00  0.00    -0.206 F 
ATOM     86  C   UNL     1     -19.065 -11.164  10.504  1.00  0.00     0.006 A 
ENDBRANCH  62  79
ENDBRANCH  36  37
ENDBRANCH  28  31
ENDBRANCH  26  27
ENDBRANCH  25  26
ENDBRANCH  24  25
ENDBRANCH   1  24
TORSDOF 16
