REMARK SMILES [NH3+]C[C@@H]([NH3+])c1ccccc1OCC(=O)NCCCCCCNC(=O)c1ccc(-c2c3nc(c(-c4c(F)cccc4F)c4ccc([nH]4)c(-c4c(F)cccc4F)c4nc(c(-c5c(F)cccc5F)c5ccc2[nH]5)C=C4)C=C3)cc1
REMARK SMILES IDX 17 1 16 2 15 3 13 4 14 5 12 7 11 8 10 9 5 10 6 11 7 12 9 13
REMARK SMILES IDX 8 14 3 15 2 16 1 17 4 21 18 25 19 26 20 27 21 28 22 29 23 30
REMARK SMILES IDX 24 32 25 33 26 34 78 35 27 36 77 37 28 38 29 39 30 40 71 41
REMARK SMILES IDX 31 42 76 43 70 44 72 45 32 46 75 47 69 48 68 49 33 51 59 52
REMARK SMILES IDX 42 53 58 54 43 55 46 56 57 57 73 58 44 59 45 60 56 62 74 63
REMARK SMILES IDX 47 64 34 65 35 66 40 67 36 68 37 69 39 70 41 71 38 72 60 73
REMARK SMILES IDX 61 74 66 75 62 76 63 77 65 78 67 79 64 80 48 81 49 82 54 83
REMARK SMILES IDX 50 84 51 85 53 86 55 87 52 88
REMARK H PARENT 15 6 1 18 1 19 1 20 4 22 4 23 4 24 22 31 72 50 46 61
REMARK Flexibility Score: inf
ROOT
ATOM      1  C   UNL     1       0.780   0.693  -7.293  1.00  0.00     0.021 C 
ENDROOT
BRANCH   1   2
ATOM      2  C   UNL     1      -0.028  -0.418  -6.626  1.00  0.00     0.116 C 
BRANCH   2   3
ATOM      3  N   UNL     1       0.657  -1.065  -5.529  1.00  0.00    -0.353 N 
ATOM      4  C   UNL     1       0.196  -1.275  -4.261  1.00  0.00     0.257 C 
ATOM      5  O   UNL     1       0.638  -2.258  -3.656  1.00  0.00    -0.271 OA
ATOM      6  H   UNL     1       1.565  -1.393  -5.720  1.00  0.00     0.163 HD
BRANCH   4   7
ATOM      7  C   UNL     1      -0.890  -0.370  -3.649  1.00  0.00     0.329 C 
BRANCH   7   8
ATOM      8  O   UNL     1      -1.075   0.935  -4.138  1.00  0.00    -0.483 OA
BRANCH   8   9
ATOM      9  C   UNL     1      -0.410   2.061  -3.770  1.00  0.00     0.129 A 
ATOM     10  C   UNL     1       0.582   2.332  -2.811  1.00  0.00     0.057 A 
ATOM     11  C   UNL     1       1.038   3.679  -2.705  1.00  0.00     0.014 A 
ATOM     12  C   UNL     1       0.547   4.713  -3.500  1.00  0.00     0.001 A 
ATOM     13  C   UNL     1      -0.893   3.131  -4.562  1.00  0.00     0.047 A 
ATOM     14  C   UNL     1      -0.428   4.438  -4.435  1.00  0.00     0.004 A 
BRANCH  10  15
ATOM     15  C   UNL     1       1.211   1.408  -1.783  1.00  0.00     0.271 C 
BRANCH  15  16
ATOM     16  C   UNL     1       0.339   1.302  -0.496  1.00  0.00     0.329 C 
BRANCH  16  17
ATOM     17  N   UNL     1       0.709   0.181   0.384  1.00  0.00    -0.352 N 
ATOM     18  H   UNL     1       0.099   0.175   1.201  1.00  0.00     0.344 HD
ATOM     19  H   UNL     1       1.678   0.291   0.684  1.00  0.00     0.344 HD
ATOM     20  H   UNL     1       0.608  -0.698  -0.123  1.00  0.00     0.344 HD
ENDBRANCH  16  17
ENDBRANCH  15  16
BRANCH  15  21
ATOM     21  N   UNL     1       1.650   0.130  -2.317  1.00  0.00    -0.347 N 
ATOM     22  H   UNL     1       0.840  -0.402  -2.635  1.00  0.00     0.345 HD
ATOM     23  H   UNL     1       2.135  -0.394  -1.588  1.00  0.00     0.345 HD
ATOM     24  H   UNL     1       2.282   0.288  -3.101  1.00  0.00     0.345 HD
ENDBRANCH  15  21
ENDBRANCH  10  15
ENDBRANCH   8   9
ENDBRANCH   7   8
ENDBRANCH   4   7
ENDBRANCH   2   3
ENDBRANCH   1   2
BRANCH   1  25
ATOM     25  C   UNL     1       2.192   0.317  -7.762  1.00  0.00     0.002 C 
BRANCH  25  26
ATOM     26  C   UNL     1       2.324  -0.970  -8.582  1.00  0.00     0.002 C 
BRANCH  26  27
ATOM     27  C   UNL     1       1.403  -1.091  -9.795  1.00  0.00     0.021 C 
BRANCH  27  28
ATOM     28  C   UNL     1       1.521   0.037 -10.810  1.00  0.00     0.116 C 
BRANCH  28  29
ATOM     29  N   UNL     1       2.819   0.063 -11.464  1.00  0.00    -0.352 N 
ATOM     30  C   UNL     1       3.116   0.044 -12.806  1.00  0.00     0.251 C 
ATOM     31  H   UNL     1       3.595   0.099 -10.860  1.00  0.00     0.163 HD
ATOM     32  O   UNL     1       4.271  -0.107 -13.181  1.00  0.00    -0.269 OA
BRANCH  30  33
ATOM     33  C   UNL     1       2.028   0.182 -13.800  1.00  0.00     0.039 A 
ATOM     34  C   UNL     1       2.013  -0.672 -14.905  1.00  0.00     0.014 A 
ATOM     35  C   UNL     1       1.028   1.146 -13.644  1.00  0.00     0.014 A 
ATOM     36  C   UNL     1       0.959  -0.601 -15.820  1.00  0.00     0.010 A 
ATOM     37  C   UNL     1      -0.062   1.161 -14.510  1.00  0.00     0.010 A 
ATOM     38  C   UNL     1      -0.106   0.291 -15.611  1.00  0.00    -0.014 A 
BRANCH  38  39
ATOM     39  C   UNL     1      -1.271   0.328 -16.532  1.00  0.00     0.031 A 
ATOM     40  C   UNL     1      -1.576   1.573 -17.319  1.00  0.00     0.074 A 
ATOM     41  C   UNL     1      -2.090  -0.740 -16.614  1.00  0.00     0.049 A 
ATOM     42  N   UNL     1      -2.578   1.817 -18.126  1.00  0.00    -0.248 NA
ATOM     43  C   UNL     1      -0.649   2.705 -17.158  1.00  0.00     0.031 C 
ATOM     44  C   UNL     1      -1.932  -1.988 -15.865  1.00  0.00     0.029 A 
ATOM     45  N   UNL     1      -3.228  -0.941 -17.356  1.00  0.00    -0.354 N 
ATOM     46  C   UNL     1      -2.412   3.129 -18.551  1.00  0.00     0.074 A 
ATOM     47  C   UNL     1      -1.242   3.647 -17.877  1.00  0.00     0.031 C 
ATOM     48  C   UNL     1      -2.921  -2.832 -16.201  1.00  0.00     0.029 A 
ATOM     49  C   UNL     1      -3.807  -2.172 -17.154  1.00  0.00     0.049 A 
ATOM     50  H   UNL     1      -3.594  -0.268 -17.974  1.00  0.00     0.167 HD
ATOM     51  C   UNL     1      -3.155   3.831 -19.439  1.00  0.00     0.037 A 
ATOM     52  C   UNL     1      -4.933  -2.703 -17.669  1.00  0.00     0.037 A 
ATOM     53  C   UNL     1      -4.301   3.302 -20.130  1.00  0.00     0.049 A 
ATOM     54  C   UNL     1      -5.742  -1.897 -18.649  1.00  0.00     0.074 A 
ATOM     55  C   UNL     1      -5.073   3.909 -21.106  1.00  0.00     0.029 A 
ATOM     56  N   UNL     1      -4.846   2.046 -19.913  1.00  0.00    -0.354 N 
ATOM     57  N   UNL     1      -5.522  -0.689 -19.108  1.00  0.00    -0.248 NA
ATOM     58  C   UNL     1      -6.954  -2.531 -19.188  1.00  0.00     0.031 C 
ATOM     59  C   UNL     1      -6.120   3.044 -21.435  1.00  0.00     0.029 A 
ATOM     60  C   UNL     1      -5.964   1.872 -20.712  1.00  0.00     0.049 A 
ATOM     61  H   UNL     1      -4.491   1.377 -19.284  1.00  0.00     0.167 HD
ATOM     62  C   UNL     1      -6.546  -0.432 -20.011  1.00  0.00     0.074 A 
ATOM     63  C   UNL     1      -7.378  -1.617 -20.047  1.00  0.00     0.031 C 
ATOM     64  C   UNL     1      -6.778   0.684 -20.745  1.00  0.00     0.037 A 
BRANCH  51  65
ATOM     65  C   UNL     1      -2.758   5.253 -19.715  1.00  0.00     0.057 A 
ATOM     66  C   UNL     1      -1.590   5.577 -20.417  1.00  0.00     0.134 A 
ATOM     67  C   UNL     1      -3.586   6.312 -19.320  1.00  0.00     0.134 A 
ATOM     68  F   UNL     1      -0.747   4.612 -20.816  1.00  0.00    -0.206 F 
ATOM     69  C   UNL     1      -1.248   6.901 -20.697  1.00  0.00     0.040 A 
ATOM     70  C   UNL     1      -3.270   7.638 -19.619  1.00  0.00     0.040 A 
ATOM     71  F   UNL     1      -4.723   6.075 -18.649  1.00  0.00    -0.206 F 
ATOM     72  C   UNL     1      -2.095   7.936 -20.306  1.00  0.00     0.006 A 
ENDBRANCH  51  65
BRANCH  52  73
ATOM     73  C   UNL     1      -5.365  -4.069 -17.276  1.00  0.00     0.057 A 
ATOM     74  C   UNL     1      -5.365  -5.124 -18.197  1.00  0.00     0.134 A 
ATOM     75  C   UNL     1      -5.817  -4.348 -15.980  1.00  0.00     0.134 A 
ATOM     76  F   UNL     1      -4.961  -4.917 -19.460  1.00  0.00    -0.206 F 
ATOM     77  C   UNL     1      -5.827  -6.396 -17.855  1.00  0.00     0.040 A 
ATOM     78  C   UNL     1      -6.253  -5.623 -15.616  1.00  0.00     0.040 A 
ATOM     79  F   UNL     1      -5.835  -3.386 -15.047  1.00  0.00    -0.206 F 
ATOM     80  C   UNL     1      -6.270  -6.649 -16.558  1.00  0.00     0.006 A 
ENDBRANCH  52  73
BRANCH  64  81
ATOM     81  C   UNL     1      -7.952   0.663 -21.682  1.00  0.00     0.057 A 
ATOM     82  C   UNL     1      -9.273   0.691 -21.219  1.00  0.00     0.134 A 
ATOM     83  C   UNL     1      -7.753   0.654 -23.069  1.00  0.00     0.134 A 
ATOM     84  F   UNL     1      -9.533   0.688 -19.903  1.00  0.00    -0.206 F 
ATOM     85  C   UNL     1     -10.355   0.685 -22.101  1.00  0.00     0.040 A 
ATOM     86  C   UNL     1      -8.826   0.680 -23.961  1.00  0.00     0.040 A 
ATOM     87  F   UNL     1      -6.513   0.638 -23.580  1.00  0.00    -0.206 F 
ATOM     88  C   UNL     1     -10.132   0.688 -23.477  1.00  0.00     0.006 A 
ENDBRANCH  64  81
ENDBRANCH  38  39
ENDBRANCH  30  33
ENDBRANCH  28  29
ENDBRANCH  27  28
ENDBRANCH  26  27
ENDBRANCH  25  26
ENDBRANCH   1  25
TORSDOF 19
