REMARK SMILES Cc1ccc(Br)cc1S(=O)(=O)N[C@H]1C=C[C@H](C(=O)NCCCCCCNC(=O)c2ccc(-c3c4nc(c(-c5c(F)cccc5F)c5ccc([nH]5)c(-c5c(F)cccc5F)c5nc(c(-c6c(F)cccc6F)c6ccc3[nH]6)C=C5)C=C4)cc2)C1
REMARK SMILES IDX 22 1 21 2 20 3 19 4 17 5 18 6 16 8 13 9 14 10 83 11 15 12
REMARK SMILES IDX 12 13 9 15 10 16 11 17 8 18 1 19 2 20 3 21 4 22 7 23 5 24
REMARK SMILES IDX 6 25 23 26 24 27 25 28 26 29 27 30 28 32 29 33 30 34 82 35
REMARK SMILES IDX 31 36 81 37 32 38 33 39 34 40 75 41 35 42 80 43 74 44 76 45
REMARK SMILES IDX 36 46 79 47 73 48 72 49 37 51 63 52 46 53 62 54 47 55 50 56
REMARK SMILES IDX 61 57 77 58 48 59 49 60 60 62 78 63 51 64 38 65 39 66 44 67
REMARK SMILES IDX 40 68 41 69 43 70 45 71 42 72 64 73 65 74 70 75 66 76 67 77
REMARK SMILES IDX 69 78 71 79 68 80 52 81 53 82 58 83 54 84 55 85 57 86 59 87
REMARK SMILES IDX 56 88
REMARK H PARENT 19 7 12 14 26 31 76 50 50 61
REMARK Flexibility Score: inf
ROOT
ATOM      1  C   UNL     1       3.247   1.011  -6.403  1.00  0.00     0.002 C 
ENDROOT
BRANCH   1   2
ATOM      2  C   UNL     1       3.696   1.331  -4.974  1.00  0.00     0.021 C 
BRANCH   2   3
ATOM      3  C   UNL     1       3.531   0.160  -4.010  1.00  0.00     0.116 C 
BRANCH   3   4
ATOM      4  N   UNL     1       4.593  -0.811  -4.176  1.00  0.00    -0.356 N 
ATOM      5  C   UNL     1       5.683  -1.155  -3.451  1.00  0.00     0.226 C 
ATOM      6  O   UNL     1       6.463  -1.943  -4.003  1.00  0.00    -0.274 OA
ATOM      7  H   UNL     1       4.501  -1.339  -5.001  1.00  0.00     0.163 HD
BRANCH   5   8
ATOM      8  C   UNL     1       6.026  -0.642  -2.048  1.00  0.00     0.103 C 
ATOM      9  C   UNL     1       5.090   1.442  -1.181  1.00  0.00     0.093 C 
ATOM     10  C   UNL     1       6.536   1.597  -1.520  1.00  0.00    -0.011 C 
ATOM     11  C   UNL     1       4.946  -0.087  -1.132  1.00  0.00     0.042 C 
ATOM     12  C   UNL     1       7.034   0.470  -2.048  1.00  0.00    -0.016 C 
BRANCH   9  13
ATOM     13  N   UNL     1       4.786   2.022   0.108  1.00  0.00    -0.204 NA
ATOM     14  H   UNL     1       4.979   1.305   0.807  1.00  0.00     0.142 HD
BRANCH  13  15
ATOM     15  S   UNL     1       3.246   2.602   0.424  1.00  0.00     0.241 S 
ATOM     16  O   UNL     1       2.837   3.347  -0.753  1.00  0.00    -0.207 OA
ATOM     17  O   UNL     1       3.282   3.213   1.728  1.00  0.00    -0.207 OA
BRANCH  15  18
ATOM     18  C   UNL     1       2.206   1.155   0.540  1.00  0.00     0.086 A 
ATOM     19  C   UNL     1       3.717  -0.090   2.229  1.00  0.00     0.046 C 
ATOM     20  C   UNL     1       2.542   0.018   1.298  1.00  0.00    -0.031 A 
ATOM     21  C   UNL     1       1.698  -1.108   1.217  1.00  0.00     0.006 A 
ATOM     22  C   UNL     1       0.526  -1.086   0.457  1.00  0.00     0.016 A 
ATOM     23  C   UNL     1       1.011   1.183  -0.204  1.00  0.00     0.037 A 
ATOM     24  C   UNL     1       0.176   0.069  -0.230  1.00  0.00     0.019 A 
ATOM     25  Br  UNL     1      -1.442   0.129  -1.204  1.00  0.00    -0.051 Br
ENDBRANCH  15  18
ENDBRANCH  13  15
ENDBRANCH   9  13
ENDBRANCH   5   8
ENDBRANCH   3   4
ENDBRANCH   2   3
ENDBRANCH   1   2
BRANCH   1  26
ATOM     26  C   UNL     1       1.781   0.582  -6.541  1.00  0.00     0.002 C 
BRANCH  26  27
ATOM     27  C   UNL     1       0.755   1.523  -5.901  1.00  0.00     0.021 C 
BRANCH  27  28
ATOM     28  C   UNL     1       0.831   2.973  -6.370  1.00  0.00     0.116 C 
BRANCH  28  29
ATOM     29  N   UNL     1       0.664   3.092  -7.808  1.00  0.00    -0.352 N 
ATOM     30  C   UNL     1      -0.167   3.909  -8.527  1.00  0.00     0.251 C 
ATOM     31  H   UNL     1       1.234   2.497  -8.346  1.00  0.00     0.163 HD
ATOM     32  O   UNL     1      -0.291   3.745  -9.737  1.00  0.00    -0.269 OA
BRANCH  30  33
ATOM     33  C   UNL     1      -0.926   4.982  -7.852  1.00  0.00     0.039 A 
ATOM     34  C   UNL     1      -2.263   5.179  -8.210  1.00  0.00     0.014 A 
ATOM     35  C   UNL     1      -0.319   5.821  -6.911  1.00  0.00     0.014 A 
ATOM     36  C   UNL     1      -3.001   6.195  -7.602  1.00  0.00     0.010 A 
ATOM     37  C   UNL     1      -1.073   6.796  -6.262  1.00  0.00     0.010 A 
ATOM     38  C   UNL     1      -2.415   7.002  -6.614  1.00  0.00    -0.014 A 
BRANCH  38  39
ATOM     39  C   UNL     1      -3.190   8.088  -5.968  1.00  0.00     0.031 A 
ATOM     40  C   UNL     1      -2.830   9.525  -6.221  1.00  0.00     0.074 A 
ATOM     41  C   UNL     1      -4.195   7.779  -5.127  1.00  0.00     0.049 A 
ATOM     42  N   UNL     1      -3.374  10.612  -5.735  1.00  0.00    -0.248 NA
ATOM     43  C   UNL     1      -1.693   9.774  -7.122  1.00  0.00     0.031 C 
ATOM     44  C   UNL     1      -4.608   6.423  -4.764  1.00  0.00     0.029 A 
ATOM     45  N   UNL     1      -5.048   8.588  -4.422  1.00  0.00    -0.354 N 
ATOM     46  C   UNL     1      -2.639  11.668  -6.257  1.00  0.00     0.074 A 
ATOM     47  C   UNL     1      -1.582  11.092  -7.061  1.00  0.00     0.031 C 
ATOM     48  C   UNL     1      -5.651   6.493  -3.921  1.00  0.00     0.029 A 
ATOM     49  C   UNL     1      -5.963   7.896  -3.667  1.00  0.00     0.049 A 
ATOM     50  H   UNL     1      -5.009   9.571  -4.454  1.00  0.00     0.167 HD
ATOM     51  C   UNL     1      -2.839  12.998  -6.099  1.00  0.00     0.037 A 
ATOM     52  C   UNL     1      -6.946   8.346  -2.865  1.00  0.00     0.037 A 
ATOM     53  C   UNL     1      -3.908  13.570  -5.325  1.00  0.00     0.049 A 
ATOM     54  C   UNL     1      -7.162   9.826  -2.726  1.00  0.00     0.074 A 
ATOM     55  C   UNL     1      -4.234  14.904  -5.154  1.00  0.00     0.029 A 
ATOM     56  N   UNL     1      -4.830  12.836  -4.594  1.00  0.00    -0.354 N 
ATOM     57  N   UNL     1      -6.501  10.813  -3.278  1.00  0.00    -0.248 NA
ATOM     58  C   UNL     1      -8.269  10.253  -1.858  1.00  0.00     0.031 C 
ATOM     59  C   UNL     1      -5.335  14.979  -4.294  1.00  0.00     0.029 A 
ATOM     60  C   UNL     1      -5.716  13.689  -3.958  1.00  0.00     0.049 A 
ATOM     61  H   UNL     1      -4.850  11.853  -4.535  1.00  0.00     0.167 HD
ATOM     62  C   UNL     1      -7.121  11.977  -2.843  1.00  0.00     0.074 A 
ATOM     63  C   UNL     1      -8.223  11.571  -1.994  1.00  0.00     0.031 C 
ATOM     64  C   UNL     1      -6.806  13.266  -3.119  1.00  0.00     0.037 A 
BRANCH  51  65
ATOM     65  C   UNL     1      -1.880  13.924  -6.787  1.00  0.00     0.057 A 
ATOM     66  C   UNL     1      -1.895  14.098  -8.177  1.00  0.00     0.134 A 
ATOM     67  C   UNL     1      -0.947  14.665  -6.052  1.00  0.00     0.134 A 
ATOM     68  F   UNL     1      -2.755  13.407  -8.940  1.00  0.00    -0.206 F 
ATOM     69  C   UNL     1      -0.998  14.958  -8.814  1.00  0.00     0.040 A 
ATOM     70  C   UNL     1      -0.060  15.545  -6.675  1.00  0.00     0.040 A 
ATOM     71  F   UNL     1      -0.882  14.547  -4.717  1.00  0.00    -0.206 F 
ATOM     72  C   UNL     1      -0.080  15.688  -8.062  1.00  0.00     0.006 A 
ENDBRANCH  51  65
BRANCH  52  73
ATOM     73  C   UNL     1      -7.824   7.381  -2.159  1.00  0.00     0.057 A 
ATOM     74  C   UNL     1      -9.150   7.189  -2.560  1.00  0.00     0.134 A 
ATOM     75  C   UNL     1      -7.361   6.633  -1.071  1.00  0.00     0.134 A 
ATOM     76  F   UNL     1      -9.653   7.893  -3.586  1.00  0.00    -0.206 F 
ATOM     77  C   UNL     1      -9.993   6.298  -1.894  1.00  0.00     0.040 A 
ATOM     78  C   UNL     1      -8.187   5.723  -0.409  1.00  0.00     0.040 A 
ATOM     79  F   UNL     1      -6.097   6.768  -0.644  1.00  0.00    -0.206 F 
ATOM     80  C   UNL     1      -9.509   5.559  -0.817  1.00  0.00     0.006 A 
ENDBRANCH  52  73
BRANCH  64  81
ATOM     81  C   UNL     1      -7.679  14.323  -2.514  1.00  0.00     0.057 A 
ATOM     82  C   UNL     1      -7.606  14.647  -1.153  1.00  0.00     0.134 A 
ATOM     83  C   UNL     1      -8.584  15.042  -3.305  1.00  0.00     0.134 A 
ATOM     84  F   UNL     1      -6.769  13.984  -0.341  1.00  0.00    -0.206 F 
ATOM     85  C   UNL     1      -8.418  15.635  -0.596  1.00  0.00     0.040 A 
ATOM     86  C   UNL     1      -9.386  16.047  -2.763  1.00  0.00     0.040 A 
ATOM     87  F   UNL     1      -8.697  14.784  -4.616  1.00  0.00    -0.206 F 
ATOM     88  C   UNL     1      -9.308  16.341  -1.403  1.00  0.00     0.006 A 
ENDBRANCH  64  81
ENDBRANCH  38  39
ENDBRANCH  30  33
ENDBRANCH  28  29
ENDBRANCH  27  28
ENDBRANCH  26  27
ENDBRANCH   1  26
TORSDOF 16
