REMARK SMILES COc1ccc(S(=O)(=O)N[C@H]2C=C[C@@H](C(=O)NCCCCCCNC(=O)c3ccc(-c4c5nc(c(-c6c(F)cccc6F)c6ccc([nH]6)c(-c6c(F)cccc6F)c6nc(c(-c7c(F)cccc7F)c7ccc4[nH]7)C=C6)C=C5)cc3)C2)cc1
REMARK SMILES IDX 19 1 18 2 17 3 15 4 16 5 14 7 11 8 12 9 81 10 13 11 10 12
REMARK SMILES IDX 7 14 8 15 9 16 6 17 3 18 4 19 83 20 5 21 82 22 2 23 1 24
REMARK SMILES IDX 20 25 21 26 22 27 23 28 24 29 25 30 26 32 27 33 28 34 80 35
REMARK SMILES IDX 29 36 79 37 30 38 31 39 32 40 73 41 33 42 78 43 72 44 74 45
REMARK SMILES IDX 34 46 77 47 71 48 70 49 35 51 61 52 44 53 60 54 45 55 48 56
REMARK SMILES IDX 59 57 75 58 46 59 47 60 58 62 76 63 49 64 36 65 37 66 42 67
REMARK SMILES IDX 38 68 39 69 41 70 43 71 40 72 62 73 63 74 68 75 64 76 65 77
REMARK SMILES IDX 67 78 69 79 66 80 50 81 51 82 56 83 52 84 53 85 55 86 57 87
REMARK SMILES IDX 54 88
REMARK H PARENT 17 6 10 13 24 31 74 50 48 61
REMARK Flexibility Score: inf
ROOT
ATOM      1  C   UNL     1       3.772   3.958   0.508  1.00  0.00     0.021 C 
ENDROOT
BRANCH   1   2
ATOM      2  C   UNL     1       5.117   3.853  -0.218  1.00  0.00     0.116 C 
BRANCH   2   3
ATOM      3  N   UNL     1       5.339   2.525  -0.762  1.00  0.00    -0.356 N 
ATOM      4  C   UNL     1       5.762   2.078  -1.974  1.00  0.00     0.226 C 
ATOM      5  O   UNL     1       5.738   0.849  -2.124  1.00  0.00    -0.274 OA
ATOM      6  H   UNL     1       5.143   1.801  -0.123  1.00  0.00     0.163 HD
BRANCH   4   7
ATOM      7  C   UNL     1       6.217   2.965  -3.151  1.00  0.00     0.103 C 
ATOM      8  C   UNL     1       4.959   4.899  -4.072  1.00  0.00     0.093 C 
ATOM      9  C   UNL     1       6.232   5.300  -3.377  1.00  0.00    -0.011 C 
ATOM     10  C   UNL     1       5.129   3.375  -4.165  1.00  0.00     0.042 C 
ATOM     11  C   UNL     1       6.894   4.261  -2.852  1.00  0.00    -0.016 C 
BRANCH   8  12
ATOM     12  N   UNL     1       3.860   5.349  -3.204  1.00  0.00    -0.204 NA
ATOM     13  H   UNL     1       3.870   4.749  -2.379  1.00  0.00     0.142 HD
BRANCH  12  14
ATOM     14  S   UNL     1       2.270   5.346  -3.797  1.00  0.00     0.241 S 
ATOM     15  O   UNL     1       2.310   5.213  -5.228  1.00  0.00    -0.207 OA
ATOM     16  O   UNL     1       1.642   6.475  -3.133  1.00  0.00    -0.207 OA
BRANCH  14  17
ATOM     17  C   UNL     1       1.523   3.890  -3.113  1.00  0.00     0.082 A 
ATOM     18  C   UNL     1       0.406   1.602  -1.933  1.00  0.00     0.118 A 
ATOM     19  C   UNL     1      -0.395   2.502  -2.648  1.00  0.00     0.048 A 
ATOM     20  C   UNL     1       1.769   1.835  -1.848  1.00  0.00     0.048 A 
ATOM     21  C   UNL     1       0.157   3.654  -3.236  1.00  0.00     0.025 A 
ATOM     22  C   UNL     1       2.304   2.984  -2.414  1.00  0.00     0.025 A 
BRANCH  18  23
ATOM     23  O   UNL     1      -0.221   0.528  -1.364  1.00  0.00    -0.497 OA
ATOM     24  C   UNL     1       0.455  -0.043  -0.242  1.00  0.00     0.278 C 
ENDBRANCH  18  23
ENDBRANCH  14  17
ENDBRANCH  12  14
ENDBRANCH   8  12
ENDBRANCH   4   7
ENDBRANCH   2   3
ENDBRANCH   1   2
BRANCH   1  25
ATOM     25  C   UNL     1       3.685   3.233   1.852  1.00  0.00     0.002 C 
BRANCH  25  26
ATOM     26  C   UNL     1       4.423   3.932   2.992  1.00  0.00     0.002 C 
BRANCH  26  27
ATOM     27  C   UNL     1       4.070   5.410   3.178  1.00  0.00     0.021 C 
BRANCH  27  28
ATOM     28  C   UNL     1       2.576   5.713   3.264  1.00  0.00     0.116 C 
BRANCH  28  29
ATOM     29  N   UNL     1       1.966   5.117   4.439  1.00  0.00    -0.352 N 
ATOM     30  C   UNL     1       1.324   5.735   5.483  1.00  0.00     0.251 C 
ATOM     31  H   UNL     1       2.019   4.135   4.495  1.00  0.00     0.163 HD
ATOM     32  O   UNL     1       1.053   5.113   6.504  1.00  0.00    -0.269 OA
BRANCH  30  33
ATOM     33  C   UNL     1       0.982   7.168   5.377  1.00  0.00     0.039 A 
ATOM     34  C   UNL     1       1.306   8.021   6.434  1.00  0.00     0.014 A 
ATOM     35  C   UNL     1       0.355   7.668   4.231  1.00  0.00     0.014 A 
ATOM     36  C   UNL     1       1.058   9.389   6.315  1.00  0.00     0.010 A 
ATOM     37  C   UNL     1       0.175   9.041   4.085  1.00  0.00     0.010 A 
ATOM     38  C   UNL     1       0.524   9.915   5.126  1.00  0.00    -0.014 A 
BRANCH  38  39
ATOM     39  C   UNL     1       0.340  11.379   4.952  1.00  0.00     0.031 A 
ATOM     40  C   UNL     1      -1.037  11.956   4.771  1.00  0.00     0.074 A 
ATOM     41  C   UNL     1       1.420  12.182   4.900  1.00  0.00     0.049 A 
ATOM     42  N   UNL     1      -1.391  13.198   4.557  1.00  0.00    -0.248 NA
ATOM     43  C   UNL     1      -2.163  11.009   4.813  1.00  0.00     0.031 C 
ATOM     44  C   UNL     1       2.811  11.739   5.017  1.00  0.00     0.029 A 
ATOM     45  N   UNL     1       1.519  13.540   4.727  1.00  0.00    -0.354 N 
ATOM     46  C   UNL     1      -2.774  13.180   4.430  1.00  0.00     0.074 A 
ATOM     47  C   UNL     1      -3.190  11.799   4.536  1.00  0.00     0.031 C 
ATOM     48  C   UNL     1       3.621  12.806   4.938  1.00  0.00     0.029 A 
ATOM     49  C   UNL     1       2.813  14.002   4.721  1.00  0.00     0.049 A 
ATOM     50  H   UNL     1       0.737  14.128   4.617  1.00  0.00     0.167 HD
ATOM     51  C   UNL     1      -3.622  14.223   4.264  1.00  0.00     0.037 A 
ATOM     52  C   UNL     1       3.296  15.247   4.549  1.00  0.00     0.037 A 
ATOM     53  C   UNL     1      -3.205  15.598   4.170  1.00  0.00     0.049 A 
ATOM     54  C   UNL     1       2.334  16.385   4.341  1.00  0.00     0.074 A 
ATOM     55  C   UNL     1      -3.991  16.731   4.055  1.00  0.00     0.029 A 
ATOM     56  N   UNL     1      -1.885  16.026   4.171  1.00  0.00    -0.354 N 
ATOM     57  N   UNL     1       1.024  16.363   4.296  1.00  0.00    -0.248 NA
ATOM     58  C   UNL     1       2.918  17.722   4.165  1.00  0.00     0.031 C 
ATOM     59  C   UNL     1      -3.147  17.839   3.931  1.00  0.00     0.029 A 
ATOM     60  C   UNL     1      -1.835  17.404   4.030  1.00  0.00     0.049 A 
ATOM     61  H   UNL     1      -1.101  15.438   4.260  1.00  0.00     0.167 HD
ATOM     62  C   UNL     1       0.627  17.682   4.118  1.00  0.00     0.074 A 
ATOM     63  C   UNL     1       1.835  18.480   4.078  1.00  0.00     0.031 C 
ATOM     64  C   UNL     1      -0.625  18.187   3.997  1.00  0.00     0.037 A 
BRANCH  51  65
ATOM     65  C   UNL     1      -5.090  13.916   4.170  1.00  0.00     0.057 A 
ATOM     66  C   UNL     1      -5.822  13.455   5.272  1.00  0.00     0.134 A 
ATOM     67  C   UNL     1      -5.788  14.120   2.973  1.00  0.00     0.134 A 
ATOM     68  F   UNL     1      -5.214  13.229   6.447  1.00  0.00    -0.206 F 
ATOM     69  C   UNL     1      -7.188  13.182   5.180  1.00  0.00     0.040 A 
ATOM     70  C   UNL     1      -7.160  13.879   2.876  1.00  0.00     0.040 A 
ATOM     71  F   UNL     1      -5.152  14.567   1.879  1.00  0.00    -0.206 F 
ATOM     72  C   UNL     1      -7.862  13.401   3.981  1.00  0.00     0.006 A 
ENDBRANCH  51  65
BRANCH  52  73
ATOM     73  C   UNL     1       4.761  15.489   4.582  1.00  0.00     0.057 A 
ATOM     74  C   UNL     1       5.353  16.207   5.628  1.00  0.00     0.134 A 
ATOM     75  C   UNL     1       5.603  15.021   3.566  1.00  0.00     0.134 A 
ATOM     76  F   UNL     1       4.597  16.698   6.622  1.00  0.00    -0.206 F 
ATOM     77  C   UNL     1       6.723  16.470   5.653  1.00  0.00     0.040 A 
ATOM     78  C   UNL     1       6.980  15.252   3.592  1.00  0.00     0.040 A 
ATOM     79  F   UNL     1       5.102  14.318   2.540  1.00  0.00    -0.206 F 
ATOM     80  C   UNL     1       7.542  15.986   4.634  1.00  0.00     0.006 A 
ENDBRANCH  52  73
BRANCH  64  81
ATOM     81  C   UNL     1      -0.756  19.676   3.850  1.00  0.00     0.057 A 
ATOM     82  C   UNL     1      -0.373  20.343   2.680  1.00  0.00     0.134 A 
ATOM     83  C   UNL     1      -1.306  20.447   4.883  1.00  0.00     0.134 A 
ATOM     84  F   UNL     1       0.173  19.666   1.658  1.00  0.00    -0.206 F 
ATOM     85  C   UNL     1      -0.509  21.727   2.551  1.00  0.00     0.040 A 
ATOM     86  C   UNL     1      -1.475  21.826   4.754  1.00  0.00     0.040 A 
ATOM     87  F   UNL     1      -1.702  19.870   6.028  1.00  0.00    -0.206 F 
ATOM     88  C   UNL     1      -1.069  22.471   3.588  1.00  0.00     0.006 A 
ENDBRANCH  64  81
ENDBRANCH  38  39
ENDBRANCH  30  33
ENDBRANCH  28  29
ENDBRANCH  27  28
ENDBRANCH  26  27
ENDBRANCH  25  26
ENDBRANCH   1  25
TORSDOF 17
