REMARK SMILES CCC(=O)Nc1cc(NC(=O)/C=C/C(=O)NCCCCCCNC(=O)c2ccc(-c3c4nc(c(-c5c(F)cccc5F)c5ccc([nH]5)c(-c5c(F)cccc5F)c5nc(c(-c6c(F)cccc6F)c6ccc3[nH]6)C=C5)C=C4)cc2)ccc1C
REMARK SMILES IDX 18 1 17 2 16 3 14 4 15 5 13 7 12 8 10 9 9 10 11 12 8 13 6 14
REMARK SMILES IDX 7 15 82 16 81 17 83 18 80 19 5 20 3 21 4 22 2 24 1 25 19 26
REMARK SMILES IDX 20 27 21 28 22 29 23 30 24 31 25 33 26 34 27 35 79 36 28 37
REMARK SMILES IDX 78 38 29 39 30 40 31 41 72 42 32 43 77 44 71 45 73 46 33 47
REMARK SMILES IDX 76 48 70 49 69 50 34 52 60 53 43 54 59 55 44 56 47 57 58 58
REMARK SMILES IDX 74 59 45 60 46 61 57 63 75 64 48 65 35 66 36 67 41 68 37 69
REMARK SMILES IDX 38 70 40 71 42 72 39 73 61 74 62 75 67 76 63 77 64 78 66 79
REMARK SMILES IDX 68 80 65 81 49 82 50 83 55 84 51 85 52 86 54 87 56 88 53 89
REMARK H PARENT 16 6 9 11 5 23 23 32 73 51 47 62
REMARK Flexibility Score: inf
ROOT
ATOM      1  C   UNL     1       5.660  -6.581   4.814  1.00  0.00     0.021 C 
ENDROOT
BRANCH   1   2
ATOM      2  C   UNL     1       5.158  -6.312   3.399  1.00  0.00     0.116 C 
BRANCH   2   3
ATOM      3  N   UNL     1       4.215  -5.215   3.376  1.00  0.00    -0.353 N 
ATOM      4  C   UNL     1       4.401  -3.946   2.941  1.00  0.00     0.244 C 
ATOM      5  O   UNL     1       3.566  -3.076   3.177  1.00  0.00    -0.270 OA
ATOM      6  H   UNL     1       3.317  -5.419   3.723  1.00  0.00     0.163 HD
BRANCH   4   7
ATOM      7  C   UNL     1       5.584  -3.611   2.124  1.00  0.00     0.077 C 
ATOM      8  C   UNL     1       5.760  -4.262   0.963  1.00  0.00     0.077 C 
BRANCH   8   9
ATOM      9  C   UNL     1       6.650  -3.721  -0.077  1.00  0.00     0.248 C 
ATOM     10  N   UNL     1       6.314  -2.563  -0.729  1.00  0.00    -0.322 N 
ATOM     11  H   UNL     1       6.964  -2.276  -1.410  1.00  0.00     0.170 HD
ATOM     12  O   UNL     1       7.689  -4.319  -0.345  1.00  0.00    -0.270 OA
BRANCH  10  13
ATOM     13  C   UNL     1       5.199  -1.709  -0.591  1.00  0.00     0.043 A 
ATOM     14  C   UNL     1       3.047  -1.142   0.399  1.00  0.00     0.046 A 
ATOM     15  C   UNL     1       3.985  -2.090  -0.019  1.00  0.00     0.052 A 
ATOM     16  C   UNL     1       3.303   0.218   0.195  1.00  0.00    -0.027 A 
ATOM     17  C   UNL     1       4.425   0.580  -0.571  1.00  0.00     0.008 A 
ATOM     18  C   UNL     1       2.542   1.319   0.878  1.00  0.00     0.046 C 
ATOM     19  C   UNL     1       5.365  -0.377  -0.963  1.00  0.00     0.026 A 
BRANCH  14  20
ATOM     20  N   UNL     1       2.048  -1.597   1.269  1.00  0.00    -0.326 N 
ATOM     21  C   UNL     1       0.692  -1.600   1.112  1.00  0.00     0.224 C 
ATOM     22  O   UNL     1      -0.030  -1.863   2.078  1.00  0.00    -0.275 OA
ATOM     23  H   UNL     1       2.372  -1.971   2.120  1.00  0.00     0.169 HD
BRANCH  21  24
ATOM     24  C   UNL     1       0.088  -1.420  -0.267  1.00  0.00     0.097 C 
ATOM     25  C   UNL     1      -0.015   0.009  -0.749  1.00  0.00     0.014 C 
ENDBRANCH  21  24
ENDBRANCH  14  20
ENDBRANCH  10  13
ENDBRANCH   8   9
ENDBRANCH   4   7
ENDBRANCH   2   3
ENDBRANCH   1   2
BRANCH   1  26
ATOM     26  C   UNL     1       4.606  -7.110   5.793  1.00  0.00     0.002 C 
BRANCH  26  27
ATOM     27  C   UNL     1       3.813  -8.355   5.362  1.00  0.00     0.002 C 
BRANCH  27  28
ATOM     28  C   UNL     1       4.592  -9.487   4.687  1.00  0.00     0.021 C 
BRANCH  28  29
ATOM     29  C   UNL     1       5.748 -10.045   5.502  1.00  0.00     0.116 C 
BRANCH  29  30
ATOM     30  N   UNL     1       5.489 -11.335   6.118  1.00  0.00    -0.352 N 
ATOM     31  C   UNL     1       6.274 -12.060   7.006  1.00  0.00     0.251 C 
ATOM     32  H   UNL     1       4.634 -11.756   5.871  1.00  0.00     0.163 HD
ATOM     33  O   UNL     1       5.913 -13.152   7.385  1.00  0.00    -0.269 OA
BRANCH  31  34
ATOM     34  C   UNL     1       7.478 -11.417   7.605  1.00  0.00     0.039 A 
ATOM     35  C   UNL     1       7.644 -11.549   8.988  1.00  0.00     0.014 A 
ATOM     36  C   UNL     1       8.278 -10.532   6.888  1.00  0.00     0.014 A 
ATOM     37  C   UNL     1       8.394 -10.601   9.678  1.00  0.00     0.010 A 
ATOM     38  C   UNL     1       8.944  -9.535   7.572  1.00  0.00     0.010 A 
ATOM     39  C   UNL     1       8.927  -9.528   8.968  1.00  0.00    -0.014 A 
BRANCH  39  40
ATOM     40  C   UNL     1       9.383  -8.304   9.612  1.00  0.00     0.031 A 
ATOM     41  C   UNL     1      10.823  -8.063   9.805  1.00  0.00     0.074 A 
ATOM     42  C   UNL     1       8.470  -7.385   9.998  1.00  0.00     0.049 A 
ATOM     43  N   UNL     1      11.311  -7.245  10.674  1.00  0.00    -0.248 NA
ATOM     44  C   UNL     1      11.845  -8.813   9.085  1.00  0.00     0.031 C 
ATOM     45  C   UNL     1       8.716  -6.017  10.444  1.00  0.00     0.029 A 
ATOM     46  N   UNL     1       7.115  -7.609  10.283  1.00  0.00    -0.354 N 
ATOM     47  C   UNL     1      12.664  -7.145  10.444  1.00  0.00     0.074 A 
ATOM     48  C   UNL     1      12.957  -8.237   9.551  1.00  0.00     0.031 C 
ATOM     49  C   UNL     1       7.678  -5.618  11.197  1.00  0.00     0.029 A 
ATOM     50  C   UNL     1       6.806  -6.767  11.373  1.00  0.00     0.049 A 
ATOM     51  H   UNL     1       6.505  -8.226   9.819  1.00  0.00     0.167 HD
ATOM     52  C   UNL     1      13.328  -6.060  10.937  1.00  0.00     0.037 A 
ATOM     53  C   UNL     1       6.428  -7.281  12.579  1.00  0.00     0.037 A 
ATOM     54  C   UNL     1      12.492  -5.354  11.916  1.00  0.00     0.049 A 
ATOM     55  C   UNL     1       7.349  -6.911  13.718  1.00  0.00     0.074 A 
ATOM     56  C   UNL     1      11.748  -4.187  11.865  1.00  0.00     0.029 A 
ATOM     57  N   UNL     1      12.106  -6.013  13.082  1.00  0.00    -0.354 N 
ATOM     58  N   UNL     1       8.562  -6.459  13.558  1.00  0.00    -0.248 NA
ATOM     59  C   UNL     1       6.987  -7.049  15.127  1.00  0.00     0.031 C 
ATOM     60  C   UNL     1      10.841  -4.199  12.958  1.00  0.00     0.029 A 
ATOM     61  C   UNL     1      11.061  -5.351  13.695  1.00  0.00     0.049 A 
ATOM     62  H   UNL     1      12.522  -6.839  13.421  1.00  0.00     0.167 HD
ATOM     63  C   UNL     1       9.152  -6.284  14.783  1.00  0.00     0.074 A 
ATOM     64  C   UNL     1       8.114  -6.639  15.734  1.00  0.00     0.031 C 
ATOM     65  C   UNL     1      10.451  -5.881  14.909  1.00  0.00     0.037 A 
BRANCH  52  66
ATOM     66  C   UNL     1      14.618  -5.480  10.368  1.00  0.00     0.057 A 
ATOM     67  C   UNL     1      15.060  -4.202  10.778  1.00  0.00     0.134 A 
ATOM     68  C   UNL     1      15.407  -6.038   9.341  1.00  0.00     0.134 A 
ATOM     69  F   UNL     1      14.458  -3.535  11.772  1.00  0.00    -0.206 F 
ATOM     70  C   UNL     1      16.137  -3.526  10.178  1.00  0.00     0.040 A 
ATOM     71  C   UNL     1      16.493  -5.380   8.744  1.00  0.00     0.040 A 
ATOM     72  F   UNL     1      15.185  -7.248   8.830  1.00  0.00    -0.206 F 
ATOM     73  C   UNL     1      16.853  -4.109   9.148  1.00  0.00     0.006 A 
ENDBRANCH  52  66
BRANCH  53  74
ATOM     74  C   UNL     1       5.674  -8.557  12.464  1.00  0.00     0.057 A 
ATOM     75  C   UNL     1       4.424  -8.543  11.820  1.00  0.00     0.134 A 
ATOM     76  C   UNL     1       6.294  -9.800  12.619  1.00  0.00     0.134 A 
ATOM     77  F   UNL     1       3.773  -7.382  11.642  1.00  0.00    -0.206 F 
ATOM     78  C   UNL     1       3.872  -9.692  11.249  1.00  0.00     0.040 A 
ATOM     79  C   UNL     1       5.742 -10.961  12.063  1.00  0.00     0.040 A 
ATOM     80  F   UNL     1       7.497  -9.895  13.205  1.00  0.00    -0.206 F 
ATOM     81  C   UNL     1       4.551 -10.902  11.341  1.00  0.00     0.006 A 
ENDBRANCH  53  74
BRANCH  65  82
ATOM     82  C   UNL     1      11.248  -5.881  16.192  1.00  0.00     0.057 A 
ATOM     83  C   UNL     1      11.046  -6.779  17.250  1.00  0.00     0.134 A 
ATOM     84  C   UNL     1      12.373  -5.038  16.331  1.00  0.00     0.134 A 
ATOM     85  F   UNL     1      10.087  -7.715  17.204  1.00  0.00    -0.206 F 
ATOM     86  C   UNL     1      11.862  -6.797  18.390  1.00  0.00     0.040 A 
ATOM     87  C   UNL     1      13.227  -5.085  17.438  1.00  0.00     0.040 A 
ATOM     88  F   UNL     1      12.706  -4.147  15.386  1.00  0.00    -0.206 F 
ATOM     89  C   UNL     1      12.964  -5.957  18.482  1.00  0.00     0.006 A 
ENDBRANCH  65  82
ENDBRANCH  39  40
ENDBRANCH  31  34
ENDBRANCH  29  30
ENDBRANCH  28  29
ENDBRANCH  27  28
ENDBRANCH  26  27
ENDBRANCH   1  26
TORSDOF 17
