REMARK SMILES O=C1NC(=O)/C(=C/c2ccc(OCc3cn(-c4ccc(C(=O)NCCCCCCNC(=O)c5ccc(-c6c7nc(c(-c8c(F)cccc8F)c8ccc([nH]8)c(-c8c(F)cccc8F)c8nc(c(-c9c(F)cccc9F)c9ccc6[nH]9)C=C8)C=C7)cc5)cc4)nn3)cc2)S1
REMARK SMILES IDX 25 1 24 2 23 3 21 4 22 5 20 7 17 8 18 9 88 10 19 11 87 12
REMARK SMILES IDX 16 13 14 14 15 15 90 16 89 17 13 18 12 19 11 20 8 21 9 22
REMARK SMILES IDX 92 23 10 24 91 25 7 26 1 27 2 28 3 29 93 30 4 31 6 33 5 34
REMARK SMILES IDX 26 35 27 36 28 37 29 38 30 39 31 40 32 42 33 43 34 44 86 45
REMARK SMILES IDX 35 46 85 47 36 48 37 49 38 50 79 51 39 52 84 53 78 54 80 55
REMARK SMILES IDX 40 56 83 57 77 58 76 59 41 61 67 62 50 63 66 64 51 65 54 66
REMARK SMILES IDX 65 67 81 68 52 69 53 70 64 72 82 73 55 74 42 75 43 76 48 77
REMARK SMILES IDX 44 78 45 79 47 80 49 81 46 82 68 83 69 84 74 85 70 86 71 87
REMARK SMILES IDX 73 88 75 89 72 90 56 91 57 92 62 93 58 94 59 95 61 96 63 97
REMARK SMILES IDX 60 98
REMARK H PARENT 23 6 3 32 30 41 80 60 54 71
REMARK Flexibility Score: inf
ROOT
ATOM      1  C   UNL     1      -8.103  10.048  -2.421  1.00  0.00     0.021 C 
ENDROOT
BRANCH   1   2
ATOM      2  C   UNL     1      -7.680  10.489  -1.018  1.00  0.00     0.116 C 
BRANCH   2   3
ATOM      3  N   UNL     1      -8.299   9.628  -0.034  1.00  0.00    -0.352 N 
ATOM      4  C   UNL     1      -7.837   8.572   0.704  1.00  0.00     0.251 C 
ATOM      5  O   UNL     1      -8.647   7.985   1.422  1.00  0.00    -0.269 OA
ATOM      6  H   UNL     1      -9.244   9.846   0.141  1.00  0.00     0.163 HD
BRANCH   4   7
ATOM      7  C   UNL     1      -6.404   8.171   0.744  1.00  0.00     0.039 A 
ATOM      8  C   UNL     1      -3.691   7.597   1.120  1.00  0.00     0.066 A 
ATOM      9  C   UNL     1      -4.625   7.191   2.079  1.00  0.00     0.029 A 
ATOM     10  C   UNL     1      -4.109   8.210  -0.060  1.00  0.00     0.029 A 
ATOM     11  C   UNL     1      -5.970   7.514   1.905  1.00  0.00     0.016 A 
ATOM     12  C   UNL     1      -5.474   8.419  -0.271  1.00  0.00     0.016 A 
BRANCH   8  13
ATOM     13  N   UNL     1      -2.325   7.348   1.342  1.00  0.00    -0.220 N 
ATOM     14  C   UNL     1      -0.147   7.367   1.378  1.00  0.00     0.120 A 
ATOM     15  C   UNL     1      -1.237   8.078   0.921  1.00  0.00     0.144 A 
ATOM     16  N   UNL     1      -0.603   6.280   2.076  1.00  0.00    -0.131 NA
ATOM     17  N   UNL     1      -1.921   6.298   2.081  1.00  0.00    -0.062 NA
BRANCH  14  18
ATOM     18  C   UNL     1       1.316   7.665   1.323  1.00  0.00     0.289 C 
BRANCH  18  19
ATOM     19  O   UNL     1       2.051   6.989   0.287  1.00  0.00    -0.487 OA
BRANCH  19  20
ATOM     20  C   UNL     1       2.178   5.628   0.354  1.00  0.00     0.119 A 
ATOM     21  C   UNL     1       2.210   2.826   0.123  1.00  0.00    -0.024 A 
ATOM     22  C   UNL     1       2.687   3.622  -0.921  1.00  0.00     0.012 A 
ATOM     23  C   UNL     1       1.816   3.437   1.315  1.00  0.00     0.012 A 
ATOM     24  C   UNL     1       2.661   5.018  -0.806  1.00  0.00     0.047 A 
ATOM     25  C   UNL     1       1.836   4.827   1.440  1.00  0.00     0.047 A 
BRANCH  21  26
ATOM     26  C   UNL     1       2.142   1.369  -0.009  1.00  0.00     0.029 C 
ATOM     27  O   UNL     1      -2.451  -0.715   0.001  1.00  0.00    -0.261 OA
ATOM     28  C   UNL     1      -1.253  -0.435  -0.010  1.00  0.00     0.290 C 
ATOM     29  N   UNL     1      -0.237  -1.325  -0.044  1.00  0.00    -0.282 N 
ATOM     30  S   UNL     1      -0.622   1.196   0.006  1.00  0.00    -0.022 SA
ATOM     31  C   UNL     1       1.039  -0.842  -0.074  1.00  0.00     0.265 C 
ATOM     32  H   UNL     1      -0.412  -2.294  -0.047  1.00  0.00     0.174 HD
ATOM     33  C   UNL     1       1.013   0.644  -0.031  1.00  0.00     0.083 C 
ATOM     34  O   UNL     1       2.042  -1.530  -0.116  1.00  0.00    -0.268 OA
ENDBRANCH  21  26
ENDBRANCH  19  20
ENDBRANCH  18  19
ENDBRANCH  14  18
ENDBRANCH   8  13
ENDBRANCH   4   7
ENDBRANCH   2   3
ENDBRANCH   1   2
BRANCH   1  35
ATOM     35  C   UNL     1      -9.511  10.533  -2.790  1.00  0.00     0.002 C 
BRANCH  35  36
ATOM     36  C   UNL     1      -9.724  12.053  -2.680  1.00  0.00     0.002 C 
BRANCH  36  37
ATOM     37  C   UNL     1      -8.679  12.934  -3.385  1.00  0.00     0.021 C 
BRANCH  37  38
ATOM     38  C   UNL     1      -8.757  12.855  -4.900  1.00  0.00     0.116 C 
BRANCH  38  39
ATOM     39  N   UNL     1     -10.014  13.418  -5.412  1.00  0.00    -0.352 N 
ATOM     40  C   UNL     1     -10.519  13.432  -6.700  1.00  0.00     0.251 C 
ATOM     41  H   UNL     1     -10.584  13.851  -4.736  1.00  0.00     0.163 HD
ATOM     42  O   UNL     1     -11.372  14.243  -7.037  1.00  0.00    -0.269 OA
BRANCH  40  43
ATOM     43  C   UNL     1     -10.029  12.429  -7.658  1.00  0.00     0.039 A 
ATOM     44  C   UNL     1      -9.885  12.671  -9.028  1.00  0.00     0.014 A 
ATOM     45  C   UNL     1      -9.675  11.203  -7.120  1.00  0.00     0.014 A 
ATOM     46  C   UNL     1      -9.382  11.646  -9.829  1.00  0.00     0.010 A 
ATOM     47  C   UNL     1      -8.855  10.387  -7.825  1.00  0.00     0.010 A 
ATOM     48  C   UNL     1      -8.891  10.496  -9.201  1.00  0.00    -0.014 A 
BRANCH  48  49
ATOM     49  C   UNL     1      -8.336   9.354  -9.899  1.00  0.00     0.031 A 
ATOM     50  C   UNL     1      -7.037   9.642 -10.539  1.00  0.00     0.074 A 
ATOM     51  C   UNL     1      -8.792   8.101  -9.670  1.00  0.00     0.049 A 
ATOM     52  N   UNL     1      -6.803   9.781 -11.799  1.00  0.00    -0.248 NA
ATOM     53  C   UNL     1      -5.909  10.031  -9.675  1.00  0.00     0.031 C 
ATOM     54  C   UNL     1      -9.836   7.656  -8.733  1.00  0.00     0.029 A 
ATOM     55  N   UNL     1      -8.305   6.923 -10.145  1.00  0.00    -0.354 N 
ATOM     56  C   UNL     1      -5.437  10.017 -11.892  1.00  0.00     0.074 A 
ATOM     57  C   UNL     1      -5.019  10.435 -10.582  1.00  0.00     0.031 C 
ATOM     58  C   UNL     1      -9.739   6.320  -8.544  1.00  0.00     0.029 A 
ATOM     59  C   UNL     1      -8.733   5.794  -9.445  1.00  0.00     0.049 A 
ATOM     60  H   UNL     1      -7.700   6.872 -10.920  1.00  0.00     0.167 HD
ATOM     61  C   UNL     1      -4.719   9.541 -12.947  1.00  0.00     0.037 A 
ATOM     62  C   UNL     1      -8.215   4.545  -9.582  1.00  0.00     0.037 A 
ATOM     63  C   UNL     1      -5.603   9.092 -14.001  1.00  0.00     0.049 A 
ATOM     64  C   UNL     1      -7.474   4.526 -10.877  1.00  0.00     0.074 A 
ATOM     65  C   UNL     1      -6.627   9.682 -14.719  1.00  0.00     0.029 A 
ATOM     66  N   UNL     1      -5.788   7.735 -14.138  1.00  0.00    -0.354 N 
ATOM     67  N   UNL     1      -8.058   4.628 -12.042  1.00  0.00    -0.248 NA
ATOM     68  C   UNL     1      -6.075   4.934 -10.845  1.00  0.00     0.031 C 
ATOM     69  C   UNL     1      -7.642   8.681 -14.794  1.00  0.00     0.029 A 
ATOM     70  C   UNL     1      -7.139   7.513 -14.220  1.00  0.00     0.049 A 
ATOM     71  H   UNL     1      -5.081   7.050 -14.171  1.00  0.00     0.167 HD
ATOM     72  C   UNL     1      -7.260   5.505 -12.764  1.00  0.00     0.074 A 
ATOM     73  C   UNL     1      -6.021   5.617 -11.993  1.00  0.00     0.031 C 
ATOM     74  C   UNL     1      -7.780   6.309 -13.741  1.00  0.00     0.037 A 
BRANCH  61  75
ATOM     75  C   UNL     1      -3.276   9.095 -12.877  1.00  0.00     0.057 A 
ATOM     76  C   UNL     1      -2.635   8.720 -14.072  1.00  0.00     0.134 A 
ATOM     77  C   UNL     1      -2.583   8.747 -11.699  1.00  0.00     0.134 A 
ATOM     78  F   UNL     1      -3.185   8.997 -15.265  1.00  0.00    -0.206 F 
ATOM     79  C   UNL     1      -1.455   7.970 -14.090  1.00  0.00     0.040 A 
ATOM     80  C   UNL     1      -1.376   8.045 -11.707  1.00  0.00     0.040 A 
ATOM     81  F   UNL     1      -3.067   8.971 -10.473  1.00  0.00    -0.206 F 
ATOM     82  C   UNL     1      -0.826   7.619 -12.903  1.00  0.00     0.006 A 
ENDBRANCH  61  75
BRANCH  62  83
ATOM     83  C   UNL     1      -8.035   3.501  -8.542  1.00  0.00     0.057 A 
ATOM     84  C   UNL     1      -7.742   2.171  -8.879  1.00  0.00     0.134 A 
ATOM     85  C   UNL     1      -7.885   3.832  -7.182  1.00  0.00     0.134 A 
ATOM     86  F   UNL     1      -7.809   1.762 -10.155  1.00  0.00    -0.206 F 
ATOM     87  C   UNL     1      -7.311   1.233  -7.927  1.00  0.00     0.040 A 
ATOM     88  C   UNL     1      -7.463   2.906  -6.221  1.00  0.00     0.040 A 
ATOM     89  F   UNL     1      -8.058   5.090  -6.753  1.00  0.00    -0.206 F 
ATOM     90  C   UNL     1      -7.161   1.603  -6.594  1.00  0.00     0.006 A 
ENDBRANCH  62  83
BRANCH  74  91
ATOM     91  C   UNL     1      -9.199   6.080 -14.191  1.00  0.00     0.057 A 
ATOM     92  C   UNL     1     -10.324   6.181 -13.357  1.00  0.00     0.134 A 
ATOM     93  C   UNL     1      -9.446   5.933 -15.561  1.00  0.00     0.134 A 
ATOM     94  F   UNL     1     -10.200   6.431 -12.049  1.00  0.00    -0.206 F 
ATOM     95  C   UNL     1     -11.628   6.099 -13.859  1.00  0.00     0.040 A 
ATOM     96  C   UNL     1     -10.742   5.886 -16.079  1.00  0.00     0.040 A 
ATOM     97  F   UNL     1      -8.424   5.889 -16.430  1.00  0.00    -0.206 F 
ATOM     98  C   UNL     1     -11.839   5.958 -15.227  1.00  0.00     0.006 A 
ENDBRANCH  74  91
ENDBRANCH  48  49
ENDBRANCH  40  43
ENDBRANCH  38  39
ENDBRANCH  37  38
ENDBRANCH  36  37
ENDBRANCH  35  36
ENDBRANCH   1  35
TORSDOF 18
