REMARK SMILES Cc1cc(C(=O)Nc2c(Cl)cc(Cl)cc2C(=O)NCCCCCCNC(=O)c2ccc(-c3c4nc(c(-c5c(F)cccc5F)c5ccc([nH]5)c(-c5c(F)cccc5F)c5nc(c(-c6c(F)cccc6F)c6ccc3[nH]6)C=C5)C=C4)cc2)c(C)s1
REMARK SMILES IDX 21 1 20 2 19 3 18 4 16 5 17 6 15 8 8 9 9 10 10 11 11 12
REMARK SMILES IDX 14 13 12 14 13 15 7 16 5 17 6 18 4 20 1 21 2 22 3 23 84 24
REMARK SMILES IDX 82 25 83 26 22 27 23 28 24 29 25 30 26 31 27 33 28 34 29 35
REMARK SMILES IDX 81 36 30 37 80 38 31 39 32 40 33 41 74 42 34 43 79 44 73 45
REMARK SMILES IDX 75 46 35 47 78 48 72 49 71 50 36 52 62 53 45 54 61 55 46 56
REMARK SMILES IDX 49 57 60 58 76 59 47 60 48 61 59 63 77 64 50 65 37 66 38 67
REMARK SMILES IDX 43 68 39 69 40 70 42 71 44 72 41 73 63 74 64 75 69 76 65 77
REMARK SMILES IDX 66 78 68 79 70 80 67 81 51 82 52 83 57 84 53 85 54 86 56 87
REMARK SMILES IDX 58 88 55 89
REMARK H PARENT 18 7 7 19 25 32 75 51 49 62
REMARK Flexibility Score: inf
ROOT
ATOM      1  C   UNL     1       3.817  -5.149   2.948  1.00  0.00     0.002 C 
ENDROOT
BRANCH   1   2
ATOM      2  C   UNL     1       2.740  -4.083   2.722  1.00  0.00     0.021 C 
BRANCH   2   3
ATOM      3  C   UNL     1       1.721  -4.338   1.619  1.00  0.00     0.116 C 
BRANCH   3   4
ATOM      4  N   UNL     1       0.898  -5.511   1.765  1.00  0.00    -0.352 N 
ATOM      5  C   UNL     1      -0.314  -5.850   1.220  1.00  0.00     0.253 C 
ATOM      6  O   UNL     1      -0.750  -6.968   1.510  1.00  0.00    -0.269 OA
ATOM      7  H   UNL     1       1.275  -6.194   2.365  1.00  0.00     0.163 HD
BRANCH   5   8
ATOM      8  C   UNL     1      -1.182  -4.989   0.350  1.00  0.00     0.066 A 
ATOM      9  C   UNL     1      -0.812  -4.130  -0.706  1.00  0.00     0.073 A 
ATOM     10  C   UNL     1      -1.822  -3.586  -1.544  1.00  0.00     0.066 A 
ATOM     11  Cl  UNL     1      -1.440  -2.698  -2.986  1.00  0.00    -0.082 Cl
ATOM     12  C   UNL     1      -3.174  -3.761  -1.258  1.00  0.00     0.043 A 
ATOM     13  C   UNL     1      -2.562  -5.146   0.619  1.00  0.00     0.036 A 
ATOM     14  C   UNL     1      -3.537  -4.518  -0.156  1.00  0.00     0.043 A 
ATOM     15  Cl  UNL     1      -5.199  -4.697   0.242  1.00  0.00    -0.084 Cl
BRANCH   9  16
ATOM     16  N   UNL     1       0.528  -3.818  -0.970  1.00  0.00    -0.320 N 
ATOM     17  C   UNL     1       1.173  -2.585  -0.926  1.00  0.00     0.256 C 
ATOM     18  O   UNL     1       2.365  -2.600  -1.248  1.00  0.00    -0.269 OA
ATOM     19  H   UNL     1       1.095  -4.582  -1.222  1.00  0.00     0.170 HD
BRANCH  17  20
ATOM     20  C   UNL     1       0.526  -1.351  -0.407  1.00  0.00     0.054 A 
ATOM     21  C   UNL     1      -2.566   0.680   0.427  1.00  0.00     0.056 C 
ATOM     22  C   UNL     1      -1.192   0.146   0.213  1.00  0.00     0.003 A 
ATOM     23  C   UNL     1      -0.797  -1.170   0.133  1.00  0.00     0.029 A 
ATOM     24  S   UNL     1       0.137   1.182   0.034  1.00  0.00    -0.145 S 
ATOM     25  C   UNL     1       1.202  -0.133  -0.280  1.00  0.00     0.014 A 
ATOM     26  C   UNL     1       2.658   0.190  -0.414  1.00  0.00     0.057 C 
ENDBRANCH  17  20
ENDBRANCH   9  16
ENDBRANCH   5   8
ENDBRANCH   3   4
ENDBRANCH   2   3
ENDBRANCH   1   2
BRANCH   1  27
ATOM     27  C   UNL     1       4.547  -5.719   1.728  1.00  0.00     0.002 C 
BRANCH  27  28
ATOM     28  C   UNL     1       5.167  -4.733   0.737  1.00  0.00     0.021 C 
BRANCH  28  29
ATOM     29  C   UNL     1       6.047  -3.634   1.317  1.00  0.00     0.116 C 
BRANCH  29  30
ATOM     30  N   UNL     1       7.208  -4.134   2.034  1.00  0.00    -0.352 N 
ATOM     31  C   UNL     1       8.527  -3.762   1.923  1.00  0.00     0.251 C 
ATOM     32  H   UNL     1       7.024  -4.841   2.695  1.00  0.00     0.163 HD
ATOM     33  O   UNL     1       9.395  -4.359   2.555  1.00  0.00    -0.269 OA
BRANCH  31  34
ATOM     34  C   UNL     1       8.911  -2.662   1.011  1.00  0.00     0.039 A 
ATOM     35  C   UNL     1       9.975  -2.859   0.124  1.00  0.00     0.014 A 
ATOM     36  C   UNL     1       8.217  -1.450   1.014  1.00  0.00     0.014 A 
ATOM     37  C   UNL     1      10.288  -1.875  -0.817  1.00  0.00     0.010 A 
ATOM     38  C   UNL     1       8.485  -0.499   0.032  1.00  0.00     0.010 A 
ATOM     39  C   UNL     1       9.516  -0.706  -0.898  1.00  0.00    -0.014 A 
BRANCH  39  40
ATOM     40  C   UNL     1       9.746   0.315  -1.952  1.00  0.00     0.031 A 
ATOM     41  C   UNL     1      10.157   1.708  -1.571  1.00  0.00     0.074 A 
ATOM     42  C   UNL     1       9.469   0.024  -3.238  1.00  0.00     0.049 A 
ATOM     43  N   UNL     1      10.242   2.781  -2.315  1.00  0.00    -0.248 NA
ATOM     44  C   UNL     1      10.481   1.929  -0.154  1.00  0.00     0.031 C 
ATOM     45  C   UNL     1       9.018  -1.276  -3.733  1.00  0.00     0.029 A 
ATOM     46  N   UNL     1       9.494   0.818  -4.358  1.00  0.00    -0.354 N 
ATOM     47  C   UNL     1      10.598   3.810  -1.452  1.00  0.00     0.074 A 
ATOM     48  C   UNL     1      10.672   3.239  -0.124  1.00  0.00     0.031 C 
ATOM     49  C   UNL     1       8.802  -1.191  -5.055  1.00  0.00     0.029 A 
ATOM     50  C   UNL     1       9.059   0.178  -5.493  1.00  0.00     0.049 A 
ATOM     51  H   UNL     1       9.795   1.755  -4.349  1.00  0.00     0.167 HD
ATOM     52  C   UNL     1      10.850   5.109  -1.742  1.00  0.00     0.037 A 
ATOM     53  C   UNL     1       8.862   0.644  -6.740  1.00  0.00     0.037 A 
ATOM     54  C   UNL     1      10.797   5.667  -3.068  1.00  0.00     0.049 A 
ATOM     55  C   UNL     1       9.156   2.085  -7.045  1.00  0.00     0.074 A 
ATOM     56  C   UNL     1      11.108   6.952  -3.477  1.00  0.00     0.029 A 
ATOM     57  N   UNL     1      10.401   4.972  -4.202  1.00  0.00    -0.354 N 
ATOM     58  N   UNL     1       9.555   3.035  -6.234  1.00  0.00    -0.248 NA
ATOM     59  C   UNL     1       8.980   2.519  -8.438  1.00  0.00     0.031 C 
ATOM     60  C   UNL     1      10.856   7.047  -4.850  1.00  0.00     0.029 A 
ATOM     61  C   UNL     1      10.437   5.808  -5.306  1.00  0.00     0.049 A 
ATOM     62  H   UNL     1      10.133   4.025  -4.219  1.00  0.00     0.167 HD
ATOM     63  C   UNL     1       9.701   4.171  -7.020  1.00  0.00     0.074 A 
ATOM     64  C   UNL     1       9.354   3.790  -8.374  1.00  0.00     0.031 C 
ATOM     65  C   UNL     1      10.092   5.415  -6.650  1.00  0.00     0.037 A 
BRANCH  52  66
ATOM     66  C   UNL     1      11.190   6.013  -0.593  1.00  0.00     0.057 A 
ATOM     67  C   UNL     1      12.393   5.896   0.116  1.00  0.00     0.134 A 
ATOM     68  C   UNL     1      10.298   7.014  -0.185  1.00  0.00     0.134 A 
ATOM     69  F   UNL     1      13.287   4.951  -0.215  1.00  0.00    -0.206 F 
ATOM     70  C   UNL     1      12.679   6.710   1.213  1.00  0.00     0.040 A 
ATOM     71  C   UNL     1      10.586   7.855   0.891  1.00  0.00     0.040 A 
ATOM     72  F   UNL     1       9.131   7.189  -0.823  1.00  0.00    -0.206 F 
ATOM     73  C   UNL     1      11.774   7.696   1.601  1.00  0.00     0.006 A 
ENDBRANCH  52  66
BRANCH  53  74
ATOM     74  C   UNL     1       8.367  -0.277  -7.793  1.00  0.00     0.057 A 
ATOM     75  C   UNL     1       9.218  -0.745  -8.800  1.00  0.00     0.134 A 
ATOM     76  C   UNL     1       7.046  -0.740  -7.795  1.00  0.00     0.134 A 
ATOM     77  F   UNL     1      10.489  -0.322  -8.860  1.00  0.00    -0.206 F 
ATOM     78  C   UNL     1       8.773  -1.640  -9.774  1.00  0.00     0.040 A 
ATOM     79  C   UNL     1       6.593  -1.652  -8.749  1.00  0.00     0.040 A 
ATOM     80  F   UNL     1       6.185  -0.334  -6.851  1.00  0.00    -0.206 F 
ATOM     81  C   UNL     1       7.458  -2.102  -9.745  1.00  0.00     0.006 A 
ENDBRANCH  53  74
BRANCH  65  82
ATOM     82  C   UNL     1      10.203   6.452  -7.729  1.00  0.00     0.057 A 
ATOM     83  C   UNL     1       9.073   7.038  -8.313  1.00  0.00     0.134 A 
ATOM     84  C   UNL     1      11.459   6.910  -8.148  1.00  0.00     0.134 A 
ATOM     85  F   UNL     1       7.842   6.635  -7.966  1.00  0.00    -0.206 F 
ATOM     86  C   UNL     1       9.189   8.032  -9.287  1.00  0.00     0.040 A 
ATOM     87  C   UNL     1      11.588   7.920  -9.103  1.00  0.00     0.040 A 
ATOM     88  F   UNL     1      12.581   6.395  -7.623  1.00  0.00    -0.206 F 
ATOM     89  C   UNL     1      10.450   8.481  -9.678  1.00  0.00     0.006 A 
ENDBRANCH  65  82
ENDBRANCH  39  40
ENDBRANCH  31  34
ENDBRANCH  29  30
ENDBRANCH  28  29
ENDBRANCH  27  28
ENDBRANCH   1  27
TORSDOF 15
