REMARK SMILES Cc1c(Br)c(C(=O)NCCCCCCNC(=O)c2ccc(-c3c4nc(c(-c5c(F)cccc5F)c5ccc([nH]5)c(-c5c(F)cccc5F)c5nc(c(-c6c(F)cccc6F)c6ccc3[nH]6)C=C5)C=C4)cc2)nn1CC(F)(F)F
REMARK SMILES IDX 11 1 10 2 9 3 8 4 6 5 7 6 5 8 1 9 2 10 3 11 73 12 4 13 72 14
REMARK SMILES IDX 74 15 75 16 76 17 77 18 78 19 12 20 13 21 14 22 15 23 16 24
REMARK SMILES IDX 17 26 18 27 19 28 71 29 20 30 70 31 21 32 22 33 23 34 64 35
REMARK SMILES IDX 24 36 69 37 63 38 65 39 25 40 68 41 62 42 61 43 26 45 52 46
REMARK SMILES IDX 35 47 51 48 36 49 39 50 50 51 66 52 37 53 38 54 49 56 67 57
REMARK SMILES IDX 40 58 27 59 28 60 33 61 29 62 30 63 32 64 34 65 31 66 53 67
REMARK SMILES IDX 54 68 59 69 55 70 56 71 58 72 60 73 57 74 41 75 42 76 47 77
REMARK SMILES IDX 43 78 44 79 46 80 48 81 45 82
REMARK H PARENT 8 7 15 25 65 44 39 55
REMARK Flexibility Score: inf
ROOT
ATOM      1  C   UNL     1      -0.545   2.679  -8.405  1.00  0.00     0.002 C 
ENDROOT
BRANCH   1   2
ATOM      2  C   UNL     1       0.080   2.768  -7.012  1.00  0.00     0.021 C 
BRANCH   2   3
ATOM      3  C   UNL     1      -0.812   2.289  -5.870  1.00  0.00     0.116 C 
BRANCH   3   4
ATOM      4  N   UNL     1      -0.995   0.848  -5.875  1.00  0.00    -0.351 N 
ATOM      5  C   UNL     1      -0.812  -0.105  -4.890  1.00  0.00     0.272 C 
ATOM      6  O   UNL     1      -1.066  -1.268  -5.207  1.00  0.00    -0.267 OA
ATOM      7  H   UNL     1      -1.306   0.484  -6.735  1.00  0.00     0.163 HD
BRANCH   5   8
ATOM      8  C   UNL     1      -0.326   0.258  -3.542  1.00  0.00     0.164 A 
ATOM      9  C   UNL     1       1.007  -0.108  -0.087  1.00  0.00     0.067 C 
ATOM     10  C   UNL     1       0.497   0.213  -1.442  1.00  0.00     0.051 A 
ATOM     11  C   UNL     1       0.078  -0.597  -2.480  1.00  0.00     0.072 A 
ATOM     12  N   UNL     1       0.384   1.484  -1.937  1.00  0.00    -0.259 N 
ATOM     13  Br  UNL     1       0.065  -2.474  -2.485  1.00  0.00    -0.046 Br
ATOM     14  N   UNL     1      -0.231   1.531  -3.121  1.00  0.00    -0.166 NA
BRANCH  12  15
ATOM     15  C   UNL     1       0.769   2.744  -1.339  1.00  0.00     0.259 C 
BRANCH  15  16
ATOM     16  C   UNL     1       1.871   3.421  -2.115  1.00  0.00     0.408 C 
ATOM     17  F   UNL     1       1.514   3.785  -3.364  1.00  0.00    -0.169 F 
ATOM     18  F   UNL     1       2.243   4.559  -1.473  1.00  0.00    -0.169 F 
ATOM     19  F   UNL     1       2.977   2.647  -2.201  1.00  0.00    -0.169 F 
ENDBRANCH  15  16
ENDBRANCH  12  15
ENDBRANCH   5   8
ENDBRANCH   3   4
ENDBRANCH   2   3
ENDBRANCH   1   2
BRANCH   1  20
ATOM     20  C   UNL     1      -1.926   3.333  -8.581  1.00  0.00     0.002 C 
BRANCH  20  21
ATOM     21  C   UNL     1      -2.097   4.781  -8.093  1.00  0.00     0.021 C 
BRANCH  21  22
ATOM     22  C   UNL     1      -1.215   5.794  -8.801  1.00  0.00     0.116 C 
BRANCH  22  23
ATOM     23  N   UNL     1      -1.530   5.958 -10.228  1.00  0.00    -0.352 N 
ATOM     24  C   UNL     1      -0.877   6.731 -11.182  1.00  0.00     0.251 C 
ATOM     25  H   UNL     1      -2.310   5.452 -10.552  1.00  0.00     0.163 HD
ATOM     26  O   UNL     1      -1.432   7.071 -12.215  1.00  0.00    -0.269 OA
BRANCH  24  27
ATOM     27  C   UNL     1       0.522   7.119 -10.925  1.00  0.00     0.039 A 
ATOM     28  C   UNL     1       1.081   8.341 -11.309  1.00  0.00     0.014 A 
ATOM     29  C   UNL     1       1.274   6.204 -10.210  1.00  0.00     0.014 A 
ATOM     30  C   UNL     1       2.390   8.620 -10.912  1.00  0.00     0.010 A 
ATOM     31  C   UNL     1       2.362   6.636  -9.526  1.00  0.00     0.010 A 
ATOM     32  C   UNL     1       3.019   7.744 -10.013  1.00  0.00    -0.014 A 
BRANCH  32  33
ATOM     33  C   UNL     1       4.364   7.936  -9.497  1.00  0.00     0.031 A 
ATOM     34  C   UNL     1       4.527   9.203  -8.758  1.00  0.00     0.074 A 
ATOM     35  C   UNL     1       5.273   6.932  -9.454  1.00  0.00     0.049 A 
ATOM     36  N   UNL     1       5.115  10.275  -9.166  1.00  0.00    -0.248 NA
ATOM     37  C   UNL     1       3.791   9.367  -7.494  1.00  0.00     0.031 C 
ATOM     38  C   UNL     1       5.078   5.513  -9.809  1.00  0.00     0.029 A 
ATOM     39  N   UNL     1       6.552   6.939  -8.980  1.00  0.00    -0.354 N 
ATOM     40  C   UNL     1       5.069  11.145  -8.082  1.00  0.00     0.074 A 
ATOM     41  C   UNL     1       4.040  10.649  -7.211  1.00  0.00     0.031 C 
ATOM     42  C   UNL     1       6.098   4.771  -9.328  1.00  0.00     0.029 A 
ATOM     43  C   UNL     1       7.109   5.673  -8.815  1.00  0.00     0.049 A 
ATOM     44  H   UNL     1       7.040   7.769  -8.773  1.00  0.00     0.167 HD
ATOM     45  C   UNL     1       6.123  11.969  -7.828  1.00  0.00     0.037 A 
ATOM     46  C   UNL     1       8.330   5.386  -8.303  1.00  0.00     0.037 A 
ATOM     47  C   UNL     1       7.051  11.952  -8.934  1.00  0.00     0.049 A 
ATOM     48  C   UNL     1       9.153   6.608  -8.424  1.00  0.00     0.074 A 
ATOM     49  C   UNL     1       7.110  12.474 -10.206  1.00  0.00     0.029 A 
ATOM     50  N   UNL     1       7.944  10.914  -8.873  1.00  0.00    -0.354 N 
ATOM     51  N   UNL     1       9.509   7.120  -9.570  1.00  0.00    -0.248 NA
ATOM     52  C   UNL     1       9.278   7.499  -7.276  1.00  0.00     0.031 C 
ATOM     53  C   UNL     1       7.969  11.610 -10.952  1.00  0.00     0.029 A 
ATOM     54  C   UNL     1       8.448  10.610 -10.108  1.00  0.00     0.049 A 
ATOM     55  H   UNL     1       8.193  10.445  -8.044  1.00  0.00     0.167 HD
ATOM     56  C   UNL     1       9.482   8.484  -9.358  1.00  0.00     0.074 A 
ATOM     57  C   UNL     1       9.514   8.651  -7.910  1.00  0.00     0.031 C 
ATOM     58  C   UNL     1       9.091   9.337 -10.349  1.00  0.00     0.037 A 
BRANCH  45  59
ATOM     59  C   UNL     1       6.602  12.370  -6.450  1.00  0.00     0.057 A 
ATOM     60  C   UNL     1       7.613  13.343  -6.345  1.00  0.00     0.134 A 
ATOM     61  C   UNL     1       6.350  11.644  -5.267  1.00  0.00     0.134 A 
ATOM     62  F   UNL     1       7.960  14.090  -7.405  1.00  0.00    -0.206 F 
ATOM     63  C   UNL     1       8.358  13.532  -5.174  1.00  0.00     0.040 A 
ATOM     64  C   UNL     1       7.054  11.860  -4.079  1.00  0.00     0.040 A 
ATOM     65  F   UNL     1       5.493  10.619  -5.217  1.00  0.00    -0.206 F 
ATOM     66  C   UNL     1       8.083  12.785  -4.036  1.00  0.00     0.006 A 
ENDBRANCH  45  59
BRANCH  46  67
ATOM     67  C   UNL     1       8.751   4.223  -7.493  1.00  0.00     0.057 A 
ATOM     68  C   UNL     1      10.100   3.862  -7.372  1.00  0.00     0.134 A 
ATOM     69  C   UNL     1       7.865   3.625  -6.580  1.00  0.00     0.134 A 
ATOM     70  F   UNL     1      11.023   4.405  -8.179  1.00  0.00    -0.206 F 
ATOM     71  C   UNL     1      10.549   2.986  -6.374  1.00  0.00     0.040 A 
ATOM     72  C   UNL     1       8.300   2.750  -5.580  1.00  0.00     0.040 A 
ATOM     73  F   UNL     1       6.563   3.949  -6.574  1.00  0.00    -0.206 F 
ATOM     74  C   UNL     1       9.650   2.441  -5.463  1.00  0.00     0.006 A 
ENDBRANCH  46  67
BRANCH  58  75
ATOM     75  C   UNL     1       9.191   8.848 -11.761  1.00  0.00     0.057 A 
ATOM     76  C   UNL     1       8.387   7.845 -12.319  1.00  0.00     0.134 A 
ATOM     77  C   UNL     1      10.099   9.481 -12.615  1.00  0.00     0.134 A 
ATOM     78  F   UNL     1       7.443   7.231 -11.597  1.00  0.00    -0.206 F 
ATOM     79  C   UNL     1       8.508   7.467 -13.660  1.00  0.00     0.040 A 
ATOM     80  C   UNL     1      10.209   9.136 -13.962  1.00  0.00     0.040 A 
ATOM     81  F   UNL     1      10.873  10.477 -12.156  1.00  0.00    -0.206 F 
ATOM     82  C   UNL     1       9.419   8.118 -14.487  1.00  0.00     0.006 A 
ENDBRANCH  58  75
ENDBRANCH  32  33
ENDBRANCH  24  27
ENDBRANCH  22  23
ENDBRANCH  21  22
ENDBRANCH  20  21
ENDBRANCH   1  20
TORSDOF 15
