REMARK SMILES COc1ccc(/C=C2/C(=O)N(c3ccccc3)C(=O)[NH+]=C2NCCCCCCNC(=O)c2ccc(-c3c4nc(c(-c5c(F)cccc5F)c5ccc([nH]5)c(-c5c(F)cccc5F)c5nc(c(-c6c(F)cccc6F)c6ccc3[nH]6)C=C5)C=C4)cc2)cc1C(=O)[O-]
REMARK SMILES IDX 26 1 25 2 24 3 23 4 22 5 7 6 8 7 9 8 21 9 10 10 11 11 20 12
REMARK SMILES IDX 18 13 19 16 6 17 3 18 4 19 87 20 5 21 86 22 2 23 1 24 88 25
REMARK SMILES IDX 89 26 90 27 12 28 13 29 17 30 14 31 16 32 15 33 27 34 28 35
REMARK SMILES IDX 29 36 30 37 31 39 32 40 33 41 85 42 34 43 84 44 35 45 36 46
REMARK SMILES IDX 37 47 78 48 38 49 83 50 77 51 79 52 39 53 82 54 76 55 75 56
REMARK SMILES IDX 40 58 66 59 49 60 65 61 50 62 53 63 64 64 80 65 51 66 52 67
REMARK SMILES IDX 63 69 81 70 54 71 41 72 42 73 47 74 43 75 44 76 46 77 48 78
REMARK SMILES IDX 45 79 67 80 68 81 73 82 69 83 70 84 72 85 74 86 71 87 55 88
REMARK SMILES IDX 56 89 61 90 57 91 58 92 60 93 62 94 59 95
REMARK H PARENT 20 14 22 15 29 38 79 57 53 68
REMARK Flexibility Score: inf
ROOT
ATOM      1  C   UNL     1      -2.495  -2.893  -0.592  1.00  0.00     0.002 C 
ENDROOT
BRANCH   1   2
ATOM      2  C   UNL     1      -2.884  -2.167  -1.874  1.00  0.00     0.003 C 
BRANCH   2   3
ATOM      3  C   UNL     1      -2.092  -2.405  -3.165  1.00  0.00     0.037 C 
BRANCH   3   4
ATOM      4  C   UNL     1      -1.298  -3.716  -3.370  1.00  0.00     0.194 C 
BRANCH   4   5
ATOM      5  N   UNL     1      -1.286  -3.999  -4.779  1.00  0.00    -0.305 N 
ATOM      6  C   UNL     1       2.048  -3.499  -5.519  1.00  0.00     0.030 C 
ATOM      7  C   UNL     1       1.003  -4.089  -6.154  1.00  0.00     0.129 C 
ATOM      8  C   UNL     1       1.430  -4.719  -7.478  1.00  0.00     0.328 C 
ATOM      9  C   UNL     1      -0.465  -4.177  -5.858  1.00  0.00     0.236 C 
ATOM     10  O   UNL     1       2.627  -4.926  -7.699  1.00  0.00    -0.249 OA
ATOM     11  N   UNL     1       0.420  -4.960  -8.405  1.00  0.00    -0.155 N 
ATOM     12  N   UNL     1      -1.287  -4.523  -6.813  1.00  0.00    -0.209 N 
ATOM     13  C   UNL     1      -0.929  -4.844  -8.082  1.00  0.00     0.448 C 
ATOM     14  H   UNL     1      -2.246  -4.554  -6.593  1.00  0.00     0.270 HD
ATOM     15  H   UNL     1      -2.217  -4.105  -5.080  1.00  0.00     0.256 HD
ATOM     16  O   UNL     1      -1.838  -5.088  -8.871  1.00  0.00    -0.212 OA
BRANCH   6  17
ATOM     17  C   UNL     1       2.185  -2.680  -4.307  1.00  0.00    -0.024 A 
ATOM     18  C   UNL     1       2.378  -1.251  -1.888  1.00  0.00     0.127 A 
ATOM     19  C   UNL     1       1.217  -1.211  -2.653  1.00  0.00     0.048 A 
ATOM     20  C   UNL     1       3.508  -1.886  -2.401  1.00  0.00     0.040 A 
ATOM     21  C   UNL     1       1.158  -1.855  -3.888  1.00  0.00     0.012 A 
ATOM     22  C   UNL     1       3.404  -2.612  -3.605  1.00  0.00     0.022 A 
BRANCH  18  23
ATOM     23  O   UNL     1       2.353  -0.727  -0.628  1.00  0.00    -0.496 OA
ATOM     24  C   UNL     1       2.240   0.689  -0.644  1.00  0.00     0.278 C 
ENDBRANCH  18  23
BRANCH  20  25
ATOM     25  C   UNL     1       4.852  -1.693  -1.811  1.00  0.00     0.075 C 
ATOM     26  O   UNL     1       5.871  -1.546  -2.459  1.00  0.00    -0.545 OA
ATOM     27  O   UNL     1       4.864  -1.672  -0.469  1.00  0.00    -0.545 OA
ENDBRANCH  20  25
ENDBRANCH   6  17
BRANCH  11  28
ATOM     28  C   UNL     1       0.750  -5.405  -9.742  1.00  0.00     0.111 A 
ATOM     29  C   UNL     1       0.048  -4.910 -10.857  1.00  0.00     0.044 A 
ATOM     30  C   UNL     1       1.734  -6.378  -9.970  1.00  0.00     0.044 A 
ATOM     31  C   UNL     1       0.293  -5.391 -12.146  1.00  0.00     0.004 A 
ATOM     32  C   UNL     1       1.973  -6.868 -11.261  1.00  0.00     0.004 A 
ATOM     33  C   UNL     1       1.250  -6.379 -12.346  1.00  0.00     0.000 A 
ENDBRANCH  11  28
ENDBRANCH   4   5
ENDBRANCH   3   4
ENDBRANCH   2   3
ENDBRANCH   1   2
BRANCH   1  34
ATOM     34  C   UNL     1      -1.206  -2.454   0.105  1.00  0.00     0.021 C 
BRANCH  34  35
ATOM     35  C   UNL     1      -1.096  -0.977   0.494  1.00  0.00     0.116 C 
BRANCH  35  36
ATOM     36  N   UNL     1      -2.179  -0.522   1.351  1.00  0.00    -0.352 N 
ATOM     37  C   UNL     1      -2.142   0.149   2.548  1.00  0.00     0.251 C 
ATOM     38  H   UNL     1      -3.083  -0.728   1.019  1.00  0.00     0.163 HD
ATOM     39  O   UNL     1      -3.183   0.334   3.174  1.00  0.00    -0.269 OA
BRANCH  37  40
ATOM     40  C   UNL     1      -0.866   0.651   3.108  1.00  0.00     0.039 A 
ATOM     41  C   UNL     1      -0.596   0.434   4.463  1.00  0.00     0.014 A 
ATOM     42  C   UNL     1       0.024   1.401   2.338  1.00  0.00     0.014 A 
ATOM     43  C   UNL     1       0.585   0.926   5.032  1.00  0.00     0.010 A 
ATOM     44  C   UNL     1       1.225   1.852   2.898  1.00  0.00     0.010 A 
ATOM     45  C   UNL     1       1.521   1.623   4.251  1.00  0.00    -0.014 A 
BRANCH  45  46
ATOM     46  C   UNL     1       2.794   2.123   4.846  1.00  0.00     0.031 A 
ATOM     47  C   UNL     1       3.077   3.602   4.929  1.00  0.00     0.074 A 
ATOM     48  C   UNL     1       3.719   1.250   5.293  1.00  0.00     0.049 A 
ATOM     49  N   UNL     1       4.130   4.218   5.409  1.00  0.00    -0.248 NA
ATOM     50  C   UNL     1       2.054   4.506   4.382  1.00  0.00     0.031 C 
ATOM     51  C   UNL     1       3.605  -0.207   5.236  1.00  0.00     0.029 A 
ATOM     52  N   UNL     1       4.940   1.464   5.887  1.00  0.00    -0.354 N 
ATOM     53  C   UNL     1       3.898   5.574   5.218  1.00  0.00     0.074 A 
ATOM     54  C   UNL     1       2.633   5.689   4.524  1.00  0.00     0.031 C 
ATOM     55  C   UNL     1       4.692  -0.756   5.802  1.00  0.00     0.029 A 
ATOM     56  C   UNL     1       5.596   0.306   6.233  1.00  0.00     0.049 A 
ATOM     57  H   UNL     1       5.310   2.361   6.050  1.00  0.00     0.167 HD
ATOM     58  C   UNL     1       4.652   6.632   5.606  1.00  0.00     0.037 A 
ATOM     59  C   UNL     1       6.789   0.119   6.831  1.00  0.00     0.037 A 
ATOM     60  C   UNL     1       5.900   6.530   6.318  1.00  0.00     0.049 A 
ATOM     61  C   UNL     1       7.612   1.309   7.244  1.00  0.00     0.074 A 
ATOM     62  C   UNL     1       6.705   7.551   6.796  1.00  0.00     0.029 A 
ATOM     63  N   UNL     1       6.525   5.340   6.654  1.00  0.00    -0.354 N 
ATOM     64  N   UNL     1       7.344   2.586   7.117  1.00  0.00    -0.248 NA
ATOM     65  C   UNL     1       8.903   1.030   7.891  1.00  0.00     0.031 C 
ATOM     66  C   UNL     1       7.838   6.979   7.384  1.00  0.00     0.029 A 
ATOM     67  C   UNL     1       7.715   5.601   7.315  1.00  0.00     0.049 A 
ATOM     68  H   UNL     1       6.176   4.442   6.452  1.00  0.00     0.167 HD
ATOM     69  C   UNL     1       8.413   3.258   7.698  1.00  0.00     0.074 A 
ATOM     70  C   UNL     1       9.328   2.250   8.188  1.00  0.00     0.031 C 
ATOM     71  C   UNL     1       8.615   4.593   7.814  1.00  0.00     0.037 A 
BRANCH  58  72
ATOM     72  C   UNL     1       4.137   8.005   5.279  1.00  0.00     0.057 A 
ATOM     73  C   UNL     1       3.018   8.546   5.925  1.00  0.00     0.134 A 
ATOM     74  C   UNL     1       4.792   8.812   4.339  1.00  0.00     0.134 A 
ATOM     75  F   UNL     1       2.340   7.823   6.830  1.00  0.00    -0.206 F 
ATOM     76  C   UNL     1       2.551   9.828   5.628  1.00  0.00     0.040 A 
ATOM     77  C   UNL     1       4.351  10.106   4.054  1.00  0.00     0.040 A 
ATOM     78  F   UNL     1       5.876   8.361   3.690  1.00  0.00    -0.206 F 
ATOM     79  C   UNL     1       3.223  10.614   4.695  1.00  0.00     0.006 A 
ENDBRANCH  58  72
BRANCH  59  80
ATOM     80  C   UNL     1       7.277  -1.257   7.107  1.00  0.00     0.057 A 
ATOM     81  C   UNL     1       7.369  -1.741   8.418  1.00  0.00     0.134 A 
ATOM     82  C   UNL     1       7.691  -2.108   6.076  1.00  0.00     0.134 A 
ATOM     83  F   UNL     1       7.009  -0.964   9.451  1.00  0.00    -0.206 F 
ATOM     84  C   UNL     1       7.877  -3.011   8.696  1.00  0.00     0.040 A 
ATOM     85  C   UNL     1       8.175  -3.390   6.337  1.00  0.00     0.040 A 
ATOM     86  F   UNL     1       7.624  -1.705   4.798  1.00  0.00    -0.206 F 
ATOM     87  C   UNL     1       8.278  -3.841   7.651  1.00  0.00     0.006 A 
ENDBRANCH  59  80
BRANCH  71  88
ATOM     88  C   UNL     1       9.850   5.046   8.539  1.00  0.00     0.057 A 
ATOM     89  C   UNL     1      11.128   4.918   7.980  1.00  0.00     0.134 A 
ATOM     90  C   UNL     1       9.755   5.649   9.800  1.00  0.00     0.134 A 
ATOM     91  F   UNL     1      11.291   4.338   6.781  1.00  0.00    -0.206 F 
ATOM     92  C   UNL     1      12.268   5.351   8.660  1.00  0.00     0.040 A 
ATOM     93  C   UNL     1      10.884   6.110  10.477  1.00  0.00     0.040 A 
ATOM     94  F   UNL     1       8.560   5.810  10.390  1.00  0.00    -0.206 F 
ATOM     95  C   UNL     1      12.147   5.956   9.910  1.00  0.00     0.006 A 
ENDBRANCH  71  88
ENDBRANCH  45  46
ENDBRANCH  37  40
ENDBRANCH  35  36
ENDBRANCH  34  35
ENDBRANCH   1  34
TORSDOF 16
