REMARK SMILES COc1cccc(N(CC(=O)NCCCCCCNC(=O)c2ccc(-c3c4nc(c(-c5c(F)cccc5F)c5ccc([nH]5)c(-c5c(F)cccc5F)c5nc(c(-c6c(F)cccc6F)c6ccc3[nH]6)C=C5)C=C4)cc2)S(=O)(=O)c2ccc(C)cc2)c1
REMARK SMILES IDX 15 1 14 2 13 3 12 4 10 5 11 6 9 8 8 9 7 10 3 11 4 12 86 13
REMARK SMILES IDX 5 14 6 15 2 16 1 17 76 18 77 19 78 20 79 21 80 22 85 23
REMARK SMILES IDX 81 24 84 25 82 26 83 27 16 28 17 29 18 30 19 31 20 32 21 34
REMARK SMILES IDX 22 35 23 36 75 37 24 38 74 39 25 40 26 41 27 42 68 43 28 44
REMARK SMILES IDX 73 45 67 46 69 47 29 48 72 49 66 50 65 51 30 53 56 54 39 55
REMARK SMILES IDX 55 56 40 57 43 58 54 59 70 60 41 61 42 62 53 64 71 65 44 66
REMARK SMILES IDX 31 67 32 68 37 69 33 70 34 71 36 72 38 73 35 74 57 75 58 76
REMARK SMILES IDX 63 77 59 78 60 79 62 80 64 81 61 82 45 83 46 84 51 85 47 86
REMARK SMILES IDX 48 87 50 88 52 89 49 90
REMARK H PARENT 12 7 19 33 69 52 43 63
REMARK Flexibility Score: inf
ROOT
ATOM      1  C   UNL     1       3.110   4.026  -5.157  1.00  0.00     0.002 C 
ENDROOT
BRANCH   1   2
ATOM      2  C   UNL     1       2.764   2.589  -4.750  1.00  0.00     0.021 C 
BRANCH   2   3
ATOM      3  C   UNL     1       2.816   1.599  -5.909  1.00  0.00     0.116 C 
BRANCH   3   4
ATOM      4  N   UNL     1       4.172   1.345  -6.349  1.00  0.00    -0.355 N 
ATOM      5  C   UNL     1       4.923   0.211  -6.234  1.00  0.00     0.240 C 
ATOM      6  O   UNL     1       6.011   0.185  -6.814  1.00  0.00    -0.273 OA
ATOM      7  H   UNL     1       4.617   2.101  -6.797  1.00  0.00     0.163 HD
BRANCH   5   8
ATOM      8  C   UNL     1       4.394  -1.013  -5.496  1.00  0.00     0.235 C 
BRANCH   8   9
ATOM      9  N   UNL     1       3.902  -0.716  -4.128  1.00  0.00    -0.257 N 
BRANCH   9  10
ATOM     10  C   UNL     1       2.544  -1.120  -3.705  1.00  0.00     0.056 A 
ATOM     11  C   UNL     1       0.729  -1.057  -2.047  1.00  0.00     0.120 A 
ATOM     12  C   UNL     1      -0.165  -1.566  -2.982  1.00  0.00     0.046 A 
ATOM     13  C   UNL     1       2.064  -0.835  -2.413  1.00  0.00     0.073 A 
ATOM     14  C   UNL     1       0.268  -1.848  -4.269  1.00  0.00     0.006 A 
ATOM     15  C   UNL     1       1.606  -1.632  -4.621  1.00  0.00     0.027 A 
BRANCH  11  16
ATOM     16  O   UNL     1       0.192  -0.832  -0.809  1.00  0.00    -0.497 OA
ATOM     17  C   UNL     1       0.886   0.085   0.029  1.00  0.00     0.278 C 
ENDBRANCH  11  16
ENDBRANCH   9  10
BRANCH   9  18
ATOM     18  S   UNL     1       5.086  -0.535  -2.891  1.00  0.00     0.264 S 
ATOM     19  O   UNL     1       4.782   0.694  -2.178  1.00  0.00    -0.201 OA
ATOM     20  O   UNL     1       5.155  -1.788  -2.165  1.00  0.00    -0.201 OA
BRANCH  18  21
ATOM     21  C   UNL     1       6.676  -0.302  -3.650  1.00  0.00     0.088 A 
ATOM     22  C   UNL     1       7.476  -1.421  -3.905  1.00  0.00     0.022 A 
ATOM     23  C   UNL     1       7.172   0.987  -3.864  1.00  0.00     0.022 A 
ATOM     24  C   UNL     1       8.756  -1.250  -4.432  1.00  0.00     0.005 A 
ATOM     25  C   UNL     1       8.457   1.150  -4.390  1.00  0.00     0.005 A 
ATOM     26  C   UNL     1       9.254   0.035  -4.684  1.00  0.00    -0.051 A 
ATOM     27  C   UNL     1      10.633   0.198  -5.252  1.00  0.00     0.044 C 
ENDBRANCH  18  21
ENDBRANCH   9  18
ENDBRANCH   8   9
ENDBRANCH   5   8
ENDBRANCH   3   4
ENDBRANCH   2   3
ENDBRANCH   1   2
BRANCH   1  28
ATOM     28  C   UNL     1       2.226   4.614  -6.263  1.00  0.00     0.002 C 
BRANCH  28  29
ATOM     29  C   UNL     1       0.723   4.581  -5.974  1.00  0.00     0.021 C 
BRANCH  29  30
ATOM     30  C   UNL     1       0.307   5.342  -4.720  1.00  0.00     0.116 C 
BRANCH  30  31
ATOM     31  N   UNL     1       0.607   6.762  -4.823  1.00  0.00    -0.352 N 
ATOM     32  C   UNL     1      -0.226   7.842  -4.675  1.00  0.00     0.251 C 
ATOM     33  H   UNL     1       1.545   6.980  -5.028  1.00  0.00     0.163 HD
ATOM     34  O   UNL     1       0.149   8.962  -5.006  1.00  0.00    -0.269 OA
BRANCH  32  35
ATOM     35  C   UNL     1      -1.585   7.650  -4.130  1.00  0.00     0.039 A 
ATOM     36  C   UNL     1      -2.657   8.309  -4.737  1.00  0.00     0.014 A 
ATOM     37  C   UNL     1      -1.800   6.832  -3.017  1.00  0.00     0.014 A 
ATOM     38  C   UNL     1      -3.953   8.102  -4.262  1.00  0.00     0.010 A 
ATOM     39  C   UNL     1      -3.098   6.566  -2.595  1.00  0.00     0.010 A 
ATOM     40  C   UNL     1      -4.187   7.205  -3.207  1.00  0.00    -0.014 A 
BRANCH  40  41
ATOM     41  C   UNL     1      -5.564   6.923  -2.732  1.00  0.00     0.031 A 
ATOM     42  C   UNL     1      -5.970   7.279  -1.329  1.00  0.00     0.074 A 
ATOM     43  C   UNL     1      -6.428   6.283  -3.542  1.00  0.00     0.049 A 
ATOM     44  N   UNL     1      -7.106   7.064  -0.717  1.00  0.00    -0.248 NA
ATOM     45  C   UNL     1      -4.952   7.936  -0.495  1.00  0.00     0.031 C 
ATOM     46  C   UNL     1      -6.135   5.834  -4.904  1.00  0.00     0.029 A 
ATOM     47  N   UNL     1      -7.724   5.887  -3.332  1.00  0.00    -0.354 N 
ATOM     48  C   UNL     1      -6.936   7.545   0.574  1.00  0.00     0.074 A 
ATOM     49  C   UNL     1      -5.568   8.007   0.675  1.00  0.00     0.031 C 
ATOM     50  C   UNL     1      -7.226   5.243  -5.414  1.00  0.00     0.029 A 
ATOM     51  C   UNL     1      -8.281   5.237  -4.405  1.00  0.00     0.049 A 
ATOM     52  H   UNL     1      -8.210   6.053  -2.491  1.00  0.00     0.167 HD
ATOM     53  C   UNL     1      -7.843   7.618   1.578  1.00  0.00     0.037 A 
ATOM     54  C   UNL     1      -9.501   4.689  -4.558  1.00  0.00     0.037 A 
ATOM     55  C   UNL     1      -9.206   7.166   1.469  1.00  0.00     0.049 A 
ATOM     56  C   UNL     1     -10.492   4.776  -3.432  1.00  0.00     0.074 A 
ATOM     57  C   UNL     1     -10.222   7.255   2.403  1.00  0.00     0.029 A 
ATOM     58  N   UNL     1      -9.739   6.528   0.358  1.00  0.00    -0.354 N 
ATOM     59  N   UNL     1     -10.345   5.307  -2.242  1.00  0.00    -0.248 NA
ATOM     60  C   UNL     1     -11.820   4.196  -3.673  1.00  0.00     0.031 C 
ATOM     61  C   UNL     1     -11.354   6.621   1.879  1.00  0.00     0.029 A 
ATOM     62  C   UNL     1     -11.062   6.190   0.595  1.00  0.00     0.049 A 
ATOM     63  H   UNL     1      -9.250   6.343  -0.476  1.00  0.00     0.167 HD
ATOM     64  C   UNL     1     -11.566   5.147  -1.600  1.00  0.00     0.074 A 
ATOM     65  C   UNL     1     -12.446   4.481  -2.539  1.00  0.00     0.031 C 
ATOM     66  C   UNL     1     -11.925   5.520  -0.346  1.00  0.00     0.037 A 
BRANCH  53  67
ATOM     67  C   UNL     1      -7.375   8.198   2.884  1.00  0.00     0.057 A 
ATOM     68  C   UNL     1      -7.026   9.550   3.014  1.00  0.00     0.134 A 
ATOM     69  C   UNL     1      -7.270   7.394   4.027  1.00  0.00     0.134 A 
ATOM     70  F   UNL     1      -7.093  10.374   1.958  1.00  0.00    -0.206 F 
ATOM     71  C   UNL     1      -6.547  10.069   4.218  1.00  0.00     0.040 A 
ATOM     72  C   UNL     1      -6.824   7.910   5.245  1.00  0.00     0.040 A 
ATOM     73  F   UNL     1      -7.596   6.094   3.978  1.00  0.00    -0.206 F 
ATOM     74  C   UNL     1      -6.449   9.249   5.340  1.00  0.00     0.006 A 
ENDBRANCH  53  67
BRANCH  54  75
ATOM     75  C   UNL     1      -9.852   4.034  -5.842  1.00  0.00     0.057 A 
ATOM     76  C   UNL     1     -10.754   4.625  -6.733  1.00  0.00     0.134 A 
ATOM     77  C   UNL     1      -9.268   2.820  -6.226  1.00  0.00     0.134 A 
ATOM     78  F   UNL     1     -11.357   5.780  -6.415  1.00  0.00    -0.206 F 
ATOM     79  C   UNL     1     -11.071   4.031  -7.955  1.00  0.00     0.040 A 
ATOM     80  C   UNL     1      -9.557   2.226  -7.455  1.00  0.00     0.040 A 
ATOM     81  F   UNL     1      -8.387   2.208  -5.420  1.00  0.00    -0.206 F 
ATOM     82  C   UNL     1     -10.465   2.830  -8.322  1.00  0.00     0.006 A 
ENDBRANCH  54  75
BRANCH  66  83
ATOM     83  C   UNL     1     -13.339   5.239   0.075  1.00  0.00     0.057 A 
ATOM     84  C   UNL     1     -13.791   3.939   0.338  1.00  0.00     0.134 A 
ATOM     85  C   UNL     1     -14.250   6.288   0.258  1.00  0.00     0.134 A 
ATOM     86  F   UNL     1     -12.974   2.888   0.170  1.00  0.00    -0.206 F 
ATOM     87  C   UNL     1     -15.103   3.691   0.745  1.00  0.00     0.040 A 
ATOM     88  C   UNL     1     -15.555   6.055   0.693  1.00  0.00     0.040 A 
ATOM     89  F   UNL     1     -13.881   7.558   0.032  1.00  0.00    -0.206 F 
ATOM     90  C   UNL     1     -15.987   4.753   0.931  1.00  0.00     0.006 A 
ENDBRANCH  66  83
ENDBRANCH  40  41
ENDBRANCH  32  35
ENDBRANCH  30  31
ENDBRANCH  29  30
ENDBRANCH  28  29
ENDBRANCH   1  28
TORSDOF 18
