REMARK SMILES C[C@H](CNC(=O)Cc1ccc(F)c(F)c1)C(=O)NCCCCCCNC(=O)c1ccc(-c2c3nc(c(-c4c(F)cccc4F)c4ccc([nH]4)c(-c4c(F)cccc4F)c4nc(c(-c5c(F)cccc5F)c5ccc2[nH]5)C=C4)C=C3)cc1
REMARK SMILES IDX 20 1 19 2 18 3 16 4 17 5 2 7 1 8 3 9 4 10 5 11 6 13 7 14
REMARK SMILES IDX 8 15 9 16 15 17 10 18 13 19 11 20 14 21 12 22 21 23 22 24
REMARK SMILES IDX 23 25 24 26 25 27 26 28 27 30 28 31 29 32 81 33 30 34 80 35
REMARK SMILES IDX 31 36 32 37 33 38 74 39 34 40 79 41 73 42 75 43 35 44 78 45
REMARK SMILES IDX 72 46 71 47 36 49 62 50 45 51 61 52 46 53 49 54 60 55 76 56
REMARK SMILES IDX 47 57 48 58 59 60 77 61 50 62 37 63 38 64 43 65 39 66 40 67
REMARK SMILES IDX 42 68 44 69 41 70 63 71 64 72 69 73 65 74 66 75 68 76 70 77
REMARK SMILES IDX 67 78 51 79 52 80 57 81 53 82 54 83 56 84 58 85 55 86
REMARK H PARENT 18 6 4 12 25 29 75 48 49 59
REMARK Flexibility Score: inf
ROOT
ATOM      1  C   UNL     1      -2.156  -2.225   1.085  1.00  0.00     0.021 C 
ENDROOT
BRANCH   1   2
ATOM      2  C   UNL     1      -1.638  -2.074  -0.345  1.00  0.00     0.116 C 
BRANCH   2   3
ATOM      3  N   UNL     1      -2.023  -0.780  -0.878  1.00  0.00    -0.356 N 
ATOM      4  C   UNL     1      -1.286   0.300  -1.240  1.00  0.00     0.224 C 
ATOM      5  O   UNL     1      -1.898   1.347  -1.476  1.00  0.00    -0.275 OA
ATOM      6  H   UNL     1      -2.994  -0.666  -0.999  1.00  0.00     0.163 HD
BRANCH   4   7
ATOM      7  C   UNL     1       0.231   0.259  -1.383  1.00  0.00     0.094 C 
ATOM      8  C   UNL     1       0.698  -0.855  -2.312  1.00  0.00     0.020 C 
BRANCH   7   9
ATOM      9  C   UNL     1       1.022   0.436  -0.073  1.00  0.00     0.129 C 
BRANCH   9  10
ATOM     10  N   UNL     1       0.731  -0.513   0.985  1.00  0.00    -0.355 N 
ATOM     11  C   UNL     1       1.466  -1.506   1.558  1.00  0.00     0.224 C 
ATOM     12  H   UNL     1      -0.174  -0.420   1.363  1.00  0.00     0.163 HD
ATOM     13  O   UNL     1       0.907  -2.221   2.395  1.00  0.00    -0.275 OA
BRANCH  11  14
ATOM     14  C   UNL     1       2.930  -1.700   1.227  1.00  0.00     0.135 C 
BRANCH  14  15
ATOM     15  C   UNL     1       3.215  -2.308  -0.123  1.00  0.00    -0.036 A 
ATOM     16  C   UNL     1       3.868  -1.549  -1.109  1.00  0.00     0.007 A 
ATOM     17  C   UNL     1       2.864  -3.637  -0.411  1.00  0.00     0.046 A 
ATOM     18  C   UNL     1       4.121  -2.085  -2.373  1.00  0.00     0.043 A 
ATOM     19  C   UNL     1       3.136  -4.170  -1.671  1.00  0.00     0.159 A 
ATOM     20  C   UNL     1       3.748  -3.395  -2.648  1.00  0.00     0.158 A 
ATOM     21  F   UNL     1       2.794  -5.438  -1.937  1.00  0.00    -0.204 F 
ATOM     22  F   UNL     1       3.982  -3.900  -3.867  1.00  0.00    -0.204 F 
ENDBRANCH  14  15
ENDBRANCH  11  14
ENDBRANCH   9  10
ENDBRANCH   7   9
ENDBRANCH   4   7
ENDBRANCH   2   3
ENDBRANCH   1   2
BRANCH   1  23
ATOM     23  C   UNL     1      -3.630  -2.619   1.172  1.00  0.00     0.002 C 
BRANCH  23  24
ATOM     24  C   UNL     1      -3.941  -4.028   0.660  1.00  0.00     0.002 C 
BRANCH  24  25
ATOM     25  C   UNL     1      -3.104  -5.149   1.284  1.00  0.00     0.021 C 
BRANCH  25  26
ATOM     26  C   UNL     1      -3.086  -5.169   2.811  1.00  0.00     0.116 C 
BRANCH  26  27
ATOM     27  N   UNL     1      -4.423  -5.280   3.371  1.00  0.00    -0.352 N 
ATOM     28  C   UNL     1      -4.948  -6.228   4.210  1.00  0.00     0.251 C 
ATOM     29  H   UNL     1      -5.046  -4.564   3.108  1.00  0.00     0.163 HD
ATOM     30  O   UNL     1      -6.156  -6.264   4.417  1.00  0.00    -0.269 OA
BRANCH  28  31
ATOM     31  C   UNL     1      -4.062  -7.220   4.853  1.00  0.00     0.039 A 
ATOM     32  C   UNL     1      -4.466  -8.557   4.880  1.00  0.00     0.014 A 
ATOM     33  C   UNL     1      -2.856  -6.837   5.447  1.00  0.00     0.014 A 
ATOM     34  C   UNL     1      -3.636  -9.518   5.456  1.00  0.00     0.010 A 
ATOM     35  C   UNL     1      -1.997  -7.806   5.961  1.00  0.00     0.010 A 
ATOM     36  C   UNL     1      -2.381  -9.155   5.975  1.00  0.00    -0.014 A 
BRANCH  36  37
ATOM     37  C   UNL     1      -1.461 -10.187   6.513  1.00  0.00     0.031 A 
ATOM     38  C   UNL     1      -1.105 -10.212   7.971  1.00  0.00     0.074 A 
ATOM     39  C   UNL     1      -0.916 -11.084   5.669  1.00  0.00     0.049 A 
ATOM     40  N   UNL     1      -0.335 -11.051   8.618  1.00  0.00    -0.248 NA
ATOM     41  C   UNL     1      -1.666  -9.142   8.810  1.00  0.00     0.031 C 
ATOM     42  C   UNL     1      -1.140 -11.127   4.223  1.00  0.00     0.029 A 
ATOM     43  N   UNL     1      -0.066 -12.134   5.906  1.00  0.00    -0.354 N 
ATOM     44  C   UNL     1      -0.312 -10.606   9.934  1.00  0.00     0.074 A 
ATOM     45  C   UNL     1      -1.102  -9.394   9.982  1.00  0.00     0.031 C 
ATOM     46  C   UNL     1      -0.476 -12.174   3.707  1.00  0.00     0.029 A 
ATOM     47  C   UNL     1       0.243 -12.855   4.779  1.00  0.00     0.049 A 
ATOM     48  H   UNL     1       0.289 -12.349   6.799  1.00  0.00     0.167 HD
ATOM     49  C   UNL     1       0.294 -11.168  11.007  1.00  0.00     0.037 A 
ATOM     50  C   UNL     1       1.014 -13.947   4.628  1.00  0.00     0.037 A 
ATOM     51  C   UNL     1       1.065 -12.384  10.957  1.00  0.00     0.049 A 
ATOM     52  C   UNL     1       1.675 -14.553   5.833  1.00  0.00     0.074 A 
ATOM     53  C   UNL     1       1.654 -13.076  12.001  1.00  0.00     0.029 A 
ATOM     54  N   UNL     1       1.363 -13.083   9.797  1.00  0.00    -0.354 N 
ATOM     55  N   UNL     1       1.615 -14.173   7.087  1.00  0.00    -0.248 NA
ATOM     56  C   UNL     1       2.505 -15.743   5.602  1.00  0.00     0.031 C 
ATOM     57  C   UNL     1       2.349 -14.166  11.466  1.00  0.00     0.029 A 
ATOM     58  C   UNL     1       2.154 -14.181  10.095  1.00  0.00     0.049 A 
ATOM     59  H   UNL     1       1.057 -12.835   8.894  1.00  0.00     0.167 HD
ATOM     60  C   UNL     1       2.382 -15.088   7.797  1.00  0.00     0.074 A 
ATOM     61  C   UNL     1       2.878 -16.052   6.836  1.00  0.00     0.031 C 
ATOM     62  C   UNL     1       2.651 -15.125   9.126  1.00  0.00     0.037 A 
BRANCH  49  63
ATOM     63  C   UNL     1       0.148 -10.466  12.327  1.00  0.00     0.057 A 
ATOM     64  C   UNL     1      -1.074 -10.419  13.011  1.00  0.00     0.134 A 
ATOM     65  C   UNL     1       1.249  -9.846  12.932  1.00  0.00     0.134 A 
ATOM     66  F   UNL     1      -2.171 -10.984  12.482  1.00  0.00    -0.206 F 
ATOM     67  C   UNL     1      -1.204  -9.754  14.232  1.00  0.00     0.040 A 
ATOM     68  C   UNL     1       1.137  -9.202  14.166  1.00  0.00     0.040 A 
ATOM     69  F   UNL     1       2.451  -9.859  12.337  1.00  0.00    -0.206 F 
ATOM     70  C   UNL     1      -0.094  -9.147  14.815  1.00  0.00     0.006 A 
ENDBRANCH  49  63
BRANCH  50  71
ATOM     71  C   UNL     1       1.167 -14.563   3.287  1.00  0.00     0.057 A 
ATOM     72  C   UNL     1       0.567 -15.791   2.988  1.00  0.00     0.134 A 
ATOM     73  C   UNL     1       1.904 -13.940   2.273  1.00  0.00     0.134 A 
ATOM     74  F   UNL     1      -0.137 -16.444   3.925  1.00  0.00    -0.206 F 
ATOM     75  C   UNL     1       0.704 -16.386   1.733  1.00  0.00     0.040 A 
ATOM     76  C   UNL     1       2.030 -14.511   1.006  1.00  0.00     0.040 A 
ATOM     77  F   UNL     1       2.497 -12.758   2.495  1.00  0.00    -0.206 F 
ATOM     78  C   UNL     1       1.433 -15.742   0.735  1.00  0.00     0.006 A 
ENDBRANCH  50  71
BRANCH  62  79
ATOM     79  C   UNL     1       3.510 -16.255   9.613  1.00  0.00     0.057 A 
ATOM     80  C   UNL     1       4.882 -16.313   9.332  1.00  0.00     0.134 A 
ATOM     81  C   UNL     1       2.963 -17.290  10.382  1.00  0.00     0.134 A 
ATOM     82  F   UNL     1       5.464 -15.361   8.588  1.00  0.00    -0.206 F 
ATOM     83  C   UNL     1       5.672 -17.375   9.774  1.00  0.00     0.040 A 
ATOM     84  C   UNL     1       3.749 -18.343  10.852  1.00  0.00     0.040 A 
ATOM     85  F   UNL     1       1.659 -17.292  10.694  1.00  0.00    -0.206 F 
ATOM     86  C   UNL     1       5.106 -18.392  10.541  1.00  0.00     0.006 A 
ENDBRANCH  62  79
ENDBRANCH  36  37
ENDBRANCH  28  31
ENDBRANCH  26  27
ENDBRANCH  25  26
ENDBRANCH  24  25
ENDBRANCH  23  24
ENDBRANCH   1  23
TORSDOF 17
