REMARK SMILES CC(C)c1ccc2c(c1)c(SC(C)(C)C)c(CC(C)(C)C(=O)NCCCCCCNC(=O)c1ccc(-c3c4nc(c(-c5c(F)cccc5F)c5ccc([nH]5)c(-c5c(F)cccc5F)c5nc(c(-c6c(F)cccc6F)c6ccc3[nH]6)C=C5)C=C4)cc1)n2Cc1ccc(Cl)cc1
REMARK SMILES IDX 25 1 24 2 23 3 21 4 22 5 18 7 19 8 20 9 17 10 16 11 4 12
REMARK SMILES IDX 5 13 9 14 6 15 8 16 7 17 10 18 87 19 2 20 1 21 3 22 11 23
REMARK SMILES IDX 12 24 13 25 14 26 15 27 88 28 89 29 90 30 95 31 91 32 94 33
REMARK SMILES IDX 92 34 93 35 26 36 27 37 28 38 29 39 30 40 31 41 32 43 33 44
REMARK SMILES IDX 34 45 86 46 35 47 85 48 36 49 37 50 38 51 79 52 39 53 84 54
REMARK SMILES IDX 78 55 80 56 40 57 83 58 77 59 76 60 41 62 67 63 50 64 66 65
REMARK SMILES IDX 51 66 54 67 65 68 81 69 52 70 53 71 64 73 82 74 55 75 42 76
REMARK SMILES IDX 43 77 48 78 44 79 45 80 47 81 49 82 46 83 68 84 69 85 74 86
REMARK SMILES IDX 70 87 71 88 73 89 75 90 72 91 56 92 57 93 62 94 58 95 59 96
REMARK SMILES IDX 61 97 63 98 60 99
REMARK H PARENT 23 6 30 42 80 61 54 72
REMARK Flexibility Score: inf
ROOT
ATOM      1  C   UNL     1      -8.248   5.618   5.828  1.00  0.00     0.021 C 
ENDROOT
BRANCH   1   2
ATOM      2  C   UNL     1      -6.956   5.409   5.074  1.00  0.00     0.116 C 
BRANCH   2   3
ATOM      3  N   UNL     1      -6.799   4.037   4.643  1.00  0.00    -0.356 N 
ATOM      4  C   UNL     1      -6.496   3.561   3.394  1.00  0.00     0.226 C 
ATOM      5  O   UNL     1      -6.030   2.431   3.341  1.00  0.00    -0.275 OA
ATOM      6  H   UNL     1      -6.927   3.354   5.340  1.00  0.00     0.163 HD
BRANCH   4   7
ATOM      7  C   UNL     1      -6.529   4.521   2.197  1.00  0.00     0.049 C 
ATOM      8  C   UNL     1      -5.221   5.295   2.483  1.00  0.00     0.022 C 
ATOM      9  C   UNL     1      -7.866   5.319   2.208  1.00  0.00     0.022 C 
BRANCH   7  10
ATOM     10  C   UNL     1      -6.539   3.869   0.779  1.00  0.00     0.071 C 
BRANCH  10  11
ATOM     11  C   UNL     1      -5.301   3.212   0.324  1.00  0.00     0.034 A 
ATOM     12  C   UNL     1      -0.997   1.472   0.083  1.00  0.00    -0.045 A 
ATOM     13  C   UNL     1      -1.731   0.305   0.327  1.00  0.00     0.006 A 
ATOM     14  C   UNL     1      -1.722   2.667  -0.113  1.00  0.00     0.015 A 
ATOM     15  C   UNL     1      -3.131   0.304   0.398  1.00  0.00     0.027 A 
ATOM     16  C   UNL     1      -3.141   2.712  -0.035  1.00  0.00     0.014 A 
ATOM     17  C   UNL     1      -3.815   1.520   0.248  1.00  0.00     0.050 A 
ATOM     18  C   UNL     1      -4.116   3.774  -0.133  1.00  0.00     0.037 A 
ATOM     19  N   UNL     1      -5.165   1.823   0.335  1.00  0.00    -0.339 N 
BRANCH  12  20
ATOM     20  C   UNL     1       0.533   1.491   0.151  1.00  0.00     0.013 C 
ATOM     21  C   UNL     1       1.204   0.117  -0.006  1.00  0.00     0.012 C 
ATOM     22  C   UNL     1       1.181   2.452  -0.857  1.00  0.00     0.012 C 
ENDBRANCH  12  20
BRANCH  18  23
ATOM     23  S   UNL     1      -3.600   5.442  -0.474  1.00  0.00    -0.118 SA
BRANCH  23  24
ATOM     24  C   UNL     1      -4.866   6.718  -0.957  1.00  0.00     0.012 C 
ATOM     25  C   UNL     1      -5.614   6.313  -2.229  1.00  0.00     0.023 C 
ATOM     26  C   UNL     1      -5.885   7.272   0.062  1.00  0.00     0.023 C 
ATOM     27  C   UNL     1      -3.989   7.967  -1.251  1.00  0.00     0.023 C 
ENDBRANCH  23  24
ENDBRANCH  18  23
BRANCH  19  28
ATOM     28  C   UNL     1      -6.245   0.808   0.228  1.00  0.00     0.158 C 
BRANCH  28  29
ATOM     29  C   UNL     1      -7.112   0.557   1.449  1.00  0.00    -0.028 A 
ATOM     30  C   UNL     1      -8.396   1.131   1.550  1.00  0.00     0.007 A 
ATOM     31  C   UNL     1      -6.659  -0.224   2.525  1.00  0.00     0.007 A 
ATOM     32  C   UNL     1      -9.120   1.085   2.745  1.00  0.00     0.021 A 
ATOM     33  C   UNL     1      -7.407  -0.311   3.711  1.00  0.00     0.021 A 
ATOM     34  C   UNL     1      -8.608   0.383   3.830  1.00  0.00     0.041 A 
ATOM     35  Cl  UNL     1      -9.449   0.409   5.333  1.00  0.00    -0.084 Cl
ENDBRANCH  28  29
ENDBRANCH  19  28
ENDBRANCH  10  11
ENDBRANCH   7  10
ENDBRANCH   4   7
ENDBRANCH   2   3
ENDBRANCH   1   2
BRANCH   1  36
ATOM     36  C   UNL     1      -8.120   5.208   7.288  1.00  0.00     0.002 C 
BRANCH  36  37
ATOM     37  C   UNL     1      -7.013   5.946   8.051  1.00  0.00     0.002 C 
BRANCH  37  38
ATOM     38  C   UNL     1      -7.031   7.474   7.905  1.00  0.00     0.021 C 
BRANCH  38  39
ATOM     39  C   UNL     1      -8.392   8.110   8.195  1.00  0.00     0.116 C 
BRANCH  39  40
ATOM     40  N   UNL     1      -8.970   7.667   9.444  1.00  0.00    -0.352 N 
ATOM     41  C   UNL     1      -8.689   7.896  10.758  1.00  0.00     0.251 C 
ATOM     42  H   UNL     1      -9.739   7.066   9.316  1.00  0.00     0.163 HD
ATOM     43  O   UNL     1      -9.354   7.262  11.580  1.00  0.00    -0.269 OA
BRANCH  41  44
ATOM     44  C   UNL     1      -7.631   8.820  11.246  1.00  0.00     0.039 A 
ATOM     45  C   UNL     1      -6.912   9.718  10.457  1.00  0.00     0.014 A 
ATOM     46  C   UNL     1      -7.364   8.777  12.625  1.00  0.00     0.014 A 
ATOM     47  C   UNL     1      -5.904  10.498  11.006  1.00  0.00     0.010 A 
ATOM     48  C   UNL     1      -6.389   9.591  13.190  1.00  0.00     0.010 A 
ATOM     49  C   UNL     1      -5.634  10.428  12.371  1.00  0.00    -0.014 A 
BRANCH  49  50
ATOM     50  C   UNL     1      -4.605  11.322  12.895  1.00  0.00     0.031 A 
ATOM     51  C   UNL     1      -4.841  12.785  12.703  1.00  0.00     0.074 A 
ATOM     52  C   UNL     1      -3.558  10.888  13.620  1.00  0.00     0.049 A 
ATOM     53  N   UNL     1      -4.069  13.662  12.142  1.00  0.00    -0.248 NA
ATOM     54  C   UNL     1      -6.134  13.326  13.151  1.00  0.00     0.031 C 
ATOM     55  C   UNL     1      -3.324   9.538  14.139  1.00  0.00     0.029 A 
ATOM     56  N   UNL     1      -2.525  11.610  14.141  1.00  0.00    -0.354 N 
ATOM     57  C   UNL     1      -4.697  14.896  12.315  1.00  0.00     0.074 A 
ATOM     58  C   UNL     1      -6.005  14.618  12.849  1.00  0.00     0.031 C 
ATOM     59  C   UNL     1      -2.354   9.589  15.076  1.00  0.00     0.029 A 
ATOM     60  C   UNL     1      -1.815  10.938  15.121  1.00  0.00     0.049 A 
ATOM     61  H   UNL     1      -2.305  12.524  13.848  1.00  0.00     0.167 HD
ATOM     62  C   UNL     1      -4.029  16.075  12.188  1.00  0.00     0.037 A 
ATOM     63  C   UNL     1      -0.894  11.461  15.961  1.00  0.00     0.037 A 
ATOM     64  C   UNL     1      -2.817  15.931  11.429  1.00  0.00     0.049 A 
ATOM     65  C   UNL     1      -0.402  12.731  15.382  1.00  0.00     0.074 A 
ATOM     66  C   UNL     1      -2.495  15.569  10.137  1.00  0.00     0.029 A 
ATOM     67  N   UNL     1      -1.630  15.949  12.114  1.00  0.00    -0.354 N 
ATOM     68  N   UNL     1       0.351  12.816  14.322  1.00  0.00    -0.248 NA
ATOM     69  C   UNL     1      -1.036  13.974  15.795  1.00  0.00     0.031 C 
ATOM     70  C   UNL     1      -1.211  14.954  10.227  1.00  0.00     0.029 A 
ATOM     71  C   UNL     1      -0.830  14.983  11.569  1.00  0.00     0.049 A 
ATOM     72  H   UNL     1      -1.397  16.547  12.861  1.00  0.00     0.167 HD
ATOM     73  C   UNL     1      -0.040  13.993  13.704  1.00  0.00     0.074 A 
ATOM     74  C   UNL     1      -0.783  14.726  14.722  1.00  0.00     0.031 C 
ATOM     75  C   UNL     1       0.036  14.133  12.349  1.00  0.00     0.037 A 
BRANCH  62  76
ATOM     76  C   UNL     1      -4.274  17.288  13.058  1.00  0.00     0.057 A 
ATOM     77  C   UNL     1      -4.857  17.226  14.339  1.00  0.00     0.134 A 
ATOM     78  C   UNL     1      -3.612  18.495  12.761  1.00  0.00     0.134 A 
ATOM     79  F   UNL     1      -5.469  16.127  14.795  1.00  0.00    -0.206 F 
ATOM     80  C   UNL     1      -4.751  18.265  15.269  1.00  0.00     0.040 A 
ATOM     81  C   UNL     1      -3.457  19.520  13.703  1.00  0.00     0.040 A 
ATOM     82  F   UNL     1      -3.011  18.679  11.575  1.00  0.00    -0.206 F 
ATOM     83  C   UNL     1      -4.017  19.401  14.968  1.00  0.00     0.006 A 
ENDBRANCH  62  76
BRANCH  63  84
ATOM     84  C   UNL     1      -0.587  11.042  17.343  1.00  0.00     0.057 A 
ATOM     85  C   UNL     1      -1.580  10.505  18.182  1.00  0.00     0.134 A 
ATOM     86  C   UNL     1       0.625  11.378  17.957  1.00  0.00     0.134 A 
ATOM     87  F   UNL     1      -2.808  10.232  17.717  1.00  0.00    -0.206 F 
ATOM     88  C   UNL     1      -1.378  10.305  19.550  1.00  0.00     0.040 A 
ATOM     89  C   UNL     1       0.837  11.195  19.329  1.00  0.00     0.040 A 
ATOM     90  F   UNL     1       1.614  11.941  17.249  1.00  0.00    -0.206 F 
ATOM     91  C   UNL     1      -0.169  10.662  20.131  1.00  0.00     0.006 A 
ENDBRANCH  63  84
BRANCH  75  92
ATOM     92  C   UNL     1       0.858  13.129  11.597  1.00  0.00     0.057 A 
ATOM     93  C   UNL     1       1.946  13.573  10.838  1.00  0.00     0.134 A 
ATOM     94  C   UNL     1       0.530  11.768  11.508  1.00  0.00     0.134 A 
ATOM     95  F   UNL     1       2.276  14.874  10.825  1.00  0.00    -0.206 F 
ATOM     96  C   UNL     1       2.691  12.701  10.043  1.00  0.00     0.040 A 
ATOM     97  C   UNL     1       1.288  10.879  10.742  1.00  0.00     0.040 A 
ATOM     98  F   UNL     1      -0.558  11.278  12.116  1.00  0.00    -0.206 F 
ATOM     99  C   UNL     1       2.372  11.346  10.004  1.00  0.00     0.006 A 
ENDBRANCH  75  92
ENDBRANCH  49  50
ENDBRANCH  41  44
ENDBRANCH  39  40
ENDBRANCH  38  39
ENDBRANCH  37  38
ENDBRANCH  36  37
ENDBRANCH   1  36
TORSDOF 20
