REMARK SMILES C[C@@H]1C[NH+](CC2(C(=O)NCCCCCCNC(=O)c3ccc(-c4c5nc(c(-c6c(F)cccc6F)c6ccc([nH]6)c(-c6c(F)cccc6F)c6nc(c(-c7c(F)cccc7F)c7ccc4[nH]7)C=C6)C=C5)cc3)CCCC2)C[C@H]1C
REMARK SMILES IDX 12 1 11 2 10 3 9 4 7 5 8 6 6 8 73 9 76 10 74 11 75 12 5 13
REMARK SMILES IDX 4 14 1 15 2 16 3 17 78 18 77 19 79 20 13 22 14 23 15 24
REMARK SMILES IDX 16 25 17 26 18 28 19 29 20 30 72 31 21 32 71 33 22 34 23 35
REMARK SMILES IDX 24 36 65 37 25 38 70 39 64 40 66 41 26 42 69 43 63 44 62 45
REMARK SMILES IDX 27 47 53 48 36 49 52 50 37 51 40 52 51 53 67 54 38 55 39 56
REMARK SMILES IDX 50 58 68 59 41 60 28 61 29 62 34 63 30 64 31 65 33 66 35 67
REMARK SMILES IDX 32 68 54 69 55 70 60 71 56 72 57 73 59 74 61 75 58 76 42 77
REMARK SMILES IDX 43 78 48 79 44 80 45 81 47 82 49 83 46 84
REMARK H PARENT 9 7 4 21 16 27 66 46 40 57
REMARK Flexibility Score: inf
ROOT
ATOM      1  C   UNL     1      -6.948   5.190   2.186  1.00  0.00     0.002 C 
ENDROOT
BRANCH   1   2
ATOM      2  C   UNL     1      -5.584   4.544   2.428  1.00  0.00     0.021 C 
BRANCH   2   3
ATOM      3  C   UNL     1      -4.887   4.073   1.157  1.00  0.00     0.116 C 
BRANCH   3   4
ATOM      4  N   UNL     1      -4.022   5.086   0.599  1.00  0.00    -0.355 N 
ATOM      5  C   UNL     1      -2.691   5.084   0.307  1.00  0.00     0.231 C 
ATOM      6  O   UNL     1      -2.271   6.129  -0.201  1.00  0.00    -0.274 OA
ATOM      7  H   UNL     1      -4.478   5.933   0.390  1.00  0.00     0.163 HD
BRANCH   5   8
ATOM      8  C   UNL     1      -1.755   3.856   0.569  1.00  0.00     0.098 C 
ATOM      9  C   UNL     1      -2.282   2.650  -0.236  1.00  0.00     0.023 C 
ATOM     10  C   UNL     1      -1.823   3.450   2.051  1.00  0.00     0.023 C 
ATOM     11  C   UNL     1      -2.612   1.522   0.735  1.00  0.00     0.001 C 
ATOM     12  C   UNL     1      -2.209   1.977   2.127  1.00  0.00     0.001 C 
BRANCH   8  13
ATOM     13  C   UNL     1      -0.312   4.334   0.116  1.00  0.00     0.279 C 
BRANCH  13  14
ATOM     14  N   UNL     1       0.928   3.559   0.169  1.00  0.00    -0.334 N 
ATOM     15  C   UNL     1       1.524  -0.084  -0.102  1.00  0.00     0.014 C 
ATOM     16  C   UNL     1       1.058   1.262   0.423  1.00  0.00     0.049 C 
ATOM     17  C   UNL     1       1.078   2.357  -0.629  1.00  0.00     0.265 C 
ATOM     18  C   UNL     1       1.930   1.872   1.525  1.00  0.00     0.049 C 
ATOM     19  C   UNL     1       1.611   3.374   1.444  1.00  0.00     0.265 C 
ATOM     20  C   UNL     1       1.685   1.287   2.908  1.00  0.00     0.014 C 
ATOM     21  H   UNL     1       1.411   4.303  -0.336  1.00  0.00     0.348 HD
ENDBRANCH  13  14
ENDBRANCH   8  13
ENDBRANCH   5   8
ENDBRANCH   3   4
ENDBRANCH   2   3
ENDBRANCH   1   2
BRANCH   1  22
ATOM     22  C   UNL     1      -7.959   4.323   1.424  1.00  0.00     0.002 C 
BRANCH  22  23
ATOM     23  C   UNL     1      -8.143   2.896   1.951  1.00  0.00     0.021 C 
BRANCH  23  24
ATOM     24  C   UNL     1      -8.535   2.793   3.421  1.00  0.00     0.116 C 
BRANCH  24  25
ATOM     25  N   UNL     1      -9.750   3.533   3.715  1.00  0.00    -0.352 N 
ATOM     26  C   UNL     1     -10.927   3.108   4.268  1.00  0.00     0.251 C 
ATOM     27  H   UNL     1      -9.722   4.489   3.480  1.00  0.00     0.163 HD
ATOM     28  O   UNL     1     -11.912   3.845   4.251  1.00  0.00    -0.269 OA
BRANCH  26  29
ATOM     29  C   UNL     1     -11.028   1.767   4.879  1.00  0.00     0.039 A 
ATOM     30  C   UNL     1     -12.176   1.008   4.640  1.00  0.00     0.014 A 
ATOM     31  C   UNL     1     -10.025   1.277   5.722  1.00  0.00     0.014 A 
ATOM     32  C   UNL     1     -12.302  -0.258   5.213  1.00  0.00     0.010 A 
ATOM     33  C   UNL     1     -10.122  -0.012   6.241  1.00  0.00     0.010 A 
ATOM     34  C   UNL     1     -11.267  -0.786   6.001  1.00  0.00    -0.014 A 
BRANCH  34  35
ATOM     35  C   UNL     1     -11.379  -2.143   6.589  1.00  0.00     0.031 A 
ATOM     36  C   UNL     1     -11.473  -2.318   8.079  1.00  0.00     0.074 A 
ATOM     37  C   UNL     1     -11.351  -3.220   5.781  1.00  0.00     0.049 A 
ATOM     38  N   UNL     1     -11.555  -3.423   8.778  1.00  0.00    -0.248 NA
ATOM     39  C   UNL     1     -11.446  -1.093   8.894  1.00  0.00     0.031 C 
ATOM     40  C   UNL     1     -11.213  -3.180   4.324  1.00  0.00     0.029 A 
ATOM     41  N   UNL     1     -11.436  -4.557   6.072  1.00  0.00    -0.354 N 
ATOM     42  C   UNL     1     -11.573  -3.027  10.109  1.00  0.00     0.074 A 
ATOM     43  C   UNL     1     -11.446  -1.586  10.123  1.00  0.00     0.031 C 
ATOM     44  C   UNL     1     -11.251  -4.434   3.846  1.00  0.00     0.029 A 
ATOM     45  C   UNL     1     -11.387  -5.365   4.963  1.00  0.00     0.049 A 
ATOM     46  H   UNL     1     -11.523  -4.905   6.989  1.00  0.00     0.167 HD
ATOM     47  C   UNL     1     -11.705  -3.794  11.218  1.00  0.00     0.037 A 
ATOM     48  C   UNL     1     -11.449  -6.705   4.859  1.00  0.00     0.037 A 
ATOM     49  C   UNL     1     -11.864  -5.224  11.199  1.00  0.00     0.049 A 
ATOM     50  C   UNL     1     -11.612  -7.531   6.103  1.00  0.00     0.074 A 
ATOM     51  C   UNL     1     -12.078  -6.084  12.262  1.00  0.00     0.029 A 
ATOM     52  N   UNL     1     -11.823  -6.007  10.054  1.00  0.00    -0.354 N 
ATOM     53  N   UNL     1     -11.702  -7.139   7.350  1.00  0.00    -0.248 NA
ATOM     54  C   UNL     1     -11.690  -8.988   5.922  1.00  0.00     0.031 C 
ATOM     55  C   UNL     1     -12.130  -7.391  11.765  1.00  0.00     0.029 A 
ATOM     56  C   UNL     1     -11.988  -7.341  10.387  1.00  0.00     0.049 A 
ATOM     57  H   UNL     1     -11.697  -5.664   9.140  1.00  0.00     0.167 HD
ATOM     58  C   UNL     1     -11.871  -8.295   8.101  1.00  0.00     0.074 A 
ATOM     59  C   UNL     1     -11.888  -9.401   7.166  1.00  0.00     0.031 C 
ATOM     60  C   UNL     1     -12.000  -8.429   9.444  1.00  0.00     0.037 A 
BRANCH  47  61
ATOM     61  C   UNL     1     -11.686  -3.095  12.546  1.00  0.00     0.057 A 
ATOM     62  C   UNL     1     -12.750  -2.289  12.973  1.00  0.00     0.134 A 
ATOM     63  C   UNL     1     -10.602  -3.249  13.419  1.00  0.00     0.134 A 
ATOM     64  F   UNL     1     -13.813  -2.090  12.179  1.00  0.00    -0.206 F 
ATOM     65  C   UNL     1     -12.724  -1.638  14.208  1.00  0.00     0.040 A 
ATOM     66  C   UNL     1     -10.576  -2.624  14.667  1.00  0.00     0.040 A 
ATOM     67  F   UNL     1      -9.553  -4.010  13.075  1.00  0.00    -0.206 F 
ATOM     68  C   UNL     1     -11.636  -1.810  15.062  1.00  0.00     0.006 A 
ENDBRANCH  47  61
BRANCH  48  69
ATOM     69  C   UNL     1     -11.396  -7.348   3.523  1.00  0.00     0.057 A 
ATOM     70  C   UNL     1     -12.535  -7.940   2.965  1.00  0.00     0.134 A 
ATOM     71  C   UNL     1     -10.213  -7.392   2.777  1.00  0.00     0.134 A 
ATOM     72  F   UNL     1     -13.693  -7.944   3.641  1.00  0.00    -0.206 F 
ATOM     73  C   UNL     1     -12.496  -8.568   1.720  1.00  0.00     0.040 A 
ATOM     74  C   UNL     1     -10.165  -7.998   1.521  1.00  0.00     0.040 A 
ATOM     75  F   UNL     1      -9.090  -6.836   3.255  1.00  0.00    -0.206 F 
ATOM     76  C   UNL     1     -11.308  -8.595   0.992  1.00  0.00     0.006 A 
ENDBRANCH  48  69
BRANCH  60  77
ATOM     77  C   UNL     1     -12.194  -9.820   9.971  1.00  0.00     0.057 A 
ATOM     78  C   UNL     1     -11.147 -10.750  10.000  1.00  0.00     0.134 A 
ATOM     79  C   UNL     1     -13.437 -10.226  10.472  1.00  0.00     0.134 A 
ATOM     80  F   UNL     1      -9.936 -10.426   9.521  1.00  0.00    -0.206 F 
ATOM     81  C   UNL     1     -11.337 -12.045  10.483  1.00  0.00     0.040 A 
ATOM     82  C   UNL     1     -13.633 -11.511  10.981  1.00  0.00     0.040 A 
ATOM     83  F   UNL     1     -14.478  -9.381  10.480  1.00  0.00    -0.206 F 
ATOM     84  C   UNL     1     -12.582 -12.427  10.980  1.00  0.00     0.006 A 
ENDBRANCH  60  77
ENDBRANCH  34  35
ENDBRANCH  26  29
ENDBRANCH  24  25
ENDBRANCH  23  24
ENDBRANCH  22  23
ENDBRANCH   1  22
TORSDOF 15
