REMARK SMILES C#Cc1cccc(NS(=O)(=O)c2cc(C)c(C(=O)NCCCCCCNC(=O)c3ccc(-c4c5nc(c(-c6c(F)cccc6F)c6ccc([nH]6)c(-c6c(F)cccc6F)c6nc(c(-c7c(F)cccc7F)c7ccc4[nH]7)C=C6)C=C5)cc3)s2)c1
REMARK SMILES IDX 21 1 20 2 19 3 17 4 18 5 16 7 12 8 13 9 83 10 14 11 15 12
REMARK SMILES IDX 9 13 10 14 11 15 8 16 7 18 3 19 4 20 84 21 5 22 6 23 2 24
REMARK SMILES IDX 1 25 22 26 23 27 24 28 25 29 26 30 27 31 28 33 29 34 30 35
REMARK SMILES IDX 82 36 31 37 81 38 32 39 33 40 34 41 75 42 35 43 80 44 74 45
REMARK SMILES IDX 76 46 36 47 79 48 73 49 72 50 37 52 63 53 46 54 62 55 47 56
REMARK SMILES IDX 50 57 61 58 77 59 48 60 49 61 60 63 78 64 51 65 38 66 39 67
REMARK SMILES IDX 44 68 40 69 41 70 43 71 45 72 42 73 64 74 65 75 70 76 66 77
REMARK SMILES IDX 67 78 69 79 71 80 68 81 52 82 53 83 58 84 54 85 55 86 57 87
REMARK SMILES IDX 59 88 56 89
REMARK H PARENT 19 6 8 17 26 32 76 51 50 62
REMARK Flexibility Score: inf
ROOT
ATOM      1  C   UNL     1       5.401   5.148   1.070  1.00  0.00     0.021 C 
ENDROOT
BRANCH   1   2
ATOM      2  C   UNL     1       6.209   4.529  -0.075  1.00  0.00     0.116 C 
BRANCH   2   3
ATOM      3  N   UNL     1       7.086   3.514   0.428  1.00  0.00    -0.351 N 
ATOM      4  C   UNL     1       6.983   2.158   0.564  1.00  0.00     0.261 C 
ATOM      5  O   UNL     1       7.994   1.664   1.081  1.00  0.00    -0.268 OA
ATOM      6  H   UNL     1       7.947   3.869   0.744  1.00  0.00     0.163 HD
BRANCH   4   7
ATOM      7  C   UNL     1       5.844   1.350   0.106  1.00  0.00     0.096 A 
ATOM      8  C   UNL     1       4.555  -0.767  -0.281  1.00  0.00     0.141 A 
ATOM      9  C   UNL     1       4.032   0.319  -0.944  1.00  0.00     0.038 A 
ATOM     10  S   UNL     1       6.104  -0.378   0.292  1.00  0.00    -0.116 S 
ATOM     11  C   UNL     1       4.537   1.537  -0.357  1.00  0.00    -0.026 A 
ATOM     12  C   UNL     1       3.598   2.693  -0.246  1.00  0.00     0.046 C 
BRANCH   8  13
ATOM     13  S   UNL     1       3.939  -2.399   0.040  1.00  0.00     0.271 S 
ATOM     14  O   UNL     1       4.537  -2.823   1.288  1.00  0.00    -0.200 OA
ATOM     15  O   UNL     1       4.174  -3.122  -1.191  1.00  0.00    -0.200 OA
BRANCH  13  16
ATOM     16  N   UNL     1       2.260  -2.455   0.278  1.00  0.00    -0.279 N 
ATOM     17  H   UNL     1       1.850  -3.345   0.376  1.00  0.00     0.180 HD
BRANCH  16  18
ATOM     18  C   UNL     1       1.390  -1.323   0.348  1.00  0.00     0.050 A 
ATOM     19  C   UNL     1      -0.823  -0.395  -0.056  1.00  0.00     0.026 A 
ATOM     20  C   UNL     1      -0.393   0.846   0.405  1.00  0.00     0.017 A 
ATOM     21  C   UNL     1       0.071  -1.472  -0.109  1.00  0.00     0.044 A 
ATOM     22  C   UNL     1       0.868   0.962   0.972  1.00  0.00     0.003 A 
ATOM     23  C   UNL     1       1.728  -0.140   1.003  1.00  0.00     0.027 A 
BRANCH  19  24
ATOM     24  C   UNL     1      -2.219  -0.545  -0.337  1.00  0.00    -0.070 C 
ATOM     25  C   UNL     1      -3.415  -0.562  -0.414  1.00  0.00     0.010 C 
ENDBRANCH  19  24
ENDBRANCH  16  18
ENDBRANCH  13  16
ENDBRANCH   8  13
ENDBRANCH   4   7
ENDBRANCH   2   3
ENDBRANCH   1   2
BRANCH   1  26
ATOM     26  C   UNL     1       5.813   6.598   1.322  1.00  0.00     0.002 C 
BRANCH  26  27
ATOM     27  C   UNL     1       5.464   7.526   0.153  1.00  0.00     0.002 C 
BRANCH  27  28
ATOM     28  C   UNL     1       3.963   7.724  -0.067  1.00  0.00     0.021 C 
BRANCH  28  29
ATOM     29  C   UNL     1       3.251   8.377   1.110  1.00  0.00     0.116 C 
BRANCH  29  30
ATOM     30  N   UNL     1       3.837   9.669   1.436  1.00  0.00    -0.352 N 
ATOM     31  C   UNL     1       3.273  10.917   1.389  1.00  0.00     0.251 C 
ATOM     32  H   UNL     1       4.775   9.643   1.734  1.00  0.00     0.163 HD
ATOM     33  O   UNL     1       3.981  11.919   1.410  1.00  0.00    -0.269 OA
BRANCH  31  34
ATOM     34  C   UNL     1       1.806  11.045   1.311  1.00  0.00     0.039 A 
ATOM     35  C   UNL     1       1.250  12.008   0.469  1.00  0.00     0.014 A 
ATOM     36  C   UNL     1       0.985  10.213   2.078  1.00  0.00     0.014 A 
ATOM     37  C   UNL     1      -0.136  12.101   0.357  1.00  0.00     0.010 A 
ATOM     38  C   UNL     1      -0.390  10.242   1.891  1.00  0.00     0.010 A 
ATOM     39  C   UNL     1      -0.966  11.194   1.039  1.00  0.00    -0.014 A 
BRANCH  39  40
ATOM     40  C   UNL     1      -2.438  11.229   0.874  1.00  0.00     0.031 A 
ATOM     41  C   UNL     1      -3.325  11.508   2.054  1.00  0.00     0.074 A 
ATOM     42  C   UNL     1      -2.975  10.950  -0.329  1.00  0.00     0.049 A 
ATOM     43  N   UNL     1      -4.632  11.538   2.116  1.00  0.00    -0.248 NA
ATOM     44  C   UNL     1      -2.658  11.759   3.341  1.00  0.00     0.031 C 
ATOM     45  C   UNL     1      -2.217  10.622  -1.538  1.00  0.00     0.029 A 
ATOM     46  N   UNL     1      -4.285  10.896  -0.732  1.00  0.00    -0.354 N 
ATOM     47  C   UNL     1      -4.941  11.801   3.444  1.00  0.00     0.074 A 
ATOM     48  C   UNL     1      -3.689  11.854   4.166  1.00  0.00     0.031 C 
ATOM     49  C   UNL     1      -3.073  10.440  -2.555  1.00  0.00     0.029 A 
ATOM     50  C   UNL     1      -4.438  10.585  -2.061  1.00  0.00     0.049 A 
ATOM     51  H   UNL     1      -5.043  11.065  -0.127  1.00  0.00     0.167 HD
ATOM     52  C   UNL     1      -6.156  12.003   4.007  1.00  0.00     0.037 A 
ATOM     53  C   UNL     1      -5.554  10.427  -2.796  1.00  0.00     0.037 A 
ATOM     54  C   UNL     1      -7.397  11.950   3.278  1.00  0.00     0.049 A 
ATOM     55  C   UNL     1      -6.894  10.616  -2.141  1.00  0.00     0.074 A 
ATOM     56  C   UNL     1      -8.678  12.192   3.741  1.00  0.00     0.029 A 
ATOM     57  N   UNL     1      -7.513  11.618   1.936  1.00  0.00    -0.354 N 
ATOM     58  N   UNL     1      -7.170  10.936  -0.900  1.00  0.00    -0.248 NA
ATOM     59  C   UNL     1      -8.076  10.425  -2.990  1.00  0.00     0.031 C 
ATOM     60  C   UNL     1      -9.575  11.931   2.700  1.00  0.00     0.029 A 
ATOM     61  C   UNL     1      -8.848  11.608   1.565  1.00  0.00     0.049 A 
ATOM     62  H   UNL     1      -6.759  11.419   1.335  1.00  0.00     0.167 HD
ATOM     63  C   UNL     1      -8.555  11.019  -0.827  1.00  0.00     0.074 A 
ATOM     64  C   UNL     1      -9.059  10.728  -2.154  1.00  0.00     0.031 C 
ATOM     65  C   UNL     1      -9.338  11.314   0.240  1.00  0.00     0.037 A 
BRANCH  52  66
ATOM     66  C   UNL     1      -6.198  12.277   5.484  1.00  0.00     0.057 A 
ATOM     67  C   UNL     1      -5.663  13.446   6.043  1.00  0.00     0.134 A 
ATOM     68  C   UNL     1      -6.796  11.363   6.362  1.00  0.00     0.134 A 
ATOM     69  F   UNL     1      -5.066  14.362   5.264  1.00  0.00    -0.206 F 
ATOM     70  C   UNL     1      -5.682  13.676   7.420  1.00  0.00     0.040 A 
ATOM     71  C   UNL     1      -6.855  11.599   7.737  1.00  0.00     0.040 A 
ATOM     72  F   UNL     1      -7.337  10.226   5.899  1.00  0.00    -0.206 F 
ATOM     73  C   UNL     1      -6.286  12.752   8.271  1.00  0.00     0.006 A 
ENDBRANCH  52  66
BRANCH  53  74
ATOM     74  C   UNL     1      -5.449  10.091  -4.239  1.00  0.00     0.057 A 
ATOM     75  C   UNL     1      -5.833  11.009  -5.224  1.00  0.00     0.134 A 
ATOM     76  C   UNL     1      -4.961   8.851  -4.671  1.00  0.00     0.134 A 
ATOM     77  F   UNL     1      -6.323  12.208  -4.874  1.00  0.00    -0.206 F 
ATOM     78  C   UNL     1      -5.757  10.700  -6.583  1.00  0.00     0.040 A 
ATOM     79  C   UNL     1      -4.850   8.540  -6.027  1.00  0.00     0.040 A 
ATOM     80  F   UNL     1      -4.565   7.931  -3.779  1.00  0.00    -0.206 F 
ATOM     81  C   UNL     1      -5.258   9.464  -6.987  1.00  0.00     0.006 A 
ENDBRANCH  53  74
BRANCH  65  82
ATOM     82  C   UNL     1     -10.822  11.378   0.011  1.00  0.00     0.057 A 
ATOM     83  C   UNL     1     -11.586  10.237  -0.268  1.00  0.00     0.134 A 
ATOM     84  C   UNL     1     -11.503  12.600   0.109  1.00  0.00     0.134 A 
ATOM     85  F   UNL     1     -10.997   9.037  -0.387  1.00  0.00    -0.206 F 
ATOM     86  C   UNL     1     -12.965  10.313  -0.470  1.00  0.00     0.040 A 
ATOM     87  C   UNL     1     -12.886  12.682  -0.054  1.00  0.00     0.040 A 
ATOM     88  F   UNL     1     -10.838  13.731   0.385  1.00  0.00    -0.206 F 
ATOM     89  C   UNL     1     -13.620  11.537  -0.355  1.00  0.00     0.006 A 
ENDBRANCH  65  82
ENDBRANCH  39  40
ENDBRANCH  31  34
ENDBRANCH  29  30
ENDBRANCH  28  29
ENDBRANCH  27  28
ENDBRANCH  26  27
ENDBRANCH   1  26
TORSDOF 17
