REMARK SMILES CCN(C(=O)Cc1c(C(=O)NCCCCCCNC(=O)c2ccc(-c3c4nc(c(-c5c(F)cccc5F)c5ccc([nH]5)c(-c5c(F)cccc5F)c5nc(c(-c6c(F)cccc6F)c6ccc3[nH]6)C=C5)C=C4)cc2)[nH]c2ccc(Cl)cc12)c1ccc(C)c(C)c1
REMARK SMILES IDX 13 1 12 2 11 3 9 4 10 5 8 7 7 8 82 9 75 10 76 11 81 12 77 14
REMARK SMILES IDX 79 15 78 16 80 17 6 18 4 19 5 20 3 21 2 22 1 23 83 24 84 25
REMARK SMILES IDX 90 26 85 27 88 28 86 29 89 30 87 31 14 32 15 33 16 34 17 35
REMARK SMILES IDX 18 36 19 37 20 39 21 40 22 41 74 42 23 43 73 44 24 45 25 46
REMARK SMILES IDX 26 47 67 48 27 49 72 50 66 51 68 52 28 53 71 54 65 55 64 56
REMARK SMILES IDX 29 58 55 59 38 60 54 61 39 62 42 63 53 64 69 65 40 66 41 67
REMARK SMILES IDX 52 69 70 70 43 71 30 72 31 73 36 74 32 75 33 76 35 77 37 78
REMARK SMILES IDX 34 79 56 80 57 81 62 82 58 83 59 84 61 85 63 86 60 87 44 88
REMARK SMILES IDX 45 89 50 90 46 91 47 92 49 93 51 94 48 95
REMARK H PARENT 11 6 75 13 18 38 68 57 42 68
REMARK Flexibility Score: inf
ROOT
ATOM      1  C   UNL     1      -2.666   0.471  -4.483  1.00  0.00     0.021 C 
ENDROOT
BRANCH   1   2
ATOM      2  C   UNL     1      -1.738   0.640  -3.288  1.00  0.00     0.116 C 
BRANCH   2   3
ATOM      3  N   UNL     1      -2.444   0.996  -2.081  1.00  0.00    -0.351 N 
ATOM      4  C   UNL     1      -2.653   0.469  -0.845  1.00  0.00     0.268 C 
ATOM      5  O   UNL     1      -3.135   1.283  -0.046  1.00  0.00    -0.268 OA
ATOM      6  H   UNL     1      -2.903   1.861  -2.180  1.00  0.00     0.163 HD
BRANCH   4   7
ATOM      7  C   UNL     1      -2.381  -0.885  -0.385  1.00  0.00     0.109 A 
ATOM      8  C   UNL     1      -1.890  -2.115  -0.847  1.00  0.00    -0.000 A 
ATOM      9  C   UNL     1      -2.147  -3.091   0.195  1.00  0.00     0.005 A 
ATOM     10  N   UNL     1      -2.663  -1.096   0.961  1.00  0.00    -0.350 N 
ATOM     11  C   UNL     1      -2.593  -2.410   1.316  1.00  0.00     0.046 A 
ATOM     12  C   UNL     1      -2.055  -4.500   0.269  1.00  0.00     0.031 A 
ATOM     13  H   UNL     1      -2.889  -0.373   1.590  1.00  0.00     0.167 HD
ATOM     14  C   UNL     1      -2.909  -3.033   2.528  1.00  0.00     0.028 A 
ATOM     15  C   UNL     1      -2.421  -5.147   1.454  1.00  0.00     0.041 A 
ATOM     16  C   UNL     1      -2.825  -4.426   2.574  1.00  0.00     0.022 A 
ATOM     17  Cl  UNL     1      -2.394  -6.869   1.522  1.00  0.00    -0.084 Cl
BRANCH   8  18
ATOM     18  C   UNL     1      -1.321  -2.530  -2.165  1.00  0.00     0.139 C 
BRANCH  18  19
ATOM     19  C   UNL     1       0.203  -2.736  -2.258  1.00  0.00     0.231 C 
ATOM     20  O   UNL     1       0.564  -3.773  -2.838  1.00  0.00    -0.274 OA
BRANCH  19  21
ATOM     21  N   UNL     1       1.137  -1.806  -1.771  1.00  0.00    -0.312 N 
BRANCH  21  22
ATOM     22  C   UNL     1       0.828  -0.464  -1.248  1.00  0.00     0.122 C 
ATOM     23  C   UNL     1       0.977  -0.221   0.245  1.00  0.00     0.028 C 
ENDBRANCH  21  22
BRANCH  21  24
ATOM     24  C   UNL     1       2.542  -2.039  -1.984  1.00  0.00     0.044 A 
ATOM     25  C   UNL     1       3.042  -2.428  -3.228  1.00  0.00     0.026 A 
ATOM     26  C   UNL     1       3.457  -1.810  -0.951  1.00  0.00     0.030 A 
ATOM     27  C   UNL     1       4.420  -2.569  -3.425  1.00  0.00     0.006 A 
ATOM     28  C   UNL     1       4.845  -1.917  -1.136  1.00  0.00    -0.046 A 
ATOM     29  C   UNL     1       5.335  -2.316  -2.388  1.00  0.00    -0.048 A 
ATOM     30  C   UNL     1       5.741  -1.625   0.036  1.00  0.00     0.044 C 
ATOM     31  C   UNL     1       6.796  -2.539  -2.661  1.00  0.00     0.044 C 
ENDBRANCH  21  24
ENDBRANCH  19  21
ENDBRANCH  18  19
ENDBRANCH   8  18
ENDBRANCH   4   7
ENDBRANCH   2   3
ENDBRANCH   1   2
BRANCH   1  32
ATOM     32  C   UNL     1      -2.307   1.447  -5.604  1.00  0.00     0.002 C 
BRANCH  32  33
ATOM     33  C   UNL     1      -0.885   1.282  -6.159  1.00  0.00     0.002 C 
BRANCH  33  34
ATOM     34  C   UNL     1      -0.597  -0.071  -6.812  1.00  0.00     0.021 C 
BRANCH  34  35
ATOM     35  C   UNL     1      -1.570  -0.454  -7.921  1.00  0.00     0.116 C 
BRANCH  35  36
ATOM     36  N   UNL     1      -1.684   0.592  -8.929  1.00  0.00    -0.352 N 
ATOM     37  C   UNL     1      -1.466   0.533 -10.278  1.00  0.00     0.251 C 
ATOM     38  H   UNL     1      -1.959   1.473  -8.588  1.00  0.00     0.163 HD
ATOM     39  O   UNL     1      -1.388   1.570 -10.939  1.00  0.00    -0.269 OA
BRANCH  37  40
ATOM     40  C   UNL     1      -1.315  -0.775 -10.939  1.00  0.00     0.039 A 
ATOM     41  C   UNL     1      -0.294  -0.948 -11.876  1.00  0.00     0.014 A 
ATOM     42  C   UNL     1      -2.185  -1.825 -10.634  1.00  0.00     0.014 A 
ATOM     43  C   UNL     1      -0.106  -2.199 -12.463  1.00  0.00     0.010 A 
ATOM     44  C   UNL     1      -1.952  -3.088 -11.165  1.00  0.00     0.010 A 
ATOM     45  C   UNL     1      -0.911  -3.286 -12.083  1.00  0.00    -0.014 A 
BRANCH  45  46
ATOM     46  C   UNL     1      -0.669  -4.647 -12.617  1.00  0.00     0.031 A 
ATOM     47  C   UNL     1      -1.710  -5.320 -13.465  1.00  0.00     0.074 A 
ATOM     48  C   UNL     1       0.454  -5.302 -12.268  1.00  0.00     0.049 A 
ATOM     49  N   UNL     1      -1.726  -6.539 -13.940  1.00  0.00    -0.248 NA
ATOM     50  C   UNL     1      -2.902  -4.526 -13.803  1.00  0.00     0.031 C 
ATOM     51  C   UNL     1       1.516  -4.766 -11.414  1.00  0.00     0.029 A 
ATOM     52  N   UNL     1       0.881  -6.569 -12.572  1.00  0.00    -0.354 N 
ATOM     53  C   UNL     1      -2.931  -6.662 -14.619  1.00  0.00     0.074 A 
ATOM     54  C   UNL     1      -3.641  -5.413 -14.454  1.00  0.00     0.031 C 
ATOM     55  C   UNL     1       2.478  -5.691 -11.276  1.00  0.00     0.029 A 
ATOM     56  C   UNL     1       2.081  -6.899 -11.991  1.00  0.00     0.049 A 
ATOM     57  H   UNL     1       0.375  -7.184 -13.152  1.00  0.00     0.167 HD
ATOM     58  C   UNL     1      -3.393  -7.717 -15.332  1.00  0.00     0.037 A 
ATOM     59  C   UNL     1       2.773  -8.053 -12.016  1.00  0.00     0.037 A 
ATOM     60  C   UNL     1      -2.673  -8.952 -15.503  1.00  0.00     0.049 A 
ATOM     61  C   UNL     1       2.223  -9.219 -12.790  1.00  0.00     0.074 A 
ATOM     62  C   UNL     1      -3.026 -10.057 -16.257  1.00  0.00     0.029 A 
ATOM     63  N   UNL     1      -1.458  -9.248 -14.902  1.00  0.00    -0.354 N 
ATOM     64  N   UNL     1       1.116  -9.299 -13.488  1.00  0.00    -0.248 NA
ATOM     65  C   UNL     1       3.018 -10.454 -12.778  1.00  0.00     0.031 C 
ATOM     66  C   UNL     1      -2.050 -11.042 -16.071  1.00  0.00     0.029 A 
ATOM     67  C   UNL     1      -1.063 -10.532 -15.243  1.00  0.00     0.049 A 
ATOM     68  H   UNL     1      -0.952  -8.637 -14.320  1.00  0.00     0.167 HD
ATOM     69  C   UNL     1       1.091 -10.584 -14.014  1.00  0.00     0.074 A 
ATOM     70  C   UNL     1       2.305 -11.240 -13.572  1.00  0.00     0.031 C 
ATOM     71  C   UNL     1       0.147 -11.170 -14.791  1.00  0.00     0.037 A 
BRANCH  58  72
ATOM     72  C   UNL     1      -4.741  -7.580 -15.979  1.00  0.00     0.057 A 
ATOM     73  C   UNL     1      -4.956  -6.724 -17.067  1.00  0.00     0.134 A 
ATOM     74  C   UNL     1      -5.829  -8.340 -15.532  1.00  0.00     0.134 A 
ATOM     75  F   UNL     1      -3.959  -5.958 -17.537  1.00  0.00    -0.206 F 
ATOM     76  C   UNL     1      -6.209  -6.609 -17.671  1.00  0.00     0.040 A 
ATOM     77  C   UNL     1      -7.080  -8.255 -16.145  1.00  0.00     0.040 A 
ATOM     78  F   UNL     1      -5.693  -9.184 -14.498  1.00  0.00    -0.206 F 
ATOM     79  C   UNL     1      -7.274  -7.383 -17.214  1.00  0.00     0.006 A 
ENDBRANCH  58  72
BRANCH  59  80
ATOM     80  C   UNL     1       4.063  -8.163 -11.289  1.00  0.00     0.057 A 
ATOM     81  C   UNL     1       5.274  -8.275 -11.982  1.00  0.00     0.134 A 
ATOM     82  C   UNL     1       4.117  -8.164  -9.890  1.00  0.00     0.134 A 
ATOM     83  F   UNL     1       5.285  -8.299 -13.322  1.00  0.00    -0.206 F 
ATOM     84  C   UNL     1       6.491  -8.405 -11.310  1.00  0.00     0.040 A 
ATOM     85  C   UNL     1       5.329  -8.265  -9.206  1.00  0.00     0.040 A 
ATOM     86  F   UNL     1       2.993  -8.051  -9.168  1.00  0.00    -0.206 F 
ATOM     87  C   UNL     1       6.521  -8.394  -9.917  1.00  0.00     0.006 A 
ENDBRANCH  59  80
BRANCH  71  88
ATOM     88  C   UNL     1       0.401 -12.584 -15.226  1.00  0.00     0.057 A 
ATOM     89  C   UNL     1       0.318 -13.657 -14.330  1.00  0.00     0.134 A 
ATOM     90  C   UNL     1       0.696 -12.878 -16.563  1.00  0.00     0.134 A 
ATOM     91  F   UNL     1       0.054 -13.441 -13.032  1.00  0.00    -0.206 F 
ATOM     92  C   UNL     1       0.542 -14.971 -14.744  1.00  0.00     0.040 A 
ATOM     93  C   UNL     1       0.893 -14.190 -16.995  1.00  0.00     0.040 A 
ATOM     94  F   UNL     1       0.781 -11.897 -17.474  1.00  0.00    -0.206 F 
ATOM     95  C   UNL     1       0.823 -15.241 -16.082  1.00  0.00     0.006 A 
ENDBRANCH  71  88
ENDBRANCH  45  46
ENDBRANCH  37  40
ENDBRANCH  35  36
ENDBRANCH  34  35
ENDBRANCH  33  34
ENDBRANCH  32  33
ENDBRANCH   1  32
TORSDOF 18
