REMARK SMILES O=C(NCCCCCCNC(=O)[C@H]1C[N@H+](Cc2ccc(Cl)c(Cl)c2)CC12CCCCC2)c1ccc(-c2c3nc(c(-c4c(F)cccc4F)c4ccc([nH]4)c(-c4c(F)cccc4F)c4nc(c(-c5c(F)cccc5F)c5ccc2[nH]5)C=C4)C=C3)cc1
REMARK SMILES IDX 6 1 5 2 4 3 3 4 1 5 2 6 32 8 33 9 85 10 34 11 84 12 35 13
REMARK SMILES IDX 36 14 37 15 78 16 38 17 83 18 77 19 79 20 39 21 82 22 76 23
REMARK SMILES IDX 75 24 40 26 66 27 49 28 65 29 50 30 53 31 64 32 80 33 51 34
REMARK SMILES IDX 52 35 63 37 81 38 54 39 41 40 42 41 47 42 43 43 44 44 46 45
REMARK SMILES IDX 48 46 45 47 67 48 68 49 73 50 69 51 70 52 72 53 74 54 71 55
REMARK SMILES IDX 55 56 56 57 61 58 57 59 58 60 60 61 62 62 59 63 7 64 8 65
REMARK SMILES IDX 9 66 10 67 11 68 12 70 13 71 14 72 26 73 15 74 25 75 27 76
REMARK SMILES IDX 31 77 28 79 30 80 29 81 16 82 17 83 18 84 24 85 19 86 22 87
REMARK SMILES IDX 20 88 23 89 21 90
REMARK H PARENT 3 7 79 25 53 36 10 69 15 78
REMARK Flexibility Score: inf
ROOT
ATOM      1  C   UNL     1       3.648  -2.522   2.781  1.00  0.00     0.002 C 
ENDROOT
BRANCH   1   2
ATOM      2  C   UNL     1       4.408  -1.373   2.111  1.00  0.00     0.021 C 
BRANCH   2   3
ATOM      3  C   UNL     1       4.155  -1.130   0.629  1.00  0.00     0.116 C 
BRANCH   3   4
ATOM      4  N   UNL     1       2.748  -0.982   0.306  1.00  0.00    -0.352 N 
ATOM      5  O   UNL     1       0.848   0.022  -0.359  1.00  0.00    -0.269 OA
ATOM      6  C   UNL     1       2.080   0.048  -0.300  1.00  0.00     0.251 C 
ATOM      7  H   UNL     1       2.182  -1.745   0.565  1.00  0.00     0.163 HD
BRANCH   6   8
ATOM      8  C   UNL     1       2.808   1.200  -0.868  1.00  0.00     0.039 A 
ATOM      9  C   UNL     1       3.951   1.027  -1.655  1.00  0.00     0.014 A 
ATOM     10  C   UNL     1       2.295   2.484  -0.655  1.00  0.00     0.014 A 
ATOM     11  C   UNL     1       4.639   2.138  -2.138  1.00  0.00     0.010 A 
ATOM     12  C   UNL     1       2.946   3.592  -1.198  1.00  0.00     0.010 A 
ATOM     13  C   UNL     1       4.133   3.430  -1.929  1.00  0.00    -0.014 A 
BRANCH  13  14
ATOM     14  C   UNL     1       4.808   4.611  -2.522  1.00  0.00     0.031 A 
ATOM     15  C   UNL     1       5.405   5.672  -1.645  1.00  0.00     0.074 A 
ATOM     16  C   UNL     1       4.833   4.745  -3.862  1.00  0.00     0.049 A 
ATOM     17  N   UNL     1       5.936   6.821  -1.980  1.00  0.00    -0.248 NA
ATOM     18  C   UNL     1       5.395   5.412  -0.198  1.00  0.00     0.031 C 
ATOM     19  C   UNL     1       4.280   3.781  -4.815  1.00  0.00     0.029 A 
ATOM     20  N   UNL     1       5.326   5.751  -4.653  1.00  0.00    -0.354 N 
ATOM     21  C   UNL     1       6.300   7.432  -0.787  1.00  0.00     0.074 A 
ATOM     22  C   UNL     1       5.905   6.538   0.281  1.00  0.00     0.031 C 
ATOM     23  C   UNL     1       4.471   4.238  -6.061  1.00  0.00     0.029 A 
ATOM     24  C   UNL     1       5.099   5.553  -5.992  1.00  0.00     0.049 A 
ATOM     25  H   UNL     1       5.797   6.539  -4.295  1.00  0.00     0.167 HD
ATOM     26  C   UNL     1       6.909   8.629  -0.604  1.00  0.00     0.037 A 
ATOM     27  C   UNL     1       5.333   6.354  -7.047  1.00  0.00     0.037 A 
ATOM     28  C   UNL     1       7.292   9.511  -1.677  1.00  0.00     0.049 A 
ATOM     29  C   UNL     1       5.965   7.697  -6.819  1.00  0.00     0.074 A 
ATOM     30  C   UNL     1       7.943  10.730  -1.602  1.00  0.00     0.029 A 
ATOM     31  N   UNL     1       7.044   9.274  -3.023  1.00  0.00    -0.354 N 
ATOM     32  N   UNL     1       6.336   8.251  -5.690  1.00  0.00    -0.248 NA
ATOM     33  C   UNL     1       6.211   8.525  -8.006  1.00  0.00     0.031 C 
ATOM     34  C   UNL     1       8.036  11.256  -2.895  1.00  0.00     0.029 A 
ATOM     35  C   UNL     1       7.505  10.336  -3.784  1.00  0.00     0.049 A 
ATOM     36  H   UNL     1       6.605   8.469  -3.383  1.00  0.00     0.167 HD
ATOM     37  C   UNL     1       6.889   9.477  -6.032  1.00  0.00     0.074 A 
ATOM     38  C   UNL     1       6.806   9.584  -7.474  1.00  0.00     0.031 C 
ATOM     39  C   UNL     1       7.425  10.424  -5.222  1.00  0.00     0.037 A 
BRANCH  26  40
ATOM     40  C   UNL     1       7.162   9.067   0.812  1.00  0.00     0.057 A 
ATOM     41  C   UNL     1       8.093   8.423   1.638  1.00  0.00     0.134 A 
ATOM     42  C   UNL     1       6.469  10.158   1.355  1.00  0.00     0.134 A 
ATOM     43  F   UNL     1       8.786   7.366   1.187  1.00  0.00    -0.206 F 
ATOM     44  C   UNL     1       8.297   8.822   2.961  1.00  0.00     0.040 A 
ATOM     45  C   UNL     1       6.687  10.585   2.666  1.00  0.00     0.040 A 
ATOM     46  F   UNL     1       5.570  10.829   0.619  1.00  0.00    -0.206 F 
ATOM     47  C   UNL     1       7.596   9.909   3.477  1.00  0.00     0.006 A 
ENDBRANCH  26  40
BRANCH  27  48
ATOM     48  C   UNL     1       4.957   5.897  -8.408  1.00  0.00     0.057 A 
ATOM     49  C   UNL     1       5.931   5.545  -9.347  1.00  0.00     0.134 A 
ATOM     50  C   UNL     1       3.615   5.760  -8.786  1.00  0.00     0.134 A 
ATOM     51  F   UNL     1       7.233   5.667  -9.049  1.00  0.00    -0.206 F 
ATOM     52  C   UNL     1       5.586   5.078 -10.617  1.00  0.00     0.040 A 
ATOM     53  C   UNL     1       3.256   5.269 -10.041  1.00  0.00     0.040 A 
ATOM     54  F   UNL     1       2.635   6.070  -7.925  1.00  0.00    -0.206 F 
ATOM     55  C   UNL     1       4.244   4.930 -10.963  1.00  0.00     0.006 A 
ENDBRANCH  27  48
BRANCH  39  56
ATOM     56  C   UNL     1       8.018  11.637  -5.877  1.00  0.00     0.057 A 
ATOM     57  C   UNL     1       7.225  12.636  -6.455  1.00  0.00     0.134 A 
ATOM     58  C   UNL     1       9.405  11.834  -5.871  1.00  0.00     0.134 A 
ATOM     59  F   UNL     1       5.891  12.502  -6.507  1.00  0.00    -0.206 F 
ATOM     60  C   UNL     1       7.792  13.782  -7.016  1.00  0.00     0.040 A 
ATOM     61  C   UNL     1       9.982  12.988  -6.403  1.00  0.00     0.040 A 
ATOM     62  F   UNL     1      10.221  10.918  -5.328  1.00  0.00    -0.206 F 
ATOM     63  C   UNL     1       9.174  13.964  -6.981  1.00  0.00     0.006 A 
ENDBRANCH  39  56
ENDBRANCH  13  14
ENDBRANCH   6   8
ENDBRANCH   3   4
ENDBRANCH   2   3
ENDBRANCH   1   2
BRANCH   1  64
ATOM     64  C   UNL     1       3.592  -3.898   2.100  1.00  0.00     0.002 C 
BRANCH  64  65
ATOM     65  C   UNL     1       4.882  -4.566   1.609  1.00  0.00     0.021 C 
BRANCH  65  66
ATOM     66  C   UNL     1       6.108  -4.486   2.504  1.00  0.00     0.116 C 
BRANCH  66  67
ATOM     67  N   UNL     1       6.186  -5.299   3.681  1.00  0.00    -0.356 N 
ATOM     68  C   UNL     1       7.205  -5.463   4.567  1.00  0.00     0.229 C 
ATOM     69  H   UNL     1       5.375  -5.822   3.880  1.00  0.00     0.163 HD
ATOM     70  O   UNL     1       6.919  -6.179   5.542  1.00  0.00    -0.275 OA
BRANCH  68  71
ATOM     71  C   UNL     1       8.684  -4.999   4.440  1.00  0.00     0.145 C 
ATOM     72  C   UNL     1       9.492  -6.163   3.842  1.00  0.00     0.276 C 
ATOM     73  C   UNL     1       9.335  -3.681   3.869  1.00  0.00     0.037 C 
ATOM     74  N   UNL     1      10.756  -5.614   3.373  1.00  0.00    -0.330 N 
ATOM     75  C   UNL     1      10.513  -4.223   3.004  1.00  0.00     0.270 C 
ATOM     76  C   UNL     1       8.430  -2.753   3.054  1.00  0.00     0.014 C 
ATOM     77  C   UNL     1       9.847  -2.798   5.045  1.00  0.00     0.014 C 
ATOM     78  H   UNL     1      11.050  -6.118   2.537  1.00  0.00     0.348 HD
ATOM     79  C   UNL     1       8.969  -1.383   2.661  1.00  0.00     0.001 C 
ATOM     80  C   UNL     1      10.481  -1.470   4.621  1.00  0.00     0.001 C 
ATOM     81  C   UNL     1       9.472  -0.621   3.870  1.00  0.00     0.000 C 
BRANCH  74  82
ATOM     82  C   UNL     1      11.979  -5.953   4.109  1.00  0.00     0.299 C 
BRANCH  82  83
ATOM     83  C   UNL     1      12.189  -5.298   5.458  1.00  0.00     0.008 A 
ATOM     84  C   UNL     1      11.475  -5.723   6.588  1.00  0.00     0.011 A 
ATOM     85  C   UNL     1      13.045  -4.188   5.583  1.00  0.00     0.031 A 
ATOM     86  C   UNL     1      11.503  -4.977   7.770  1.00  0.00     0.022 A 
ATOM     87  C   UNL     1      13.082  -3.442   6.770  1.00  0.00     0.060 A 
ATOM     88  C   UNL     1      12.281  -3.818   7.853  1.00  0.00     0.059 A 
ATOM     89  Cl  UNL     1      14.060  -2.018   6.793  1.00  0.00    -0.083 Cl
ATOM     90  Cl  UNL     1      12.145  -2.860   9.284  1.00  0.00    -0.083 Cl
ENDBRANCH  82  83
ENDBRANCH  74  82
ENDBRANCH  68  71
ENDBRANCH  66  67
ENDBRANCH  65  66
ENDBRANCH  64  65
ENDBRANCH   1  64
TORSDOF 15
