REMARK SMILES O=C(NCCCCCCNC(=O)[C@H](CO)NC(=O)[C@H](Cc1c[nH]c2ccccc12)NC(=O)[C@H](Cc1ccc(O)cc1)NC(=O)c1ccc(F)cc1)c1ccc(-c2c3nc(c(-c4c(F)cccc4F)c4ccc([nH]4)c(-c4c(F)cccc4F)c4nc(c(-c5c(F)cccc5F)c5ccc2[nH]5)C=C4)C=C3)cc1
REMARK SMILES IDX 9 1 8 2 7 3 6 4 5 5 4 6 3 7 1 8 2 9 52 11 53 12 105 13 54 14
REMARK SMILES IDX 104 15 55 16 56 17 57 18 98 19 58 20 103 21 97 22 99 23
REMARK SMILES IDX 59 24 102 25 96 26 95 27 60 29 86 30 69 31 85 32 70 33 73 34
REMARK SMILES IDX 84 35 100 36 71 37 72 38 83 40 101 41 74 42 61 43 62 44
REMARK SMILES IDX 67 45 63 46 64 47 66 48 68 49 65 50 87 51 88 52 93 53 89 54
REMARK SMILES IDX 90 55 92 56 94 57 91 58 75 59 76 60 81 61 77 62 78 63 80 64
REMARK SMILES IDX 82 65 79 66 10 67 11 68 12 70 13 71 16 72 17 73 18 75 19 76
REMARK SMILES IDX 30 77 31 78 32 80 33 81 42 82 43 83 44 85 45 86 46 87 51 88
REMARK SMILES IDX 47 89 50 90 48 91 49 92 34 93 35 94 36 95 41 96 37 97 40 98
REMARK SMILES IDX 38 99 39 100 20 102 21 103 22 104 29 105 23 106 24 107
REMARK SMILES IDX 28 108 25 110 27 111 26 112 14 113 15 114
REMARK H PARENT 3 10 99 28 73 39 10 69 16 74 30 79 42 84 39 101 23 109 15 115
REMARK Flexibility Score: inf
ROOT
ATOM      1  C   UNL     1      13.998   8.505  -0.289  1.00  0.00     0.116 C 
ENDROOT
BRANCH   1   2
ATOM      2  C   UNL     1      14.185   7.657  -1.543  1.00  0.00     0.021 C 
BRANCH   2   3
ATOM      3  C   UNL     1      14.982   8.318  -2.672  1.00  0.00     0.002 C 
BRANCH   3   4
ATOM      4  C   UNL     1      16.379   8.811  -2.293  1.00  0.00     0.002 C 
BRANCH   4   5
ATOM      5  C   UNL     1      17.293   7.780  -1.633  1.00  0.00     0.021 C 
BRANCH   5   6
ATOM      6  C   UNL     1      17.448   6.481  -2.408  1.00  0.00     0.116 C 
BRANCH   6   7
ATOM      7  N   UNL     1      18.055   6.673  -3.714  1.00  0.00    -0.352 N 
ATOM      8  O   UNL     1      19.551   6.295  -5.365  1.00  0.00    -0.269 OA
ATOM      9  C   UNL     1      19.044   5.931  -4.309  1.00  0.00     0.251 C 
ATOM     10  H   UNL     1      17.713   7.433  -4.239  1.00  0.00     0.163 HD
BRANCH   9  11
ATOM     11  C   UNL     1      19.508   4.692  -3.650  1.00  0.00     0.039 A 
ATOM     12  C   UNL     1      18.584   3.770  -3.150  1.00  0.00     0.014 A 
ATOM     13  C   UNL     1      20.880   4.453  -3.535  1.00  0.00     0.014 A 
ATOM     14  C   UNL     1      19.029   2.661  -2.444  1.00  0.00     0.010 A 
ATOM     15  C   UNL     1      21.326   3.293  -2.900  1.00  0.00     0.010 A 
ATOM     16  C   UNL     1      20.403   2.391  -2.348  1.00  0.00    -0.014 A 
BRANCH  16  17
ATOM     17  C   UNL     1      20.847   1.088  -1.801  1.00  0.00     0.031 A 
ATOM     18  C   UNL     1      21.650   0.998  -0.539  1.00  0.00     0.074 A 
ATOM     19  C   UNL     1      20.518  -0.024  -2.489  1.00  0.00     0.049 A 
ATOM     20  N   UNL     1      22.160  -0.065   0.029  1.00  0.00    -0.248 NA
ATOM     21  C   UNL     1      21.922   2.252   0.180  1.00  0.00     0.031 C 
ATOM     22  C   UNL     1      19.748  -0.041  -3.737  1.00  0.00     0.029 A 
ATOM     23  N   UNL     1      20.784  -1.347  -2.248  1.00  0.00    -0.354 N 
ATOM     24  C   UNL     1      22.828   0.390   1.158  1.00  0.00     0.074 A 
ATOM     25  C   UNL     1      22.669   1.828   1.194  1.00  0.00     0.031 C 
ATOM     26  C   UNL     1      19.584  -1.308  -4.138  1.00  0.00     0.029 A 
ATOM     27  C   UNL     1      20.300  -2.187  -3.222  1.00  0.00     0.049 A 
ATOM     28  H   UNL     1      21.273  -1.664  -1.455  1.00  0.00     0.167 HD
ATOM     29  C   UNL     1      23.506  -0.338   2.075  1.00  0.00     0.037 A 
ATOM     30  C   UNL     1      20.451  -3.513  -3.389  1.00  0.00     0.037 A 
ATOM     31  C   UNL     1      23.631  -1.773   2.034  1.00  0.00     0.049 A 
ATOM     32  C   UNL     1      21.246  -4.283  -2.379  1.00  0.00     0.074 A 
ATOM     33  C   UNL     1      24.239  -2.605   2.958  1.00  0.00     0.029 A 
ATOM     34  N   UNL     1      23.153  -2.584   1.017  1.00  0.00    -0.354 N 
ATOM     35  N   UNL     1      21.827  -3.846  -1.288  1.00  0.00    -0.248 NA
ATOM     36  C   UNL     1      21.421  -5.720  -2.622  1.00  0.00     0.031 C 
ATOM     37  C   UNL     1      24.180  -3.912   2.472  1.00  0.00     0.029 A 
ATOM     38  C   UNL     1      23.490  -3.903   1.271  1.00  0.00     0.049 A 
ATOM     39  H   UNL     1      22.650  -2.269   0.232  1.00  0.00     0.167 HD
ATOM     40  C   UNL     1      22.434  -4.952  -0.714  1.00  0.00     0.074 A 
ATOM     41  C   UNL     1      22.131  -6.085  -1.563  1.00  0.00     0.031 C 
ATOM     42  C   UNL     1      23.183  -5.018   0.412  1.00  0.00     0.037 A 
BRANCH  29  43
ATOM     43  C   UNL     1      24.179   0.376   3.208  1.00  0.00     0.057 A 
ATOM     44  C   UNL     1      25.578   0.438   3.274  1.00  0.00     0.134 A 
ATOM     45  C   UNL     1      23.458   0.865   4.303  1.00  0.00     0.134 A 
ATOM     46  F   UNL     1      26.328  -0.024   2.262  1.00  0.00    -0.206 F 
ATOM     47  C   UNL     1      26.235   0.936   4.400  1.00  0.00     0.040 A 
ATOM     48  C   UNL     1      24.104   1.383   5.428  1.00  0.00     0.040 A 
ATOM     49  F   UNL     1      22.117   0.837   4.301  1.00  0.00    -0.206 F 
ATOM     50  C   UNL     1      25.497   1.406   5.484  1.00  0.00     0.006 A 
ENDBRANCH  29  43
BRANCH  30  51
ATOM     51  C   UNL     1      19.869  -4.169  -4.586  1.00  0.00     0.057 A 
ATOM     52  C   UNL     1      20.353  -3.893  -5.872  1.00  0.00     0.134 A 
ATOM     53  C   UNL     1      18.793  -5.054  -4.479  1.00  0.00     0.134 A 
ATOM     54  F   UNL     1      21.377  -3.043  -6.043  1.00  0.00    -0.206 F 
ATOM     55  C   UNL     1      19.771  -4.452  -7.010  1.00  0.00     0.040 A 
ATOM     56  C   UNL     1      18.220  -5.646  -5.607  1.00  0.00     0.040 A 
ATOM     57  F   UNL     1      18.294  -5.370  -3.275  1.00  0.00    -0.206 F 
ATOM     58  C   UNL     1      18.704  -5.337  -6.878  1.00  0.00     0.006 A 
ENDBRANCH  30  51
BRANCH  42  59
ATOM     59  C   UNL     1      23.734  -6.355   0.800  1.00  0.00     0.057 A 
ATOM     60  C   UNL     1      23.230  -7.042   1.912  1.00  0.00     0.134 A 
ATOM     61  C   UNL     1      24.832  -6.910   0.133  1.00  0.00     0.134 A 
ATOM     62  F   UNL     1      22.185  -6.555   2.598  1.00  0.00    -0.206 F 
ATOM     63  C   UNL     1      23.818  -8.223   2.363  1.00  0.00     0.040 A 
ATOM     64  C   UNL     1      25.413  -8.103   0.561  1.00  0.00     0.040 A 
ATOM     65  F   UNL     1      25.350  -6.304  -0.946  1.00  0.00    -0.206 F 
ATOM     66  C   UNL     1      24.914  -8.756   1.688  1.00  0.00     0.006 A 
ENDBRANCH  42  59
ENDBRANCH  16  17
ENDBRANCH   9  11
ENDBRANCH   6   7
ENDBRANCH   5   6
ENDBRANCH   4   5
ENDBRANCH   3   4
ENDBRANCH   2   3
ENDBRANCH   1   2
BRANCH   1  67
ATOM     67  N   UNL     1      13.233   9.711  -0.549  1.00  0.00    -0.354 N 
ATOM     68  C   UNL     1      12.455  10.421   0.318  1.00  0.00     0.244 C 
ATOM     69  H   UNL     1      13.283  10.061  -1.468  1.00  0.00     0.163 HD
ATOM     70  O   UNL     1      12.030  11.520  -0.050  1.00  0.00    -0.273 OA
BRANCH  68  71
ATOM     71  C   UNL     1      12.058   9.809   1.670  1.00  0.00     0.197 C 
BRANCH  71  72
ATOM     72  N   UNL     1      12.073  10.860   2.688  1.00  0.00    -0.340 N 
ATOM     73  C   UNL     1      12.967  11.214   3.645  1.00  0.00     0.243 C 
ATOM     74  H   UNL     1      11.268  11.427   2.677  1.00  0.00     0.164 HD
ATOM     75  O   UNL     1      12.726  12.278   4.231  1.00  0.00    -0.273 OA
BRANCH  73  76
ATOM     76  C   UNL     1      14.256  10.431   4.003  1.00  0.00     0.175 C 
BRANCH  76  77
ATOM     77  N   UNL     1      14.438   9.066   3.498  1.00  0.00    -0.342 N 
ATOM     78  C   UNL     1      14.219   7.811   3.982  1.00  0.00     0.243 C 
ATOM     79  H   UNL     1      14.808   9.053   2.586  1.00  0.00     0.164 HD
ATOM     80  O   UNL     1      14.488   6.916   3.170  1.00  0.00    -0.273 OA
BRANCH  78  81
ATOM     81  C   UNL     1      13.859   7.459   5.466  1.00  0.00     0.176 C 
BRANCH  81  82
ATOM     82  N   UNL     1      13.561   8.587   6.353  1.00  0.00    -0.340 N 
ATOM     83  C   UNL     1      14.319   9.212   7.310  1.00  0.00     0.251 C 
ATOM     84  H   UNL     1      12.658   8.963   6.242  1.00  0.00     0.164 HD
ATOM     85  O   UNL     1      13.765  10.028   8.043  1.00  0.00    -0.269 OA
BRANCH  83  86
ATOM     86  C   UNL     1      15.773   8.959   7.481  1.00  0.00     0.040 A 
ATOM     87  C   UNL     1      16.643   8.701   6.414  1.00  0.00     0.017 A 
ATOM     88  C   UNL     1      16.302   9.087   8.774  1.00  0.00     0.017 A 
ATOM     89  C   UNL     1      18.008   8.515   6.641  1.00  0.00     0.040 A 
ATOM     90  C   UNL     1      17.669   8.914   8.999  1.00  0.00     0.040 A 
ATOM     91  C   UNL     1      18.508   8.619   7.931  1.00  0.00     0.123 A 
ATOM     92  F   UNL     1      19.818   8.449   8.144  1.00  0.00    -0.207 F 
ENDBRANCH  83  86
ENDBRANCH  81  82
BRANCH  81  93
ATOM     93  C   UNL     1      12.765   6.375   5.691  1.00  0.00     0.070 C 
BRANCH  93  94
ATOM     94  C   UNL     1      12.365   5.483   4.548  1.00  0.00    -0.045 A 
ATOM     95  C   UNL     1      12.934   4.213   4.379  1.00  0.00     0.007 A 
ATOM     96  C   UNL     1      11.406   5.926   3.627  1.00  0.00     0.007 A 
ATOM     97  C   UNL     1      12.571   3.413   3.291  1.00  0.00     0.046 A 
ATOM     98  C   UNL     1      11.048   5.130   2.541  1.00  0.00     0.046 A 
ATOM     99  C   UNL     1      11.639   3.886   2.373  1.00  0.00     0.115 A 
BRANCH  99 100
ATOM    100  O   UNL     1      11.278   3.154   1.281  1.00  0.00    -0.508 OA
ATOM    101  H   UNL     1      11.658   2.309   1.137  1.00  0.00     0.293 HD
ENDBRANCH  99 100
ENDBRANCH  93  94
ENDBRANCH  81  93
ENDBRANCH  78  81
ENDBRANCH  76  77
BRANCH  76 102
ATOM    102  C   UNL     1      15.509  11.305   3.737  1.00  0.00     0.072 C 
BRANCH 102 103
ATOM    103  C   UNL     1      15.880  11.512   2.295  1.00  0.00    -0.020 A 
ATOM    104  C   UNL     1      15.090  12.098   1.327  1.00  0.00     0.087 A 
ATOM    105  C   UNL     1      17.154  11.264   1.677  1.00  0.00     0.003 A 
ATOM    106  N   UNL     1      15.778  12.116   0.146  1.00  0.00    -0.361 N 
ATOM    107  C   UNL     1      17.052  11.639   0.336  1.00  0.00     0.046 A 
ATOM    108  C   UNL     1      18.401  10.788   2.136  1.00  0.00     0.010 A 
ATOM    109  H   UNL     1      15.415  12.427  -0.715  1.00  0.00     0.166 HD
ATOM    110  C   UNL     1      18.114  11.535  -0.571  1.00  0.00     0.026 A 
ATOM    111  C   UNL     1      19.481  10.695   1.246  1.00  0.00     0.001 A 
ATOM    112  C   UNL     1      19.333  11.054  -0.091  1.00  0.00     0.002 A 
ENDBRANCH 102 103
ENDBRANCH  76 102
ENDBRANCH  73  76
ENDBRANCH  71  72
BRANCH  71 113
ATOM    113  C   UNL     1      10.648   9.227   1.492  1.00  0.00     0.191 C 
BRANCH 113 114
ATOM    114  O   UNL     1      10.686   7.951   0.857  1.00  0.00    -0.394 OA
ATOM    115  H   UNL     1      11.081   8.040  -0.025  1.00  0.00     0.210 HD
ENDBRANCH 113 114
ENDBRANCH  71 113
ENDBRANCH  68  71
ENDBRANCH   1  67
TORSDOF 26
