REMARK SMILES O=C(NCCCCCCNC(=O)c1ccc2c(=O)n(CCC[NH+]3CCOCC3)c(=O)[nH]c2c1)c1ccc(-c2c3nc(c(-c4c(F)cccc4F)c4ccc([nH]4)c(-c4c(F)cccc4F)c4nc(c(-c5c(F)cccc5F)c5ccc2[nH]5)C=C4)C=C3)cc1
REMARK SMILES IDX 7 1 6 2 5 3 4 4 3 5 1 6 2 7 34 9 35 10 87 11 36 12 86 13
REMARK SMILES IDX 37 14 38 15 39 16 80 17 40 18 85 19 79 20 81 21 41 22 84 23
REMARK SMILES IDX 78 24 77 25 42 27 68 28 51 29 67 30 52 31 55 32 66 33 82 34
REMARK SMILES IDX 53 35 54 36 65 38 83 39 56 40 43 41 44 42 49 43 45 44 46 45
REMARK SMILES IDX 48 46 50 47 47 48 69 49 70 50 75 51 71 52 72 53 74 54 76 55
REMARK SMILES IDX 73 56 57 57 58 58 63 59 59 60 60 61 62 62 64 63 61 64 8 65
REMARK SMILES IDX 9 66 10 67 11 68 12 70 13 71 14 72 33 73 15 74 32 75 16 76
REMARK SMILES IDX 31 77 17 78 29 79 18 81 19 82 30 83 20 84 21 85 22 86 23 87
REMARK SMILES IDX 24 88 28 89 25 91 27 92 26 93
REMARK H PARENT 3 8 81 26 55 37 10 69 31 80 23 90
REMARK Flexibility Score: inf
ROOT
ATOM      1  C   UNL     1       4.635   2.908  -3.240  1.00  0.00     0.002 C 
ENDROOT
BRANCH   1   2
ATOM      2  C   UNL     1       4.110   1.533  -3.660  1.00  0.00     0.002 C 
BRANCH   2   3
ATOM      3  C   UNL     1       4.619   0.353  -2.830  1.00  0.00     0.021 C 
BRANCH   3   4
ATOM      4  C   UNL     1       4.394   0.473  -1.327  1.00  0.00     0.116 C 
BRANCH   4   5
ATOM      5  N   UNL     1       2.991   0.599  -0.975  1.00  0.00    -0.352 N 
ATOM      6  O   UNL     1       1.067   0.125   0.091  1.00  0.00    -0.269 OA
ATOM      7  C   UNL     1       2.285  -0.009   0.032  1.00  0.00     0.251 C 
ATOM      8  H   UNL     1       2.469   1.211  -1.543  1.00  0.00     0.163 HD
BRANCH   7   9
ATOM      9  C   UNL     1       2.982  -0.846   1.035  1.00  0.00     0.039 A 
ATOM     10  C   UNL     1       2.380  -2.039   1.444  1.00  0.00     0.014 A 
ATOM     11  C   UNL     1       4.198  -0.450   1.599  1.00  0.00     0.014 A 
ATOM     12  C   UNL     1       3.010  -2.847   2.392  1.00  0.00     0.010 A 
ATOM     13  C   UNL     1       4.864  -1.294   2.483  1.00  0.00     0.010 A 
ATOM     14  C   UNL     1       4.266  -2.488   2.909  1.00  0.00    -0.014 A 
BRANCH  14  15
ATOM     15  C   UNL     1       4.930  -3.324   3.941  1.00  0.00     0.031 A 
ATOM     16  C   UNL     1       5.144  -2.780   5.328  1.00  0.00     0.074 A 
ATOM     17  C   UNL     1       5.361  -4.561   3.628  1.00  0.00     0.049 A 
ATOM     18  N   UNL     1       5.700  -3.351   6.366  1.00  0.00    -0.248 NA
ATOM     19  C   UNL     1       4.699  -1.399   5.573  1.00  0.00     0.031 C 
ATOM     20  C   UNL     1       5.257  -5.189   2.310  1.00  0.00     0.029 A 
ATOM     21  N   UNL     1       5.966  -5.516   4.405  1.00  0.00    -0.354 N 
ATOM     22  C   UNL     1       5.691  -2.395   7.374  1.00  0.00     0.074 A 
ATOM     23  C   UNL     1       5.128  -1.189   6.807  1.00  0.00     0.031 C 
ATOM     24  C   UNL     1       5.736  -6.442   2.383  1.00  0.00     0.029 A 
ATOM     25  C   UNL     1       6.204  -6.695   3.742  1.00  0.00     0.049 A 
ATOM     26  H   UNL     1       6.208  -5.370   5.349  1.00  0.00     0.167 HD
ATOM     27  C   UNL     1       6.087  -2.514   8.664  1.00  0.00     0.037 A 
ATOM     28  C   UNL     1       6.725  -7.852   4.188  1.00  0.00     0.037 A 
ATOM     29  C   UNL     1       6.607  -3.725   9.242  1.00  0.00     0.049 A 
ATOM     30  C   UNL     1       7.143  -7.965   5.628  1.00  0.00     0.074 A 
ATOM     31  C   UNL     1       6.970  -3.972  10.554  1.00  0.00     0.029 A 
ATOM     32  N   UNL     1       6.834  -4.897   8.537  1.00  0.00    -0.354 N 
ATOM     33  N   UNL     1       7.066  -7.074   6.586  1.00  0.00    -0.248 NA
ATOM     34  C   UNL     1       7.716  -9.252   6.045  1.00  0.00     0.031 C 
ATOM     35  C   UNL     1       7.448  -5.285  10.636  1.00  0.00     0.029 A 
ATOM     36  C   UNL     1       7.348  -5.867   9.383  1.00  0.00     0.049 A 
ATOM     37  H   UNL     1       6.656  -5.022   7.577  1.00  0.00     0.167 HD
ATOM     38  C   UNL     1       7.550  -7.702   7.727  1.00  0.00     0.074 A 
ATOM     39  C   UNL     1       7.903  -9.053   7.342  1.00  0.00     0.031 C 
ATOM     40  C   UNL     1       7.692  -7.206   8.981  1.00  0.00     0.037 A 
BRANCH  27  41
ATOM     41  C   UNL     1       5.965  -1.295   9.532  1.00  0.00     0.057 A 
ATOM     42  C   UNL     1       7.106  -0.607   9.964  1.00  0.00     0.134 A 
ATOM     43  C   UNL     1       4.719  -0.795   9.935  1.00  0.00     0.134 A 
ATOM     44  F   UNL     1       8.331  -1.033   9.618  1.00  0.00    -0.206 F 
ATOM     45  C   UNL     1       7.012   0.539  10.756  1.00  0.00     0.040 A 
ATOM     46  C   UNL     1       4.611   0.366  10.703  1.00  0.00     0.040 A 
ATOM     47  F   UNL     1       3.586  -1.397   9.542  1.00  0.00    -0.206 F 
ATOM     48  C   UNL     1       5.761   1.034  11.119  1.00  0.00     0.006 A 
ENDBRANCH  27  41
BRANCH  28  49
ATOM     49  C   UNL     1       6.832  -9.024   3.284  1.00  0.00     0.057 A 
ATOM     50  C   UNL     1       7.777  -9.079   2.256  1.00  0.00     0.134 A 
ATOM     51  C   UNL     1       6.000 -10.137   3.458  1.00  0.00     0.134 A 
ATOM     52  F   UNL     1       8.600  -8.043   2.036  1.00  0.00    -0.206 F 
ATOM     53  C   UNL     1       7.894 -10.200   1.432  1.00  0.00     0.040 A 
ATOM     54  C   UNL     1       6.120 -11.273   2.657  1.00  0.00     0.040 A 
ATOM     55  F   UNL     1       5.088 -10.150   4.442  1.00  0.00    -0.206 F 
ATOM     56  C   UNL     1       7.070 -11.305   1.638  1.00  0.00     0.006 A 
ENDBRANCH  28  49
BRANCH  40  57
ATOM     57  C   UNL     1       8.221  -8.148  10.022  1.00  0.00     0.057 A 
ATOM     58  C   UNL     1       7.376  -8.661  11.014  1.00  0.00     0.134 A 
ATOM     59  C   UNL     1       9.561  -8.556  10.037  1.00  0.00     0.134 A 
ATOM     60  F   UNL     1       6.083  -8.304  11.060  1.00  0.00    -0.206 F 
ATOM     61  C   UNL     1       7.843  -9.555  11.978  1.00  0.00     0.040 A 
ATOM     62  C   UNL     1      10.033  -9.470  10.980  1.00  0.00     0.040 A 
ATOM     63  F   UNL     1      10.417  -8.113   9.103  1.00  0.00    -0.206 F 
ATOM     64  C   UNL     1       9.173  -9.970  11.956  1.00  0.00     0.006 A 
ENDBRANCH  40  57
ENDBRANCH  14  15
ENDBRANCH   7   9
ENDBRANCH   4   5
ENDBRANCH   3   4
ENDBRANCH   2   3
ENDBRANCH   1   2
BRANCH   1  65
ATOM     65  C   UNL     1       6.158   3.054  -3.244  1.00  0.00     0.021 C 
BRANCH  65  66
ATOM     66  C   UNL     1       6.823   2.744  -4.581  1.00  0.00     0.116 C 
BRANCH  66  67
ATOM     67  N   UNL     1       6.373   3.641  -5.640  1.00  0.00    -0.352 N 
ATOM     68  C   UNL     1       7.130   4.413  -6.488  1.00  0.00     0.251 C 
ATOM     69  H   UNL     1       5.399   3.702  -5.763  1.00  0.00     0.163 HD
ATOM     70  O   UNL     1       6.627   5.252  -7.223  1.00  0.00    -0.269 OA
BRANCH  68  71
ATOM     71  C   UNL     1       8.586   4.205  -6.494  1.00  0.00     0.041 A 
ATOM     72  C   UNL     1       9.065   2.914  -6.749  1.00  0.00     0.015 A 
ATOM     73  C   UNL     1       9.447   5.261  -6.155  1.00  0.00     0.040 A 
ATOM     74  C   UNL     1      10.399   2.641  -6.517  1.00  0.00     0.017 A 
ATOM     75  C   UNL     1      10.794   4.981  -5.958  1.00  0.00     0.056 A 
ATOM     76  C   UNL     1      11.235   3.675  -6.083  1.00  0.00     0.064 A 
ATOM     77  N   UNL     1      11.721   5.965  -5.616  1.00  0.00    -0.307 N 
ATOM     78  C   UNL     1      12.594   3.373  -5.670  1.00  0.00     0.264 A 
ATOM     79  C   UNL     1      13.069   5.731  -5.454  1.00  0.00     0.328 A 
ATOM     80  H   UNL     1      11.392   6.884  -5.482  1.00  0.00     0.171 HD
ATOM     81  O   UNL     1      12.816   2.195  -5.412  1.00  0.00    -0.268 OA
ATOM     82  N   UNL     1      13.491   4.408  -5.541  1.00  0.00    -0.260 N 
ATOM     83  O   UNL     1      13.813   6.686  -5.240  1.00  0.00    -0.248 OA
BRANCH  82  84
ATOM     84  C   UNL     1      14.929   4.099  -5.527  1.00  0.00     0.137 C 
BRANCH  84  85
ATOM     85  C   UNL     1      15.466   3.211  -4.393  1.00  0.00     0.083 C 
BRANCH  85  86
ATOM     86  C   UNL     1      15.397   1.663  -4.470  1.00  0.00     0.264 C 
BRANCH  86  87
ATOM     87  N   UNL     1      15.959   1.009  -5.670  1.00  0.00    -0.331 N 
ATOM     88  C   UNL     1      14.987   0.851  -6.787  1.00  0.00     0.291 C 
ATOM     89  C   UNL     1      16.437  -0.365  -5.348  1.00  0.00     0.291 C 
ATOM     90  H   UNL     1      16.712   1.630  -5.965  1.00  0.00     0.348 HD
ATOM     91  C   UNL     1      13.909  -0.240  -6.597  1.00  0.00     0.221 C 
ATOM     92  C   UNL     1      15.315  -1.400  -5.135  1.00  0.00     0.221 C 
ATOM     93  O   UNL     1      14.499  -1.511  -6.308  1.00  0.00    -0.370 OA
ENDBRANCH  86  87
ENDBRANCH  85  86
ENDBRANCH  84  85
ENDBRANCH  82  84
ENDBRANCH  68  71
ENDBRANCH  66  67
ENDBRANCH  65  66
ENDBRANCH   1  65
TORSDOF 17
