REMARK SMILES CC(C)[C@@H](NC(N)=O)C(=O)N[C@H](C(=O)NCCCCCCNC(=O)c1ccc(-c2c3nc(c(-c4c(F)cccc4F)c4ccc([nH]4)c(-c4c(F)cccc4F)c4nc(c(-c5c(F)cccc5F)c5ccc2[nH]5)C=C4)C=C3)cc1)[C@@H](C)O
REMARK SMILES IDX 18 1 17 2 16 3 15 4 13 5 14 6 12 8 11 9 9 10 10 11 4 13 2 14
REMARK SMILES IDX 1 15 3 16 5 17 6 18 7 20 8 21 79 24 80 25 81 26 19 28 20 29
REMARK SMILES IDX 21 30 22 31 23 32 24 34 25 35 26 36 78 37 27 38 77 39 28 40
REMARK SMILES IDX 29 41 30 42 71 43 31 44 76 45 70 46 72 47 32 48 75 49 69 50
REMARK SMILES IDX 68 51 33 53 59 54 42 55 58 56 43 57 46 58 57 59 73 60 44 61
REMARK SMILES IDX 45 62 56 64 74 65 47 66 34 67 35 68 40 69 36 70 37 71 39 72
REMARK SMILES IDX 41 73 38 74 60 75 61 76 66 77 62 78 63 79 65 80 67 81 64 82
REMARK SMILES IDX 48 83 49 84 54 85 50 86 51 87 53 88 55 89 52 90
REMARK H PARENT 15 7 11 12 5 19 7 22 7 23 81 27 22 33 72 52 46 63
REMARK Flexibility Score: inf
ROOT
ATOM      1  C   UNL     1      -2.860  -2.183   0.338  1.00  0.00     0.002 C 
ENDROOT
BRANCH   1   2
ATOM      2  C   UNL     1      -2.288  -0.831  -0.097  1.00  0.00     0.021 C 
BRANCH   2   3
ATOM      3  C   UNL     1      -1.312  -0.865  -1.267  1.00  0.00     0.116 C 
BRANCH   3   4
ATOM      4  N   UNL     1      -1.850  -1.400  -2.504  1.00  0.00    -0.354 N 
ATOM      5  C   UNL     1      -1.448  -1.160  -3.798  1.00  0.00     0.245 C 
ATOM      6  O   UNL     1      -1.866  -1.913  -4.679  1.00  0.00    -0.273 OA
ATOM      7  H   UNL     1      -2.607  -2.021  -2.403  1.00  0.00     0.163 HD
BRANCH   5   8
ATOM      8  C   UNL     1      -0.575   0.069  -4.120  1.00  0.00     0.200 C 
BRANCH   8   9
ATOM      9  N   UNL     1       0.675  -0.222  -4.836  1.00  0.00    -0.340 N 
ATOM     10  C   UNL     1       1.963  -0.354  -4.412  1.00  0.00     0.243 C 
ATOM     11  O   UNL     1       2.856  -0.184  -5.250  1.00  0.00    -0.273 OA
ATOM     12  H   UNL     1       0.559  -0.346  -5.806  1.00  0.00     0.164 HD
BRANCH  10  13
ATOM     13  C   UNL     1       2.338  -0.567  -2.920  1.00  0.00     0.175 C 
BRANCH  13  14
ATOM     14  C   UNL     1       2.174   0.761  -2.117  1.00  0.00     0.015 C 
ATOM     15  C   UNL     1       2.306   0.612  -0.598  1.00  0.00     0.010 C 
ATOM     16  C   UNL     1       3.155   1.834  -2.606  1.00  0.00     0.010 C 
ENDBRANCH  13  14
BRANCH  13  17
ATOM     17  N   UNL     1       1.576  -1.689  -2.362  1.00  0.00    -0.326 N 
ATOM     18  C   UNL     1       1.480  -2.880  -3.027  1.00  0.00     0.312 C 
ATOM     19  H   UNL     1       1.125  -1.582  -1.494  1.00  0.00     0.166 HD
ATOM     20  N   UNL     1       0.736  -3.796  -2.370  1.00  0.00    -0.352 N 
ATOM     21  O   UNL     1       1.944  -3.126  -4.131  1.00  0.00    -0.249 OA
ATOM     22  H   UNL     1       0.368  -3.585  -1.482  1.00  0.00     0.161 HD
ATOM     23  H   UNL     1       0.562  -4.674  -2.779  1.00  0.00     0.161 HD
ENDBRANCH  13  17
ENDBRANCH  10  13
ENDBRANCH   8   9
BRANCH   8  24
ATOM     24  C   UNL     1      -1.406   1.068  -4.971  1.00  0.00     0.143 C 
ATOM     25  C   UNL     1      -2.636   1.594  -4.246  1.00  0.00     0.041 C 
BRANCH  24  26
ATOM     26  O   UNL     1      -0.611   2.212  -5.330  1.00  0.00    -0.391 OA
ATOM     27  H   UNL     1      -0.349   2.688  -4.527  1.00  0.00     0.211 HD
ENDBRANCH  24  26
ENDBRANCH   8  24
ENDBRANCH   5   8
ENDBRANCH   3   4
ENDBRANCH   2   3
ENDBRANCH   1   2
BRANCH   1  28
ATOM     28  C   UNL     1      -1.851  -3.293   0.645  1.00  0.00     0.002 C 
BRANCH  28  29
ATOM     29  C   UNL     1      -0.766  -2.969   1.673  1.00  0.00     0.021 C 
BRANCH  29  30
ATOM     30  C   UNL     1      -1.273  -2.469   3.021  1.00  0.00     0.116 C 
BRANCH  30  31
ATOM     31  N   UNL     1      -2.192  -3.397   3.656  1.00  0.00    -0.352 N 
ATOM     32  C   UNL     1      -2.237  -3.842   4.953  1.00  0.00     0.251 C 
ATOM     33  H   UNL     1      -2.889  -3.763   3.065  1.00  0.00     0.163 HD
ATOM     34  O   UNL     1      -3.011  -4.744   5.258  1.00  0.00    -0.269 OA
BRANCH  32  35
ATOM     35  C   UNL     1      -1.347  -3.258   5.980  1.00  0.00     0.039 A 
ATOM     36  C   UNL     1      -0.770  -4.109   6.926  1.00  0.00     0.014 A 
ATOM     37  C   UNL     1      -1.102  -1.883   6.039  1.00  0.00     0.014 A 
ATOM     38  C   UNL     1       0.082  -3.587   7.902  1.00  0.00     0.010 A 
ATOM     39  C   UNL     1      -0.185  -1.377   6.956  1.00  0.00     0.010 A 
ATOM     40  C   UNL     1       0.403  -2.220   7.910  1.00  0.00    -0.014 A 
BRANCH  40  41
ATOM     41  C   UNL     1       1.329  -1.661   8.929  1.00  0.00     0.031 A 
ATOM     42  C   UNL     1       0.840  -0.630   9.913  1.00  0.00     0.074 A 
ATOM     43  C   UNL     1       2.619  -2.051   8.942  1.00  0.00     0.049 A 
ATOM     44  N   UNL     1       1.502  -0.011  10.858  1.00  0.00    -0.248 NA
ATOM     45  C   UNL     1      -0.569  -0.217   9.805  1.00  0.00     0.031 C 
ATOM     46  C   UNL     1       3.228  -2.996   8.004  1.00  0.00     0.029 A 
ATOM     47  N   UNL     1       3.653  -1.696   9.771  1.00  0.00    -0.354 N 
ATOM     48  C   UNL     1       0.600   0.873  11.438  1.00  0.00     0.074 A 
ATOM     49  C   UNL     1      -0.642   0.750  10.708  1.00  0.00     0.031 C 
ATOM     50  C   UNL     1       4.521  -3.165   8.325  1.00  0.00     0.029 A 
ATOM     51  C   UNL     1       4.842  -2.315   9.467  1.00  0.00     0.049 A 
ATOM     52  H   UNL     1       3.553  -1.058  10.514  1.00  0.00     0.167 HD
ATOM     53  C   UNL     1       0.783   1.696  12.497  1.00  0.00     0.037 A 
ATOM     54  C   UNL     1       6.055  -2.205  10.041  1.00  0.00     0.037 A 
ATOM     55  C   UNL     1       2.009   1.785  13.247  1.00  0.00     0.049 A 
ATOM     56  C   UNL     1       6.219  -1.303  11.235  1.00  0.00     0.074 A 
ATOM     57  C   UNL     1       2.268   2.526  14.387  1.00  0.00     0.029 A 
ATOM     58  N   UNL     1       3.180   1.114  12.931  1.00  0.00    -0.354 N 
ATOM     59  N   UNL     1       5.330  -0.543  11.828  1.00  0.00    -0.248 NA
ATOM     60  C   UNL     1       7.553  -1.257  11.850  1.00  0.00     0.031 C 
ATOM     61  C   UNL     1       3.612   2.349  14.727  1.00  0.00     0.029 A 
ATOM     62  C   UNL     1       4.172   1.446  13.839  1.00  0.00     0.049 A 
ATOM     63  H   UNL     1       3.290   0.494  12.174  1.00  0.00     0.167 HD
ATOM     64  C   UNL     1       5.986   0.040  12.905  1.00  0.00     0.074 A 
ATOM     65  C   UNL     1       7.340  -0.471  12.895  1.00  0.00     0.031 C 
ATOM     66  C   UNL     1       5.512   0.919  13.822  1.00  0.00     0.037 A 
BRANCH  53  67
ATOM     67  C   UNL     1      -0.364   2.570  12.918  1.00  0.00     0.057 A 
ATOM     68  C   UNL     1      -1.515   2.048  13.521  1.00  0.00     0.134 A 
ATOM     69  C   UNL     1      -0.283   3.962  12.779  1.00  0.00     0.134 A 
ATOM     70  F   UNL     1      -1.663   0.724  13.674  1.00  0.00    -0.206 F 
ATOM     71  C   UNL     1      -2.550   2.877  13.958  1.00  0.00     0.040 A 
ATOM     72  C   UNL     1      -1.298   4.803  13.238  1.00  0.00     0.040 A 
ATOM     73  F   UNL     1       0.793   4.529  12.212  1.00  0.00    -0.206 F 
ATOM     74  C   UNL     1      -2.438   4.260  13.827  1.00  0.00     0.006 A 
ENDBRANCH  53  67
BRANCH  54  75
ATOM     75  C   UNL     1       7.214  -2.971   9.510  1.00  0.00     0.057 A 
ATOM     76  C   UNL     1       7.823  -3.985  10.259  1.00  0.00     0.134 A 
ATOM     77  C   UNL     1       7.771  -2.673   8.260  1.00  0.00     0.134 A 
ATOM     78  F   UNL     1       7.348  -4.307  11.471  1.00  0.00    -0.206 F 
ATOM     79  C   UNL     1       8.967  -4.645   9.806  1.00  0.00     0.040 A 
ATOM     80  C   UNL     1       8.894  -3.348   7.779  1.00  0.00     0.040 A 
ATOM     81  F   UNL     1       7.229  -1.722   7.485  1.00  0.00    -0.206 F 
ATOM     82  C   UNL     1       9.505  -4.327   8.561  1.00  0.00     0.006 A 
ENDBRANCH  54  75
BRANCH  66  83
ATOM     83  C   UNL     1       6.450   1.338  14.919  1.00  0.00     0.057 A 
ATOM     84  C   UNL     1       7.570   2.143  14.677  1.00  0.00     0.134 A 
ATOM     85  C   UNL     1       6.218   0.935  16.241  1.00  0.00     0.134 A 
ATOM     86  F   UNL     1       7.856   2.557  13.433  1.00  0.00    -0.206 F 
ATOM     87  C   UNL     1       8.449   2.497  15.703  1.00  0.00     0.040 A 
ATOM     88  C   UNL     1       7.069   1.311  17.280  1.00  0.00     0.040 A 
ATOM     89  F   UNL     1       5.155   0.174  16.546  1.00  0.00    -0.206 F 
ATOM     90  C   UNL     1       8.196   2.084  17.010  1.00  0.00     0.006 A 
ENDBRANCH  66  83
ENDBRANCH  40  41
ENDBRANCH  32  35
ENDBRANCH  30  31
ENDBRANCH  29  30
ENDBRANCH  28  29
ENDBRANCH   1  28
TORSDOF 19
