REMARK SMILES N#C/C(=C\c1ccc(-c2cc(C(F)(F)F)ccc2Cl)o1)C(=O)NCCCCCCNC(=O)c1ccc(-c2c3nc(c(-c4c(F)cccc4F)c4ccc([nH]4)c(-c4c(F)cccc4F)c4nc(c(-c5c(F)cccc5F)c5ccc2[nH]5)C=C4)C=C3)cc1
REMARK SMILES IDX 26 1 25 2 24 3 23 4 21 5 22 6 3 8 4 9 2 10 1 11 5 12 6 13
REMARK SMILES IDX 20 14 7 15 8 16 9 17 10 18 18 19 11 20 17 21 19 22 16 23
REMARK SMILES IDX 12 24 13 25 14 26 15 27 27 28 28 29 29 30 30 31 31 32 32 34
REMARK SMILES IDX 33 35 34 36 86 37 35 38 85 39 36 40 37 41 38 42 79 43 39 44
REMARK SMILES IDX 84 45 78 46 80 47 40 48 83 49 77 50 76 51 41 53 67 54 50 55
REMARK SMILES IDX 66 56 51 57 54 58 65 59 81 60 52 61 53 62 64 64 82 65 55 66
REMARK SMILES IDX 42 67 43 68 48 69 44 70 45 71 47 72 49 73 46 74 68 75 69 76
REMARK SMILES IDX 74 77 70 78 71 79 73 80 75 81 72 82 56 83 57 84 62 85 58 86
REMARK SMILES IDX 59 87 61 88 63 89 60 90
REMARK H PARENT 23 7 30 33 80 52 54 63
REMARK Flexibility Score: inf
ROOT
ATOM      1  C   UNL     1       8.935   0.839  -1.947  1.00  0.00     0.002 C 
ENDROOT
BRANCH   1   2
ATOM      2  C   UNL     1       7.897  -0.178  -1.481  1.00  0.00     0.021 C 
BRANCH   2   3
ATOM      3  C   UNL     1       7.030   0.252  -0.306  1.00  0.00     0.116 C 
BRANCH   3   4
ATOM      4  N   UNL     1       5.963   1.174  -0.665  1.00  0.00    -0.351 N 
ATOM      5  C   UNL     1       4.604   1.141  -0.527  1.00  0.00     0.262 C 
ATOM      6  O   UNL     1       3.972   2.119  -0.929  1.00  0.00    -0.268 OA
ATOM      7  H   UNL     1       6.290   1.995  -1.099  1.00  0.00     0.163 HD
BRANCH   5   8
ATOM      8  C   UNL     1       3.873  -0.025   0.031  1.00  0.00     0.120 C 
ATOM      9  C   UNL     1       4.367  -0.925   0.920  1.00  0.00     0.072 C 
BRANCH   8  10
ATOM     10  C   UNL     1       2.353  -0.025   0.031  1.00  0.00     0.105 C 
ATOM     11  N   UNL     1       1.092  -0.025   0.031  1.00  0.00    -0.192 NA
ENDBRANCH   8  10
BRANCH   9  12
ATOM     12  C   UNL     1       3.645  -2.078   1.391  1.00  0.00     0.129 A 
ATOM     13  C   UNL     1       2.722  -2.892   0.735  1.00  0.00     0.051 A 
ATOM     14  O   UNL     1       3.827  -2.614   2.653  1.00  0.00    -0.457 OA
ATOM     15  C   UNL     1       2.297  -3.895   1.631  1.00  0.00     0.051 A 
ATOM     16  C   UNL     1       3.019  -3.709   2.785  1.00  0.00     0.136 A 
BRANCH  16  17
ATOM     17  C   UNL     1       3.077  -4.430   4.050  1.00  0.00     0.036 A 
ATOM     18  C   UNL     1       2.913  -3.719   5.253  1.00  0.00     0.026 A 
ATOM     19  C   UNL     1       3.234  -5.826   4.116  1.00  0.00     0.052 A 
ATOM     20  C   UNL     1       2.887  -4.377   6.498  1.00  0.00     0.056 A 
ATOM     21  C   UNL     1       3.218  -6.487   5.349  1.00  0.00     0.022 A 
ATOM     22  Cl  UNL     1       3.480  -6.809   2.711  1.00  0.00    -0.084 Cl
ATOM     23  C   UNL     1       3.043  -5.769   6.532  1.00  0.00     0.014 A 
BRANCH  20  24
ATOM     24  C   UNL     1       2.687  -3.587   7.770  1.00  0.00     0.416 C 
ATOM     25  F   UNL     1       3.705  -2.714   8.003  1.00  0.00    -0.166 F 
ATOM     26  F   UNL     1       1.548  -2.843   7.747  1.00  0.00    -0.166 F 
ATOM     27  F   UNL     1       2.601  -4.367   8.884  1.00  0.00    -0.166 F 
ENDBRANCH  20  24
ENDBRANCH  16  17
ENDBRANCH   9  12
ENDBRANCH   5   8
ENDBRANCH   3   4
ENDBRANCH   2   3
ENDBRANCH   1   2
BRANCH   1  28
ATOM     28  C   UNL     1       9.885   1.373  -0.870  1.00  0.00     0.002 C 
BRANCH  28  29
ATOM     29  C   UNL     1      10.581   0.330   0.012  1.00  0.00     0.021 C 
BRANCH  29  30
ATOM     30  C   UNL     1      11.383  -0.742  -0.723  1.00  0.00     0.116 C 
BRANCH  30  31
ATOM     31  N   UNL     1      12.416  -0.178  -1.570  1.00  0.00    -0.352 N 
ATOM     32  C   UNL     1      13.754  -0.463  -1.650  1.00  0.00     0.251 C 
ATOM     33  H   UNL     1      12.106   0.523  -2.188  1.00  0.00     0.163 HD
ATOM     34  O   UNL     1      14.483   0.258  -2.325  1.00  0.00    -0.269 OA
BRANCH  32  35
ATOM     35  C   UNL     1      14.339  -1.615  -0.925  1.00  0.00     0.039 A 
ATOM     36  C   UNL     1      15.593  -1.449  -0.328  1.00  0.00     0.014 A 
ATOM     37  C   UNL     1      13.711  -2.864  -0.886  1.00  0.00     0.014 A 
ATOM     38  C   UNL     1      16.197  -2.517   0.339  1.00  0.00     0.010 A 
ATOM     39  C   UNL     1      14.289  -3.916  -0.172  1.00  0.00     0.010 A 
ATOM     40  C   UNL     1      15.541  -3.754   0.440  1.00  0.00    -0.014 A 
BRANCH  40  41
ATOM     41  C   UNL     1      16.166  -4.874   1.188  1.00  0.00     0.031 A 
ATOM     42  C   UNL     1      16.652  -6.102   0.470  1.00  0.00     0.074 A 
ATOM     43  C   UNL     1      16.281  -4.787   2.527  1.00  0.00     0.049 A 
ATOM     44  N   UNL     1      17.235  -7.167   0.959  1.00  0.00    -0.248 NA
ATOM     45  C   UNL     1      16.438  -6.149  -0.985  1.00  0.00     0.031 C 
ATOM     46  C   UNL     1      15.801  -3.673   3.347  1.00  0.00     0.029 A 
ATOM     47  N   UNL     1      16.839  -5.652   3.435  1.00  0.00    -0.354 N 
ATOM     48  C   UNL     1      17.458  -8.009  -0.123  1.00  0.00     0.074 A 
ATOM     49  C   UNL     1      16.902  -7.353  -1.288  1.00  0.00     0.031 C 
ATOM     50  C   UNL     1      16.105  -3.911   4.633  1.00  0.00     0.029 A 
ATOM     51  C   UNL     1      16.782  -5.200   4.731  1.00  0.00     0.049 A 
ATOM     52  H   UNL     1      17.241  -6.514   3.182  1.00  0.00     0.167 HD
ATOM     53  C   UNL     1      18.089  -9.207  -0.149  1.00  0.00     0.037 A 
ATOM     54  C   UNL     1      17.233  -5.758   5.870  1.00  0.00     0.037 A 
ATOM     55  C   UNL     1      18.657  -9.854   1.005  1.00  0.00     0.049 A 
ATOM     56  C   UNL     1      17.953  -7.075   5.809  1.00  0.00     0.074 A 
ATOM     57  C   UNL     1      19.347 -11.052   1.073  1.00  0.00     0.029 A 
ATOM     58  N   UNL     1      18.604  -9.351   2.296  1.00  0.00    -0.354 N 
ATOM     59  N   UNL     1      18.205  -7.831   4.769  1.00  0.00    -0.248 NA
ATOM     60  C   UNL     1      18.463  -7.609   7.080  1.00  0.00     0.031 C 
ATOM     61  C   UNL     1      19.689 -11.287   2.410  1.00  0.00     0.029 A 
ATOM     62  C   UNL     1      19.242 -10.218   3.168  1.00  0.00     0.049 A 
ATOM     63  H   UNL     1      18.177  -8.502   2.554  1.00  0.00     0.167 HD
ATOM     64  C   UNL     1      18.915  -8.921   5.255  1.00  0.00     0.074 A 
ATOM     65  C   UNL     1      19.075  -8.714   6.679  1.00  0.00     0.031 C 
ATOM     66  C   UNL     1      19.388  -9.999   4.583  1.00  0.00     0.037 A 
BRANCH  53  67
ATOM     67  C   UNL     1      18.215  -9.893  -1.478  1.00  0.00     0.057 A 
ATOM     68  C   UNL     1      19.102  -9.432  -2.459  1.00  0.00     0.134 A 
ATOM     69  C   UNL     1      17.478 -11.049  -1.764  1.00  0.00     0.134 A 
ATOM     70  F   UNL     1      19.828  -8.323  -2.251  1.00  0.00    -0.206 F 
ATOM     71  C   UNL     1      19.239 -10.085  -3.685  1.00  0.00     0.040 A 
ATOM     72  C   UNL     1      17.623 -11.724  -2.978  1.00  0.00     0.040 A 
ATOM     73  F   UNL     1      16.615 -11.547  -0.866  1.00  0.00    -0.206 F 
ATOM     74  C   UNL     1      18.503 -11.240  -3.944  1.00  0.00     0.006 A 
ENDBRANCH  53  67
BRANCH  54  75
ATOM     75  C   UNL     1      17.042  -5.060   7.164  1.00  0.00     0.057 A 
ATOM     76  C   UNL     1      18.121  -4.474   7.835  1.00  0.00     0.134 A 
ATOM     77  C   UNL     1      15.781  -4.971   7.764  1.00  0.00     0.134 A 
ATOM     78  F   UNL     1      19.356  -4.543   7.317  1.00  0.00    -0.206 F 
ATOM     79  C   UNL     1      17.957  -3.842   9.069  1.00  0.00     0.040 A 
ATOM     80  C   UNL     1      15.599  -4.323   8.987  1.00  0.00     0.040 A 
ATOM     81  F   UNL     1      14.707  -5.506   7.165  1.00  0.00    -0.206 F 
ATOM     82  C   UNL     1      16.691  -3.763   9.646  1.00  0.00     0.006 A 
ENDBRANCH  54  75
BRANCH  66  83
ATOM     83  C   UNL     1      20.131 -11.024   5.386  1.00  0.00     0.057 A 
ATOM     84  C   UNL     1      19.466 -11.894   6.261  1.00  0.00     0.134 A 
ATOM     85  C   UNL     1      21.521 -11.149   5.278  1.00  0.00     0.134 A 
ATOM     86  F   UNL     1      18.137 -11.814   6.419  1.00  0.00    -0.206 F 
ATOM     87  C   UNL     1      20.163 -12.834   7.021  1.00  0.00     0.040 A 
ATOM     88  C   UNL     1      22.226 -12.100   6.016  1.00  0.00     0.040 A 
ATOM     89  F   UNL     1      22.215 -10.350   4.453  1.00  0.00    -0.206 F 
ATOM     90  C   UNL     1      21.547 -12.941   6.896  1.00  0.00     0.006 A 
ENDBRANCH  66  83
ENDBRANCH  40  41
ENDBRANCH  32  35
ENDBRANCH  30  31
ENDBRANCH  29  30
ENDBRANCH  28  29
ENDBRANCH   1  28
TORSDOF 17
