REMARK SMILES O=C(/C=C/c1cc(F)cc(COCc2ccco2)c1)NCCCCCCNC(=O)c1ccc(-c2c3nc(c(-c4c(F)cccc4F)c4ccc([nH]4)c(-c4c(F)cccc4F)c4nc(c(-c5c(F)cccc5F)c5ccc2[nH]5)C=C4)C=C3)cc1
REMARK SMILES IDX 22 1 21 2 20 3 1 4 2 5 3 7 4 8 5 9 6 10 19 11 7 12 10 13
REMARK SMILES IDX 8 14 9 15 11 16 12 17 13 18 14 19 15 20 18 21 16 22 17 23
REMARK SMILES IDX 23 24 24 25 25 26 26 27 27 28 28 29 29 31 30 32 31 33 83 34
REMARK SMILES IDX 32 35 82 36 33 37 34 38 35 39 76 40 36 41 81 42 75 43 77 44
REMARK SMILES IDX 37 45 80 46 74 47 73 48 38 50 64 51 47 52 63 53 48 54 51 55
REMARK SMILES IDX 62 56 78 57 49 58 50 59 61 61 79 62 52 63 39 64 40 65 45 66
REMARK SMILES IDX 41 67 42 68 44 69 46 70 43 71 65 72 66 73 71 74 67 75 68 76
REMARK SMILES IDX 70 77 72 78 69 79 53 80 54 81 59 82 55 83 56 84 58 85 60 86
REMARK SMILES IDX 57 87
REMARK H PARENT 20 6 27 30 77 49 51 60
REMARK Flexibility Score: inf
ROOT
ATOM      1  C   UNL     1       2.736   2.334   2.326  1.00  0.00     0.021 C 
ENDROOT
BRANCH   1   2
ATOM      2  C   UNL     1       2.217   2.182   0.895  1.00  0.00     0.116 C 
BRANCH   2   3
ATOM      3  N   UNL     1       2.903   1.122   0.183  1.00  0.00    -0.353 N 
ATOM      4  O   UNL     1       1.111  -0.306   0.094  1.00  0.00    -0.270 OA
ATOM      5  C   UNL     1       2.293  -0.062  -0.127  1.00  0.00     0.243 C 
ATOM      6  H   UNL     1       3.839   1.259  -0.088  1.00  0.00     0.163 HD
BRANCH   5   7
ATOM      7  C   UNL     1       3.138  -1.106  -0.764  1.00  0.00     0.072 C 
ATOM      8  C   UNL     1       4.477  -1.115  -0.851  1.00  0.00     0.014 C 
BRANCH   8   9
ATOM      9  C   UNL     1       5.214  -2.285  -1.349  1.00  0.00    -0.022 A 
ATOM     10  C   UNL     1       4.840  -2.986  -2.498  1.00  0.00     0.047 A 
ATOM     11  C   UNL     1       6.318  -2.734  -0.610  1.00  0.00     0.014 A 
ATOM     12  C   UNL     1       5.536  -4.135  -2.863  1.00  0.00     0.124 A 
ATOM     13  C   UNL     1       6.988  -3.920  -0.949  1.00  0.00    -0.019 A 
ATOM     14  F   UNL     1       5.158  -4.811  -3.956  1.00  0.00    -0.207 F 
ATOM     15  C   UNL     1       6.594  -4.614  -2.097  1.00  0.00     0.045 A 
BRANCH  13  16
ATOM     16  C   UNL     1       8.059  -4.469  -0.039  1.00  0.00     0.196 C 
BRANCH  16  17
ATOM     17  O   UNL     1       7.728  -5.737   0.527  1.00  0.00    -0.369 OA
BRANCH  17  18
ATOM     18  C   UNL     1       6.512  -5.801   1.281  1.00  0.00     0.235 C 
BRANCH  18  19
ATOM     19  C   UNL     1       6.587  -4.969   2.510  1.00  0.00     0.129 A 
ATOM     20  C   UNL     1       6.077  -3.731   2.848  1.00  0.00     0.048 A 
ATOM     21  O   UNL     1       7.232  -5.509   3.585  1.00  0.00    -0.467 OA
ATOM     22  C   UNL     1       6.454  -3.490   4.189  1.00  0.00     0.042 A 
ATOM     23  C   UNL     1       7.140  -4.609   4.598  1.00  0.00     0.195 A 
ENDBRANCH  18  19
ENDBRANCH  17  18
ENDBRANCH  16  17
ENDBRANCH  13  16
ENDBRANCH   8   9
ENDBRANCH   5   7
ENDBRANCH   2   3
ENDBRANCH   1   2
BRANCH   1  24
ATOM     24  C   UNL     1       4.234   2.648   2.439  1.00  0.00     0.002 C 
BRANCH  24  25
ATOM     25  C   UNL     1       4.705   3.897   1.688  1.00  0.00     0.002 C 
BRANCH  25  26
ATOM     26  C   UNL     1       4.014   5.204   2.086  1.00  0.00     0.021 C 
BRANCH  26  27
ATOM     27  C   UNL     1       4.145   5.587   3.558  1.00  0.00     0.116 C 
BRANCH  27  28
ATOM     28  N   UNL     1       5.525   5.816   3.957  1.00  0.00    -0.352 N 
ATOM     29  C   UNL     1       6.082   6.878   4.624  1.00  0.00     0.251 C 
ATOM     30  H   UNL     1       6.155   5.101   3.712  1.00  0.00     0.163 HD
ATOM     31  O   UNL     1       7.306   6.958   4.732  1.00  0.00    -0.269 OA
BRANCH  29  32
ATOM     32  C   UNL     1       5.228   7.945   5.190  1.00  0.00     0.039 A 
ATOM     33  C   UNL     1       5.622   9.277   5.027  1.00  0.00     0.014 A 
ATOM     34  C   UNL     1       4.054   7.646   5.888  1.00  0.00     0.014 A 
ATOM     35  C   UNL     1       4.806  10.306   5.502  1.00  0.00     0.010 A 
ATOM     36  C   UNL     1       3.207   8.674   6.299  1.00  0.00     0.010 A 
ATOM     37  C   UNL     1       3.571  10.014   6.106  1.00  0.00    -0.014 A 
BRANCH  37  38
ATOM     38  C   UNL     1       2.642  11.103   6.504  1.00  0.00     0.031 A 
ATOM     39  C   UNL     1       2.289  11.326   7.947  1.00  0.00     0.074 A 
ATOM     40  C   UNL     1       2.074  11.866   5.550  1.00  0.00     0.049 A 
ATOM     41  N   UNL     1       1.482  12.215   8.470  1.00  0.00    -0.248 NA
ATOM     42  C   UNL     1       2.906  10.423   8.930  1.00  0.00     0.031 C 
ATOM     43  C   UNL     1       2.296  11.719   4.110  1.00  0.00     0.029 A 
ATOM     44  N   UNL     1       1.196  12.916   5.645  1.00  0.00    -0.354 N 
ATOM     45  C   UNL     1       1.492  11.976   9.838  1.00  0.00     0.074 A 
ATOM     46  C   UNL     1       2.340  10.825  10.059  1.00  0.00     0.031 C 
ATOM     47  C   UNL     1       1.605  12.667   3.460  1.00  0.00     0.029 A 
ATOM     48  C   UNL     1       0.860  13.464   4.431  1.00  0.00     0.049 A 
ATOM     49  H   UNL     1       0.840  13.246   6.502  1.00  0.00     0.167 HD
ATOM     50  C   UNL     1       0.871  12.669  10.822  1.00  0.00     0.037 A 
ATOM     51  C   UNL     1       0.046  14.494   4.129  1.00  0.00     0.037 A 
ATOM     52  C   UNL     1       0.040  13.824  10.602  1.00  0.00     0.049 A 
ATOM     53  C   UNL     1      -0.646  15.236   5.234  1.00  0.00     0.074 A 
ATOM     54  C   UNL     1      -0.584  14.627  11.541  1.00  0.00     0.029 A 
ATOM     55  N   UNL     1      -0.290  14.338   9.356  1.00  0.00    -0.354 N 
ATOM     56  N   UNL     1      -0.579  15.038   6.528  1.00  0.00    -0.248 NA
ATOM     57  C   UNL     1      -1.526  16.346   4.840  1.00  0.00     0.031 C 
ATOM     58  C   UNL     1      -1.331  15.595  10.863  1.00  0.00     0.029 A 
ATOM     59  C   UNL     1      -1.132  15.429   9.502  1.00  0.00     0.049 A 
ATOM     60  H   UNL     1       0.027  13.980   8.496  1.00  0.00     0.167 HD
ATOM     61  C   UNL     1      -1.395  16.002   7.105  1.00  0.00     0.074 A 
ATOM     62  C   UNL     1      -1.933  16.798   6.020  1.00  0.00     0.031 C 
ATOM     63  C   UNL     1      -1.672  16.207   8.415  1.00  0.00     0.037 A 
BRANCH  50  64
ATOM     64  C   UNL     1       1.076  12.204  12.236  1.00  0.00     0.057 A 
ATOM     65  C   UNL     1       0.019  11.653  12.971  1.00  0.00     0.134 A 
ATOM     66  C   UNL     1       2.308  12.351  12.888  1.00  0.00     0.134 A 
ATOM     67  F   UNL     1      -1.189  11.491  12.411  1.00  0.00    -0.206 F 
ATOM     68  C   UNL     1       0.178  11.270  14.304  1.00  0.00     0.040 A 
ATOM     69  C   UNL     1       2.487  11.947  14.212  1.00  0.00     0.040 A 
ATOM     70  F   UNL     1       3.364  12.864  12.238  1.00  0.00    -0.206 F 
ATOM     71  C   UNL     1       1.417  11.412  14.926  1.00  0.00     0.006 A 
ENDBRANCH  50  64
BRANCH  51  72
ATOM     72  C   UNL     1      -0.116  14.899   2.711  1.00  0.00     0.057 A 
ATOM     73  C   UNL     1      -0.812  14.101   1.794  1.00  0.00     0.134 A 
ATOM     74  C   UNL     1       0.470  16.075   2.229  1.00  0.00     0.134 A 
ATOM     75  F   UNL     1      -1.388  12.958   2.193  1.00  0.00    -0.206 F 
ATOM     76  C   UNL     1      -0.898  14.446   0.445  1.00  0.00     0.040 A 
ATOM     77  C   UNL     1       0.373  16.443   0.886  1.00  0.00     0.040 A 
ATOM     78  F   UNL     1       1.135  16.888   3.063  1.00  0.00    -0.206 F 
ATOM     79  C   UNL     1      -0.304  15.621  -0.012  1.00  0.00     0.006 A 
ENDBRANCH  51  72
BRANCH  63  80
ATOM     80  C   UNL     1      -2.600  17.335   8.760  1.00  0.00     0.057 A 
ATOM     81  C   UNL     1      -2.123  18.483   9.406  1.00  0.00     0.134 A 
ATOM     82  C   UNL     1      -3.976  17.257   8.514  1.00  0.00     0.134 A 
ATOM     83  F   UNL     1      -0.816  18.618   9.680  1.00  0.00    -0.206 F 
ATOM     84  C   UNL     1      -2.983  19.506   9.807  1.00  0.00     0.040 A 
ATOM     85  C   UNL     1      -4.844  18.285   8.887  1.00  0.00     0.040 A 
ATOM     86  F   UNL     1      -4.495  16.189   7.888  1.00  0.00    -0.206 F 
ATOM     87  C   UNL     1      -4.348  19.409   9.545  1.00  0.00     0.006 A 
ENDBRANCH  63  80
ENDBRANCH  37  38
ENDBRANCH  29  32
ENDBRANCH  27  28
ENDBRANCH  26  27
ENDBRANCH  25  26
ENDBRANCH  24  25
ENDBRANCH   1  24
TORSDOF 18
