REMARK SMILES C[C@@]12CCCC[C@@H]1[C@@H]2C(=O)N/N=C/c1ccc(OCC(=O)NCCCCCCNC(=O)c2ccc(-c3c4nc(c(-c5c(F)cccc5F)c5ccc([nH]5)c(-c5c(F)cccc5F)c5nc(c(-c6c(F)cccc6F)c6ccc3[nH]6)C=C5)C=C4)cc2)cc1
REMARK SMILES IDX 24 1 23 2 22 3 20 4 21 5 19 7 18 8 17 9 14 10 15 11 87 12
REMARK SMILES IDX 16 13 86 14 13 15 12 16 11 17 9 18 10 19 8 21 1 22 2 23 3 24
REMARK SMILES IDX 7 25 4 26 6 27 5 28 25 29 26 30 27 31 28 32 29 33 30 34
REMARK SMILES IDX 31 36 32 37 33 38 85 39 34 40 84 41 35 42 36 43 37 44 78 45
REMARK SMILES IDX 38 46 83 47 77 48 79 49 39 50 82 51 76 52 75 53 40 55 66 56
REMARK SMILES IDX 49 57 65 58 50 59 53 60 64 61 80 62 51 63 52 64 63 66 81 67
REMARK SMILES IDX 54 68 41 69 42 70 47 71 43 72 44 73 46 74 48 75 45 76 67 77
REMARK SMILES IDX 68 78 73 79 69 80 70 81 72 82 74 83 71 84 55 85 56 86 61 87
REMARK SMILES IDX 57 88 58 89 60 90 62 91 59 92
REMARK H PARENT 22 6 11 20 29 35 79 54 53 65
REMARK Flexibility Score: inf
ROOT
ATOM      1  C   UNL     1      -2.228   5.804   9.748  1.00  0.00     0.021 C 
ENDROOT
BRANCH   1   2
ATOM      2  C   UNL     1      -1.847   7.280   9.627  1.00  0.00     0.116 C 
BRANCH   2   3
ATOM      3  N   UNL     1      -0.438   7.454   9.346  1.00  0.00    -0.353 N 
ATOM      4  C   UNL     1       0.152   8.006   8.247  1.00  0.00     0.257 C 
ATOM      5  O   UNL     1       1.382   8.082   8.214  1.00  0.00    -0.271 OA
ATOM      6  H   UNL     1       0.179   7.129  10.042  1.00  0.00     0.163 HD
BRANCH   4   7
ATOM      7  C   UNL     1      -0.715   8.557   7.103  1.00  0.00     0.329 C 
BRANCH   7   8
ATOM      8  O   UNL     1      -1.707   7.713   6.537  1.00  0.00    -0.484 OA
BRANCH   8   9
ATOM      9  C   UNL     1      -1.294   6.517   6.021  1.00  0.00     0.120 A 
ATOM     10  C   UNL     1      -0.695   3.953   5.100  1.00  0.00    -0.005 A 
ATOM     11  C   UNL     1      -2.024   4.303   5.327  1.00  0.00     0.013 A 
ATOM     12  C   UNL     1       0.327   4.887   5.299  1.00  0.00     0.013 A 
ATOM     13  C   UNL     1      -2.317   5.590   5.784  1.00  0.00     0.047 A 
ATOM     14  C   UNL     1       0.026   6.171   5.745  1.00  0.00     0.047 A 
BRANCH  10  15
ATOM     15  C   UNL     1      -0.358   2.601   4.612  1.00  0.00     0.141 C 
ATOM     16  N   UNL     1       0.883   2.292   4.444  1.00  0.00    -0.181 NA
BRANCH  16  17
ATOM     17  N   UNL     1       1.186   1.069   3.980  1.00  0.00    -0.247 N 
ATOM     18  C   UNL     1       0.760   0.408   2.859  1.00  0.00     0.244 C 
ATOM     19  O   UNL     1       1.249  -0.699   2.624  1.00  0.00    -0.273 OA
ATOM     20  H   UNL     1       1.819   0.563   4.539  1.00  0.00     0.193 HD
BRANCH  18  21
ATOM     21  C   UNL     1      -0.270   0.902   1.915  1.00  0.00     0.090 C 
ATOM     22  C   UNL     1       0.159   0.367  -0.583  1.00  0.00     0.012 C 
ATOM     23  C   UNL     1       0.380   1.328   0.554  1.00  0.00    -0.017 C 
ATOM     24  C   UNL     1       1.734   2.037   0.511  1.00  0.00     0.008 C 
ATOM     25  C   UNL     1      -0.754   2.107   1.154  1.00  0.00     0.009 C 
ATOM     26  C   UNL     1       1.589   3.546   0.334  1.00  0.00     0.001 C 
ATOM     27  C   UNL     1      -0.636   3.561   1.472  1.00  0.00     0.005 C 
ATOM     28  C   UNL     1       0.773   4.125   1.480  1.00  0.00     0.000 C 
ENDBRANCH  18  21
ENDBRANCH  16  17
ENDBRANCH  10  15
ENDBRANCH   8   9
ENDBRANCH   7   8
ENDBRANCH   4   7
ENDBRANCH   2   3
ENDBRANCH   1   2
BRANCH   1  29
ATOM     29  C   UNL     1      -1.523   5.047  10.882  1.00  0.00     0.002 C 
BRANCH  29  30
ATOM     30  C   UNL     1      -1.659   5.670  12.274  1.00  0.00     0.002 C 
BRANCH  30  31
ATOM     31  C   UNL     1      -3.095   5.909  12.745  1.00  0.00     0.021 C 
BRANCH  31  32
ATOM     32  C   UNL     1      -3.965   4.659  12.808  1.00  0.00     0.116 C 
BRANCH  32  33
ATOM     33  N   UNL     1      -3.487   3.699  13.790  1.00  0.00    -0.352 N 
ATOM     34  C   UNL     1      -4.161   3.098  14.825  1.00  0.00     0.251 C 
ATOM     35  H   UNL     1      -2.541   3.442  13.700  1.00  0.00     0.163 HD
ATOM     36  O   UNL     1      -3.550   2.446  15.663  1.00  0.00    -0.269 OA
BRANCH  34  37
ATOM     37  C   UNL     1      -5.627   3.258  14.943  1.00  0.00     0.039 A 
ATOM     38  C   UNL     1      -6.176   3.531  16.199  1.00  0.00     0.014 A 
ATOM     39  C   UNL     1      -6.459   3.133  13.827  1.00  0.00     0.014 A 
ATOM     40  C   UNL     1      -7.551   3.744  16.323  1.00  0.00     0.010 A 
ATOM     41  C   UNL     1      -7.817   3.420  13.938  1.00  0.00     0.010 A 
ATOM     42  C   UNL     1      -8.378   3.726  15.187  1.00  0.00    -0.014 A 
BRANCH  42  43
ATOM     43  C   UNL     1      -9.829   4.031  15.287  1.00  0.00     0.031 A 
ATOM     44  C   UNL     1     -10.851   2.985  14.936  1.00  0.00     0.074 A 
ATOM     45  C   UNL     1     -10.227   5.271  15.634  1.00  0.00     0.049 A 
ATOM     46  N   UNL     1     -12.156   3.083  14.898  1.00  0.00    -0.248 NA
ATOM     47  C   UNL     1     -10.338   1.661  14.550  1.00  0.00     0.031 C 
ATOM     48  C   UNL     1      -9.335   6.387  15.954  1.00  0.00     0.029 A 
ATOM     49  N   UNL     1     -11.485   5.804  15.764  1.00  0.00    -0.354 N 
ATOM     50  C   UNL     1     -12.617   1.843  14.474  1.00  0.00     0.074 A 
ATOM     51  C   UNL     1     -11.451   1.026  14.214  1.00  0.00     0.031 C 
ATOM     52  C   UNL     1     -10.073   7.465  16.266  1.00  0.00     0.029 A 
ATOM     53  C   UNL     1     -11.487   7.130  16.128  1.00  0.00     0.049 A 
ATOM     54  H   UNL     1     -12.308   5.286  15.612  1.00  0.00     0.167 HD
ATOM     55  C   UNL     1     -13.895   1.416  14.336  1.00  0.00     0.037 A 
ATOM     56  C   UNL     1     -12.512   7.982  16.318  1.00  0.00     0.037 A 
ATOM     57  C   UNL     1     -15.053   2.225  14.616  1.00  0.00     0.049 A 
ATOM     58  C   UNL     1     -13.922   7.487  16.143  1.00  0.00     0.074 A 
ATOM     59  C   UNL     1     -16.388   1.864  14.565  1.00  0.00     0.029 A 
ATOM     60  N   UNL     1     -15.014   3.558  14.993  1.00  0.00    -0.354 N 
ATOM     61  N   UNL     1     -14.343   6.291  15.811  1.00  0.00    -0.248 NA
ATOM     62  C   UNL     1     -14.999   8.460  16.374  1.00  0.00     0.031 C 
ATOM     63  C   UNL     1     -17.158   2.993  14.860  1.00  0.00     0.029 A 
ATOM     64  C   UNL     1     -16.302   4.043  15.151  1.00  0.00     0.049 A 
ATOM     65  H   UNL     1     -14.192   4.083  15.129  1.00  0.00     0.167 HD
ATOM     66  C   UNL     1     -15.731   6.359  15.825  1.00  0.00     0.074 A 
ATOM     67  C   UNL     1     -16.079   7.710  16.212  1.00  0.00     0.031 C 
ATOM     68  C   UNL     1     -16.635   5.389  15.544  1.00  0.00     0.037 A 
BRANCH  55  69
ATOM     69  C   UNL     1     -14.109   0.008  13.860  1.00  0.00     0.057 A 
ATOM     70  C   UNL     1     -13.798  -1.100  14.659  1.00  0.00     0.134 A 
ATOM     71  C   UNL     1     -14.670  -0.244  12.601  1.00  0.00     0.134 A 
ATOM     72  F   UNL     1     -13.248  -0.931  15.872  1.00  0.00    -0.206 F 
ATOM     73  C   UNL     1     -14.010  -2.406  14.214  1.00  0.00     0.040 A 
ATOM     74  C   UNL     1     -14.915  -1.545  12.157  1.00  0.00     0.040 A 
ATOM     75  F   UNL     1     -14.999   0.769  11.786  1.00  0.00    -0.206 F 
ATOM     76  C   UNL     1     -14.577  -2.631  12.962  1.00  0.00     0.006 A 
ENDBRANCH  55  69
BRANCH  56  77
ATOM     77  C   UNL     1     -12.248   9.390  16.711  1.00  0.00     0.057 A 
ATOM     78  C   UNL     1     -12.593   9.862  17.983  1.00  0.00     0.134 A 
ATOM     79  C   UNL     1     -11.662  10.300  15.824  1.00  0.00     0.134 A 
ATOM     80  F   UNL     1     -13.175   9.043  18.872  1.00  0.00    -0.206 F 
ATOM     81  C   UNL     1     -12.387  11.193  18.351  1.00  0.00     0.040 A 
ATOM     82  C   UNL     1     -11.425  11.627  16.187  1.00  0.00     0.040 A 
ATOM     83  F   UNL     1     -11.300   9.910  14.593  1.00  0.00    -0.206 F 
ATOM     84  C   UNL     1     -11.797  12.079  17.452  1.00  0.00     0.006 A 
ENDBRANCH  56  77
BRANCH  68  85
ATOM     85  C   UNL     1     -18.088   5.741  15.682  1.00  0.00     0.057 A 
ATOM     86  C   UNL     1     -18.734   6.596  14.781  1.00  0.00     0.134 A 
ATOM     87  C   UNL     1     -18.860   5.185  16.711  1.00  0.00     0.134 A 
ATOM     88  F   UNL     1     -18.050   7.172  13.780  1.00  0.00    -0.206 F 
ATOM     89  C   UNL     1     -20.089   6.906  14.912  1.00  0.00     0.040 A 
ATOM     90  C   UNL     1     -20.221   5.463  16.835  1.00  0.00     0.040 A 
ATOM     91  F   UNL     1     -18.306   4.350  17.604  1.00  0.00    -0.206 F 
ATOM     92  C   UNL     1     -20.838   6.332  15.938  1.00  0.00     0.006 A 
ENDBRANCH  68  85
ENDBRANCH  42  43
ENDBRANCH  34  37
ENDBRANCH  32  33
ENDBRANCH  31  32
ENDBRANCH  30  31
ENDBRANCH  29  30
ENDBRANCH   1  29
TORSDOF 18
