REMARK SMILES O=C(NCCCCCCNC(=O)c1ccccc1Nc1nc(Cl)nc(Nc2ccc(N3CCOCC3=O)cc2)n1)c1ccc(-c2c3nc(c(-c4c(F)cccc4F)c4ccc([nH]4)c(-c4c(F)cccc4F)c4nc(c(-c5c(F)cccc5F)c5ccc2[nH]5)C=C4)C=C3)cc1
REMARK SMILES IDX 8 1 7 2 6 3 5 4 4 5 3 6 1 7 2 8 41 10 42 11 94 12 43 13
REMARK SMILES IDX 93 14 44 15 45 16 46 17 87 18 47 19 92 20 86 21 88 22 48 23
REMARK SMILES IDX 91 24 85 25 84 26 49 28 75 29 58 30 74 31 59 32 62 33 73 34
REMARK SMILES IDX 89 35 60 36 61 37 72 39 90 40 63 41 50 42 51 43 56 44 52 45
REMARK SMILES IDX 53 46 55 47 57 48 54 49 76 50 77 51 82 52 78 53 79 54 81 55
REMARK SMILES IDX 83 56 80 57 64 58 65 59 70 60 66 61 67 62 69 63 71 64 68 65
REMARK SMILES IDX 9 66 10 67 11 68 12 70 13 71 14 72 18 73 15 74 17 75 16 76
REMARK SMILES IDX 19 77 20 79 21 80 40 81 22 82 25 83 23 84 24 85 26 86 27 88
REMARK SMILES IDX 28 89 39 90 29 91 38 92 30 93 31 94 32 95 36 96 33 97 35 98
REMARK SMILES IDX 37 99 34 100
REMARK H PARENT 3 9 88 27 62 38 10 69 19 78 26 87
REMARK Flexibility Score: inf
ROOT
ATOM      1  C   UNL     1       6.337  -4.303   1.017  1.00  0.00     0.021 C 
ENDROOT
BRANCH   1   2
ATOM      2  C   UNL     1       4.819  -4.240   1.222  1.00  0.00     0.002 C 
BRANCH   2   3
ATOM      3  C   UNL     1       4.324  -3.217   2.249  1.00  0.00     0.002 C 
BRANCH   3   4
ATOM      4  C   UNL     1       4.798  -1.781   2.030  1.00  0.00     0.021 C 
BRANCH   4   5
ATOM      5  C   UNL     1       4.514  -1.212   0.646  1.00  0.00     0.116 C 
BRANCH   5   6
ATOM      6  N   UNL     1       3.092  -1.120   0.356  1.00  0.00    -0.352 N 
ATOM      7  O   UNL     1       1.132  -0.097  -0.101  1.00  0.00    -0.269 OA
ATOM      8  C   UNL     1       2.357  -0.031  -0.043  1.00  0.00     0.251 C 
ATOM      9  H   UNL     1       2.585  -1.957   0.461  1.00  0.00     0.163 HD
BRANCH   8  10
ATOM     10  C   UNL     1       3.043   1.234  -0.381  1.00  0.00     0.039 A 
ATOM     11  C   UNL     1       4.184   1.233  -1.187  1.00  0.00     0.014 A 
ATOM     12  C   UNL     1       2.536   2.436   0.118  1.00  0.00     0.014 A 
ATOM     13  C   UNL     1       4.895   2.412  -1.379  1.00  0.00     0.010 A 
ATOM     14  C   UNL     1       3.204   3.633  -0.148  1.00  0.00     0.010 A 
ATOM     15  C   UNL     1       4.405   3.627  -0.875  1.00  0.00    -0.014 A 
BRANCH  15  16
ATOM     16  C   UNL     1       5.130   4.889  -1.168  1.00  0.00     0.031 A 
ATOM     17  C   UNL     1       5.746   5.706  -0.068  1.00  0.00     0.074 A 
ATOM     18  C   UNL     1       5.231   5.293  -2.449  1.00  0.00     0.049 A 
ATOM     19  N   UNL     1       6.388   6.844  -0.147  1.00  0.00    -0.248 NA
ATOM     20  C   UNL     1       5.618   5.183   1.300  1.00  0.00     0.031 C 
ATOM     21  C   UNL     1       4.668   4.585  -3.602  1.00  0.00     0.029 A 
ATOM     22  N   UNL     1       5.843   6.389  -2.999  1.00  0.00    -0.354 N 
ATOM     23  C   UNL     1       6.725   7.184   1.157  1.00  0.00     0.074 A 
ATOM     24  C   UNL     1       6.191   6.144   2.012  1.00  0.00     0.031 C 
ATOM     25  C   UNL     1       4.988   5.247  -4.723  1.00  0.00     0.029 A 
ATOM     26  C   UNL     1       5.718   6.457  -4.365  1.00  0.00     0.049 A 
ATOM     27  H   UNL     1       6.324   7.063  -2.467  1.00  0.00     0.167 HD
ATOM     28  C   UNL     1       7.422   8.260   1.597  1.00  0.00     0.037 A 
ATOM     29  C   UNL     1       6.123   7.401  -5.234  1.00  0.00     0.037 A 
ATOM     30  C   UNL     1       7.953   9.288   0.737  1.00  0.00     0.049 A 
ATOM     31  C   UNL     1       6.854   8.604  -4.716  1.00  0.00     0.074 A 
ATOM     32  C   UNL     1       8.700  10.401   1.082  1.00  0.00     0.029 A 
ATOM     33  N   UNL     1       7.785   9.333  -0.640  1.00  0.00    -0.354 N 
ATOM     34  N   UNL     1       7.196   8.895  -3.484  1.00  0.00    -0.248 NA
ATOM     35  C   UNL     1       7.255   9.610  -5.707  1.00  0.00     0.031 C 
ATOM     36  C   UNL     1       8.937  11.147  -0.077  1.00  0.00     0.029 A 
ATOM     37  C   UNL     1       8.391  10.469  -1.155  1.00  0.00     0.049 A 
ATOM     38  H   UNL     1       7.306   8.658  -1.173  1.00  0.00     0.167 HD
ATOM     39  C   UNL     1       7.872  10.104  -3.554  1.00  0.00     0.074 A 
ATOM     40  C   UNL     1       7.905  10.484  -4.952  1.00  0.00     0.031 C 
ATOM     41  C   UNL     1       8.418  10.833  -2.550  1.00  0.00     0.037 A 
BRANCH  28  42
ATOM     42  C   UNL     1       7.627   8.396   3.080  1.00  0.00     0.057 A 
ATOM     43  C   UNL     1       8.477   7.542   3.796  1.00  0.00     0.134 A 
ATOM     44  C   UNL     1       6.991   9.418   3.797  1.00  0.00     0.134 A 
ATOM     45  F   UNL     1       9.112   6.537   3.174  1.00  0.00    -0.206 F 
ATOM     46  C   UNL     1       8.664   7.681   5.173  1.00  0.00     0.040 A 
ATOM     47  C   UNL     1       7.191   9.585   5.169  1.00  0.00     0.040 A 
ATOM     48  F   UNL     1       6.171  10.279   3.175  1.00  0.00    -0.206 F 
ATOM     49  C   UNL     1       8.024   8.709   5.863  1.00  0.00     0.006 A 
ENDBRANCH  28  42
BRANCH  29  50
ATOM     50  C   UNL     1       5.833   7.240  -6.680  1.00  0.00     0.057 A 
ATOM     51  C   UNL     1       6.856   6.992  -7.601  1.00  0.00     0.134 A 
ATOM     52  C   UNL     1       4.524   7.311  -7.173  1.00  0.00     0.134 A 
ATOM     53  F   UNL     1       8.132   6.928  -7.191  1.00  0.00    -0.206 F 
ATOM     54  C   UNL     1       6.591   6.832  -8.962  1.00  0.00     0.040 A 
ATOM     55  C   UNL     1       4.241   7.125  -8.526  1.00  0.00     0.040 A 
ATOM     56  F   UNL     1       3.497   7.536  -6.339  1.00  0.00    -0.206 F 
ATOM     57  C   UNL     1       5.278   6.892  -9.426  1.00  0.00     0.006 A 
ENDBRANCH  29  50
BRANCH  41  58
ATOM     58  C   UNL     1       9.133  12.097  -2.933  1.00  0.00     0.057 A 
ATOM     59  C   UNL     1       8.445  13.236  -3.371  1.00  0.00     0.134 A 
ATOM     60  C   UNL     1      10.528  12.182  -2.832  1.00  0.00     0.134 A 
ATOM     61  F   UNL     1       7.111  13.215  -3.505  1.00  0.00    -0.206 F 
ATOM     62  C   UNL     1       9.122  14.407  -3.717  1.00  0.00     0.040 A 
ATOM     63  C   UNL     1      11.212  13.356  -3.148  1.00  0.00     0.040 A 
ATOM     64  F   UNL     1      11.246  11.129  -2.413  1.00  0.00    -0.206 F 
ATOM     65  C   UNL     1      10.509  14.471  -3.599  1.00  0.00     0.006 A 
ENDBRANCH  41  58
ENDBRANCH  15  16
ENDBRANCH   8  10
ENDBRANCH   5   6
ENDBRANCH   4   5
ENDBRANCH   3   4
ENDBRANCH   2   3
ENDBRANCH   1   2
BRANCH   1  66
ATOM     66  C   UNL     1       7.160  -4.530   2.282  1.00  0.00     0.116 C 
BRANCH  66  67
ATOM     67  N   UNL     1       6.829  -5.782   2.942  1.00  0.00    -0.352 N 
ATOM     68  C   UNL     1       7.669  -6.740   3.448  1.00  0.00     0.253 C 
ATOM     69  H   UNL     1       5.867  -5.967   3.040  1.00  0.00     0.163 HD
ATOM     70  O   UNL     1       7.209  -7.778   3.915  1.00  0.00    -0.269 OA
BRANCH  68  71
ATOM     71  C   UNL     1       9.134  -6.548   3.410  1.00  0.00     0.063 A 
ATOM     72  C   UNL     1       9.873  -7.520   2.717  1.00  0.00     0.016 A 
ATOM     73  C   UNL     1       9.775  -5.470   4.048  1.00  0.00     0.054 A 
ATOM     74  C   UNL     1      11.257  -7.401   2.608  1.00  0.00     0.001 A 
ATOM     75  C   UNL     1      11.166  -5.351   3.882  1.00  0.00     0.027 A 
ATOM     76  C   UNL     1      11.901  -6.309   3.179  1.00  0.00     0.002 A 
BRANCH  73  77
ATOM     77  N   UNL     1       9.065  -4.530   4.813  1.00  0.00    -0.323 N 
ATOM     78  H   UNL     1       8.239  -4.864   5.229  1.00  0.00     0.170 HD
BRANCH  77  79
ATOM     79  C   UNL     1       9.360  -3.195   5.068  1.00  0.00     0.233 A 
ATOM     80  N   UNL     1       9.989  -2.482   4.148  1.00  0.00    -0.182 NA
ATOM     81  N   UNL     1       8.968  -2.714   6.243  1.00  0.00    -0.176 NA
ATOM     82  C   UNL     1      10.190  -1.224   4.493  1.00  0.00     0.228 A 
ATOM     83  C   UNL     1       9.284  -1.448   6.503  1.00  0.00     0.233 A 
ATOM     84  Cl  UNL     1      10.992  -0.248   3.345  1.00  0.00    -0.041 Cl
ATOM     85  N   UNL     1       9.871  -0.642   5.633  1.00  0.00    -0.182 NA
BRANCH  83  86
ATOM     86  N   UNL     1       9.069  -1.020   7.811  1.00  0.00    -0.324 N 
ATOM     87  H   UNL     1       8.705  -1.697   8.426  1.00  0.00     0.170 HD
BRANCH  86  88
ATOM     88  C   UNL     1       9.302   0.239   8.369  1.00  0.00     0.041 A 
ATOM     89  C   UNL     1      10.052   0.354   9.545  1.00  0.00     0.028 A 
ATOM     90  C   UNL     1       8.893   1.409   7.725  1.00  0.00     0.028 A 
ATOM     91  C   UNL     1      10.401   1.612  10.054  1.00  0.00     0.028 A 
ATOM     92  C   UNL     1       9.187   2.663   8.262  1.00  0.00     0.028 A 
ATOM     93  C   UNL     1       9.957   2.778   9.423  1.00  0.00     0.044 A 
BRANCH  93  94
ATOM     94  N   UNL     1      10.330   4.063   9.912  1.00  0.00    -0.308 N 
ATOM     95  C   UNL     1      11.770   4.320  10.051  1.00  0.00     0.154 C 
ATOM     96  C   UNL     1       9.410   5.118   9.909  1.00  0.00     0.253 C 
ATOM     97  C   UNL     1      12.090   5.639  10.744  1.00  0.00     0.183 C 
ATOM     98  C   UNL     1       9.977   6.493  10.290  1.00  0.00     0.260 C 
ATOM     99  O   UNL     1       8.200   4.991   9.714  1.00  0.00    -0.272 OA
ATOM    100  O   UNL     1      11.370   6.696  10.117  1.00  0.00    -0.370 OA
ENDBRANCH  93  94
ENDBRANCH  86  88
ENDBRANCH  83  86
ENDBRANCH  77  79
ENDBRANCH  73  77
ENDBRANCH  68  71
ENDBRANCH  66  67
ENDBRANCH   1  66
TORSDOF 18
