REMARK SMILES COc1ccc(N2C[C@@H](C)Cn3c2nc2c3c(=O)n(CC(=O)NCCCCCCNC(=O)c3ccc(-c4c5nc(c(-c6c(F)cccc6F)c6ccc([nH]6)c(-c6c(F)cccc6F)c6nc(c(-c7c(F)cccc7F)c7ccc4[nH]7)C=C6)C=C5)cc3)c(=O)n2C)cc1
REMARK SMILES IDX 26 1 25 2 24 3 23 4 21 5 22 6 20 8 19 9 7 10 8 11 13 12 9 13
REMARK SMILES IDX 12 14 14 15 11 16 10 17 16 18 15 19 17 20 89 21 18 22 87 23
REMARK SMILES IDX 90 24 88 25 6 26 3 27 4 28 92 29 5 30 91 31 2 32 1 33 27 34
REMARK SMILES IDX 28 35 29 36 30 37 31 38 32 40 33 41 34 42 86 43 35 44 85 45
REMARK SMILES IDX 36 46 37 47 38 48 79 49 39 50 84 51 78 52 80 53 40 54 83 55
REMARK SMILES IDX 77 56 76 57 41 59 67 60 50 61 66 62 51 63 54 64 65 65 81 66
REMARK SMILES IDX 52 67 53 68 64 70 82 71 55 72 42 73 43 74 48 75 44 76 45 77
REMARK SMILES IDX 47 78 49 79 46 80 68 81 69 82 74 83 70 84 71 85 73 86 75 87
REMARK SMILES IDX 72 88 56 89 57 90 62 91 58 92 59 93 61 94 63 95 60 96
REMARK H PARENT 23 7 30 39 80 58 54 69
REMARK Flexibility Score: inf
ROOT
ATOM      1  C   UNL     1       2.126 -12.391   1.877  1.00  0.00     0.002 C 
ENDROOT
BRANCH   1   2
ATOM      2  C   UNL     1       3.250 -11.712   1.083  1.00  0.00     0.021 C 
BRANCH   2   3
ATOM      3  C   UNL     1       4.286 -12.686   0.523  1.00  0.00     0.116 C 
BRANCH   3   4
ATOM      4  N   UNL     1       3.780 -13.411  -0.622  1.00  0.00    -0.355 N 
ATOM      5  C   UNL     1       4.168 -13.357  -1.929  1.00  0.00     0.240 C 
ATOM      6  O   UNL     1       3.750 -14.245  -2.676  1.00  0.00    -0.273 OA
ATOM      7  H   UNL     1       3.045 -14.038  -0.430  1.00  0.00     0.163 HD
BRANCH   5   8
ATOM      8  C   UNL     1       5.196 -12.329  -2.423  1.00  0.00     0.230 C 
BRANCH   8   9
ATOM      9  N   UNL     1       4.823 -10.947  -2.134  1.00  0.00    -0.249 N 
ATOM     10  N   UNL     1       1.492  -6.186  -2.388  1.00  0.00    -0.312 N 
ATOM     11  C   UNL     1       0.606  -6.325  -3.554  1.00  0.00     0.131 C 
ATOM     12  C   UNL     1       2.459  -7.129  -2.192  1.00  0.00     0.212 A 
ATOM     13  C   UNL     1       0.072  -7.757  -3.608  1.00  0.00     0.026 C 
ATOM     14  N   UNL     1       2.340  -8.342  -2.847  1.00  0.00    -0.304 N 
ATOM     15  N   UNL     1       3.521  -7.151  -1.401  1.00  0.00    -0.194 NA
ATOM     16  C   UNL     1       1.261  -8.704  -3.745  1.00  0.00     0.131 C 
ATOM     17  C   UNL     1      -0.916  -7.948  -4.752  1.00  0.00     0.011 C 
ATOM     18  C   UNL     1       3.376  -9.136  -2.469  1.00  0.00     0.154 A 
ATOM     19  C   UNL     1       4.083  -8.384  -1.584  1.00  0.00     0.170 A 
ATOM     20  C   UNL     1       3.724 -10.457  -2.834  1.00  0.00     0.283 A 
ATOM     21  N   UNL     1       5.224  -8.878  -0.993  1.00  0.00    -0.279 N 
ATOM     22  O   UNL     1       3.108 -11.097  -3.688  1.00  0.00    -0.267 OA
ATOM     23  C   UNL     1       5.653 -10.173  -1.303  1.00  0.00     0.332 A 
ATOM     24  C   UNL     1       5.986  -8.055  -0.072  1.00  0.00     0.157 C 
ATOM     25  O   UNL     1       6.712 -10.625  -0.860  1.00  0.00    -0.247 OA
BRANCH  10  26
ATOM     26  C   UNL     1       1.318  -5.010  -1.635  1.00  0.00     0.044 A 
ATOM     27  C   UNL     1       0.859  -2.593  -0.241  1.00  0.00     0.119 A 
ATOM     28  C   UNL     1      -0.189  -3.477  -0.465  1.00  0.00     0.048 A 
ATOM     29  C   UNL     1       2.146  -2.929  -0.662  1.00  0.00     0.048 A 
ATOM     30  C   UNL     1       0.039  -4.665  -1.161  1.00  0.00     0.030 A 
ATOM     31  C   UNL     1       2.373  -4.136  -1.344  1.00  0.00     0.030 A 
BRANCH  27  32
ATOM     32  O   UNL     1       0.547  -1.466   0.468  1.00  0.00    -0.497 OA
ATOM     33  C   UNL     1       1.101  -0.270  -0.068  1.00  0.00     0.278 C 
ENDBRANCH  27  32
ENDBRANCH  10  26
ENDBRANCH   8   9
ENDBRANCH   5   8
ENDBRANCH   3   4
ENDBRANCH   2   3
ENDBRANCH   1   2
BRANCH   1  34
ATOM     34  C   UNL     1       2.587 -13.188   3.103  1.00  0.00     0.002 C 
BRANCH  34  35
ATOM     35  C   UNL     1       3.341 -12.378   4.173  1.00  0.00     0.021 C 
BRANCH  35  36
ATOM     36  C   UNL     1       2.476 -11.370   4.944  1.00  0.00     0.116 C 
BRANCH  36  37
ATOM     37  N   UNL     1       1.466 -12.078   5.710  1.00  0.00    -0.352 N 
ATOM     38  C   UNL     1       1.060 -11.954   7.005  1.00  0.00     0.251 C 
ATOM     39  H   UNL     1       0.990 -12.775   5.203  1.00  0.00     0.163 HD
ATOM     40  O   UNL     1       0.518 -12.927   7.531  1.00  0.00    -0.269 OA
BRANCH  38  41
ATOM     41  C   UNL     1       1.190 -10.701   7.781  1.00  0.00     0.039 A 
ATOM     42  C   UNL     1       1.236 -10.831   9.176  1.00  0.00     0.014 A 
ATOM     43  C   UNL     1       1.070  -9.430   7.209  1.00  0.00     0.014 A 
ATOM     44  C   UNL     1       1.145  -9.709   9.992  1.00  0.00     0.010 A 
ATOM     45  C   UNL     1       0.991  -8.299   8.032  1.00  0.00     0.010 A 
ATOM     46  C   UNL     1       1.020  -8.435   9.427  1.00  0.00    -0.014 A 
BRANCH  46  47
ATOM     47  C   UNL     1       1.032  -7.296  10.364  1.00  0.00     0.031 A 
ATOM     48  C   UNL     1       2.010  -6.215  10.018  1.00  0.00     0.074 A 
ATOM     49  C   UNL     1      -0.072  -6.968  11.070  1.00  0.00     0.049 A 
ATOM     50  N   UNL     1       1.776  -5.266   9.158  1.00  0.00    -0.248 NA
ATOM     51  C   UNL     1       3.414  -6.303  10.426  1.00  0.00     0.031 C 
ATOM     52  C   UNL     1      -1.433  -6.969  10.525  1.00  0.00     0.029 A 
ATOM     53  N   UNL     1      -0.206  -6.388  12.313  1.00  0.00    -0.354 N 
ATOM     54  C   UNL     1       2.986  -4.644   8.888  1.00  0.00     0.074 A 
ATOM     55  C   UNL     1       3.973  -5.325   9.695  1.00  0.00     0.031 C 
ATOM     56  C   UNL     1      -2.229  -6.260  11.351  1.00  0.00     0.029 A 
ATOM     57  C   UNL     1      -1.474  -5.856  12.539  1.00  0.00     0.049 A 
ATOM     58  H   UNL     1       0.522  -6.353  12.976  1.00  0.00     0.167 HD
ATOM     59  C   UNL     1       3.108  -3.600   8.025  1.00  0.00     0.037 A 
ATOM     60  C   UNL     1      -1.706  -4.710  13.241  1.00  0.00     0.037 A 
ATOM     61  C   UNL     1       1.886  -3.142   7.435  1.00  0.00     0.049 A 
ATOM     62  C   UNL     1      -1.259  -3.668  12.246  1.00  0.00     0.074 A 
ATOM     63  C   UNL     1       1.205  -3.280   6.246  1.00  0.00     0.029 A 
ATOM     64  N   UNL     1       1.083  -2.332   8.200  1.00  0.00    -0.354 N 
ATOM     65  N   UNL     1      -1.937  -3.254  11.208  1.00  0.00    -0.248 NA
ATOM     66  C   UNL     1       0.169  -3.351  12.206  1.00  0.00     0.031 C 
ATOM     67  C   UNL     1      -0.155  -2.955   6.553  1.00  0.00     0.029 A 
ATOM     68  C   UNL     1      -0.212  -2.676   7.918  1.00  0.00     0.049 A 
ATOM     69  H   UNL     1       1.380  -1.636   8.831  1.00  0.00     0.167 HD
ATOM     70  C   UNL     1      -0.978  -2.875  10.265  1.00  0.00     0.074 A 
ATOM     71  C   UNL     1       0.294  -2.928  10.956  1.00  0.00     0.031 C 
ATOM     72  C   UNL     1      -1.239  -2.731   8.932  1.00  0.00     0.037 A 
BRANCH  59  73
ATOM     73  C   UNL     1       4.331  -2.803   7.798  1.00  0.00     0.057 A 
ATOM     74  C   UNL     1       4.395  -1.523   8.367  1.00  0.00     0.134 A 
ATOM     75  C   UNL     1       5.290  -3.139   6.843  1.00  0.00     0.134 A 
ATOM     76  F   UNL     1       3.490  -1.148   9.287  1.00  0.00    -0.206 F 
ATOM     77  C   UNL     1       5.339  -0.584   7.959  1.00  0.00     0.040 A 
ATOM     78  C   UNL     1       6.253  -2.209   6.434  1.00  0.00     0.040 A 
ATOM     79  F   UNL     1       5.275  -4.342   6.251  1.00  0.00    -0.206 F 
ATOM     80  C   UNL     1       6.264  -0.922   6.976  1.00  0.00     0.006 A 
ENDBRANCH  59  73
BRANCH  60  81
ATOM     81  C   UNL     1      -1.305  -4.713  14.683  1.00  0.00     0.057 A 
ATOM     82  C   UNL     1      -1.760  -5.770  15.497  1.00  0.00     0.134 A 
ATOM     83  C   UNL     1      -0.520  -3.750  15.331  1.00  0.00     0.134 A 
ATOM     84  F   UNL     1      -2.620  -6.678  15.011  1.00  0.00    -0.206 F 
ATOM     85  C   UNL     1      -1.351  -5.930  16.825  1.00  0.00     0.040 A 
ATOM     86  C   UNL     1      -0.080  -3.911  16.652  1.00  0.00     0.040 A 
ATOM     87  F   UNL     1      -0.146  -2.622  14.714  1.00  0.00    -0.206 F 
ATOM     88  C   UNL     1      -0.478  -5.015  17.396  1.00  0.00     0.006 A 
ENDBRANCH  60  81
BRANCH  72  89
ATOM     89  C   UNL     1      -2.663  -2.902   8.527  1.00  0.00     0.057 A 
ATOM     90  C   UNL     1      -3.627  -1.951   8.871  1.00  0.00     0.134 A 
ATOM     91  C   UNL     1      -3.079  -3.997   7.755  1.00  0.00     0.134 A 
ATOM     92  F   UNL     1      -3.293  -0.874   9.599  1.00  0.00    -0.206 F 
ATOM     93  C   UNL     1      -4.951  -2.073   8.448  1.00  0.00     0.040 A 
ATOM     94  C   UNL     1      -4.394  -4.114   7.301  1.00  0.00     0.040 A 
ATOM     95  F   UNL     1      -2.218  -4.966   7.407  1.00  0.00    -0.206 F 
ATOM     96  C   UNL     1      -5.335  -3.149   7.648  1.00  0.00     0.006 A 
ENDBRANCH  72  89
ENDBRANCH  46  47
ENDBRANCH  38  41
ENDBRANCH  36  37
ENDBRANCH  35  36
ENDBRANCH  34  35
ENDBRANCH   1  34
TORSDOF 16
