REMARK SMILES O=C(C[NH+]1CC[NH+](Cc2cc(Cl)ccc2[N+](=O)[O-])CC1)NCCCCCCNC(=O)c1ccc(-c2c3nc(c(-c4c(F)cccc4F)c4ccc([nH]4)c(-c4c(F)cccc4F)c4nc(c(-c5c(F)cccc5F)c5ccc2[nH]5)C=C4)C=C3)cc1
REMARK SMILES IDX 23 1 22 2 21 3 1 4 2 5 3 7 4 8 5 9 20 10 6 12 19 13 7 14
REMARK SMILES IDX 8 16 9 17 10 18 15 19 11 20 14 21 12 22 13 23 16 24 17 25
REMARK SMILES IDX 18 26 24 27 25 28 26 29 27 30 28 31 29 32 30 34 31 35 32 36
REMARK SMILES IDX 84 37 33 38 83 39 34 40 35 41 36 42 77 43 37 44 82 45 76 46
REMARK SMILES IDX 78 47 38 48 81 49 75 50 74 51 39 53 65 54 48 55 64 56 49 57
REMARK SMILES IDX 52 58 63 59 79 60 50 61 51 62 62 64 80 65 53 66 40 67 41 68
REMARK SMILES IDX 46 69 42 70 43 71 45 72 47 73 44 74 66 75 67 76 72 77 68 78
REMARK SMILES IDX 69 79 71 80 73 81 70 82 54 83 55 84 60 85 56 86 57 87 59 88
REMARK SMILES IDX 61 89 58 90
REMARK H PARENT 21 6 4 11 7 15 28 33 78 52 52 63
REMARK Flexibility Score: inf
ROOT
ATOM      1  C   UNL     1       2.606   0.919   3.730  1.00  0.00     0.021 C 
ENDROOT
BRANCH   1   2
ATOM      2  C   UNL     1       1.872   0.966   2.393  1.00  0.00     0.116 C 
BRANCH   2   3
ATOM      3  N   UNL     1       2.370  -0.031   1.469  1.00  0.00    -0.351 N 
ATOM      4  O   UNL     1       0.716   0.273  -0.090  1.00  0.00    -0.269 OA
ATOM      5  C   UNL     1       1.787  -0.230   0.235  1.00  0.00     0.275 C 
ATOM      6  H   UNL     1       3.144  -0.580   1.728  1.00  0.00     0.163 HD
BRANCH   5   7
ATOM      7  C   UNL     1       2.645  -1.072  -0.715  1.00  0.00     0.363 C 
BRANCH   7   8
ATOM      8  N   UNL     1       3.635  -0.313  -1.508  1.00  0.00    -0.318 N 
ATOM      9  C   UNL     1       3.590   1.151  -1.440  1.00  0.00     0.325 C 
ATOM     10  C   UNL     1       5.014  -0.799  -1.383  1.00  0.00     0.325 C 
ATOM     11  H   UNL     1       3.299  -0.529  -2.447  1.00  0.00     0.348 HD
ATOM     12  C   UNL     1       4.420   1.793  -0.298  1.00  0.00     0.324 C 
ATOM     13  C   UNL     1       5.796  -0.221  -0.182  1.00  0.00     0.324 C 
ATOM     14  N   UNL     1       5.754   1.238  -0.038  1.00  0.00    -0.322 N 
ATOM     15  H   UNL     1       5.920   1.393   0.957  1.00  0.00     0.348 HD
BRANCH  14  16
ATOM     16  C   UNL     1       6.887   1.994  -0.590  1.00  0.00     0.306 C 
BRANCH  16  17
ATOM     17  C   UNL     1       6.964   2.051  -2.104  1.00  0.00     0.085 A 
ATOM     18  C   UNL     1       6.110   2.991  -2.730  1.00  0.00     0.037 A 
ATOM     19  C   UNL     1       7.706   1.190  -2.942  1.00  0.00     0.278 A 
ATOM     20  C   UNL     1       5.855   2.954  -4.099  1.00  0.00     0.042 A 
ATOM     21  C   UNL     1       7.451   1.175  -4.332  1.00  0.00     0.088 A 
ATOM     22  Cl  UNL     1       4.675   4.007  -4.772  1.00  0.00    -0.084 Cl
ATOM     23  C   UNL     1       6.501   2.026  -4.899  1.00  0.00     0.027 A 
BRANCH  19  24
ATOM     24  N   UNL     1       8.779   0.290  -2.462  1.00  0.00     0.063 N 
ATOM     25  O   UNL     1       9.411  -0.348  -3.315  1.00  0.00    -0.258 OA
ATOM     26  O   UNL     1       9.015   0.224  -1.252  1.00  0.00    -0.258 OA
ENDBRANCH  19  24
ENDBRANCH  16  17
ENDBRANCH  14  16
ENDBRANCH   7   8
ENDBRANCH   5   7
ENDBRANCH   2   3
ENDBRANCH   1   2
BRANCH   1  27
ATOM     27  C   UNL     1       4.108   1.239   3.665  1.00  0.00     0.002 C 
BRANCH  27  28
ATOM     28  C   UNL     1       4.479   2.696   3.368  1.00  0.00     0.002 C 
BRANCH  28  29
ATOM     29  C   UNL     1       3.895   3.740   4.317  1.00  0.00     0.021 C 
BRANCH  29  30
ATOM     30  C   UNL     1       4.116   3.472   5.799  1.00  0.00     0.116 C 
BRANCH  30  31
ATOM     31  N   UNL     1       5.519   3.495   6.179  1.00  0.00    -0.352 N 
ATOM     32  C   UNL     1       6.119   4.118   7.245  1.00  0.00     0.251 C 
ATOM     33  H   UNL     1       6.125   2.992   5.588  1.00  0.00     0.163 HD
ATOM     34  O   UNL     1       7.345   4.141   7.335  1.00  0.00    -0.269 OA
BRANCH  32  35
ATOM     35  C   UNL     1       5.295   4.798   8.271  1.00  0.00     0.039 A 
ATOM     36  C   UNL     1       5.700   6.054   8.729  1.00  0.00     0.014 A 
ATOM     37  C   UNL     1       4.130   4.214   8.777  1.00  0.00     0.014 A 
ATOM     38  C   UNL     1       4.904   6.749   9.642  1.00  0.00     0.010 A 
ATOM     39  C   UNL     1       3.295   4.943   9.622  1.00  0.00     0.010 A 
ATOM     40  C   UNL     1       3.674   6.217  10.066  1.00  0.00    -0.014 A 
BRANCH  40  41
ATOM     41  C   UNL     1       2.774   7.003  10.951  1.00  0.00     0.031 A 
ATOM     42  C   UNL     1       2.432   6.516  12.333  1.00  0.00     0.074 A 
ATOM     43  C   UNL     1       2.233   8.148  10.492  1.00  0.00     0.049 A 
ATOM     44  N   UNL     1       1.691   7.087  13.250  1.00  0.00    -0.248 NA
ATOM     45  C   UNL     1       2.971   5.206  12.728  1.00  0.00     0.031 C 
ATOM     46  C   UNL     1       2.436   8.701   9.151  1.00  0.00     0.029 A 
ATOM     47  N   UNL     1       1.407   9.058  11.103  1.00  0.00    -0.354 N 
ATOM     48  C   UNL     1       1.667   6.203  14.322  1.00  0.00     0.074 A 
ATOM     49  C   UNL     1       2.419   5.035  13.920  1.00  0.00     0.031 C 
ATOM     50  C   UNL     1       1.797   9.877   9.059  1.00  0.00     0.029 A 
ATOM     51  C   UNL     1       1.107  10.144  10.316  1.00  0.00     0.049 A 
ATOM     52  H   UNL     1       1.062   8.944  12.018  1.00  0.00     0.167 HD
ATOM     53  C   UNL     1       1.090   6.360  15.539  1.00  0.00     0.037 A 
ATOM     54  C   UNL     1       0.366  11.236  10.580  1.00  0.00     0.037 A 
ATOM     55  C   UNL     1       0.352   7.531  15.940  1.00  0.00     0.049 A 
ATOM     56  C   UNL     1      -0.270  11.382  11.934  1.00  0.00     0.074 A 
ATOM     57  C   UNL     1      -0.206   7.818  17.174  1.00  0.00     0.029 A 
ATOM     58  N   UNL     1       0.056   8.603  15.111  1.00  0.00    -0.354 N 
ATOM     59  N   UNL     1      -0.205  10.583  12.972  1.00  0.00    -0.248 NA
ATOM     60  C   UNL     1      -1.077  12.590  12.154  1.00  0.00     0.031 C 
ATOM     61  C   UNL     1      -0.894   9.032  17.073  1.00  0.00     0.029 A 
ATOM     62  C   UNL     1      -0.710   9.535  15.795  1.00  0.00     0.049 A 
ATOM     63  H   UNL     1       0.346   8.689  14.174  1.00  0.00     0.167 HD
ATOM     64  C   UNL     1      -0.939  11.203  13.975  1.00  0.00     0.074 A 
ATOM     65  C   UNL     1      -1.418  12.455  13.427  1.00  0.00     0.031 C 
ATOM     66  C   UNL     1      -1.193  10.774  15.237  1.00  0.00     0.037 A 
BRANCH  53  67
ATOM     67  C   UNL     1       1.224   5.227  16.519  1.00  0.00     0.057 A 
ATOM     68  C   UNL     1       2.455   4.878  17.092  1.00  0.00     0.134 A 
ATOM     69  C   UNL     1       0.101   4.487  16.912  1.00  0.00     0.134 A 
ATOM     70  F   UNL     1       3.574   5.538  16.755  1.00  0.00    -0.206 F 
ATOM     71  C   UNL     1       2.570   3.813  17.988  1.00  0.00     0.040 A 
ATOM     72  C   UNL     1       0.198   3.442  17.832  1.00  0.00     0.040 A 
ATOM     73  F   UNL     1      -1.111   4.771  16.411  1.00  0.00    -0.206 F 
ATOM     74  C   UNL     1       1.437   3.095  18.365  1.00  0.00     0.006 A 
ENDBRANCH  53  67
BRANCH  54  75
ATOM     75  C   UNL     1       0.220  12.302   9.556  1.00  0.00     0.057 A 
ATOM     76  C   UNL     1       0.812  13.558   9.735  1.00  0.00     0.134 A 
ATOM     77  C   UNL     1      -0.515  12.097   8.382  1.00  0.00     0.134 A 
ATOM     78  F   UNL     1       1.512  13.821  10.848  1.00  0.00    -0.206 F 
ATOM     79  C   UNL     1       0.662  14.578   8.795  1.00  0.00     0.040 A 
ATOM     80  C   UNL     1      -0.649  13.100   7.420  1.00  0.00     0.040 A 
ATOM     81  F   UNL     1      -1.101  10.914   8.147  1.00  0.00    -0.206 F 
ATOM     82  C   UNL     1      -0.066  14.348   7.630  1.00  0.00     0.006 A 
ENDBRANCH  54  75
BRANCH  66  83
ATOM     83  C   UNL     1      -2.007  11.684  16.114  1.00  0.00     0.057 A 
ATOM     84  C   UNL     1      -3.366  11.928  15.875  1.00  0.00     0.134 A 
ATOM     85  C   UNL     1      -1.422  12.326  17.214  1.00  0.00     0.134 A 
ATOM     86  F   UNL     1      -3.987  11.355  14.832  1.00  0.00    -0.206 F 
ATOM     87  C   UNL     1      -4.102  12.809  16.669  1.00  0.00     0.040 A 
ATOM     88  C   UNL     1      -2.156  13.182  18.036  1.00  0.00     0.040 A 
ATOM     89  F   UNL     1      -0.128  12.130  17.510  1.00  0.00    -0.206 F 
ATOM     90  C   UNL     1      -3.497  13.436  17.757  1.00  0.00     0.006 A 
ENDBRANCH  66  83
ENDBRANCH  40  41
ENDBRANCH  32  35
ENDBRANCH  30  31
ENDBRANCH  29  30
ENDBRANCH  28  29
ENDBRANCH  27  28
ENDBRANCH   1  27
TORSDOF 17
