REMARK SMILES COC(=O)c1sc(SCC(=O)NCCCCCCNC(=O)c2ccc(-c3c4nc(c(-c5c(F)cccc5F)c5ccc([nH]5)c(-c5c(F)cccc5F)c5nc(c(-c6c(F)cccc6F)c6ccc3[nH]6)C=C5)C=C4)cc2)c(NC(=O)c2ccccc2)c1O
REMARK SMILES IDX 14 1 13 2 12 3 10 4 11 5 9 7 8 8 7 9 5 10 6 11 86 12 76 13
REMARK SMILES IDX 3 14 4 15 2 16 1 17 87 18 77 20 78 21 79 23 80 24 81 25
REMARK SMILES IDX 85 26 82 27 84 28 83 29 15 30 16 31 17 32 18 33 19 34 20 35
REMARK SMILES IDX 21 37 22 38 23 39 75 40 24 41 74 42 25 43 26 44 27 45 68 46
REMARK SMILES IDX 28 47 73 48 67 49 69 50 29 51 72 52 66 53 65 54 30 56 56 57
REMARK SMILES IDX 39 58 55 59 40 60 43 61 54 62 70 63 41 64 42 65 53 67 71 68
REMARK SMILES IDX 44 69 31 70 32 71 37 72 33 73 34 74 36 75 38 76 35 77 57 78
REMARK SMILES IDX 58 79 63 80 59 81 60 82 62 83 64 84 61 85 45 86 46 87 51 88
REMARK SMILES IDX 47 89 48 90 50 91 52 92 49 93
REMARK H PARENT 12 6 87 19 77 22 19 36 69 55 43 66
REMARK Flexibility Score: inf
ROOT
ATOM      1  C   UNL     1       0.969  -8.970   3.174  1.00  0.00     0.021 C 
ENDROOT
BRANCH   1   2
ATOM      2  C   UNL     1       0.005 -10.043   2.668  1.00  0.00     0.116 C 
BRANCH   2   3
ATOM      3  N   UNL     1      -1.316  -9.520   2.436  1.00  0.00    -0.355 N 
ATOM      4  C   UNL     1      -1.996  -9.318   1.264  1.00  0.00     0.230 C 
ATOM      5  O   UNL     1      -3.190  -9.031   1.391  1.00  0.00    -0.274 OA
ATOM      6  H   UNL     1      -1.810  -9.268   3.249  1.00  0.00     0.163 HD
BRANCH   4   7
ATOM      7  C   UNL     1      -1.219  -9.587  -0.276  1.00  0.00     0.175 C 
BRANCH   7   8
ATOM      8  S   UNL     1      -0.379  -7.861  -2.011  1.00  0.00    -0.103 SA
BRANCH   8   9
ATOM      9  C   UNL     1      -0.437  -6.050  -1.580  1.00  0.00     0.089 A 
ATOM     10  C   UNL     1       0.287  -3.679  -1.198  1.00  0.00     0.157 A 
ATOM     11  S   UNL     1       0.995  -5.106  -1.841  1.00  0.00    -0.116 S 
ATOM     12  C   UNL     1      -1.024  -3.911  -0.848  1.00  0.00     0.166 A 
ATOM     13  C   UNL     1      -1.465  -5.240  -1.093  1.00  0.00     0.109 A 
BRANCH  10  14
ATOM     14  C   UNL     1       1.063  -2.458  -1.097  1.00  0.00     0.352 C 
ATOM     15  O   UNL     1       2.155  -2.231  -1.601  1.00  0.00    -0.245 OA
BRANCH  14  16
ATOM     16  O   UNL     1       0.365  -1.554  -0.335  1.00  0.00    -0.465 OA
ATOM     17  C   UNL     1       0.969  -0.268  -0.177  1.00  0.00     0.282 C 
ENDBRANCH  14  16
ENDBRANCH  10  14
BRANCH  12  18
ATOM     18  O   UNL     1      -1.840  -2.985  -0.290  1.00  0.00    -0.504 OA
ATOM     19  H   UNL     1      -1.527  -2.115  -0.138  1.00  0.00     0.293 HD
ENDBRANCH  12  18
BRANCH  13  20
ATOM     20  N   UNL     1      -2.779  -5.580  -0.785  1.00  0.00    -0.317 N 
ATOM     21  C   UNL     1      -3.295  -6.838  -0.762  1.00  0.00     0.255 C 
ATOM     22  H   UNL     1      -3.392  -4.842  -0.563  1.00  0.00     0.170 HD
ATOM     23  O   UNL     1      -4.488  -7.093  -0.799  1.00  0.00    -0.269 OA
BRANCH  21  24
ATOM     24  C   UNL     1      -2.285  -7.888  -0.731  1.00  0.00     0.040 A 
ATOM     25  C   UNL     1      -2.357  -9.130  -2.020  1.00  0.00     0.014 A 
ATOM     26  C   UNL     1      -0.752  -7.673   0.267  1.00  0.00     0.014 A 
ATOM     27  C   UNL     1      -0.919 -10.160  -2.321  1.00  0.00     0.001 A 
ATOM     28  C   UNL     1       0.680  -8.705  -0.091  1.00  0.00     0.001 A 
ATOM     29  C   UNL     1       0.589  -9.938  -1.391  1.00  0.00     0.000 A 
ENDBRANCH  21  24
ENDBRANCH  13  20
ENDBRANCH   8   9
ENDBRANCH   7   8
ENDBRANCH   4   7
ENDBRANCH   2   3
ENDBRANCH   1   2
BRANCH   1  30
ATOM     30  C   UNL     1       0.776  -8.588   4.640  1.00  0.00     0.002 C 
BRANCH  30  31
ATOM     31  C   UNL     1       0.676  -9.772   5.608  1.00  0.00     0.002 C 
BRANCH  31  32
ATOM     32  C   UNL     1       1.727 -10.880   5.425  1.00  0.00     0.021 C 
BRANCH  32  33
ATOM     33  C   UNL     1       3.148 -10.397   5.630  1.00  0.00     0.116 C 
BRANCH  33  34
ATOM     34  N   UNL     1       3.373  -9.989   7.007  1.00  0.00    -0.352 N 
ATOM     35  C   UNL     1       4.550  -9.582   7.588  1.00  0.00     0.251 C 
ATOM     36  H   UNL     1       2.585 -10.006   7.596  1.00  0.00     0.163 HD
ATOM     37  O   UNL     1       4.705  -9.662   8.801  1.00  0.00    -0.269 OA
BRANCH  35  38
ATOM     38  C   UNL     1       5.616  -9.032   6.734  1.00  0.00     0.039 A 
ATOM     39  C   UNL     1       6.957  -9.265   7.042  1.00  0.00     0.014 A 
ATOM     40  C   UNL     1       5.263  -8.248   5.634  1.00  0.00     0.014 A 
ATOM     41  C   UNL     1       7.934  -8.725   6.214  1.00  0.00     0.010 A 
ATOM     42  C   UNL     1       6.216  -7.843   4.736  1.00  0.00     0.010 A 
ATOM     43  C   UNL     1       7.552  -8.021   5.058  1.00  0.00    -0.014 A 
BRANCH  43  44
ATOM     44  C   UNL     1       8.547  -7.617   4.076  1.00  0.00     0.031 A 
ATOM     45  C   UNL     1       9.341  -8.769   3.582  1.00  0.00     0.074 A 
ATOM     46  C   UNL     1       8.618  -6.381   3.535  1.00  0.00     0.049 A 
ATOM     47  N   UNL     1      10.566  -9.037   3.881  1.00  0.00    -0.248 NA
ATOM     48  C   UNL     1       8.652  -9.860   2.871  1.00  0.00     0.031 C 
ATOM     49  C   UNL     1       7.710  -5.248   3.730  1.00  0.00     0.029 A 
ATOM     50  N   UNL     1       9.493  -5.899   2.606  1.00  0.00    -0.354 N 
ATOM     51  C   UNL     1      10.883 -10.190   3.175  1.00  0.00     0.074 A 
ATOM     52  C   UNL     1       9.628 -10.768   2.776  1.00  0.00     0.031 C 
ATOM     53  C   UNL     1       7.939  -4.311   2.781  1.00  0.00     0.029 A 
ATOM     54  C   UNL     1       9.102  -4.700   2.005  1.00  0.00     0.049 A 
ATOM     55  H   UNL     1      10.333  -6.360   2.378  1.00  0.00     0.167 HD
ATOM     56  C   UNL     1      12.155 -10.382   2.731  1.00  0.00     0.037 A 
ATOM     57  C   UNL     1       9.684  -4.112   0.924  1.00  0.00     0.037 A 
ATOM     58  C   UNL     1      13.068  -9.495   3.420  1.00  0.00     0.049 A 
ATOM     59  C   UNL     1      11.056  -4.677   0.801  1.00  0.00     0.074 A 
ATOM     60  C   UNL     1      13.370  -9.261   4.750  1.00  0.00     0.029 A 
ATOM     61  N   UNL     1      13.507  -8.386   2.737  1.00  0.00    -0.354 N 
ATOM     62  N   UNL     1      12.010  -4.429   1.655  1.00  0.00    -0.248 NA
ATOM     63  C   UNL     1      11.197  -5.911   0.043  1.00  0.00     0.031 C 
ATOM     64  C   UNL     1      13.497  -7.844   4.852  1.00  0.00     0.029 A 
ATOM     65  C   UNL     1      13.387  -7.305   3.570  1.00  0.00     0.049 A 
ATOM     66  H   UNL     1      13.847  -8.371   1.813  1.00  0.00     0.167 HD
ATOM     67  C   UNL     1      12.591  -5.666   1.889  1.00  0.00     0.074 A 
ATOM     68  C   UNL     1      12.087  -6.533   0.822  1.00  0.00     0.031 C 
ATOM     69  C   UNL     1      13.165  -5.961   3.093  1.00  0.00     0.037 A 
BRANCH  56  70
ATOM     70  C   UNL     1      12.507 -11.004   1.398  1.00  0.00     0.057 A 
ATOM     71  C   UNL     1      13.868 -11.151   1.067  1.00  0.00     0.134 A 
ATOM     72  C   UNL     1      11.614 -11.165   0.319  1.00  0.00     0.134 A 
ATOM     73  F   UNL     1      14.821 -11.028   2.004  1.00  0.00    -0.206 F 
ATOM     74  C   UNL     1      14.308 -11.325  -0.249  1.00  0.00     0.040 A 
ATOM     75  C   UNL     1      12.042 -11.389  -0.992  1.00  0.00     0.040 A 
ATOM     76  F   UNL     1      10.291 -11.020   0.439  1.00  0.00    -0.206 F 
ATOM     77  C   UNL     1      13.393 -11.430  -1.287  1.00  0.00     0.006 A 
ENDBRANCH  56  70
BRANCH  57  78
ATOM     78  C   UNL     1       9.064  -3.332  -0.179  1.00  0.00     0.057 A 
ATOM     79  C   UNL     1       9.848  -2.613  -1.099  1.00  0.00     0.134 A 
ATOM     80  C   UNL     1       7.715  -3.505  -0.534  1.00  0.00     0.134 A 
ATOM     81  F   UNL     1      11.157  -2.425  -0.879  1.00  0.00    -0.206 F 
ATOM     82  C   UNL     1       9.329  -2.126  -2.308  1.00  0.00     0.040 A 
ATOM     83  C   UNL     1       7.184  -3.020  -1.735  1.00  0.00     0.040 A 
ATOM     84  F   UNL     1       6.888  -4.233   0.229  1.00  0.00    -0.206 F 
ATOM     85  C   UNL     1       7.994  -2.340  -2.636  1.00  0.00     0.006 A 
ENDBRANCH  57  78
BRANCH  69  86
ATOM     86  C   UNL     1      13.403  -4.845   4.073  1.00  0.00     0.057 A 
ATOM     87  C   UNL     1      12.405  -4.019   4.613  1.00  0.00     0.134 A 
ATOM     88  C   UNL     1      14.692  -4.703   4.603  1.00  0.00     0.134 A 
ATOM     89  F   UNL     1      11.121  -4.149   4.253  1.00  0.00    -0.206 F 
ATOM     90  C   UNL     1      12.691  -3.065   5.597  1.00  0.00     0.040 A 
ATOM     91  C   UNL     1      14.982  -3.784   5.611  1.00  0.00     0.040 A 
ATOM     92  F   UNL     1      15.688  -5.495   4.177  1.00  0.00    -0.206 F 
ATOM     93  C   UNL     1      13.983  -2.950   6.102  1.00  0.00     0.006 A 
ENDBRANCH  69  86
ENDBRANCH  43  44
ENDBRANCH  35  38
ENDBRANCH  33  34
ENDBRANCH  32  33
ENDBRANCH  31  32
ENDBRANCH  30  31
ENDBRANCH   1  30
TORSDOF 20
