REMARK SMILES COc1cc(/C=C2/SC(=O)N(c3ccc(O)cc3C)C2=O)ccc1OCC(=O)NCCCCCCNC(=O)c1ccc(-c2c3nc(c(-c4c(F)cccc4F)c4ccc([nH]4)c(-c4c(F)cccc4F)c4nc(c(-c5c(F)cccc5F)c5ccc2[nH]5)C=C4)C=C3)cc1
REMARK SMILES IDX 31 1 30 2 29 3 27 4 28 5 26 7 25 8 24 9 3 10 4 11 5 12 23 13
REMARK SMILES IDX 22 14 2 15 1 16 6 17 7 18 8 19 20 20 9 21 11 22 21 23 10 24
REMARK SMILES IDX 12 25 13 26 18 27 14 28 17 29 19 30 15 31 16 32 32 34 33 35
REMARK SMILES IDX 34 36 35 37 36 38 37 39 38 41 39 42 40 43 92 44 41 45 91 46
REMARK SMILES IDX 42 47 43 48 44 49 85 50 45 51 90 52 84 53 86 54 46 55 89 56
REMARK SMILES IDX 83 57 82 58 47 60 73 61 56 62 72 63 57 64 60 65 71 66 87 67
REMARK SMILES IDX 58 68 59 69 70 71 88 72 61 73 48 74 49 75 54 76 50 77 51 78
REMARK SMILES IDX 53 79 55 80 52 81 74 82 75 83 80 84 76 85 77 86 79 87 81 88
REMARK SMILES IDX 78 89 62 90 63 91 68 92 64 93 65 94 67 95 69 96 66 97
REMARK H PARENT 29 6 16 33 36 40 86 59 60 70
REMARK Flexibility Score: inf
ROOT
ATOM      1  C   UNL     1       2.833  -3.992   1.764  1.00  0.00     0.021 C 
ENDROOT
BRANCH   1   2
ATOM      2  C   UNL     1       3.429  -3.224   0.586  1.00  0.00     0.116 C 
BRANCH   2   3
ATOM      3  N   UNL     1       2.417  -2.591  -0.234  1.00  0.00    -0.353 N 
ATOM      4  C   UNL     1       2.238  -1.262  -0.497  1.00  0.00     0.257 C 
ATOM      5  O   UNL     1       1.409  -0.950  -1.354  1.00  0.00    -0.271 OA
ATOM      6  H   UNL     1       1.772  -3.200  -0.660  1.00  0.00     0.163 HD
BRANCH   4   7
ATOM      7  C   UNL     1       3.115  -0.224   0.210  1.00  0.00     0.329 C 
BRANCH   7   8
ATOM      8  O   UNL     1       3.283  -0.387   1.605  1.00  0.00    -0.480 OA
BRANCH   8   9
ATOM      9  C   UNL     1       2.231  -0.201   2.456  1.00  0.00     0.161 A 
ATOM     10  C   UNL     1       1.032   0.484   2.230  1.00  0.00     0.161 A 
ATOM     11  C   UNL     1       0.140   0.696   3.293  1.00  0.00     0.058 A 
ATOM     12  C   UNL     1       0.425   0.201   4.571  1.00  0.00    -0.020 A 
ATOM     13  C   UNL     1       2.472  -0.748   3.724  1.00  0.00     0.051 A 
ATOM     14  C   UNL     1       1.570  -0.572   4.772  1.00  0.00     0.012 A 
BRANCH  10  15
ATOM     15  O   UNL     1       0.791   1.091   1.027  1.00  0.00    -0.493 OA
ATOM     16  C   UNL     1      -0.449   0.690   0.444  1.00  0.00     0.278 C 
ENDBRANCH  10  15
BRANCH  12  17
ATOM     17  C   UNL     1      -0.323   0.692   5.733  1.00  0.00     0.029 C 
ATOM     18  C   UNL     1       0.085   1.766   6.431  1.00  0.00     0.083 C 
ATOM     19  S   UNL     1      -0.705   2.356   7.840  1.00  0.00    -0.022 SA
ATOM     20  C   UNL     1       1.294   2.599   6.145  1.00  0.00     0.272 C 
ATOM     21  C   UNL     1       0.494   3.627   8.096  1.00  0.00     0.298 C 
ATOM     22  N   UNL     1       1.468   3.558   7.127  1.00  0.00    -0.236 N 
ATOM     23  O   UNL     1       2.036   2.409   5.191  1.00  0.00    -0.268 OA
ATOM     24  O   UNL     1       0.369   4.436   9.001  1.00  0.00    -0.260 OA
BRANCH  22  25
ATOM     25  C   UNL     1       2.593   4.431   7.077  1.00  0.00     0.056 A 
ATOM     26  C   UNL     1       2.920   5.023   5.838  1.00  0.00     0.031 A 
ATOM     27  C   UNL     1       3.446   4.654   8.179  1.00  0.00    -0.023 A 
ATOM     28  C   UNL     1       4.055   5.815   5.683  1.00  0.00     0.048 A 
ATOM     29  C   UNL     1       4.584   5.472   8.008  1.00  0.00     0.051 A 
ATOM     30  C   UNL     1       3.272   4.017   9.532  1.00  0.00     0.047 C 
ATOM     31  C   UNL     1       4.884   6.028   6.768  1.00  0.00     0.115 A 
BRANCH  31  32
ATOM     32  O   UNL     1       6.005   6.776   6.571  1.00  0.00    -0.508 OA
ATOM     33  H   UNL     1       6.184   7.139   5.726  1.00  0.00     0.293 HD
ENDBRANCH  31  32
ENDBRANCH  22  25
ENDBRANCH  12  17
ENDBRANCH   8   9
ENDBRANCH   7   8
ENDBRANCH   4   7
ENDBRANCH   2   3
ENDBRANCH   1   2
BRANCH   1  34
ATOM     34  C   UNL     1       1.834  -5.096   1.398  1.00  0.00     0.002 C 
BRANCH  34  35
ATOM     35  C   UNL     1       2.286  -6.087   0.323  1.00  0.00     0.002 C 
BRANCH  35  36
ATOM     36  C   UNL     1       3.649  -6.743   0.548  1.00  0.00     0.021 C 
BRANCH  36  37
ATOM     37  C   UNL     1       3.811  -7.477   1.872  1.00  0.00     0.116 C 
BRANCH  37  38
ATOM     38  N   UNL     1       2.949  -8.641   1.976  1.00  0.00    -0.352 N 
ATOM     39  C   UNL     1       3.273  -9.931   2.318  1.00  0.00     0.251 C 
ATOM     40  H   UNL     1       1.999  -8.483   1.772  1.00  0.00     0.163 HD
ATOM     41  O   UNL     1       2.439 -10.825   2.215  1.00  0.00    -0.269 OA
BRANCH  39  42
ATOM     42  C   UNL     1       4.641 -10.252   2.784  1.00  0.00     0.039 A 
ATOM     43  C   UNL     1       5.285 -11.374   2.256  1.00  0.00     0.014 A 
ATOM     44  C   UNL     1       5.286  -9.456   3.736  1.00  0.00     0.014 A 
ATOM     45  C   UNL     1       6.597 -11.664   2.636  1.00  0.00     0.010 A 
ATOM     46  C   UNL     1       6.616  -9.707   4.063  1.00  0.00     0.010 A 
ATOM     47  C   UNL     1       7.284 -10.815   3.519  1.00  0.00    -0.014 A 
BRANCH  47  48
ATOM     48  C   UNL     1       8.699 -11.073   3.888  1.00  0.00     0.031 A 
ATOM     49  C   UNL     1       9.060 -11.418   5.305  1.00  0.00     0.074 A 
ATOM     50  C   UNL     1       9.666 -10.931   2.962  1.00  0.00     0.049 A 
ATOM     51  N   UNL     1      10.242 -11.611   5.833  1.00  0.00    -0.248 NA
ATOM     52  C   UNL     1       7.948 -11.535   6.260  1.00  0.00     0.031 C 
ATOM     53  C   UNL     1       9.452 -10.551   1.564  1.00  0.00     0.029 A 
ATOM     54  N   UNL     1      11.027 -11.079   3.062  1.00  0.00    -0.354 N 
ATOM     55  C   UNL     1      10.018 -11.853   7.182  1.00  0.00     0.074 A 
ATOM     56  C   UNL     1       8.592 -11.737   7.401  1.00  0.00     0.031 C 
ATOM     57  C   UNL     1      10.637 -10.514   0.933  1.00  0.00     0.029 A 
ATOM     58  C   UNL     1      11.695 -10.836   1.886  1.00  0.00     0.049 A 
ATOM     59  H   UNL     1      11.482 -11.335   3.897  1.00  0.00     0.167 HD
ATOM     60  C   UNL     1      10.915 -12.164   8.148  1.00  0.00     0.037 A 
ATOM     61  C   UNL     1      13.012 -10.866   1.609  1.00  0.00     0.037 A 
ATOM     62  C   UNL     1      12.329 -12.311   7.925  1.00  0.00     0.049 A 
ATOM     63  C   UNL     1      13.987 -11.227   2.693  1.00  0.00     0.074 A 
ATOM     64  C   UNL     1      13.309 -12.693   8.825  1.00  0.00     0.029 A 
ATOM     65  N   UNL     1      12.964 -12.081   6.714  1.00  0.00    -0.354 N 
ATOM     66  N   UNL     1      13.754 -11.519   3.950  1.00  0.00    -0.248 NA
ATOM     67  C   UNL     1      15.408 -11.269   2.320  1.00  0.00     0.031 C 
ATOM     68  C   UNL     1      14.544 -12.660   8.166  1.00  0.00     0.029 A 
ATOM     69  C   UNL     1      14.326 -12.295   6.848  1.00  0.00     0.049 A 
ATOM     70  H   UNL     1      12.514 -11.807   5.883  1.00  0.00     0.167 HD
ATOM     71  C   UNL     1      14.992 -11.801   4.511  1.00  0.00     0.074 A 
ATOM     72  C   UNL     1      15.973 -11.657   3.455  1.00  0.00     0.031 C 
ATOM     73  C   UNL     1      15.289 -12.149   5.786  1.00  0.00     0.037 A 
BRANCH  60  74
ATOM     74  C   UNL     1      10.386 -12.370   9.537  1.00  0.00     0.057 A 
ATOM     75  C   UNL     1       9.625 -13.497   9.878  1.00  0.00     0.134 A 
ATOM     76  C   UNL     1      10.656 -11.442  10.550  1.00  0.00     0.134 A 
ATOM     77  F   UNL     1       9.321 -14.417   8.950  1.00  0.00    -0.206 F 
ATOM     78  C   UNL     1       9.128 -13.678  11.169  1.00  0.00     0.040 A 
ATOM     79  C   UNL     1      10.185 -11.626  11.852  1.00  0.00     0.040 A 
ATOM     80  F   UNL     1      11.382 -10.344  10.294  1.00  0.00    -0.206 F 
ATOM     81  C   UNL     1       9.412 -12.743  12.162  1.00  0.00     0.006 A 
ENDBRANCH  60  74
BRANCH  61  82
ATOM     82  C   UNL     1      13.482 -10.573   0.233  1.00  0.00     0.057 A 
ATOM     83  C   UNL     1      13.963 -11.594  -0.595  1.00  0.00     0.134 A 
ATOM     84  C   UNL     1      13.456  -9.275  -0.289  1.00  0.00     0.134 A 
ATOM     85  F   UNL     1      14.029 -12.854  -0.143  1.00  0.00    -0.206 F 
ATOM     86  C   UNL     1      14.413 -11.332  -1.890  1.00  0.00     0.040 A 
ATOM     87  C   UNL     1      13.884  -9.002  -1.589  1.00  0.00     0.040 A 
ATOM     88  F   UNL     1      13.000  -8.256   0.454  1.00  0.00    -0.206 F 
ATOM     89  C   UNL     1      14.369 -10.033  -2.392  1.00  0.00     0.006 A 
ENDBRANCH  61  82
BRANCH  73  90
ATOM     90  C   UNL     1      16.729 -12.422   6.103  1.00  0.00     0.057 A 
ATOM     91  C   UNL     1      17.667 -11.389   6.221  1.00  0.00     0.134 A 
ATOM     92  C   UNL     1      17.174 -13.731   6.329  1.00  0.00     0.134 A 
ATOM     93  F   UNL     1      17.306 -10.116   6.003  1.00  0.00    -0.206 F 
ATOM     94  C   UNL     1      19.001 -11.650   6.535  1.00  0.00     0.040 A 
ATOM     95  C   UNL     1      18.500 -14.002   6.665  1.00  0.00     0.040 A 
ATOM     96  F   UNL     1      16.323 -14.765   6.238  1.00  0.00    -0.206 F 
ATOM     97  C   UNL     1      19.420 -12.960   6.765  1.00  0.00     0.006 A 
ENDBRANCH  73  90
ENDBRANCH  47  48
ENDBRANCH  39  42
ENDBRANCH  37  38
ENDBRANCH  36  37
ENDBRANCH  35  36
ENDBRANCH  34  35
ENDBRANCH   1  34
TORSDOF 19
