REMARK SMILES Cc1nc(-c2ccccc2Cl)nc2sc(C(=O)NCCCCCCNC(=O)c3ccc(-c4c5nc(c(-c6c(F)cccc6F)c6ccc([nH]6)c(-c6c(F)cccc6F)c6nc(c(-c7c(F)cccc7F)c7ccc4[nH]7)C=C6)C=C5)cc3)c(N)c12
REMARK SMILES IDX 22 1 21 2 20 3 19 4 18 5 16 6 17 7 15 9 1 10 2 11 3 12 84 13
REMARK SMILES IDX 4 14 13 15 82 16 12 17 14 18 5 19 6 20 10 21 7 22 9 23 11 24
REMARK SMILES IDX 8 25 83 26 23 29 24 30 25 31 26 32 27 34 28 35 29 36 81 37
REMARK SMILES IDX 30 38 80 39 31 40 32 41 33 42 74 43 34 44 79 45 73 46 75 47
REMARK SMILES IDX 35 48 78 49 72 50 71 51 36 53 62 54 45 55 61 56 46 57 49 58
REMARK SMILES IDX 60 59 76 60 47 61 48 62 59 64 77 65 50 66 37 67 38 68 43 69
REMARK SMILES IDX 39 70 40 71 42 72 44 73 41 74 63 75 64 76 69 77 65 78 66 79
REMARK SMILES IDX 68 80 70 81 67 82 51 83 52 84 57 85 53 86 54 87 56 88 58 89
REMARK SMILES IDX 55 90
REMARK H PARENT 18 8 83 27 83 28 25 33 75 52 49 63
REMARK Flexibility Score: inf
ROOT
ATOM      1  C   UNL     1      -1.220   7.284   7.637  1.00  0.00     0.002 C 
ENDROOT
BRANCH   1   2
ATOM      2  C   UNL     1       0.165   6.850   7.128  1.00  0.00     0.002 C 
BRANCH   2   3
ATOM      3  C   UNL     1       0.210   5.481   6.437  1.00  0.00     0.021 C 
BRANCH   3   4
ATOM      4  C   UNL     1      -0.703   5.392   5.211  1.00  0.00     0.116 C 
BRANCH   4   5
ATOM      5  N   UNL     1      -0.012   5.812   4.003  1.00  0.00    -0.351 N 
ATOM      6  C   UNL     1       0.540   5.114   2.949  1.00  0.00     0.263 C 
ATOM      7  O   UNL     1       0.944   5.816   2.015  1.00  0.00    -0.268 OA
ATOM      8  H   UNL     1       0.080   6.789   3.921  1.00  0.00     0.163 HD
BRANCH   6   9
ATOM      9  C   UNL     1       0.595   3.656   2.895  1.00  0.00     0.118 A 
ATOM     10  C   UNL     1       0.944   0.136  -0.154  1.00  0.00     0.067 C 
ATOM     11  C   UNL     1       0.546   0.253   1.286  1.00  0.00     0.052 A 
ATOM     12  N   UNL     1       0.169  -0.909   1.904  1.00  0.00    -0.233 NA
ATOM     13  C   UNL     1       0.568   1.445   2.043  1.00  0.00     0.056 A 
ATOM     14  C   UNL     1      -0.111  -0.893   3.219  1.00  0.00     0.162 A 
ATOM     15  C   UNL     1       0.331   1.278   3.395  1.00  0.00     0.130 A 
ATOM     16  C   UNL     1       0.765   2.850   1.769  1.00  0.00     0.067 A 
ATOM     17  N   UNL     1      -0.020   0.159   4.031  1.00  0.00    -0.217 NA
ATOM     18  S   UNL     1       0.595   2.679   4.292  1.00  0.00    -0.108 S 
BRANCH  14  19
ATOM     19  C   UNL     1      -0.587  -2.111   3.866  1.00  0.00     0.038 A 
ATOM     20  C   UNL     1      -1.940  -2.197   4.258  1.00  0.00     0.013 A 
ATOM     21  C   UNL     1       0.280  -3.146   4.245  1.00  0.00     0.052 A 
ATOM     22  C   UNL     1      -2.406  -3.272   5.018  1.00  0.00     0.001 A 
ATOM     23  C   UNL     1      -0.190  -4.223   5.007  1.00  0.00     0.021 A 
ATOM     24  Cl  UNL     1       1.967  -3.115   3.860  1.00  0.00    -0.084 Cl
ATOM     25  C   UNL     1      -1.528  -4.282   5.397  1.00  0.00     0.002 A 
ENDBRANCH  14  19
BRANCH  16  26
ATOM     26  N   UNL     1       1.008   3.370   0.545  1.00  0.00    -0.397 N 
ATOM     27  H   UNL     1       1.131   4.341   0.438  1.00  0.00     0.156 HD
ATOM     28  H   UNL     1       1.061   2.778  -0.239  1.00  0.00     0.156 HD
ENDBRANCH  16  26
ENDBRANCH   6   9
ENDBRANCH   4   5
ENDBRANCH   3   4
ENDBRANCH   2   3
ENDBRANCH   1   2
BRANCH   1  29
ATOM     29  C   UNL     1      -1.941   6.281   8.549  1.00  0.00     0.021 C 
BRANCH  29  30
ATOM     30  C   UNL     1      -1.269   6.123   9.904  1.00  0.00     0.116 C 
BRANCH  30  31
ATOM     31  N   UNL     1      -1.384   7.338  10.704  1.00  0.00    -0.352 N 
ATOM     32  C   UNL     1      -1.014   7.541  12.015  1.00  0.00     0.251 C 
ATOM     33  H   UNL     1      -1.778   8.116  10.245  1.00  0.00     0.163 HD
ATOM     34  O   UNL     1      -1.451   8.485  12.651  1.00  0.00    -0.269 OA
BRANCH  32  35
ATOM     35  C   UNL     1      -0.079   6.592  12.641  1.00  0.00     0.039 A 
ATOM     36  C   UNL     1      -0.293   6.161  13.952  1.00  0.00     0.014 A 
ATOM     37  C   UNL     1       1.018   6.141  11.907  1.00  0.00     0.014 A 
ATOM     38  C   UNL     1       0.569   5.218  14.499  1.00  0.00     0.010 A 
ATOM     39  C   UNL     1       1.807   5.132  12.407  1.00  0.00     0.010 A 
ATOM     40  C   UNL     1       1.608   4.694  13.713  1.00  0.00    -0.014 A 
BRANCH  40  41
ATOM     41  C   UNL     1       2.409   3.584  14.216  1.00  0.00     0.031 A 
ATOM     42  C   UNL     1       1.626   2.372  14.593  1.00  0.00     0.074 A 
ATOM     43  C   UNL     1       3.756   3.564  14.143  1.00  0.00     0.049 A 
ATOM     44  N   UNL     1       1.538   1.810  15.754  1.00  0.00    -0.248 NA
ATOM     45  C   UNL     1       0.741   1.776  13.578  1.00  0.00     0.031 C 
ATOM     46  C   UNL     1       4.652   4.542  13.517  1.00  0.00     0.029 A 
ATOM     47  N   UNL     1       4.614   2.587  14.542  1.00  0.00    -0.354 N 
ATOM     48  C   UNL     1       0.732   0.685  15.583  1.00  0.00     0.074 A 
ATOM     49  C   UNL     1       0.151   0.800  14.271  1.00  0.00     0.031 C 
ATOM     50  C   UNL     1       5.884   4.005  13.380  1.00  0.00     0.029 A 
ATOM     51  C   UNL     1       5.907   2.719  14.051  1.00  0.00     0.049 A 
ATOM     52  H   UNL     1       4.341   1.847  15.131  1.00  0.00     0.167 HD
ATOM     53  C   UNL     1       0.773  -0.356  16.460  1.00  0.00     0.037 A 
ATOM     54  C   UNL     1       6.912   1.817  14.165  1.00  0.00     0.037 A 
ATOM     55  C   UNL     1       1.372   0.042  17.707  1.00  0.00     0.049 A 
ATOM     56  C   UNL     1       6.566   0.916  15.292  1.00  0.00     0.074 A 
ATOM     57  C   UNL     1       1.059   0.975  18.677  1.00  0.00     0.029 A 
ATOM     58  N   UNL     1       2.685  -0.297  17.927  1.00  0.00    -0.354 N 
ATOM     59  N   UNL     1       6.509   1.301  16.537  1.00  0.00    -0.248 NA
ATOM     60  C   UNL     1       5.830  -0.299  14.978  1.00  0.00     0.031 C 
ATOM     61  C   UNL     1       2.314   1.508  19.089  1.00  0.00     0.029 A 
ATOM     62  C   UNL     1       3.317   0.823  18.400  1.00  0.00     0.049 A 
ATOM     63  H   UNL     1       3.094  -1.179  17.774  1.00  0.00     0.167 HD
ATOM     64  C   UNL     1       5.407   0.640  17.061  1.00  0.00     0.074 A 
ATOM     65  C   UNL     1       5.081  -0.393  16.080  1.00  0.00     0.031 C 
ATOM     66  C   UNL     1       4.687   1.170  18.093  1.00  0.00     0.037 A 
BRANCH  53  67
ATOM     67  C   UNL     1       0.602  -1.809  16.083  1.00  0.00     0.057 A 
ATOM     68  C   UNL     1       0.584  -2.786  17.097  1.00  0.00     0.134 A 
ATOM     69  C   UNL     1       0.749  -2.314  14.775  1.00  0.00     0.134 A 
ATOM     70  F   UNL     1       0.459  -2.440  18.387  1.00  0.00    -0.206 F 
ATOM     71  C   UNL     1       0.781  -4.148  16.836  1.00  0.00     0.040 A 
ATOM     72  C   UNL     1       0.896  -3.676  14.499  1.00  0.00     0.040 A 
ATOM     73  F   UNL     1       0.860  -1.519  13.705  1.00  0.00    -0.206 F 
ATOM     74  C   UNL     1       0.947  -4.597  15.533  1.00  0.00     0.006 A 
ENDBRANCH  53  67
BRANCH  54  75
ATOM     75  C   UNL     1       7.979   1.504  13.185  1.00  0.00     0.057 A 
ATOM     76  C   UNL     1       9.109   0.758  13.551  1.00  0.00     0.134 A 
ATOM     77  C   UNL     1       7.789   1.694  11.805  1.00  0.00     0.134 A 
ATOM     78  F   UNL     1       9.354   0.482  14.840  1.00  0.00    -0.206 F 
ATOM     79  C   UNL     1       9.986   0.216  12.599  1.00  0.00     0.040 A 
ATOM     80  C   UNL     1       8.659   1.165  10.845  1.00  0.00     0.040 A 
ATOM     81  F   UNL     1       6.703   2.326  11.335  1.00  0.00    -0.206 F 
ATOM     82  C   UNL     1       9.756   0.411  11.241  1.00  0.00     0.006 A 
ENDBRANCH  54  75
BRANCH  66  83
ATOM     83  C   UNL     1       5.231   2.381  18.804  1.00  0.00     0.057 A 
ATOM     84  C   UNL     1       5.364   3.643  18.204  1.00  0.00     0.134 A 
ATOM     85  C   UNL     1       5.404   2.323  20.191  1.00  0.00     0.134 A 
ATOM     86  F   UNL     1       5.134   3.820  16.899  1.00  0.00    -0.206 F 
ATOM     87  C   UNL     1       5.664   4.789  18.948  1.00  0.00     0.040 A 
ATOM     88  C   UNL     1       5.672   3.464  20.950  1.00  0.00     0.040 A 
ATOM     89  F   UNL     1       5.240   1.160  20.842  1.00  0.00    -0.206 F 
ATOM     90  C   UNL     1       5.803   4.704  20.329  1.00  0.00     0.006 A 
ENDBRANCH  66  83
ENDBRANCH  40  41
ENDBRANCH  32  35
ENDBRANCH  30  31
ENDBRANCH  29  30
ENDBRANCH   1  29
TORSDOF 15
