REMARK SMILES CC1(C)CC[C@@]2(C(=O)NCCCCCCNC(=O)c3ccc(-c4c5nc(c(-c6c(F)cccc6F)c6ccc([nH]6)c(-c6c(F)cccc6F)c6nc(c(-c7c(F)cccc7F)c7ccc4[nH]7)C=C6)C=C5)cc3)CC[C@@]3(C)C(=CC[C@H]4[C@@]5(C)CC[C@H](O)C(C)(C)[C@@H]5CC[C@]43C)[C@@H]2C1
REMARK SMILES IDX 13 1 12 2 11 3 10 4 9 5 7 6 8 7 6 9 1 10 2 11 3 12 4 13
REMARK SMILES IDX 96 14 5 15 95 16 77 17 73 18 75 19 78 20 74 21 76 22 93 23
REMARK SMILES IDX 79 24 80 25 92 26 94 27 81 28 91 29 82 30 83 31 90 32 84 33
REMARK SMILES IDX 87 34 85 35 88 36 89 37 86 38 14 40 15 41 16 42 17 43 18 45
REMARK SMILES IDX 19 46 20 47 72 48 21 49 71 50 22 51 23 52 24 53 65 54 25 55
REMARK SMILES IDX 70 56 64 57 66 58 26 59 69 60 63 61 62 62 27 64 53 65 36 66
REMARK SMILES IDX 52 67 37 68 40 69 51 70 67 71 38 72 39 73 50 75 68 76 41 77
REMARK SMILES IDX 28 78 29 79 34 80 30 81 31 82 33 83 35 84 32 85 54 86 55 87
REMARK SMILES IDX 60 88 56 89 57 90 59 91 61 92 58 93 42 94 43 95 48 96 44 97
REMARK SMILES IDX 45 98 47 99 49 100 46 101
REMARK H PARENT 9 8 86 39 16 44 66 63 40 74
REMARK Flexibility Score: inf
ROOT
ATOM      1  C   UNL     1      -1.190  -0.760   2.454  1.00  0.00     0.002 C 
ENDROOT
BRANCH   1   2
ATOM      2  C   UNL     1      -1.630   0.698   2.609  1.00  0.00     0.002 C 
BRANCH   2   3
ATOM      3  C   UNL     1      -0.710   1.757   3.232  1.00  0.00     0.021 C 
BRANCH   3   4
ATOM      4  C   UNL     1      -0.016   2.833   2.369  1.00  0.00     0.116 C 
BRANCH   4   5
ATOM      5  N   UNL     1      -0.272   2.802   0.956  1.00  0.00    -0.356 N 
ATOM      6  C   UNL     1       0.442   3.549   0.048  1.00  0.00     0.226 C 
ATOM      7  O   UNL     1       0.935   4.635   0.348  1.00  0.00    -0.274 OA
ATOM      8  H   UNL     1      -0.992   2.220   0.621  1.00  0.00     0.163 HD
BRANCH   6   9
ATOM      9  C   UNL     1       0.748   2.850  -1.312  1.00  0.00     0.056 C 
ATOM     10  C   UNL     1       3.011  -0.484  -1.059  1.00  0.00     0.011 C 
ATOM     11  C   UNL     1       2.228   0.461  -0.136  1.00  0.00    -0.035 C 
ATOM     12  C   UNL     1       2.388  -0.080   1.308  1.00  0.00     0.011 C 
ATOM     13  C   UNL     1       2.832   1.875  -0.198  1.00  0.00     0.007 C 
ATOM     14  C   UNL     1       0.727   0.413  -0.515  1.00  0.00     0.015 C 
ATOM     15  C   UNL     1       2.295   2.719  -1.355  1.00  0.00     0.018 C 
ATOM     16  C   UNL     1       0.143   1.448  -1.523  1.00  0.00     0.031 C 
ATOM     17  C   UNL     1      -1.406   1.503  -1.558  1.00  0.00    -0.064 C 
ATOM     18  C   UNL     1       0.288   3.713  -2.500  1.00  0.00     0.018 C 
ATOM     19  C   UNL     1      -2.147   2.659  -2.274  1.00  0.00    -0.006 C 
ATOM     20  C   UNL     1      -2.135   0.501  -1.037  1.00  0.00    -0.027 C 
ATOM     21  C   UNL     1      -1.227   3.920  -2.536  1.00  0.00     0.013 C 
ATOM     22  C   UNL     1      -2.474   2.097  -3.694  1.00  0.00     0.017 C 
ATOM     23  C   UNL     1      -3.544   3.075  -1.464  1.00  0.00    -0.020 C 
ATOM     24  C   UNL     1      -3.614   0.468  -0.981  1.00  0.00     0.032 C 
ATOM     25  C   UNL     1      -4.309   1.833  -0.774  1.00  0.00     0.006 C 
ATOM     26  C   UNL     1      -3.233   4.216  -0.450  1.00  0.00     0.008 C 
ATOM     27  C   UNL     1      -4.549   3.712  -2.475  1.00  0.00     0.012 C 
ATOM     28  C   UNL     1      -5.039   2.071   0.679  1.00  0.00    -0.025 C 
ATOM     29  C   UNL     1      -4.203   4.460   0.686  1.00  0.00     0.005 C 
ATOM     30  C   UNL     1      -6.517   2.423   0.342  1.00  0.00     0.012 C 
ATOM     31  C   UNL     1      -5.097   0.793   1.569  1.00  0.00     0.010 C 
ATOM     32  C   UNL     1      -4.338   3.192   1.519  1.00  0.00     0.003 C 
ATOM     33  C   UNL     1      -5.619   0.994   2.995  1.00  0.00     0.033 C 
ATOM     34  C   UNL     1      -4.871   3.456   2.988  1.00  0.00    -0.006 C 
ATOM     35  C   UNL     1      -4.909   2.111   3.758  1.00  0.00     0.120 C 
ATOM     36  C   UNL     1      -6.243   4.157   3.067  1.00  0.00     0.014 C 
ATOM     37  C   UNL     1      -3.882   4.399   3.738  1.00  0.00     0.014 C 
BRANCH  35  38
ATOM     38  O   UNL     1      -5.524   2.264   5.038  1.00  0.00    -0.393 OA
ATOM     39  H   UNL     1      -6.451   2.524   4.922  1.00  0.00     0.210 HD
ENDBRANCH  35  38
ENDBRANCH   6   9
ENDBRANCH   4   5
ENDBRANCH   3   4
ENDBRANCH   2   3
ENDBRANCH   1   2
BRANCH   1  40
ATOM     40  C   UNL     1      -0.592  -1.445   3.671  1.00  0.00     0.021 C 
BRANCH  40  41
ATOM     41  C   UNL     1      -1.271  -1.162   4.996  1.00  0.00     0.116 C 
BRANCH  41  42
ATOM     42  N   UNL     1      -2.677  -1.526   5.082  1.00  0.00    -0.352 N 
ATOM     43  C   UNL     1      -3.374  -1.770   6.250  1.00  0.00     0.251 C 
ATOM     44  H   UNL     1      -3.174  -1.604   4.236  1.00  0.00     0.163 HD
ATOM     45  O   UNL     1      -4.572  -2.027   6.246  1.00  0.00    -0.269 OA
BRANCH  43  46
ATOM     46  C   UNL     1      -2.598  -1.770   7.509  1.00  0.00     0.039 A 
ATOM     47  C   UNL     1      -2.431  -2.977   8.190  1.00  0.00     0.014 A 
ATOM     48  C   UNL     1      -1.858  -0.638   7.861  1.00  0.00     0.014 A 
ATOM     49  C   UNL     1      -1.435  -3.076   9.163  1.00  0.00     0.010 A 
ATOM     50  C   UNL     1      -0.806  -0.769   8.759  1.00  0.00     0.010 A 
ATOM     51  C   UNL     1      -0.575  -1.992   9.409  1.00  0.00    -0.014 A 
BRANCH  51  52
ATOM     52  C   UNL     1       0.583  -2.126  10.330  1.00  0.00     0.031 A 
ATOM     53  C   UNL     1       0.645  -1.296  11.580  1.00  0.00     0.074 A 
ATOM     54  C   UNL     1       1.604  -2.948  10.015  1.00  0.00     0.049 A 
ATOM     55  N   UNL     1       1.573  -1.256  12.501  1.00  0.00    -0.248 NA
ATOM     56  C   UNL     1      -0.470  -0.365  11.808  1.00  0.00     0.031 C 
ATOM     57  C   UNL     1       1.695  -3.764   8.802  1.00  0.00     0.029 A 
ATOM     58  N   UNL     1       2.762  -3.237  10.694  1.00  0.00    -0.354 N 
ATOM     59  C   UNL     1       1.157  -0.292  13.409  1.00  0.00     0.074 A 
ATOM     60  C   UNL     1      -0.067   0.278  12.891  1.00  0.00     0.031 C 
ATOM     61  C   UNL     1       2.821  -4.496   8.847  1.00  0.00     0.029 A 
ATOM     62  C   UNL     1       3.546  -4.180  10.074  1.00  0.00     0.049 A 
ATOM     63  H   UNL     1       3.007  -2.808  11.546  1.00  0.00     0.167 HD
ATOM     64  C   UNL     1       1.721   0.064  14.588  1.00  0.00     0.037 A 
ATOM     65  C   UNL     1       4.710  -4.737  10.460  1.00  0.00     0.037 A 
ATOM     66  C   UNL     1       2.929  -0.514  15.111  1.00  0.00     0.049 A 
ATOM     67  C   UNL     1       5.327  -4.318  11.766  1.00  0.00     0.074 A 
ATOM     68  C   UNL     1       3.557  -0.261  16.317  1.00  0.00     0.029 A 
ATOM     69  N   UNL     1       3.695  -1.465  14.452  1.00  0.00    -0.354 N 
ATOM     70  N   UNL     1       4.883  -3.460  12.652  1.00  0.00    -0.248 NA
ATOM     71  C   UNL     1       6.605  -4.949  12.125  1.00  0.00     0.031 C 
ATOM     72  C   UNL     1       4.724  -1.032  16.372  1.00  0.00     0.029 A 
ATOM     73  C   UNL     1       4.801  -1.795  15.217  1.00  0.00     0.049 A 
ATOM     74  H   UNL     1       3.483  -1.848  13.570  1.00  0.00     0.167 HD
ATOM     75  C   UNL     1       5.809  -3.469  13.687  1.00  0.00     0.074 A 
ATOM     76  C   UNL     1       6.836  -4.424  13.321  1.00  0.00     0.031 C 
ATOM     77  C   UNL     1       5.809  -2.752  14.838  1.00  0.00     0.037 A 
BRANCH  64  78
ATOM     78  C   UNL     1       1.019   1.129  15.378  1.00  0.00     0.057 A 
ATOM     79  C   UNL     1      -0.225   0.896  15.983  1.00  0.00     0.134 A 
ATOM     80  C   UNL     1       1.572   2.407  15.511  1.00  0.00     0.134 A 
ATOM     81  F   UNL     1      -0.818  -0.302  15.877  1.00  0.00    -0.206 F 
ATOM     82  C   UNL     1      -0.913   1.909  16.653  1.00  0.00     0.040 A 
ATOM     83  C   UNL     1       0.907   3.421  16.204  1.00  0.00     0.040 A 
ATOM     84  F   UNL     1       2.761   2.697  14.960  1.00  0.00    -0.206 F 
ATOM     85  C   UNL     1      -0.345   3.176  16.766  1.00  0.00     0.006 A 
ENDBRANCH  64  78
BRANCH  65  86
ATOM     86  C   UNL     1       5.339  -5.796   9.632  1.00  0.00     0.057 A 
ATOM     87  C   UNL     1       5.334  -7.131  10.056  1.00  0.00     0.134 A 
ATOM     88  C   UNL     1       5.954  -5.511   8.408  1.00  0.00     0.134 A 
ATOM     89  F   UNL     1       4.776  -7.463  11.230  1.00  0.00    -0.206 F 
ATOM     90  C   UNL     1       5.927  -8.143   9.300  1.00  0.00     0.040 A 
ATOM     91  C   UNL     1       6.534  -6.516   7.631  1.00  0.00     0.040 A 
ATOM     92  F   UNL     1       5.987  -4.254   7.943  1.00  0.00    -0.206 F 
ATOM     93  C   UNL     1       6.526  -7.836   8.080  1.00  0.00     0.006 A 
ENDBRANCH  65  86
BRANCH  77  94
ATOM     94  C   UNL     1       6.935  -2.997  15.797  1.00  0.00     0.057 A 
ATOM     95  C   UNL     1       8.229  -2.520  15.555  1.00  0.00     0.134 A 
ATOM     96  C   UNL     1       6.711  -3.683  16.998  1.00  0.00     0.134 A 
ATOM     97  F   UNL     1       8.511  -1.868  14.417  1.00  0.00    -0.206 F 
ATOM     98  C   UNL     1       9.265  -2.732  16.466  1.00  0.00     0.040 A 
ATOM     99  C   UNL     1       7.733  -3.880  17.927  1.00  0.00     0.040 A 
ATOM    100  F   UNL     1       5.492  -4.160  17.293  1.00  0.00    -0.206 F 
ATOM    101  C   UNL     1       9.016  -3.408  17.659  1.00  0.00     0.006 A 
ENDBRANCH  77  94
ENDBRANCH  51  52
ENDBRANCH  43  46
ENDBRANCH  41  42
ENDBRANCH  40  41
ENDBRANCH   1  40
TORSDOF 14
