REMARK SMILES CC[C@@H](C)[C@@H](C(=O)NCCCCCCNC(=O)c1ccc(-c2c3nc(c(-c4c(F)cccc4F)c4ccc([nH]4)c(-c4c(F)cccc4F)c4nc(c(-c5c(F)cccc5F)c5ccc2[nH]5)C=C4)C=C3)cc1)S(=O)(=O)c1ccc(OC)cc1
REMARK SMILES IDX 11 1 10 2 9 3 8 4 6 5 7 6 5 8 3 9 4 10 2 11 1 12 72 13 73 14
REMARK SMILES IDX 74 15 75 16 76 17 82 18 77 19 81 20 78 21 79 22 80 23 12 24
REMARK SMILES IDX 13 25 14 26 15 27 16 28 17 30 18 31 19 32 71 33 20 34 70 35
REMARK SMILES IDX 21 36 22 37 23 38 64 39 24 40 69 41 63 42 65 43 25 44 68 45
REMARK SMILES IDX 62 46 61 47 26 49 52 50 35 51 51 52 36 53 39 54 50 55 66 56
REMARK SMILES IDX 37 57 38 58 49 60 67 61 40 62 27 63 28 64 33 65 29 66 30 67
REMARK SMILES IDX 32 68 34 69 31 70 53 71 54 72 59 73 55 74 56 75 58 76 60 77
REMARK SMILES IDX 57 78 41 79 42 80 47 81 43 82 44 83 46 84 48 85 45 86
REMARK H PARENT 8 7 15 29 65 48 39 59
REMARK Flexibility Score: inf
ROOT
ATOM      1  C   UNL     1       0.623  -3.379  -3.483  1.00  0.00     0.002 C 
ENDROOT
BRANCH   1   2
ATOM      2  C   UNL     1       0.367  -2.596  -2.195  1.00  0.00     0.021 C 
BRANCH   2   3
ATOM      3  C   UNL     1      -0.350  -3.384  -1.084  1.00  0.00     0.116 C 
BRANCH   3   4
ATOM      4  N   UNL     1       0.627  -4.138  -0.323  1.00  0.00    -0.355 N 
ATOM      5  C   UNL     1       1.284  -3.821   0.833  1.00  0.00     0.239 C 
ATOM      6  O   UNL     1       2.425  -4.277   0.922  1.00  0.00    -0.274 OA
ATOM      7  H   UNL     1       0.854  -5.020  -0.699  1.00  0.00     0.163 HD
BRANCH   5   8
ATOM      8  C   UNL     1       0.644  -2.973   1.939  1.00  0.00     0.205 C 
BRANCH   8   9
ATOM      9  C   UNL     1       1.051  -1.459   1.944  1.00  0.00     0.014 C 
ATOM     10  C   UNL     1       0.385  -0.661   3.076  1.00  0.00     0.009 C 
BRANCH   9  11
ATOM     11  C   UNL     1       0.709  -0.768   0.612  1.00  0.00     0.002 C 
ATOM     12  C   UNL     1       1.236   0.646   0.421  1.00  0.00     0.004 C 
ENDBRANCH   9  11
ENDBRANCH   8   9
BRANCH   8  13
ATOM     13  S   UNL     1       1.033  -3.857   3.493  1.00  0.00     0.190 S 
ATOM     14  O   UNL     1       0.487  -3.120   4.623  1.00  0.00    -0.223 OA
ATOM     15  O   UNL     1       0.627  -5.241   3.334  1.00  0.00    -0.223 OA
BRANCH  13  16
ATOM     16  C   UNL     1       2.811  -3.831   3.706  1.00  0.00     0.068 A 
ATOM     17  C   UNL     1       3.540  -5.017   3.600  1.00  0.00     0.024 A 
ATOM     18  C   UNL     1       3.474  -2.628   3.959  1.00  0.00     0.024 A 
ATOM     19  C   UNL     1       4.937  -4.974   3.652  1.00  0.00     0.048 A 
ATOM     20  C   UNL     1       4.872  -2.588   3.981  1.00  0.00     0.048 A 
ATOM     21  C   UNL     1       5.610  -3.759   3.808  1.00  0.00     0.118 A 
BRANCH  21  22
ATOM     22  O   UNL     1       6.975  -3.847   3.791  1.00  0.00    -0.497 OA
ATOM     23  C   UNL     1       7.694  -2.623   3.703  1.00  0.00     0.278 C 
ENDBRANCH  21  22
ENDBRANCH  13  16
ENDBRANCH   8  13
ENDBRANCH   5   8
ENDBRANCH   3   4
ENDBRANCH   2   3
ENDBRANCH   1   2
BRANCH   1  24
ATOM     24  C   UNL     1      -0.629  -3.693  -4.300  1.00  0.00     0.002 C 
BRANCH  24  25
ATOM     25  C   UNL     1      -1.503  -2.483  -4.638  1.00  0.00     0.021 C 
BRANCH  25  26
ATOM     26  C   UNL     1      -0.774  -1.336  -5.333  1.00  0.00     0.116 C 
BRANCH  26  27
ATOM     27  N   UNL     1      -0.216  -1.742  -6.613  1.00  0.00    -0.352 N 
ATOM     28  C   UNL     1      -0.524  -1.301  -7.875  1.00  0.00     0.251 C 
ATOM     29  H   UNL     1       0.483  -2.433  -6.567  1.00  0.00     0.163 HD
ATOM     30  O   UNL     1      -0.128  -1.916  -8.860  1.00  0.00    -0.269 OA
BRANCH  28  31
ATOM     31  C   UNL     1      -1.344  -0.084  -8.047  1.00  0.00     0.039 A 
ATOM     32  C   UNL     1      -2.389  -0.097  -8.974  1.00  0.00     0.014 A 
ATOM     33  C   UNL     1      -1.071   1.070  -7.307  1.00  0.00     0.014 A 
ATOM     34  C   UNL     1      -3.198   1.032  -9.117  1.00  0.00     0.010 A 
ATOM     35  C   UNL     1      -1.922   2.167  -7.398  1.00  0.00     0.010 A 
ATOM     36  C   UNL     1      -2.990   2.162  -8.308  1.00  0.00    -0.014 A 
BRANCH  36  37
ATOM     37  C   UNL     1      -3.882   3.346  -8.400  1.00  0.00     0.031 A 
ATOM     38  C   UNL     1      -3.334   4.673  -8.848  1.00  0.00     0.074 A 
ATOM     39  C   UNL     1      -5.170   3.240  -8.019  1.00  0.00     0.049 A 
ATOM     40  N   UNL     1      -3.939   5.831  -8.931  1.00  0.00    -0.248 NA
ATOM     41  C   UNL     1      -1.913   4.711  -9.227  1.00  0.00     0.031 C 
ATOM     42  C   UNL     1      -5.807   2.020  -7.520  1.00  0.00     0.029 A 
ATOM     43  N   UNL     1      -6.173   4.176  -7.982  1.00  0.00    -0.354 N 
ATOM     44  C   UNL     1      -2.972   6.733  -9.356  1.00  0.00     0.074 A 
ATOM     45  C   UNL     1      -1.729   6.001  -9.463  1.00  0.00     0.031 C 
ATOM     46  C   UNL     1      -7.096   2.277  -7.246  1.00  0.00     0.029 A 
ATOM     47  C   UNL     1      -7.367   3.687  -7.510  1.00  0.00     0.049 A 
ATOM     48  H   UNL     1      -6.048   5.111  -8.266  1.00  0.00     0.167 HD
ATOM     49  C   UNL     1      -3.112   8.048  -9.651  1.00  0.00     0.037 A 
ATOM     50  C   UNL     1      -8.544   4.306  -7.304  1.00  0.00     0.037 A 
ATOM     51  C   UNL     1      -4.356   8.766  -9.566  1.00  0.00     0.049 A 
ATOM     52  C   UNL     1      -8.672   5.768  -7.636  1.00  0.00     0.074 A 
ATOM     53  C   UNL     1      -4.616  10.082  -9.907  1.00  0.00     0.029 A 
ATOM     54  N   UNL     1      -5.549   8.230  -9.103  1.00  0.00    -0.354 N 
ATOM     55  N   UNL     1      -7.767   6.590  -8.109  1.00  0.00    -0.248 NA
ATOM     56  C   UNL     1      -9.987   6.385  -7.412  1.00  0.00     0.031 C 
ATOM     57  C   UNL     1      -5.952  10.358  -9.600  1.00  0.00     0.029 A 
ATOM     58  C   UNL     1      -6.540   9.198  -9.123  1.00  0.00     0.049 A 
ATOM     59  H   UNL     1      -5.672   7.301  -8.805  1.00  0.00     0.167 HD
ATOM     60  C   UNL     1      -8.409   7.812  -8.268  1.00  0.00     0.074 A 
ATOM     61  C   UNL     1      -9.784   7.618  -7.854  1.00  0.00     0.031 C 
ATOM     62  C   UNL     1      -7.906   8.988  -8.716  1.00  0.00     0.037 A 
BRANCH  49  63
ATOM     63  C   UNL     1      -1.888   8.797 -10.095  1.00  0.00     0.057 A 
ATOM     64  C   UNL     1      -1.285   8.562 -11.338  1.00  0.00     0.134 A 
ATOM     65  C   UNL     1      -1.332   9.797  -9.287  1.00  0.00     0.134 A 
ATOM     66  F   UNL     1      -1.760   7.611 -12.155  1.00  0.00    -0.206 F 
ATOM     67  C   UNL     1      -0.159   9.278 -11.751  1.00  0.00     0.040 A 
ATOM     68  C   UNL     1      -0.224  10.540  -9.702  1.00  0.00     0.040 A 
ATOM     69  F   UNL     1      -1.862  10.079  -8.088  1.00  0.00    -0.206 F 
ATOM     70  C   UNL     1       0.369  10.276 -10.934  1.00  0.00     0.006 A 
ENDBRANCH  49  63
BRANCH  50  71
ATOM     71  C   UNL     1      -9.703   3.545  -6.769  1.00  0.00     0.057 A 
ATOM     72  C   UNL     1     -10.825   3.282  -7.563  1.00  0.00     0.134 A 
ATOM     73  C   UNL     1      -9.722   3.075  -5.450  1.00  0.00     0.134 A 
ATOM     74  F   UNL     1     -10.874   3.721  -8.829  1.00  0.00    -0.206 F 
ATOM     75  C   UNL     1     -11.934   2.601  -7.059  1.00  0.00     0.040 A 
ATOM     76  C   UNL     1     -10.812   2.368  -4.942  1.00  0.00     0.040 A 
ATOM     77  F   UNL     1      -8.674   3.286  -4.641  1.00  0.00    -0.206 F 
ATOM     78  C   UNL     1     -11.927   2.138  -5.745  1.00  0.00     0.006 A 
ENDBRANCH  50  71
BRANCH  62  79
ATOM     79  C   UNL     1      -8.855  10.147  -8.820  1.00  0.00     0.057 A 
ATOM     80  C   UNL     1      -9.354  10.802  -7.688  1.00  0.00     0.134 A 
ATOM     81  C   UNL     1      -9.240  10.639 -10.075  1.00  0.00     0.134 A 
ATOM     82  F   UNL     1      -9.034  10.373  -6.458  1.00  0.00    -0.206 F 
ATOM     83  C   UNL     1     -10.223  11.890  -7.799  1.00  0.00     0.040 A 
ATOM     84  C   UNL     1     -10.083  11.744 -10.198  1.00  0.00     0.040 A 
ATOM     85  F   UNL     1      -8.790  10.064 -11.200  1.00  0.00    -0.206 F 
ATOM     86  C   UNL     1     -10.583  12.368  -9.058  1.00  0.00     0.006 A 
ENDBRANCH  62  79
ENDBRANCH  36  37
ENDBRANCH  28  31
ENDBRANCH  26  27
ENDBRANCH  25  26
ENDBRANCH  24  25
ENDBRANCH   1  24
TORSDOF 18
