REMARK SMILES Cn1cc(SCC[C@@H]2CCC[C@@]2([NH3+])C(=O)NCCCCCCNC(=O)c2ccc(-c3c4nc(c(-c5c(F)cccc5F)c5ccc([nH]5)c(-c5c(F)cccc5F)c5nc(c(-c6c(F)cccc6F)c6ccc3[nH]6)C=C5)C=C4)cc2)cn1
REMARK SMILES IDX 18 1 17 2 16 3 14 4 15 5 12 7 8 8 9 9 10 10 11 11 7 12 6 13
REMARK SMILES IDX 5 14 4 15 1 16 2 17 3 18 81 19 80 20 13 21 19 25 20 26 21 27
REMARK SMILES IDX 22 28 23 29 24 30 25 32 26 33 27 34 79 35 28 36 78 37 29 38
REMARK SMILES IDX 30 39 31 40 72 41 32 42 77 43 71 44 73 45 33 46 76 47 70 48
REMARK SMILES IDX 69 49 34 51 60 52 43 53 59 54 44 55 47 56 58 57 74 58 45 59
REMARK SMILES IDX 46 60 57 62 75 63 48 64 35 65 36 66 41 67 37 68 38 69 40 70
REMARK SMILES IDX 42 71 39 72 61 73 62 74 67 75 63 76 64 77 66 78 68 79 65 80
REMARK SMILES IDX 49 81 50 82 55 83 51 84 52 85 54 86 56 87 53 88
REMARK H PARENT 16 6 13 22 13 23 13 24 23 31 73 50 47 61
REMARK Flexibility Score: inf
ROOT
ATOM      1  C   UNL     1       0.211  -7.135   0.274  1.00  0.00     0.021 C 
ENDROOT
BRANCH   1   2
ATOM      2  C   UNL     1      -0.241  -5.676   0.309  1.00  0.00     0.116 C 
BRANCH   2   3
ATOM      3  N   UNL     1      -1.191  -5.442   1.362  1.00  0.00    -0.351 N 
ATOM      4  C   UNL     1      -1.199  -4.640   2.445  1.00  0.00     0.281 C 
ATOM      5  O   UNL     1      -2.115  -4.892   3.248  1.00  0.00    -0.268 OA
ATOM      6  H   UNL     1      -2.009  -5.984   1.274  1.00  0.00     0.163 HD
BRANCH   4   7
ATOM      7  C   UNL     1      -0.195  -3.482   2.779  1.00  0.00     0.176 C 
ATOM      8  C   UNL     1       0.664  -2.727   1.725  1.00  0.00     0.061 C 
ATOM      9  C   UNL     1       0.869  -1.345   2.388  1.00  0.00     0.011 C 
ATOM     10  C   UNL     1      -0.428  -1.012   3.088  1.00  0.00     0.008 C 
ATOM     11  C   UNL     1      -1.168  -2.329   3.201  1.00  0.00     0.079 C 
BRANCH   8  12
ATOM     12  C   UNL     1       2.055  -3.284   1.332  1.00  0.00     0.022 C 
BRANCH  12  13
ATOM     13  C   UNL     1       2.398  -3.151  -0.170  1.00  0.00     0.075 C 
BRANCH  13  14
ATOM     14  S   UNL     1       2.930  -1.518  -0.775  1.00  0.00    -0.123 SA
BRANCH  14  15
ATOM     15  C   UNL     1       1.464  -0.593  -0.893  1.00  0.00     0.045 A 
ATOM     16  C   UNL     1      -2.034   0.085  -0.632  1.00  0.00     0.173 C 
ATOM     17  N   UNL     1      -0.608   0.086  -0.859  1.00  0.00    -0.275 N 
ATOM     18  C   UNL     1       0.175  -0.999  -1.140  1.00  0.00     0.123 A 
ATOM     19  N   UNL     1       0.095   1.215  -0.653  1.00  0.00    -0.181 NA
ATOM     20  C   UNL     1       1.365   0.796  -0.673  1.00  0.00     0.150 A 
ENDBRANCH  14  15
ENDBRANCH  13  14
ENDBRANCH  12  13
ENDBRANCH   8  12
BRANCH   7  21
ATOM     21  N   UNL     1       0.626  -3.916   3.930  1.00  0.00    -0.345 N 
ATOM     22  H   UNL     1       1.291  -3.181   4.170  1.00  0.00     0.345 HD
ATOM     23  H   UNL     1       1.134  -4.766   3.684  1.00  0.00     0.345 HD
ATOM     24  H   UNL     1       0.020  -4.102   4.729  1.00  0.00     0.345 HD
ENDBRANCH   7  21
ENDBRANCH   4   7
ENDBRANCH   2   3
ENDBRANCH   1   2
BRANCH   1  25
ATOM     25  C   UNL     1      -0.890  -8.128  -0.116  1.00  0.00     0.002 C 
BRANCH  25  26
ATOM     26  C   UNL     1      -1.533  -7.876  -1.484  1.00  0.00     0.002 C 
BRANCH  26  27
ATOM     27  C   UNL     1      -0.556  -7.857  -2.661  1.00  0.00     0.021 C 
BRANCH  27  28
ATOM     28  C   UNL     1       0.237  -9.147  -2.843  1.00  0.00     0.116 C 
BRANCH  28  29
ATOM     29  N   UNL     1      -0.621 -10.280  -3.157  1.00  0.00    -0.352 N 
ATOM     30  C   UNL     1      -0.539 -11.163  -4.203  1.00  0.00     0.251 C 
ATOM     31  H   UNL     1      -1.365 -10.434  -2.530  1.00  0.00     0.163 HD
ATOM     32  O   UNL     1      -1.459 -11.945  -4.432  1.00  0.00    -0.269 OA
BRANCH  30  33
ATOM     33  C   UNL     1       0.656 -11.157  -5.070  1.00  0.00     0.039 A 
ATOM     34  C   UNL     1       0.492 -11.187  -6.457  1.00  0.00     0.014 A 
ATOM     35  C   UNL     1       1.936 -11.108  -4.511  1.00  0.00     0.014 A 
ATOM     36  C   UNL     1       1.612 -11.099  -7.287  1.00  0.00     0.010 A 
ATOM     37  C   UNL     1       3.043 -10.946  -5.337  1.00  0.00     0.010 A 
ATOM     38  C   UNL     1       2.893 -10.939  -6.733  1.00  0.00    -0.014 A 
BRANCH  38  39
ATOM     39  C   UNL     1       4.094 -10.760  -7.587  1.00  0.00     0.031 A 
ATOM     40  C   UNL     1       5.201 -11.776  -7.546  1.00  0.00     0.074 A 
ATOM     41  C   UNL     1       4.227  -9.644  -8.329  1.00  0.00     0.049 A 
ATOM     42  N   UNL     1       6.379 -11.740  -8.114  1.00  0.00    -0.248 NA
ATOM     43  C   UNL     1       4.963 -12.980  -6.734  1.00  0.00     0.031 C 
ATOM     44  C   UNL     1       3.239  -8.568  -8.426  1.00  0.00     0.029 A 
ATOM     45  N   UNL     1       5.259  -9.218  -9.128  1.00  0.00    -0.354 N 
ATOM     46  C   UNL     1       7.027 -12.901  -7.714  1.00  0.00     0.074 A 
ATOM     47  C   UNL     1       6.132 -13.598  -6.816  1.00  0.00     0.031 C 
ATOM     48  C   UNL     1       3.707  -7.612  -9.245  1.00  0.00     0.029 A 
ATOM     49  C   UNL     1       5.046  -7.983  -9.692  1.00  0.00     0.049 A 
ATOM     50  H   UNL     1       6.075  -9.747  -9.282  1.00  0.00     0.167 HD
ATOM     51  C   UNL     1       8.250 -13.354  -8.078  1.00  0.00     0.037 A 
ATOM     52  C   UNL     1       5.847  -7.225 -10.465  1.00  0.00     0.037 A 
ATOM     53  C   UNL     1       9.127 -12.667  -8.989  1.00  0.00     0.049 A 
ATOM     54  C   UNL     1       7.212  -7.740 -10.835  1.00  0.00     0.074 A 
ATOM     55  C   UNL     1      10.361 -13.073  -9.466  1.00  0.00     0.029 A 
ATOM     56  N   UNL     1       8.865 -11.429  -9.556  1.00  0.00    -0.354 N 
ATOM     57  N   UNL     1       7.787  -8.870 -10.501  1.00  0.00    -0.248 NA
ATOM     58  C   UNL     1       8.039  -6.877 -11.691  1.00  0.00     0.031 C 
ATOM     59  C   UNL     1      10.871 -12.056 -10.277  1.00  0.00     0.029 A 
ATOM     60  C   UNL     1       9.927 -11.044 -10.356  1.00  0.00     0.049 A 
ATOM     61  H   UNL     1       8.046 -10.902  -9.410  1.00  0.00     0.167 HD
ATOM     62  C   UNL     1       9.024  -8.870 -11.134  1.00  0.00     0.074 A 
ATOM     63  C   UNL     1       9.114  -7.631 -11.877  1.00  0.00     0.031 C 
ATOM     64  C   UNL     1       9.995  -9.815 -11.106  1.00  0.00     0.037 A 
BRANCH  51  65
ATOM     65  C   UNL     1       8.716 -14.654  -7.487  1.00  0.00     0.057 A 
ATOM     66  C   UNL     1       8.133 -15.879  -7.835  1.00  0.00     0.134 A 
ATOM     67  C   UNL     1       9.794 -14.684  -6.592  1.00  0.00     0.134 A 
ATOM     68  F   UNL     1       7.091 -15.921  -8.679  1.00  0.00    -0.206 F 
ATOM     69  C   UNL     1       8.587 -17.084  -7.296  1.00  0.00     0.040 A 
ATOM     70  C   UNL     1      10.277 -15.885  -6.069  1.00  0.00     0.040 A 
ATOM     71  F   UNL     1      10.404 -13.549  -6.220  1.00  0.00    -0.206 F 
ATOM     72  C   UNL     1       9.668 -17.090  -6.416  1.00  0.00     0.006 A 
ENDBRANCH  51  65
BRANCH  52  73
ATOM     73  C   UNL     1       5.381  -5.899 -10.947  1.00  0.00     0.057 A 
ATOM     74  C   UNL     1       5.116  -5.675 -12.303  1.00  0.00     0.134 A 
ATOM     75  C   UNL     1       5.203  -4.822 -10.070  1.00  0.00     0.134 A 
ATOM     76  F   UNL     1       5.285  -6.661 -13.196  1.00  0.00    -0.206 F 
ATOM     77  C   UNL     1       4.713  -4.424 -12.773  1.00  0.00     0.040 A 
ATOM     78  C   UNL     1       4.773  -3.573 -10.522  1.00  0.00     0.040 A 
ATOM     79  F   UNL     1       5.431  -4.973  -8.757  1.00  0.00    -0.206 F 
ATOM     80  C   UNL     1       4.536  -3.369 -11.880  1.00  0.00     0.006 A 
ENDBRANCH  52  73
BRANCH  64  81
ATOM     81  C   UNL     1      11.219  -9.580 -11.941  1.00  0.00     0.057 A 
ATOM     82  C   UNL     1      12.186  -8.629 -11.593  1.00  0.00     0.134 A 
ATOM     83  C   UNL     1      11.465 -10.369 -13.073  1.00  0.00     0.134 A 
ATOM     84  F   UNL     1      12.006  -7.833 -10.528  1.00  0.00    -0.206 F 
ATOM     85  C   UNL     1      13.348  -8.463 -12.349  1.00  0.00     0.040 A 
ATOM     86  C   UNL     1      12.636 -10.231 -13.819  1.00  0.00     0.040 A 
ATOM     87  F   UNL     1      10.583 -11.305 -13.456  1.00  0.00    -0.206 F 
ATOM     88  C   UNL     1      13.580  -9.273 -13.460  1.00  0.00     0.006 A 
ENDBRANCH  64  81
ENDBRANCH  38  39
ENDBRANCH  30  33
ENDBRANCH  28  29
ENDBRANCH  27  28
ENDBRANCH  26  27
ENDBRANCH  25  26
ENDBRANCH   1  25
TORSDOF 18
