REMARK SMILES CCCC(=O)Nc1cccc(C(=O)N[C@@H](C(=O)NCCCCCCNC(=O)c2ccc(-c3c4nc(c(-c5c(F)cccc5F)c5ccc([nH]5)c(-c5c(F)cccc5F)c5nc(c(-c6c(F)cccc6F)c6ccc3[nH]6)C=C5)C=C4)cc2)C2=C(C)N=N[C@@H]2C)c1
REMARK SMILES IDX 20 1 19 2 18 3 16 4 17 5 15 7 14 8 12 9 13 10 11 12 7 13
REMARK SMILES IDX 8 14 89 15 9 16 10 17 6 18 4 19 5 20 3 22 2 23 1 24 82 25
REMARK SMILES IDX 83 26 87 27 84 28 85 29 86 30 88 31 21 32 22 33 23 34 24 35
REMARK SMILES IDX 25 36 26 37 27 39 28 40 29 41 81 42 30 43 80 44 31 45 32 46
REMARK SMILES IDX 33 47 74 48 34 49 79 50 73 51 75 52 35 53 78 54 72 55 71 56
REMARK SMILES IDX 36 58 62 59 45 60 61 61 46 62 49 63 60 64 76 65 47 66 48 67
REMARK SMILES IDX 59 69 77 70 50 71 37 72 38 73 43 74 39 75 40 76 42 77 44 78
REMARK SMILES IDX 41 79 63 80 64 81 69 82 65 83 66 84 68 85 70 86 67 87 51 88
REMARK SMILES IDX 52 89 57 90 53 91 54 92 56 93 58 94 55 95
REMARK H PARENT 18 6 14 11 6 21 25 38 75 57 49 68
REMARK Flexibility Score: inf
ROOT
ATOM      1  C   UNL     1      -1.590   2.419  -3.104  1.00  0.00     0.021 C 
ENDROOT
BRANCH   1   2
ATOM      2  C   UNL     1      -1.526   1.609  -1.819  1.00  0.00     0.116 C 
BRANCH   2   3
ATOM      3  N   UNL     1      -2.138   0.310  -1.928  1.00  0.00    -0.354 N 
ATOM      4  C   UNL     1      -1.683  -0.941  -1.629  1.00  0.00     0.247 C 
ATOM      5  O   UNL     1      -2.592  -1.772  -1.500  1.00  0.00    -0.272 OA
ATOM      6  H   UNL     1      -3.055   0.328  -2.284  1.00  0.00     0.163 HD
BRANCH   4   7
ATOM      7  C   UNL     1      -0.160  -1.312  -1.292  1.00  0.00     0.202 C 
BRANCH   7   8
ATOM      8  N   UNL     1       0.816  -0.528  -2.082  1.00  0.00    -0.337 N 
ATOM      9  C   UNL     1       1.599   0.607  -1.958  1.00  0.00     0.252 C 
ATOM     10  O   UNL     1       2.124   0.981  -3.014  1.00  0.00    -0.269 OA
ATOM     11  H   UNL     1       0.949  -0.940  -2.966  1.00  0.00     0.165 HD
BRANCH   9  12
ATOM     12  C   UNL     1       1.924   1.432  -0.726  1.00  0.00     0.041 A 
ATOM     13  C   UNL     1       1.683   2.203   1.592  1.00  0.00     0.041 A 
ATOM     14  C   UNL     1       2.942   2.804   1.538  1.00  0.00     0.026 A 
ATOM     15  C   UNL     1       1.135   1.616   0.432  1.00  0.00     0.040 A 
ATOM     16  C   UNL     1       3.695   2.731   0.371  1.00  0.00     0.003 A 
ATOM     17  C   UNL     1       3.196   2.043  -0.740  1.00  0.00     0.014 A 
BRANCH  13  18
ATOM     18  N   UNL     1       0.992   2.280   2.810  1.00  0.00    -0.326 N 
ATOM     19  C   UNL     1       0.354   1.350   3.581  1.00  0.00     0.224 C 
ATOM     20  O   UNL     1      -0.420   1.767   4.449  1.00  0.00    -0.275 OA
ATOM     21  H   UNL     1       0.960   3.190   3.185  1.00  0.00     0.169 HD
BRANCH  19  22
ATOM     22  C   UNL     1       0.760  -0.113   3.606  1.00  0.00     0.100 C 
BRANCH  22  23
ATOM     23  C   UNL     1       0.519  -0.950   2.378  1.00  0.00     0.006 C 
ATOM     24  C   UNL     1       1.791  -1.062   1.572  1.00  0.00     0.004 C 
ENDBRANCH  22  23
ENDBRANCH  19  22
ENDBRANCH  13  18
ENDBRANCH   9  12
ENDBRANCH   7   8
BRANCH   7  25
ATOM     25  C   UNL     1       0.061  -2.842  -1.500  1.00  0.00     0.011 C 
ATOM     26  C   UNL     1       0.682  -3.860  -0.848  1.00  0.00     0.064 C 
ATOM     27  C   UNL     1      -0.625  -3.581  -2.638  1.00  0.00     0.156 C 
ATOM     28  C   UNL     1       1.643  -3.996   0.286  1.00  0.00     0.069 C 
ATOM     29  N   UNL     1       0.364  -5.101  -1.351  1.00  0.00    -0.160 NA
ATOM     30  N   UNL     1      -0.423  -5.011  -2.310  1.00  0.00    -0.181 NA
ATOM     31  C   UNL     1       0.042  -3.369  -3.988  1.00  0.00     0.040 C 
ENDBRANCH   7  25
ENDBRANCH   4   7
ENDBRANCH   2   3
ENDBRANCH   1   2
BRANCH   1  32
ATOM     32  C   UNL     1      -2.900   3.193  -3.258  1.00  0.00     0.002 C 
BRANCH  32  33
ATOM     33  C   UNL     1      -3.137   4.267  -2.187  1.00  0.00     0.002 C 
BRANCH  33  34
ATOM     34  C   UNL     1      -2.046   5.337  -2.082  1.00  0.00     0.021 C 
BRANCH  34  35
ATOM     35  C   UNL     1      -1.773   6.088  -3.381  1.00  0.00     0.116 C 
BRANCH  35  36
ATOM     36  N   UNL     1      -2.969   6.742  -3.889  1.00  0.00    -0.352 N 
ATOM     37  C   UNL     1      -3.170   8.056  -4.236  1.00  0.00     0.251 C 
ATOM     38  H   UNL     1      -3.751   6.154  -4.001  1.00  0.00     0.163 HD
ATOM     39  O   UNL     1      -4.296   8.476  -4.439  1.00  0.00    -0.269 OA
BRANCH  37  40
ATOM     40  C   UNL     1      -2.006   8.960  -4.348  1.00  0.00     0.039 A 
ATOM     41  C   UNL     1      -2.095  10.242  -3.800  1.00  0.00     0.014 A 
ATOM     42  C   UNL     1      -0.841   8.548  -5.000  1.00  0.00     0.014 A 
ATOM     43  C   UNL     1      -0.990  11.092  -3.857  1.00  0.00     0.010 A 
ATOM     44  C   UNL     1       0.283   9.367  -4.988  1.00  0.00     0.010 A 
ATOM     45  C   UNL     1       0.217  10.649  -4.422  1.00  0.00    -0.014 A 
BRANCH  45  46
ATOM     46  C   UNL     1       1.423  11.513  -4.430  1.00  0.00     0.031 A 
ATOM     47  C   UNL     1       2.017  11.969  -5.733  1.00  0.00     0.074 A 
ATOM     48  C   UNL     1       2.015  11.837  -3.264  1.00  0.00     0.049 A 
ATOM     49  N   UNL     1       3.098  12.676  -5.946  1.00  0.00    -0.248 NA
ATOM     50  C   UNL     1       1.320  11.555  -6.961  1.00  0.00     0.031 C 
ATOM     51  C   UNL     1       1.558  11.417  -1.938  1.00  0.00     0.029 A 
ATOM     52  N   UNL     1       3.134  12.587  -3.008  1.00  0.00    -0.354 N 
ATOM     53  C   UNL     1       3.214  12.781  -7.326  1.00  0.00     0.074 A 
ATOM     54  C   UNL     1       2.129  12.018  -7.902  1.00  0.00     0.031 C 
ATOM     55  C   UNL     1       2.375  11.936  -1.007  1.00  0.00     0.029 A 
ATOM     56  C   UNL     1       3.435  12.688  -1.671  1.00  0.00     0.049 A 
ATOM     57  H   UNL     1       3.671  13.013  -3.714  1.00  0.00     0.167 HD
ATOM     58  C   UNL     1       4.129  13.472  -8.047  1.00  0.00     0.037 A 
ATOM     59  C   UNL     1       4.456  13.310  -1.051  1.00  0.00     0.037 A 
ATOM     60  C   UNL     1       5.197  14.244  -7.468  1.00  0.00     0.049 A 
ATOM     61  C   UNL     1       5.470  14.053  -1.877  1.00  0.00     0.074 A 
ATOM     62  C   UNL     1       6.143  15.023  -8.110  1.00  0.00     0.029 A 
ATOM     63  N   UNL     1       5.465  14.329  -6.110  1.00  0.00    -0.354 N 
ATOM     64  N   UNL     1       5.528  14.202  -3.178  1.00  0.00    -0.248 NA
ATOM     65  C   UNL     1       6.556  14.720  -1.146  1.00  0.00     0.031 C 
ATOM     66  C   UNL     1       7.015  15.536  -7.145  1.00  0.00     0.029 A 
ATOM     67  C   UNL     1       6.577  15.126  -5.896  1.00  0.00     0.049 A 
ATOM     68  H   UNL     1       4.941  13.887  -5.402  1.00  0.00     0.167 HD
ATOM     69  C   UNL     1       6.637  15.003  -3.420  1.00  0.00     0.074 A 
ATOM     70  C   UNL     1       7.212  15.320  -2.129  1.00  0.00     0.031 C 
ATOM     71  C   UNL     1       7.134  15.437  -4.604  1.00  0.00     0.037 A 
BRANCH  58  72
ATOM     72  C   UNL     1       4.013  13.424  -9.544  1.00  0.00     0.057 A 
ATOM     73  C   UNL     1       2.959  14.047 -10.226  1.00  0.00     0.134 A 
ATOM     74  C   UNL     1       4.987  12.778 -10.317  1.00  0.00     0.134 A 
ATOM     75  F   UNL     1       1.986  14.673  -9.546  1.00  0.00    -0.206 F 
ATOM     76  C   UNL     1       2.862  14.006 -11.618  1.00  0.00     0.040 A 
ATOM     77  C   UNL     1       4.918  12.756 -11.711  1.00  0.00     0.040 A 
ATOM     78  F   UNL     1       6.027  12.166  -9.730  1.00  0.00    -0.206 F 
ATOM     79  C   UNL     1       3.849  13.365 -12.365  1.00  0.00     0.006 A 
ENDBRANCH  58  72
BRANCH  59  80
ATOM     80  C   UNL     1       4.563  13.272   0.430  1.00  0.00     0.057 A 
ATOM     81  C   UNL     1       4.373  14.427   1.198  1.00  0.00     0.134 A 
ATOM     82  C   UNL     1       4.870  12.088   1.112  1.00  0.00     0.134 A 
ATOM     83  F   UNL     1       4.093  15.595   0.601  1.00  0.00    -0.206 F 
ATOM     84  C   UNL     1       4.508  14.412   2.587  1.00  0.00     0.040 A 
ATOM     85  C   UNL     1       4.980  12.053   2.503  1.00  0.00     0.040 A 
ATOM     86  F   UNL     1       5.054  10.944   0.436  1.00  0.00    -0.206 F 
ATOM     87  C   UNL     1       4.808  13.221   3.244  1.00  0.00     0.006 A 
ENDBRANCH  59  80
BRANCH  71  88
ATOM     88  C   UNL     1       8.338  16.334  -4.557  1.00  0.00     0.057 A 
ATOM     89  C   UNL     1       9.606  15.857  -4.201  1.00  0.00     0.134 A 
ATOM     90  C   UNL     1       8.231  17.686  -4.911  1.00  0.00     0.134 A 
ATOM     91  F   UNL     1       9.774  14.576  -3.839  1.00  0.00    -0.206 F 
ATOM     92  C   UNL     1      10.719  16.699  -4.174  1.00  0.00     0.040 A 
ATOM     93  C   UNL     1       9.342  18.529  -4.917  1.00  0.00     0.040 A 
ATOM     94  F   UNL     1       7.048  18.205  -5.271  1.00  0.00    -0.206 F 
ATOM     95  C   UNL     1      10.590  18.037  -4.540  1.00  0.00     0.006 A 
ENDBRANCH  71  88
ENDBRANCH  45  46
ENDBRANCH  37  40
ENDBRANCH  35  36
ENDBRANCH  34  35
ENDBRANCH  33  34
ENDBRANCH  32  33
ENDBRANCH   1  32
TORSDOF 19
