REMARK SMILES C[C@H]1CC[C@H]([NH2+]Cc2c(C(=O)NCCCCCCNC(=O)c3ccc(-c4c5nc(c(-c6c(F)cccc6F)c6ccc([nH]6)c(-c6c(F)cccc6F)c6nc(c(-c7c(F)cccc7F)c7ccc4[nH]7)C=C6)C=C5)cc3)n(Cc3ccccc3F)c3ccccc23)CC1
REMARK SMILES IDX 15 1 14 2 13 3 12 4 10 5 11 6 9 8 8 9 90 10 76 11 85 12
REMARK SMILES IDX 89 13 86 14 88 15 87 16 7 17 6 18 5 21 1 22 2 23 3 24 92 25
REMARK SMILES IDX 4 26 91 27 77 28 78 29 79 30 83 31 80 32 82 33 84 34 81 35
REMARK SMILES IDX 16 36 17 37 18 38 19 39 20 40 21 42 22 43 23 44 75 45 24 46
REMARK SMILES IDX 74 47 25 48 26 49 27 50 68 51 28 52 73 53 67 54 69 55 29 56
REMARK SMILES IDX 72 57 66 58 65 59 30 61 56 62 39 63 55 64 40 65 43 66 54 67
REMARK SMILES IDX 70 68 41 69 42 70 53 72 71 73 44 74 31 75 32 76 37 77 33 78
REMARK SMILES IDX 34 79 36 80 38 81 35 82 57 83 58 84 63 85 59 86 60 87 62 88
REMARK SMILES IDX 64 89 61 90 45 91 46 92 51 93 47 94 48 95 50 96 52 97 49 98
REMARK H PARENT 12 7 6 19 6 20 19 41 69 60 43 71
REMARK Flexibility Score: inf
ROOT
ATOM      1  C   UNL     1      -3.633   2.946   2.126  1.00  0.00     0.002 C 
ENDROOT
BRANCH   1   2
ATOM      2  C   UNL     1      -4.487   1.677   2.296  1.00  0.00     0.021 C 
BRANCH   2   3
ATOM      3  C   UNL     1      -3.926   0.413   1.649  1.00  0.00     0.116 C 
BRANCH   3   4
ATOM      4  N   UNL     1      -2.862  -0.233   2.380  1.00  0.00    -0.351 N 
ATOM      5  C   UNL     1      -2.279  -1.471   2.241  1.00  0.00     0.268 C 
ATOM      6  O   UNL     1      -1.359  -1.669   3.046  1.00  0.00    -0.268 OA
ATOM      7  H   UNL     1      -2.487   0.311   3.109  1.00  0.00     0.163 HD
BRANCH   5   8
ATOM      8  C   UNL     1      -2.715  -2.503   1.290  1.00  0.00     0.117 A 
ATOM      9  C   UNL     1      -3.333  -2.446   0.026  1.00  0.00     0.045 A 
ATOM     10  C   UNL     1      -3.843  -3.760  -0.235  1.00  0.00     0.009 A 
ATOM     11  N   UNL     1      -2.362  -3.872   1.417  1.00  0.00    -0.331 N 
ATOM     12  C   UNL     1      -3.047  -4.637   0.480  1.00  0.00     0.049 A 
ATOM     13  C   UNL     1      -4.789  -4.276  -1.148  1.00  0.00     0.011 A 
ATOM     14  C   UNL     1      -3.026  -6.009   0.163  1.00  0.00     0.027 A 
ATOM     15  C   UNL     1      -4.888  -5.654  -1.343  1.00  0.00     0.001 A 
ATOM     16  C   UNL     1      -3.983  -6.506  -0.726  1.00  0.00     0.002 A 
BRANCH   9  17
ATOM     17  C   UNL     1      -3.526  -1.380  -1.013  1.00  0.00     0.300 C 
BRANCH  17  18
ATOM     18  N   UNL     1      -2.592  -0.273  -0.994  1.00  0.00    -0.340 N 
ATOM     19  H   UNL     1      -2.985   0.434  -1.614  1.00  0.00     0.346 HD
ATOM     20  H   UNL     1      -2.514  -0.095   0.008  1.00  0.00     0.346 HD
BRANCH  18  21
ATOM     21  C   UNL     1      -1.184  -0.398  -1.371  1.00  0.00     0.182 C 
ATOM     22  C   UNL     1       3.119  -0.056  -0.371  1.00  0.00     0.007 C 
ATOM     23  C   UNL     1       1.601  -0.161  -0.327  1.00  0.00    -0.014 C 
ATOM     24  C   UNL     1       1.105  -1.460  -0.970  1.00  0.00     0.009 C 
ATOM     25  C   UNL     1       0.942   1.027  -1.026  1.00  0.00     0.009 C 
ATOM     26  C   UNL     1      -0.406  -1.584  -0.790  1.00  0.00     0.065 C 
ATOM     27  C   UNL     1      -0.575   0.946  -0.910  1.00  0.00     0.065 C 
ENDBRANCH  18  21
ENDBRANCH  17  18
ENDBRANCH   9  17
BRANCH  11  28
ATOM     28  C   UNL     1      -1.300  -4.441   2.268  1.00  0.00     0.161 C 
BRANCH  28  29
ATOM     29  C   UNL     1      -1.770  -5.117   3.537  1.00  0.00     0.008 A 
ATOM     30  C   UNL     1      -2.575  -6.269   3.530  1.00  0.00     0.008 A 
ATOM     31  C   UNL     1      -1.311  -4.676   4.781  1.00  0.00     0.128 A 
ATOM     32  C   UNL     1      -2.918  -6.935   4.710  1.00  0.00     0.001 A 
ATOM     33  C   UNL     1      -1.662  -5.323   5.968  1.00  0.00     0.039 A 
ATOM     34  F   UNL     1      -0.470  -3.636   4.861  1.00  0.00    -0.207 F 
ATOM     35  C   UNL     1      -2.469  -6.457   5.933  1.00  0.00     0.003 A 
ENDBRANCH  28  29
ENDBRANCH  11  28
ENDBRANCH   5   8
ENDBRANCH   3   4
ENDBRANCH   2   3
ENDBRANCH   1   2
BRANCH   1  36
ATOM     36  C   UNL     1      -3.294   3.411   0.699  1.00  0.00     0.002 C 
BRANCH  36  37
ATOM     37  C   UNL     1      -4.433   3.540  -0.321  1.00  0.00     0.021 C 
BRANCH  37  38
ATOM     38  C   UNL     1      -5.640   4.375   0.109  1.00  0.00     0.116 C 
BRANCH  38  39
ATOM     39  N   UNL     1      -5.288   5.639   0.720  1.00  0.00    -0.352 N 
ATOM     40  C   UNL     1      -5.102   6.922   0.294  1.00  0.00     0.251 C 
ATOM     41  H   UNL     1      -5.146   5.551   1.690  1.00  0.00     0.163 HD
ATOM     42  O   UNL     1      -4.885   7.751   1.184  1.00  0.00    -0.269 OA
BRANCH  40  43
ATOM     43  C   UNL     1      -5.128   7.393  -1.120  1.00  0.00     0.039 A 
ATOM     44  C   UNL     1      -5.227   6.585  -2.252  1.00  0.00     0.014 A 
ATOM     45  C   UNL     1      -4.991   8.784  -1.308  1.00  0.00     0.014 A 
ATOM     46  C   UNL     1      -5.162   7.147  -3.531  1.00  0.00     0.010 A 
ATOM     47  C   UNL     1      -4.929   9.348  -2.582  1.00  0.00     0.010 A 
ATOM     48  C   UNL     1      -4.988   8.525  -3.703  1.00  0.00    -0.014 A 
BRANCH  48  49
ATOM     49  C   UNL     1      -4.892   9.047  -5.070  1.00  0.00     0.031 A 
ATOM     50  C   UNL     1      -6.075   8.868  -5.963  1.00  0.00     0.074 A 
ATOM     51  C   UNL     1      -3.853   9.765  -5.543  1.00  0.00     0.049 A 
ATOM     52  N   UNL     1      -6.144   8.224  -7.086  1.00  0.00    -0.248 NA
ATOM     53  C   UNL     1      -7.342   9.488  -5.551  1.00  0.00     0.031 C 
ATOM     54  C   UNL     1      -2.732  10.343  -4.799  1.00  0.00     0.029 A 
ATOM     55  N   UNL     1      -3.640  10.201  -6.822  1.00  0.00    -0.354 N 
ATOM     56  C   UNL     1      -7.417   8.467  -7.601  1.00  0.00     0.074 A 
ATOM     57  C   UNL     1      -8.135   9.195  -6.583  1.00  0.00     0.031 C 
ATOM     58  C   UNL     1      -2.070  11.209  -5.599  1.00  0.00     0.029 A 
ATOM     59  C   UNL     1      -2.632  11.143  -6.939  1.00  0.00     0.049 A 
ATOM     60  H   UNL     1      -4.158   9.873  -7.592  1.00  0.00     0.167 HD
ATOM     61  C   UNL     1      -7.762   8.177  -8.887  1.00  0.00     0.037 A 
ATOM     62  C   UNL     1      -2.305  11.854  -8.043  1.00  0.00     0.037 A 
ATOM     63  C   UNL     1      -6.829   7.290  -9.523  1.00  0.00     0.049 A 
ATOM     64  C   UNL     1      -2.838  11.152  -9.232  1.00  0.00     0.074 A 
ATOM     65  C   UNL     1      -6.386   6.003  -9.299  1.00  0.00     0.029 A 
ATOM     66  N   UNL     1      -5.983   7.807 -10.470  1.00  0.00    -0.354 N 
ATOM     67  N   UNL     1      -2.361  10.038  -9.711  1.00  0.00    -0.248 NA
ATOM     68  C   UNL     1      -4.149  11.534  -9.733  1.00  0.00     0.031 C 
ATOM     69  C   UNL     1      -5.035   5.986  -9.754  1.00  0.00     0.029 A 
ATOM     70  C   UNL     1      -4.748   7.269 -10.223  1.00  0.00     0.049 A 
ATOM     71  H   UNL     1      -6.216   8.440 -11.187  1.00  0.00     0.167 HD
ATOM     72  C   UNL     1      -3.461   9.383 -10.243  1.00  0.00     0.074 A 
ATOM     73  C   UNL     1      -4.495  10.403 -10.350  1.00  0.00     0.031 C 
ATOM     74  C   UNL     1      -3.517   8.020 -10.284  1.00  0.00     0.037 A 
BRANCH  61  75
ATOM     75  C   UNL     1      -8.816   8.901  -9.681  1.00  0.00     0.057 A 
ATOM     76  C   UNL     1      -9.135  10.257  -9.481  1.00  0.00     0.134 A 
ATOM     77  C   UNL     1      -9.327   8.327 -10.861  1.00  0.00     0.134 A 
ATOM     78  F   UNL     1      -8.632  10.953  -8.453  1.00  0.00    -0.206 F 
ATOM     79  C   UNL     1      -9.909  10.991 -10.386  1.00  0.00     0.040 A 
ATOM     80  C   UNL     1     -10.064   9.065 -11.796  1.00  0.00     0.040 A 
ATOM     81  F   UNL     1      -9.063   7.050 -11.175  1.00  0.00    -0.206 F 
ATOM     82  C   UNL     1     -10.355  10.402 -11.561  1.00  0.00     0.006 A 
ENDBRANCH  61  75
BRANCH  62  83
ATOM     83  C   UNL     1      -1.717  13.207  -8.125  1.00  0.00     0.057 A 
ATOM     84  C   UNL     1      -1.990  14.182  -7.150  1.00  0.00     0.134 A 
ATOM     85  C   UNL     1      -1.075  13.659  -9.286  1.00  0.00     0.134 A 
ATOM     86  F   UNL     1      -2.678  13.877  -6.040  1.00  0.00    -0.206 F 
ATOM     87  C   UNL     1      -1.643  15.525  -7.315  1.00  0.00     0.040 A 
ATOM     88  C   UNL     1      -0.732  15.005  -9.470  1.00  0.00     0.040 A 
ATOM     89  F   UNL     1      -0.815  12.815 -10.295  1.00  0.00    -0.206 F 
ATOM     90  C   UNL     1      -1.022  15.944  -8.485  1.00  0.00     0.006 A 
ENDBRANCH  62  83
BRANCH  74  91
ATOM     91  C   UNL     1      -2.244   7.261 -10.054  1.00  0.00     0.057 A 
ATOM     92  C   UNL     1      -1.793   6.373 -11.037  1.00  0.00     0.134 A 
ATOM     93  C   UNL     1      -1.534   7.290  -8.845  1.00  0.00     0.134 A 
ATOM     94  F   UNL     1      -2.463   6.245 -12.194  1.00  0.00    -0.206 F 
ATOM     95  C   UNL     1      -0.670   5.567 -10.839  1.00  0.00     0.040 A 
ATOM     96  C   UNL     1      -0.390   6.513  -8.648  1.00  0.00     0.040 A 
ATOM     97  F   UNL     1      -1.959   8.027  -7.810  1.00  0.00    -0.206 F 
ATOM     98  C   UNL     1       0.044   5.646  -9.646  1.00  0.00     0.006 A 
ENDBRANCH  74  91
ENDBRANCH  48  49
ENDBRANCH  40  43
ENDBRANCH  38  39
ENDBRANCH  37  38
ENDBRANCH  36  37
ENDBRANCH   1  36
TORSDOF 18
