REMARK SMILES C/C=C(\C)[C@H]1C(C)=C[C@H]2CC[C@@H](OS(=O)(=O)[O-])[C@@H](C)[C@H]2[C@H]1/C=C/C=C/C(=O)NCCCCCCNC(=O)c1ccc(-c2c3nc(c(-c4c(F)cccc4F)c4ccc([nH]4)c(-c4c(F)cccc4F)c4nc(c(-c5c(F)cccc5F)c5ccc2[nH]5)C=C4)C=C3)cc1
REMARK SMILES IDX 30 1 29 2 28 3 26 4 27 5 25 7 24 8 23 9 22 10 21 11 5 12
REMARK SMILES IDX 6 13 7 14 8 15 20 16 9 17 18 18 10 19 12 20 19 21 11 22 3 23
REMARK SMILES IDX 1 24 2 25 4 26 13 27 14 28 15 29 16 30 17 31 31 32 32 33
REMARK SMILES IDX 33 34 34 35 35 36 36 37 37 39 38 40 39 41 91 42 40 43 90 44
REMARK SMILES IDX 41 45 42 46 43 47 84 48 44 49 89 50 83 51 85 52 45 53 88 54
REMARK SMILES IDX 82 55 81 56 46 58 72 59 55 60 71 61 56 62 59 63 70 64 86 65
REMARK SMILES IDX 57 66 58 67 69 69 87 70 60 71 47 72 48 73 53 74 49 75 50 76
REMARK SMILES IDX 52 77 54 78 51 79 73 80 74 81 79 82 75 83 76 84 78 85 80 86
REMARK SMILES IDX 77 87 61 88 62 89 67 90 63 91 64 92 66 93 68 94 65 95
REMARK H PARENT 28 6 35 38 85 57 59 68
REMARK Flexibility Score: inf
ROOT
ATOM      1  C   UNL     1      -1.877   0.589   4.801  1.00  0.00     0.021 C 
ENDROOT
BRANCH   1   2
ATOM      2  C   UNL     1      -3.043   0.250   3.875  1.00  0.00     0.116 C 
BRANCH   2   3
ATOM      3  N   UNL     1      -3.710   1.430   3.345  1.00  0.00    -0.353 N 
ATOM      4  C   UNL     1      -3.975   1.800   2.058  1.00  0.00     0.243 C 
ATOM      5  O   UNL     1      -4.473   2.897   1.822  1.00  0.00    -0.270 OA
ATOM      6  H   UNL     1      -4.022   2.067   4.028  1.00  0.00     0.163 HD
BRANCH   4   7
ATOM      7  C   UNL     1      -3.565   0.923   0.940  1.00  0.00     0.071 C 
ATOM      8  C   UNL     1      -3.858  -0.383   0.912  1.00  0.00     0.005 C 
BRANCH   8   9
ATOM      9  C   UNL     1      -3.237  -1.290  -0.025  1.00  0.00    -0.004 C 
ATOM     10  C   UNL     1      -3.001  -2.562   0.337  1.00  0.00    -0.022 C 
BRANCH  10  11
ATOM     11  C   UNL     1      -2.122  -3.534  -0.420  1.00  0.00     0.027 C 
ATOM     12  C   UNL     1      -0.636  -3.067  -0.778  1.00  0.00     0.047 C 
ATOM     13  C   UNL     1       0.345  -4.256  -0.909  1.00  0.00    -0.069 C 
ATOM     14  C   UNL     1       1.825  -3.998  -1.011  1.00  0.00     0.040 C 
ATOM     15  C   UNL     1      -0.078  -5.538  -0.974  1.00  0.00    -0.024 C 
ATOM     16  C   UNL     1      -2.247  -5.005   0.145  1.00  0.00     0.009 C 
ATOM     17  C   UNL     1      -1.511  -5.962  -0.813  1.00  0.00     0.016 C 
ATOM     18  C   UNL     1      -1.883  -5.257   1.655  1.00  0.00     0.021 C 
ATOM     19  C   UNL     1      -1.673  -7.424  -0.358  1.00  0.00     0.011 C 
ATOM     20  C   UNL     1      -1.984  -6.752   2.058  1.00  0.00     0.141 C 
ATOM     21  C   UNL     1      -0.525  -4.741   2.093  1.00  0.00     0.011 C 
ATOM     22  C   UNL     1      -1.247  -7.675   1.085  1.00  0.00     0.034 C 
BRANCH  12  23
ATOM     23  C   UNL     1      -0.028  -1.780  -0.111  1.00  0.00    -0.070 C 
ATOM     24  C   UNL     1       1.297   0.395  -0.448  1.00  0.00     0.035 C 
ATOM     25  C   UNL     1       0.584  -0.851  -0.885  1.00  0.00    -0.031 C 
ATOM     26  C   UNL     1      -0.106  -1.553   1.382  1.00  0.00     0.040 C 
ENDBRANCH  12  23
BRANCH  20  27
ATOM     27  O   UNL     1      -1.658  -6.907   3.445  1.00  0.00    -0.276 OA
BRANCH  27  28
ATOM     28  S   UNL     1      -0.280  -7.574   3.998  1.00  0.00     0.217 S 
ATOM     29  O   UNL     1      -0.281  -8.988   3.701  1.00  0.00    -0.213 OA
ATOM     30  O   UNL     1       0.855  -6.743   3.676  1.00  0.00    -0.213 OA
ATOM     31  O   UNL     1      -0.441  -7.423   5.591  1.00  0.00    -0.726 OA
ENDBRANCH  27  28
ENDBRANCH  20  27
ENDBRANCH  10  11
ENDBRANCH   8   9
ENDBRANCH   4   7
ENDBRANCH   2   3
ENDBRANCH   1   2
BRANCH   1  32
ATOM     32  C   UNL     1      -2.259   1.290   6.107  1.00  0.00     0.002 C 
BRANCH  32  33
ATOM     33  C   UNL     1      -3.267   0.547   6.990  1.00  0.00     0.002 C 
BRANCH  33  34
ATOM     34  C   UNL     1      -2.892  -0.890   7.357  1.00  0.00     0.021 C 
BRANCH  34  35
ATOM     35  C   UNL     1      -1.547  -1.050   8.058  1.00  0.00     0.116 C 
BRANCH  35  36
ATOM     36  N   UNL     1      -1.503  -0.363   9.339  1.00  0.00    -0.352 N 
ATOM     37  C   UNL     1      -1.193  -0.851  10.584  1.00  0.00     0.251 C 
ATOM     38  H   UNL     1      -1.730   0.594   9.309  1.00  0.00     0.163 HD
ATOM     39  O   UNL     1      -1.390  -0.165  11.582  1.00  0.00    -0.269 OA
BRANCH  37  40
ATOM     40  C   UNL     1      -0.638  -2.214  10.729  1.00  0.00     0.039 A 
ATOM     41  C   UNL     1      -1.126  -3.037  11.748  1.00  0.00     0.014 A 
ATOM     42  C   UNL     1       0.366  -2.677   9.874  1.00  0.00     0.014 A 
ATOM     43  C   UNL     1      -0.650  -4.344  11.870  1.00  0.00     0.010 A 
ATOM     44  C   UNL     1       0.780  -4.004   9.947  1.00  0.00     0.010 A 
ATOM     45  C   UNL     1       0.280  -4.850  10.948  1.00  0.00    -0.014 A 
BRANCH  45  46
ATOM     46  C   UNL     1       0.730  -6.264  11.011  1.00  0.00     0.031 A 
ATOM     47  C   UNL     1       2.175  -6.595  11.258  1.00  0.00     0.074 A 
ATOM     48  C   UNL     1      -0.153  -7.253  10.773  1.00  0.00     0.049 A 
ATOM     49  N   UNL     1       2.762  -7.764  11.291  1.00  0.00    -0.248 NA
ATOM     50  C   UNL     1       3.087  -5.459  11.462  1.00  0.00     0.031 C 
ATOM     51  C   UNL     1      -1.570  -7.061  10.461  1.00  0.00     0.029 A 
ATOM     52  N   UNL     1       0.014  -8.614  10.742  1.00  0.00    -0.354 N 
ATOM     53  C   UNL     1       4.110  -7.505  11.503  1.00  0.00     0.074 A 
ATOM     54  C   UNL     1       4.262  -6.066  11.528  1.00  0.00     0.031 C 
ATOM     55  C   UNL     1      -2.147  -8.259  10.291  1.00  0.00     0.029 A 
ATOM     56  C   UNL     1      -1.136  -9.302  10.439  1.00  0.00     0.049 A 
ATOM     57  H   UNL     1       0.875  -9.057  10.920  1.00  0.00     0.167 HD
ATOM     58  C   UNL     1       5.125  -8.384  11.681  1.00  0.00     0.037 A 
ATOM     59  C   UNL     1      -1.353 -10.621  10.285  1.00  0.00     0.037 A 
ATOM     60  C   UNL     1       4.964  -9.816  11.668  1.00  0.00     0.049 A 
ATOM     61  C   UNL     1      -0.215 -11.582  10.485  1.00  0.00     0.074 A 
ATOM     62  C   UNL     1       5.913 -10.792  11.914  1.00  0.00     0.029 A 
ATOM     63  N   UNL     1       3.779 -10.477  11.378  1.00  0.00    -0.354 N 
ATOM     64  N   UNL     1       1.039 -11.327  10.773  1.00  0.00    -0.248 NA
ATOM     65  C   UNL     1      -0.522 -13.011  10.347  1.00  0.00     0.031 C 
ATOM     66  C   UNL     1       5.320 -12.042  11.704  1.00  0.00     0.029 A 
ATOM     67  C   UNL     1       3.983 -11.848  11.398  1.00  0.00     0.049 A 
ATOM     68  H   UNL     1       2.919 -10.037  11.187  1.00  0.00     0.167 HD
ATOM     69  C   UNL     1       1.666 -12.563  10.872  1.00  0.00     0.074 A 
ATOM     70  C   UNL     1       0.649 -13.566  10.629  1.00  0.00     0.031 C 
ATOM     71  C   UNL     1       2.966 -12.839  11.143  1.00  0.00     0.037 A 
BRANCH  58  72
ATOM     72  C   UNL     1       6.503  -7.815  11.879  1.00  0.00     0.057 A 
ATOM     73  C   UNL     1       6.851  -7.075  13.018  1.00  0.00     0.134 A 
ATOM     74  C   UNL     1       7.500  -8.012  10.914  1.00  0.00     0.134 A 
ATOM     75  F   UNL     1       5.945  -6.840  13.979  1.00  0.00    -0.206 F 
ATOM     76  C   UNL     1       8.120  -6.511  13.166  1.00  0.00     0.040 A 
ATOM     77  C   UNL     1       8.783  -7.484  11.068  1.00  0.00     0.040 A 
ATOM     78  F   UNL     1       7.243  -8.718   9.803  1.00  0.00    -0.206 F 
ATOM     79  C   UNL     1       9.092  -6.720  12.190  1.00  0.00     0.006 A 
ENDBRANCH  58  72
BRANCH  59  80
ATOM     80  C   UNL     1      -2.713 -11.101   9.933  1.00  0.00     0.057 A 
ATOM     81  C   UNL     1      -3.506 -11.787  10.860  1.00  0.00     0.134 A 
ATOM     82  C   UNL     1      -3.268 -10.848   8.672  1.00  0.00     0.134 A 
ATOM     83  F   UNL     1      -3.024 -12.072  12.079  1.00  0.00    -0.206 F 
ATOM     84  C   UNL     1      -4.798 -12.210  10.545  1.00  0.00     0.040 A 
ATOM     85  C   UNL     1      -4.568 -11.242   8.353  1.00  0.00     0.040 A 
ATOM     86  F   UNL     1      -2.564 -10.184   7.745  1.00  0.00    -0.206 F 
ATOM     87  C   UNL     1      -5.336 -11.929   9.290  1.00  0.00     0.006 A 
ENDBRANCH  59  80
BRANCH  71  88
ATOM     88  C   UNL     1       3.362 -14.287  11.216  1.00  0.00     0.057 A 
ATOM     89  C   UNL     1       3.416 -15.101  10.077  1.00  0.00     0.134 A 
ATOM     90  C   UNL     1       3.735 -14.863  12.438  1.00  0.00     0.134 A 
ATOM     91  F   UNL     1       3.062 -14.617   8.877  1.00  0.00    -0.206 F 
ATOM     92  C   UNL     1       3.802 -16.441  10.155  1.00  0.00     0.040 A 
ATOM     93  C   UNL     1       4.153 -16.192  12.523  1.00  0.00     0.040 A 
ATOM     94  F   UNL     1       3.716 -14.138  13.566  1.00  0.00    -0.206 F 
ATOM     95  C   UNL     1       4.180 -16.987  11.380  1.00  0.00     0.006 A 
ENDBRANCH  71  88
ENDBRANCH  45  46
ENDBRANCH  37  40
ENDBRANCH  35  36
ENDBRANCH  34  35
ENDBRANCH  33  34
ENDBRANCH  32  33
ENDBRANCH   1  32
TORSDOF 18
