REMARK SMILES Cc1ccc([C@H](C)NC(=O)[C@H]2[C@@H]3CC[C@@H](C3)[C@@H]2C(=O)NCCCCCCNC(=O)c2ccc(-c3c4nc(c(-c5c(F)cccc5F)c5ccc([nH]5)c(-c5c(F)cccc5F)c5nc(c(-c6c(F)cccc6F)c6ccc3[nH]6)C=C5)C=C4)cc2)cc1
REMARK SMILES IDX 23 1 22 2 21 3 20 4 18 5 19 6 17 8 11 9 12 10 13 11 16 12
REMARK SMILES IDX 15 13 14 14 9 15 8 16 10 18 6 19 7 20 5 21 1 22 2 23 3 24
REMARK SMILES IDX 85 25 4 26 84 27 24 28 25 29 26 30 27 31 28 32 29 34 30 35
REMARK SMILES IDX 31 36 83 37 32 38 82 39 33 40 34 41 35 42 76 43 36 44 81 45
REMARK SMILES IDX 75 46 77 47 37 48 80 49 74 50 73 51 38 53 64 54 47 55 63 56
REMARK SMILES IDX 48 57 51 58 62 59 78 60 49 61 50 62 61 64 79 65 52 66 39 67
REMARK SMILES IDX 40 68 45 69 41 70 42 71 44 72 46 73 43 74 65 75 66 76 71 77
REMARK SMILES IDX 67 78 68 79 70 80 72 81 69 82 53 83 54 84 59 85 55 86 56 87
REMARK SMILES IDX 58 88 60 89 57 90
REMARK H PARENT 20 7 8 17 27 33 77 52 51 63
REMARK Flexibility Score: inf
ROOT
ATOM      1  C   UNL     1      -9.858   0.317   1.745  1.00  0.00     0.002 C 
ENDROOT
BRANCH   1   2
ATOM      2  C   UNL     1      -8.350   0.346   2.036  1.00  0.00     0.021 C 
BRANCH   2   3
ATOM      3  C   UNL     1      -7.474   0.181   0.791  1.00  0.00     0.116 C 
BRANCH   3   4
ATOM      4  N   UNL     1      -7.457   1.402   0.015  1.00  0.00    -0.356 N 
ATOM      5  C   UNL     1      -6.527   2.379  -0.122  1.00  0.00     0.224 C 
ATOM      6  O   UNL     1      -6.847   3.340  -0.829  1.00  0.00    -0.275 OA
ATOM      7  H   UNL     1      -8.274   1.552  -0.513  1.00  0.00     0.163 HD
BRANCH   5   8
ATOM      8  C   UNL     1      -5.096   2.237   0.397  1.00  0.00     0.094 C 
ATOM      9  C   UNL     1      -4.824   1.703   1.807  1.00  0.00     0.094 C 
ATOM     10  C   UNL     1      -3.916   2.782   2.450  1.00  0.00     0.002 C 
ATOM     11  C   UNL     1      -4.789   4.008   2.780  1.00  0.00     0.005 C 
ATOM     12  C   UNL     1      -3.113   3.312   1.269  1.00  0.00     0.009 C 
ATOM     13  C   UNL     1      -4.362   3.614   0.439  1.00  0.00     0.002 C 
ATOM     14  C   UNL     1      -5.088   4.591   1.391  1.00  0.00     0.005 C 
BRANCH   9  15
ATOM     15  C   UNL     1      -4.243   0.296   1.986  1.00  0.00     0.224 C 
ATOM     16  N   UNL     1      -3.426  -0.372   1.141  1.00  0.00    -0.349 N 
ATOM     17  H   UNL     1      -3.251  -1.290   1.450  1.00  0.00     0.164 HD
ATOM     18  O   UNL     1      -4.535  -0.319   3.023  1.00  0.00    -0.275 OA
BRANCH  16  19
ATOM     19  C   UNL     1      -2.738  -0.078  -0.113  1.00  0.00     0.109 C 
ATOM     20  C   UNL     1      -1.248  -0.405   0.030  1.00  0.00     0.036 C 
BRANCH  19  21
ATOM     21  C   UNL     1      -3.345  -0.824  -1.292  1.00  0.00    -0.026 A 
ATOM     22  C   UNL     1      -4.739  -2.846  -4.861  1.00  0.00     0.044 C 
ATOM     23  C   UNL     1      -4.293  -2.159  -3.604  1.00  0.00    -0.051 A 
ATOM     24  C   UNL     1      -4.321  -0.764  -3.529  1.00  0.00     0.004 A 
ATOM     25  C   UNL     1      -3.824  -2.884  -2.505  1.00  0.00     0.004 A 
ATOM     26  C   UNL     1      -3.845  -0.106  -2.392  1.00  0.00     0.006 A 
ATOM     27  C   UNL     1      -3.361  -2.225  -1.359  1.00  0.00     0.006 A 
ENDBRANCH  19  21
ENDBRANCH  16  19
ENDBRANCH   9  15
ENDBRANCH   5   8
ENDBRANCH   3   4
ENDBRANCH   2   3
ENDBRANCH   1   2
BRANCH   1  28
ATOM     28  C   UNL     1     -10.379  -0.931   1.010  1.00  0.00     0.002 C 
BRANCH  28  29
ATOM     29  C   UNL     1      -9.945  -2.274   1.602  1.00  0.00     0.021 C 
BRANCH  29  30
ATOM     30  C   UNL     1     -10.598  -2.586   2.940  1.00  0.00     0.116 C 
BRANCH  30  31
ATOM     31  N   UNL     1     -11.883  -3.264   2.826  1.00  0.00    -0.352 N 
ATOM     32  C   UNL     1     -12.839  -3.542   3.790  1.00  0.00     0.251 C 
ATOM     33  H   UNL     1     -12.108  -3.575   1.919  1.00  0.00     0.163 HD
ATOM     34  O   UNL     1     -13.827  -4.192   3.493  1.00  0.00    -0.269 OA
BRANCH  32  35
ATOM     35  C   UNL     1     -12.736  -2.925   5.139  1.00  0.00     0.039 A 
ATOM     36  C   UNL     1     -13.911  -2.420   5.714  1.00  0.00     0.014 A 
ATOM     37  C   UNL     1     -11.505  -2.647   5.721  1.00  0.00     0.014 A 
ATOM     38  C   UNL     1     -13.826  -1.432   6.693  1.00  0.00     0.010 A 
ATOM     39  C   UNL     1     -11.412  -1.590   6.599  1.00  0.00     0.010 A 
ATOM     40  C   UNL     1     -12.570  -0.941   7.036  1.00  0.00    -0.014 A 
BRANCH  40  41
ATOM     41  C   UNL     1     -12.359   0.305   7.755  1.00  0.00     0.031 A 
ATOM     42  C   UNL     1     -11.879   0.291   9.151  1.00  0.00     0.074 A 
ATOM     43  C   UNL     1     -12.484   1.480   7.098  1.00  0.00     0.049 A 
ATOM     44  N   UNL     1     -12.047   1.265   9.979  1.00  0.00    -0.248 NA
ATOM     45  C   UNL     1     -11.199  -0.853   9.743  1.00  0.00     0.031 C 
ATOM     46  C   UNL     1     -11.991   2.785   7.527  1.00  0.00     0.029 A 
ATOM     47  N   UNL     1     -13.261   1.755   5.966  1.00  0.00    -0.354 N 
ATOM     48  C   UNL     1     -11.274   1.013  11.089  1.00  0.00     0.074 A 
ATOM     49  C   UNL     1     -10.828  -0.351  10.925  1.00  0.00     0.031 C 
ATOM     50  C   UNL     1     -12.661   3.742   6.867  1.00  0.00     0.029 A 
ATOM     51  C   UNL     1     -13.709   3.086   6.107  1.00  0.00     0.049 A 
ATOM     52  H   UNL     1     -13.457   1.142   5.221  1.00  0.00     0.167 HD
ATOM     53  C   UNL     1     -10.989   2.037  11.945  1.00  0.00     0.037 A 
ATOM     54  C   UNL     1     -15.036   3.393   6.191  1.00  0.00     0.037 A 
ATOM     55  C   UNL     1     -11.622   3.278  11.503  1.00  0.00     0.049 A 
ATOM     56  C   UNL     1     -15.421   4.115   7.459  1.00  0.00     0.074 A 
ATOM     57  C   UNL     1     -11.142   4.364  10.789  1.00  0.00     0.029 A 
ATOM     58  N   UNL     1     -13.004   3.402  11.529  1.00  0.00    -0.354 N 
ATOM     59  N   UNL     1     -14.706   4.095   8.548  1.00  0.00    -0.248 NA
ATOM     60  C   UNL     1     -16.641   4.902   7.610  1.00  0.00     0.031 C 
ATOM     61  C   UNL     1     -12.247   5.146  10.380  1.00  0.00     0.029 A 
ATOM     62  C   UNL     1     -13.397   4.540  10.854  1.00  0.00     0.049 A 
ATOM     63  H   UNL     1     -13.617   2.768  11.967  1.00  0.00     0.167 HD
ATOM     64  C   UNL     1     -15.336   4.819   9.530  1.00  0.00     0.074 A 
ATOM     65  C   UNL     1     -16.535   5.319   8.885  1.00  0.00     0.031 C 
ATOM     66  C   UNL     1     -14.800   4.923  10.784  1.00  0.00     0.037 A 
BRANCH  53  67
ATOM     67  C   UNL     1      -9.906   2.007  13.005  1.00  0.00     0.057 A 
ATOM     68  C   UNL     1      -9.294   3.201  13.444  1.00  0.00     0.134 A 
ATOM     69  C   UNL     1      -9.388   0.848  13.606  1.00  0.00     0.134 A 
ATOM     70  F   UNL     1      -9.750   4.407  13.080  1.00  0.00    -0.206 F 
ATOM     71  C   UNL     1      -8.178   3.226  14.291  1.00  0.00     0.040 A 
ATOM     72  C   UNL     1      -8.242   0.852  14.417  1.00  0.00     0.040 A 
ATOM     73  F   UNL     1     -10.000  -0.336  13.496  1.00  0.00    -0.206 F 
ATOM     74  C   UNL     1      -7.620   2.045  14.749  1.00  0.00     0.006 A 
ENDBRANCH  53  67
BRANCH  54  75
ATOM     75  C   UNL     1     -15.903   2.445   5.449  1.00  0.00     0.057 A 
ATOM     76  C   UNL     1     -15.835   2.436   4.045  1.00  0.00     0.134 A 
ATOM     77  C   UNL     1     -16.444   1.315   6.070  1.00  0.00     0.134 A 
ATOM     78  F   UNL     1     -15.324   3.491   3.390  1.00  0.00    -0.206 F 
ATOM     79  C   UNL     1     -16.177   1.307   3.298  1.00  0.00     0.040 A 
ATOM     80  C   UNL     1     -16.796   0.180   5.330  1.00  0.00     0.040 A 
ATOM     81  F   UNL     1     -16.520   1.243   7.407  1.00  0.00    -0.206 F 
ATOM     82  C   UNL     1     -16.625   0.160   3.947  1.00  0.00     0.006 A 
ENDBRANCH  54  75
BRANCH  66  83
ATOM     83  C   UNL     1     -15.458   5.457  12.043  1.00  0.00     0.057 A 
ATOM     84  C   UNL     1     -16.840   5.593  12.236  1.00  0.00     0.134 A 
ATOM     85  C   UNL     1     -14.679   5.724  13.198  1.00  0.00     0.134 A 
ATOM     86  F   UNL     1     -17.722   5.284  11.278  1.00  0.00    -0.206 F 
ATOM     87  C   UNL     1     -17.398   6.002  13.458  1.00  0.00     0.040 A 
ATOM     88  C   UNL     1     -15.228   6.076  14.436  1.00  0.00     0.040 A 
ATOM     89  F   UNL     1     -13.341   5.631  13.193  1.00  0.00    -0.206 F 
ATOM     90  C   UNL     1     -16.595   6.229  14.567  1.00  0.00     0.006 A 
ENDBRANCH  66  83
ENDBRANCH  40  41
ENDBRANCH  32  35
ENDBRANCH  30  31
ENDBRANCH  29  30
ENDBRANCH  28  29
ENDBRANCH   1  28
TORSDOF 16
