REMARK SMILES O=C(NCCCCCCNC(=O)[C@H]1CCCCN1C(=O)c1nc(C2CC2)n[nH]1)c1ccc(-c2c3nc(c(-c4c(F)cccc4F)c4ccc([nH]4)c(-c4c(F)cccc4F)c4nc(c(-c5c(F)cccc5F)c5ccc2[nH]5)C=C4)C=C3)cc1
REMARK SMILES IDX 7 1 6 2 5 3 4 4 3 5 1 6 2 7 29 9 30 10 82 11 31 12 81 13
REMARK SMILES IDX 32 14 33 15 34 16 75 17 35 18 80 19 74 20 76 21 36 22 79 23
REMARK SMILES IDX 73 24 72 25 37 27 63 28 46 29 62 30 47 31 50 32 61 33 77 34
REMARK SMILES IDX 48 35 49 36 60 38 78 39 51 40 38 41 39 42 44 43 40 44 41 45
REMARK SMILES IDX 43 46 45 47 42 48 64 49 65 50 70 51 66 52 67 53 69 54 71 55
REMARK SMILES IDX 68 56 52 57 53 58 58 59 54 60 55 61 57 62 59 63 56 64 8 65
REMARK SMILES IDX 9 66 10 67 11 68 12 70 13 71 14 72 18 73 15 74 17 75 16 76
REMARK SMILES IDX 19 77 20 78 21 79 22 80 28 81 23 82 27 83 24 85 25 86 26 87
REMARK H PARENT 3 8 76 26 50 37 10 69 28 84
REMARK Flexibility Score: inf
ROOT
ATOM      1  C   UNL     1      12.802   8.409  -6.972  1.00  0.00     0.002 C 
ENDROOT
BRANCH   1   2
ATOM      2  C   UNL     1      12.453   9.730  -7.662  1.00  0.00     0.002 C 
BRANCH   2   3
ATOM      3  C   UNL     1      12.480  10.963  -6.759  1.00  0.00     0.021 C 
BRANCH   3   4
ATOM      4  C   UNL     1      13.795  11.183  -6.024  1.00  0.00     0.116 C 
BRANCH   4   5
ATOM      5  N   UNL     1      14.889  11.501  -6.926  1.00  0.00    -0.352 N 
ATOM      6  O   UNL     1      16.491  12.807  -7.842  1.00  0.00    -0.269 OA
ATOM      7  C   UNL     1      15.720  12.594  -6.911  1.00  0.00     0.251 C 
ATOM      8  H   UNL     1      15.057  10.847  -7.642  1.00  0.00     0.163 HD
BRANCH   7   9
ATOM      9  C   UNL     1      15.668  13.524  -5.765  1.00  0.00     0.039 A 
ATOM     10  C   UNL     1      15.669  13.029  -4.459  1.00  0.00     0.014 A 
ATOM     11  C   UNL     1      15.618  14.902  -5.998  1.00  0.00     0.014 A 
ATOM     12  C   UNL     1      15.493  13.900  -3.393  1.00  0.00     0.010 A 
ATOM     13  C   UNL     1      15.532  15.784  -4.917  1.00  0.00     0.010 A 
ATOM     14  C   UNL     1      15.452  15.289  -3.607  1.00  0.00    -0.014 A 
BRANCH  14  15
ATOM     15  C   UNL     1      15.431  16.188  -2.427  1.00  0.00     0.031 A 
ATOM     16  C   UNL     1      14.258  17.077  -2.131  1.00  0.00     0.074 A 
ATOM     17  C   UNL     1      16.487  16.153  -1.590  1.00  0.00     0.049 A 
ATOM     18  N   UNL     1      14.076  17.881  -1.114  1.00  0.00    -0.248 NA
ATOM     19  C   UNL     1      13.150  17.072  -3.098  1.00  0.00     0.031 C 
ATOM     20  C   UNL     1      17.693  15.343  -1.793  1.00  0.00     0.029 A 
ATOM     21  N   UNL     1      16.710  16.784  -0.395  1.00  0.00    -0.354 N 
ATOM     22  C   UNL     1      12.842  18.485  -1.319  1.00  0.00     0.074 A 
ATOM     23  C   UNL     1      12.329  17.974  -2.573  1.00  0.00     0.031 C 
ATOM     24  C   UNL     1      18.501  15.484  -0.734  1.00  0.00     0.029 A 
ATOM     25  C   UNL     1      17.904  16.439   0.190  1.00  0.00     0.049 A 
ATOM     26  H   UNL     1      16.077  17.423   0.005  1.00  0.00     0.167 HD
ATOM     27  C   UNL     1      12.198  19.376  -0.528  1.00  0.00     0.037 A 
ATOM     28  C   UNL     1      18.467  16.856   1.338  1.00  0.00     0.037 A 
ATOM     29  C   UNL     1      12.714  19.875   0.723  1.00  0.00     0.049 A 
ATOM     30  C   UNL     1      17.730  17.849   2.186  1.00  0.00     0.074 A 
ATOM     31  C   UNL     1      12.128  20.770   1.603  1.00  0.00     0.029 A 
ATOM     32  N   UNL     1      13.938  19.522   1.272  1.00  0.00    -0.354 N 
ATOM     33  N   UNL     1      16.554  18.391   1.988  1.00  0.00    -0.248 NA
ATOM     34  C   UNL     1      18.401  18.291   3.416  1.00  0.00     0.031 C 
ATOM     35  C   UNL     1      13.013  20.985   2.665  1.00  0.00     0.029 A 
ATOM     36  C   UNL     1      14.131  20.192   2.470  1.00  0.00     0.049 A 
ATOM     37  H   UNL     1      14.576  18.889   0.869  1.00  0.00     0.167 HD
ATOM     38  C   UNL     1      16.340  19.234   3.068  1.00  0.00     0.074 A 
ATOM     39  C   UNL     1      17.492  19.103   3.936  1.00  0.00     0.031 C 
ATOM     40  C   UNL     1      15.289  20.054   3.315  1.00  0.00     0.037 A 
BRANCH  27  41
ATOM     41  C   UNL     1      10.860  19.880  -0.986  1.00  0.00     0.057 A 
ATOM     42  C   UNL     1       9.714  19.077  -0.933  1.00  0.00     0.134 A 
ATOM     43  C   UNL     1      10.700  21.204  -1.414  1.00  0.00     0.134 A 
ATOM     44  F   UNL     1       9.799  17.796  -0.541  1.00  0.00    -0.206 F 
ATOM     45  C   UNL     1       8.459  19.569  -1.298  1.00  0.00     0.040 A 
ATOM     46  C   UNL     1       9.448  21.715  -1.761  1.00  0.00     0.040 A 
ATOM     47  F   UNL     1      11.756  22.030  -1.481  1.00  0.00    -0.206 F 
ATOM     48  C   UNL     1       8.322  20.895  -1.705  1.00  0.00     0.006 A 
ENDBRANCH  27  41
BRANCH  28  49
ATOM     49  C   UNL     1      19.802  16.348   1.737  1.00  0.00     0.057 A 
ATOM     50  C   UNL     1      19.961  15.515   2.850  1.00  0.00     0.134 A 
ATOM     51  C   UNL     1      20.953  16.686   1.014  1.00  0.00     0.134 A 
ATOM     52  F   UNL     1      18.899  15.169   3.591  1.00  0.00    -0.206 F 
ATOM     53  C   UNL     1      21.219  15.054   3.243  1.00  0.00     0.040 A 
ATOM     54  C   UNL     1      22.212  16.208   1.376  1.00  0.00     0.040 A 
ATOM     55  F   UNL     1      20.866  17.472  -0.069  1.00  0.00    -0.206 F 
ATOM     56  C   UNL     1      22.348  15.396   2.501  1.00  0.00     0.006 A 
ENDBRANCH  28  49
BRANCH  40  57
ATOM     57  C   UNL     1      15.346  20.855   4.582  1.00  0.00     0.057 A 
ATOM     58  C   UNL     1      16.224  21.936   4.728  1.00  0.00     0.134 A 
ATOM     59  C   UNL     1      14.520  20.538   5.666  1.00  0.00     0.134 A 
ATOM     60  F   UNL     1      17.054  22.278   3.731  1.00  0.00    -0.206 F 
ATOM     61  C   UNL     1      16.302  22.655   5.922  1.00  0.00     0.040 A 
ATOM     62  C   UNL     1      14.570  21.266   6.856  1.00  0.00     0.040 A 
ATOM     63  F   UNL     1      13.653  19.517   5.588  1.00  0.00    -0.206 F 
ATOM     64  C   UNL     1      15.470  22.321   6.989  1.00  0.00     0.006 A 
ENDBRANCH  40  57
ENDBRANCH  14  15
ENDBRANCH   7   9
ENDBRANCH   4   5
ENDBRANCH   3   4
ENDBRANCH   2   3
ENDBRANCH   1   2
BRANCH   1  65
ATOM     65  C   UNL     1      12.076   8.143  -5.649  1.00  0.00     0.021 C 
BRANCH  65  66
ATOM     66  C   UNL     1      10.551   8.088  -5.758  1.00  0.00     0.116 C 
BRANCH  66  67
ATOM     67  N   UNL     1      10.120   6.812  -6.285  1.00  0.00    -0.354 N 
ATOM     68  C   UNL     1       9.589   5.710  -5.694  1.00  0.00     0.242 C 
ATOM     69  H   UNL     1      10.234   6.725  -7.259  1.00  0.00     0.163 HD
ATOM     70  O   UNL     1       9.393   4.753  -6.456  1.00  0.00    -0.273 OA
BRANCH  68  71
ATOM     71  C   UNL     1       9.058   5.670  -4.227  1.00  0.00     0.174 C 
ATOM     72  C   UNL     1       9.083   4.219  -3.704  1.00  0.00     0.035 C 
ATOM     73  N   UNL     1       9.664   6.550  -3.211  1.00  0.00    -0.324 N 
ATOM     74  C   UNL     1      10.503   3.796  -3.320  1.00  0.00     0.004 C 
ATOM     75  C   UNL     1      11.015   6.199  -2.767  1.00  0.00     0.121 C 
ATOM     76  C   UNL     1      11.080   4.754  -2.281  1.00  0.00     0.022 C 
BRANCH  73  77
ATOM     77  C   UNL     1       8.879   7.540  -2.605  1.00  0.00     0.291 C 
ATOM     78  O   UNL     1       7.655   7.553  -2.716  1.00  0.00    -0.265 OA
BRANCH  77  79
ATOM     79  C   UNL     1       9.559   8.536  -1.810  1.00  0.00     0.214 A 
ATOM     80  N   UNL     1      10.563   9.303  -2.196  1.00  0.00    -0.207 NA
ATOM     81  N   UNL     1       9.227   8.853  -0.528  1.00  0.00    -0.255 N 
ATOM     82  C   UNL     1      10.859  10.020  -1.061  1.00  0.00     0.154 A 
ATOM     83  N   UNL     1      10.108   9.716   0.003  1.00  0.00    -0.158 NA
ATOM     84  H   UNL     1       8.442   8.496  -0.052  1.00  0.00     0.192 HD
BRANCH  82  85
ATOM     85  C   UNL     1      11.970  11.054  -0.986  1.00  0.00     0.060 C 
ATOM     86  C   UNL     1      12.952  11.154  -2.134  1.00  0.00     0.012 C 
ATOM     87  C   UNL     1      11.948  12.239  -1.928  1.00  0.00     0.012 C 
ENDBRANCH  82  85
ENDBRANCH  77  79
ENDBRANCH  73  77
ENDBRANCH  68  71
ENDBRANCH  66  67
ENDBRANCH  65  66
ENDBRANCH   1  65
TORSDOF 16
