REMARK SMILES Cc1ccc(-n2cnnn2)cc1OCC(=O)NCCCCCCNC(=O)c1ccc(-c2c3nc(c(-c4c(F)cccc4F)c4ccc([nH]4)c(-c4c(F)cccc4F)c4nc(c(-c5c(F)cccc5F)c5ccc2[nH]5)C=C4)C=C3)cc1
REMARK SMILES IDX 20 1 19 2 18 3 17 4 15 5 16 6 14 8 13 9 12 10 1 11 2 12 3 13
REMARK SMILES IDX 4 14 11 15 5 16 6 17 7 18 10 19 8 20 9 21 21 22 22 23 23 24
REMARK SMILES IDX 24 25 25 26 26 28 27 29 28 30 80 31 29 32 79 33 30 34 31 35
REMARK SMILES IDX 32 36 73 37 33 38 78 39 72 40 74 41 34 42 77 43 71 44 70 45
REMARK SMILES IDX 35 47 61 48 44 49 60 50 45 51 48 52 59 53 75 54 46 55 47 56
REMARK SMILES IDX 58 58 76 59 49 60 36 61 37 62 42 63 38 64 39 65 41 66 43 67
REMARK SMILES IDX 40 68 62 69 63 70 68 71 64 72 65 73 67 74 69 75 66 76 50 77
REMARK SMILES IDX 51 78 56 79 52 80 53 81 55 82 57 83 54 84
REMARK H PARENT 17 7 24 27 74 46 48 57
REMARK Flexibility Score: inf
ROOT
ATOM      1  C   UNL     1       1.042   2.594   4.937  1.00  0.00     0.002 C 
ENDROOT
BRANCH   1   2
ATOM      2  C   UNL     1       0.524   3.029   3.559  1.00  0.00     0.021 C 
BRANCH   2   3
ATOM      3  C   UNL     1       1.565   3.448   2.523  1.00  0.00     0.116 C 
BRANCH   3   4
ATOM      4  N   UNL     1       2.581   2.447   2.295  1.00  0.00    -0.353 N 
ATOM      5  C   UNL     1       3.106   2.037   1.106  1.00  0.00     0.257 C 
ATOM      6  O   UNL     1       4.164   1.403   1.127  1.00  0.00    -0.271 OA
ATOM      7  H   UNL     1       2.938   2.006   3.099  1.00  0.00     0.163 HD
BRANCH   5   8
ATOM      8  C   UNL     1       2.429   2.421  -0.217  1.00  0.00     0.329 C 
BRANCH   8   9
ATOM      9  O   UNL     1       1.059   2.169  -0.443  1.00  0.00    -0.483 OA
BRANCH   9  10
ATOM     10  C   UNL     1       0.482   0.942  -0.298  1.00  0.00     0.125 A 
ATOM     11  C   UNL     1       2.506  -0.678  -0.404  1.00  0.00     0.048 C 
ATOM     12  C   UNL     1       1.058  -0.332  -0.214  1.00  0.00    -0.009 A 
ATOM     13  C   UNL     1       0.217  -1.432   0.068  1.00  0.00     0.009 A 
ATOM     14  C   UNL     1      -1.168  -1.302   0.157  1.00  0.00     0.029 A 
ATOM     15  C   UNL     1      -0.924   1.056  -0.266  1.00  0.00     0.075 A 
ATOM     16  C   UNL     1      -1.750  -0.057  -0.063  1.00  0.00     0.072 A 
BRANCH  16  17
ATOM     17  N   UNL     1      -3.159   0.058  -0.095  1.00  0.00    -0.200 N 
ATOM     18  C   UNL     1      -3.937   1.106  -0.520  1.00  0.00     0.252 A 
ATOM     19  N   UNL     1      -3.985  -0.946   0.277  1.00  0.00    -0.040 NA
ATOM     20  N   UNL     1      -5.204   0.791  -0.384  1.00  0.00    -0.117 NA
ATOM     21  N   UNL     1      -5.217  -0.483   0.120  1.00  0.00    -0.024 NA
ENDBRANCH  16  17
ENDBRANCH   9  10
ENDBRANCH   8   9
ENDBRANCH   5   8
ENDBRANCH   3   4
ENDBRANCH   2   3
ENDBRANCH   1   2
BRANCH   1  22
ATOM     22  C   UNL     1       2.063   3.495   5.648  1.00  0.00     0.002 C 
BRANCH  22  23
ATOM     23  C   UNL     1       1.762   4.994   5.705  1.00  0.00     0.021 C 
BRANCH  23  24
ATOM     24  C   UNL     1       0.485   5.370   6.445  1.00  0.00     0.116 C 
BRANCH  24  25
ATOM     25  N   UNL     1       0.695   5.940   7.768  1.00  0.00    -0.352 N 
ATOM     26  C   UNL     1      -0.240   6.308   8.728  1.00  0.00     0.251 C 
ATOM     27  H   UNL     1       1.635   6.087   8.020  1.00  0.00     0.163 HD
ATOM     28  O   UNL     1       0.123   6.787   9.782  1.00  0.00    -0.269 OA
BRANCH  26  29
ATOM     29  C   UNL     1      -1.676   5.976   8.511  1.00  0.00     0.039 A 
ATOM     30  C   UNL     1      -2.370   5.387   9.575  1.00  0.00     0.014 A 
ATOM     31  C   UNL     1      -2.258   6.035   7.249  1.00  0.00     0.014 A 
ATOM     32  C   UNL     1      -3.501   4.620   9.309  1.00  0.00     0.010 A 
ATOM     33  C   UNL     1      -3.320   5.200   6.964  1.00  0.00     0.010 A 
ATOM     34  C   UNL     1      -3.890   4.434   7.983  1.00  0.00    -0.014 A 
BRANCH  34  35
ATOM     35  C   UNL     1      -4.759   3.342   7.562  1.00  0.00     0.031 A 
ATOM     36  C   UNL     1      -6.160   3.587   7.175  1.00  0.00     0.074 A 
ATOM     37  C   UNL     1      -4.243   2.096   7.468  1.00  0.00     0.049 A 
ATOM     38  N   UNL     1      -7.103   2.716   7.307  1.00  0.00    -0.248 NA
ATOM     39  C   UNL     1      -6.615   4.858   6.622  1.00  0.00     0.031 C 
ATOM     40  C   UNL     1      -4.863   0.921   6.863  1.00  0.00     0.029 A 
ATOM     41  N   UNL     1      -3.096   1.598   8.101  1.00  0.00    -0.354 N 
ATOM     42  C   UNL     1      -8.199   3.191   6.627  1.00  0.00     0.074 A 
ATOM     43  C   UNL     1      -7.868   4.552   6.270  1.00  0.00     0.031 C 
ATOM     44  C   UNL     1      -4.284  -0.180   7.367  1.00  0.00     0.029 A 
ATOM     45  C   UNL     1      -3.366   0.248   8.408  1.00  0.00     0.049 A 
ATOM     46  H   UNL     1      -2.267   2.093   8.293  1.00  0.00     0.167 HD
ATOM     47  C   UNL     1      -9.222   2.349   6.308  1.00  0.00     0.037 A 
ATOM     48  C   UNL     1      -3.387  -0.188   9.701  1.00  0.00     0.037 A 
ATOM     49  C   UNL     1      -8.981   0.995   6.790  1.00  0.00     0.049 A 
ATOM     50  C   UNL     1      -4.729  -0.723  10.146  1.00  0.00     0.074 A 
ATOM     51  C   UNL     1      -8.445  -0.128   6.181  1.00  0.00     0.029 A 
ATOM     52  N   UNL     1      -8.973   0.742   8.157  1.00  0.00    -0.354 N 
ATOM     53  N   UNL     1      -5.840  -0.538   9.489  1.00  0.00    -0.248 NA
ATOM     54  C   UNL     1      -4.935  -1.467  11.387  1.00  0.00     0.031 C 
ATOM     55  C   UNL     1      -8.043  -1.030   7.195  1.00  0.00     0.029 A 
ATOM     56  C   UNL     1      -8.356  -0.468   8.419  1.00  0.00     0.049 A 
ATOM     57  H   UNL     1      -9.352   1.339   8.841  1.00  0.00     0.167 HD
ATOM     58  C   UNL     1      -6.886  -1.060  10.202  1.00  0.00     0.074 A 
ATOM     59  C   UNL     1      -6.266  -1.660  11.368  1.00  0.00     0.031 C 
ATOM     60  C   UNL     1      -8.180  -0.934   9.785  1.00  0.00     0.037 A 
BRANCH  47  61
ATOM     61  C   UNL     1     -10.266   2.726   5.292  1.00  0.00     0.057 A 
ATOM     62  C   UNL     1     -10.698   1.818   4.309  1.00  0.00     0.134 A 
ATOM     63  C   UNL     1     -10.838   4.006   5.208  1.00  0.00     0.134 A 
ATOM     64  F   UNL     1     -10.302   0.539   4.307  1.00  0.00    -0.206 F 
ATOM     65  C   UNL     1     -11.548   2.186   3.259  1.00  0.00     0.040 A 
ATOM     66  C   UNL     1     -11.652   4.403   4.138  1.00  0.00     0.040 A 
ATOM     67  F   UNL     1     -10.631   4.919   6.170  1.00  0.00    -0.206 F 
ATOM     68  C   UNL     1     -11.999   3.493   3.148  1.00  0.00     0.006 A 
ENDBRANCH  47  61
BRANCH  48  69
ATOM     69  C   UNL     1      -2.414   0.521  10.572  1.00  0.00     0.057 A 
ATOM     70  C   UNL     1      -1.041   0.357  10.314  1.00  0.00     0.134 A 
ATOM     71  C   UNL     1      -2.786   1.610  11.364  1.00  0.00     0.134 A 
ATOM     72  F   UNL     1      -0.616  -0.670   9.560  1.00  0.00    -0.206 F 
ATOM     73  C   UNL     1      -0.093   1.298  10.723  1.00  0.00     0.040 A 
ATOM     74  C   UNL     1      -1.843   2.553  11.791  1.00  0.00     0.040 A 
ATOM     75  F   UNL     1      -4.077   1.845  11.639  1.00  0.00    -0.206 F 
ATOM     76  C   UNL     1      -0.501   2.421  11.436  1.00  0.00     0.006 A 
ENDBRANCH  48  69
BRANCH  60  77
ATOM     77  C   UNL     1      -9.397  -1.300  10.589  1.00  0.00     0.057 A 
ATOM     78  C   UNL     1      -9.486  -1.162  11.981  1.00  0.00     0.134 A 
ATOM     79  C   UNL     1     -10.594  -1.669   9.938  1.00  0.00     0.134 A 
ATOM     80  F   UNL     1      -8.449  -0.723  12.707  1.00  0.00    -0.206 F 
ATOM     81  C   UNL     1     -10.670  -1.420  12.683  1.00  0.00     0.040 A 
ATOM     82  C   UNL     1     -11.793  -1.880  10.623  1.00  0.00     0.040 A 
ATOM     83  F   UNL     1     -10.652  -1.816   8.606  1.00  0.00    -0.206 F 
ATOM     84  C   UNL     1     -11.832  -1.769  12.004  1.00  0.00     0.006 A 
ENDBRANCH  60  77
ENDBRANCH  34  35
ENDBRANCH  26  29
ENDBRANCH  24  25
ENDBRANCH  23  24
ENDBRANCH  22  23
ENDBRANCH   1  22
TORSDOF 16
