REMARK SMILES CC[C@@H](O)C[NH+]1CC(n2cc(C(=O)NCCCCCCNC(=O)c3ccc(-c4c5nc(c(-c6c(F)cccc6F)c6ccc([nH]6)c(-c6c(F)cccc6F)c6nc(c(-c7c(F)cccc7F)c7ccc4[nH]7)C=C6)C=C5)cc3)nn2)C1
REMARK SMILES IDX 16 1 15 2 14 3 12 4 13 5 11 7 9 8 10 9 79 10 78 11 8 12 6 13
REMARK SMILES IDX 7 14 80 15 5 17 3 18 2 19 1 20 4 21 17 23 18 24 19 25 20 26
REMARK SMILES IDX 21 27 22 28 23 30 24 31 25 32 77 33 26 34 76 35 27 36 28 37
REMARK SMILES IDX 29 38 70 39 30 40 75 41 69 42 71 43 31 44 74 45 68 46 67 47
REMARK SMILES IDX 32 49 58 50 41 51 57 52 42 53 45 54 56 55 72 56 43 57 44 58
REMARK SMILES IDX 55 60 73 61 46 62 33 63 34 64 39 65 35 66 36 67 38 68 40 69
REMARK SMILES IDX 37 70 59 71 60 72 65 73 61 74 62 75 64 76 66 77 63 78 47 79
REMARK SMILES IDX 48 80 53 81 49 82 50 83 52 84 54 85 51 86
REMARK H PARENT 14 6 6 16 4 22 21 29 71 48 45 59
REMARK Flexibility Score: inf
ROOT
ATOM      1  C   UNL     1       1.753  -8.833   1.354  1.00  0.00     0.021 C 
ENDROOT
BRANCH   1   2
ATOM      2  C   UNL     1       0.420  -8.356   1.934  1.00  0.00     0.116 C 
BRANCH   2   3
ATOM      3  N   UNL     1       0.117  -9.016   3.192  1.00  0.00    -0.351 N 
ATOM      4  C   UNL     1      -0.117  -8.507   4.446  1.00  0.00     0.273 C 
ATOM      5  O   UNL     1      -0.539  -9.304   5.303  1.00  0.00    -0.267 OA
ATOM      6  H   UNL     1       0.071  -9.998   3.136  1.00  0.00     0.163 HD
BRANCH   4   7
ATOM      7  C   UNL     1       0.103  -7.103   4.755  1.00  0.00     0.170 A 
ATOM      8  N   UNL     1       0.753  -5.030   4.851  1.00  0.00    -0.237 N 
ATOM      9  C   UNL     1       1.031  -6.220   4.238  1.00  0.00     0.145 A 
ATOM     10  N   UNL     1      -0.241  -5.158   5.737  1.00  0.00    -0.066 NA
ATOM     11  N   UNL     1      -0.623  -6.431   5.719  1.00  0.00    -0.125 NA
BRANCH   8  12
ATOM     12  C   UNL     1       1.452  -3.832   4.541  1.00  0.00     0.218 C 
ATOM     13  N   UNL     1       1.351  -1.858   3.937  1.00  0.00    -0.329 N 
ATOM     14  C   UNL     1       1.071  -2.521   5.265  1.00  0.00     0.296 C 
ATOM     15  C   UNL     1       0.818  -3.113   3.322  1.00  0.00     0.296 C 
ATOM     16  H   UNL     1       2.260  -1.466   3.690  1.00  0.00     0.348 HD
BRANCH  13  17
ATOM     17  C   UNL     1       0.477  -0.704   3.705  1.00  0.00     0.294 C 
BRANCH  17  18
ATOM     18  C   UNL     1       0.879   0.070   2.422  1.00  0.00     0.169 C 
BRANCH  18  19
ATOM     19  C   UNL     1       0.460  -0.636   1.125  1.00  0.00     0.034 C 
ATOM     20  C   UNL     1       0.972   0.064  -0.128  1.00  0.00     0.007 C 
ENDBRANCH  18  19
BRANCH  18  21
ATOM     21  O   UNL     1       0.266   1.363   2.467  1.00  0.00    -0.387 OA
ATOM     22  H   UNL     1      -0.699   1.262   2.480  1.00  0.00     0.211 HD
ENDBRANCH  18  21
ENDBRANCH  17  18
ENDBRANCH  13  17
ENDBRANCH   8  12
ENDBRANCH   4   7
ENDBRANCH   2   3
ENDBRANCH   1   2
BRANCH   1  23
ATOM     23  C   UNL     1       1.685 -10.184   0.626  1.00  0.00     0.002 C 
BRANCH  23  24
ATOM     24  C   UNL     1       0.672 -10.282  -0.526  1.00  0.00     0.002 C 
BRANCH  24  25
ATOM     25  C   UNL     1       0.733  -9.171  -1.584  1.00  0.00     0.021 C 
BRANCH  25  26
ATOM     26  C   UNL     1       1.970  -9.224  -2.471  1.00  0.00     0.116 C 
BRANCH  26  27
ATOM     27  N   UNL     1       1.962 -10.385  -3.360  1.00  0.00    -0.352 N 
ATOM     28  C   UNL     1       2.983 -10.854  -4.151  1.00  0.00     0.251 C 
ATOM     29  H   UNL     1       1.121 -10.895  -3.395  1.00  0.00     0.163 HD
ATOM     30  O   UNL     1       2.758 -11.617  -5.095  1.00  0.00    -0.269 OA
BRANCH  28  31
ATOM     31  C   UNL     1       4.356 -10.422  -3.867  1.00  0.00     0.039 A 
ATOM     32  C   UNL     1       5.179  -9.938  -4.887  1.00  0.00     0.014 A 
ATOM     33  C   UNL     1       4.792 -10.450  -2.544  1.00  0.00     0.014 A 
ATOM     34  C   UNL     1       6.416  -9.390  -4.555  1.00  0.00     0.010 A 
ATOM     35  C   UNL     1       5.963  -9.808  -2.208  1.00  0.00     0.010 A 
ATOM     36  C   UNL     1       6.796  -9.300  -3.208  1.00  0.00    -0.014 A 
BRANCH  36  37
ATOM     37  C   UNL     1       8.002  -8.557  -2.829  1.00  0.00     0.031 A 
ATOM     38  C   UNL     1       8.080  -7.136  -3.292  1.00  0.00     0.074 A 
ATOM     39  C   UNL     1       8.863  -9.009  -1.891  1.00  0.00     0.049 A 
ATOM     40  N   UNL     1       9.035  -6.548  -3.940  1.00  0.00    -0.248 NA
ATOM     41  C   UNL     1       6.919  -6.266  -3.037  1.00  0.00     0.031 C 
ATOM     42  C   UNL     1       8.765 -10.241  -1.098  1.00  0.00     0.029 A 
ATOM     43  N   UNL     1       9.944  -8.383  -1.345  1.00  0.00    -0.354 N 
ATOM     44  C   UNL     1       8.681  -5.199  -4.025  1.00  0.00     0.074 A 
ATOM     45  C   UNL     1       7.319  -5.111  -3.570  1.00  0.00     0.031 C 
ATOM     46  C   UNL     1       9.581 -10.152  -0.028  1.00  0.00     0.029 A 
ATOM     47  C   UNL     1      10.381  -8.949  -0.157  1.00  0.00     0.049 A 
ATOM     48  H   UNL     1      10.375  -7.600  -1.757  1.00  0.00     0.167 HD
ATOM     49  C   UNL     1       9.606  -4.227  -4.267  1.00  0.00     0.037 A 
ATOM     50  C   UNL     1      11.317  -8.463   0.690  1.00  0.00     0.037 A 
ATOM     51  C   UNL     1      10.800  -4.774  -4.857  1.00  0.00     0.049 A 
ATOM     52  C   UNL     1      12.139  -7.487  -0.058  1.00  0.00     0.074 A 
ATOM     53  C   UNL     1      11.094  -5.478  -6.008  1.00  0.00     0.029 A 
ATOM     54  N   UNL     1      11.914  -4.888  -4.065  1.00  0.00    -0.354 N 
ATOM     55  N   UNL     1      12.948  -7.805  -1.029  1.00  0.00    -0.248 NA
ATOM     56  C   UNL     1      11.773  -6.082   0.014  1.00  0.00     0.031 C 
ATOM     57  C   UNL     1      12.144  -6.370  -5.637  1.00  0.00     0.029 A 
ATOM     58  C   UNL     1      12.447  -6.127  -4.297  1.00  0.00     0.049 A 
ATOM     59  H   UNL     1      12.264  -4.207  -3.446  1.00  0.00     0.167 HD
ATOM     60  C   UNL     1      12.850  -6.754  -1.927  1.00  0.00     0.074 A 
ATOM     61  C   UNL     1      12.222  -5.672  -1.175  1.00  0.00     0.031 C 
ATOM     62  C   UNL     1      13.027  -6.955  -3.266  1.00  0.00     0.037 A 
BRANCH  49  63
ATOM     63  C   UNL     1       9.594  -2.848  -3.632  1.00  0.00     0.057 A 
ATOM     64  C   UNL     1      10.589  -1.917  -3.995  1.00  0.00     0.134 A 
ATOM     65  C   UNL     1       8.866  -2.511  -2.473  1.00  0.00     0.134 A 
ATOM     66  F   UNL     1      11.351  -2.108  -5.083  1.00  0.00    -0.206 F 
ATOM     67  C   UNL     1      10.910  -0.805  -3.204  1.00  0.00     0.040 A 
ATOM     68  C   UNL     1       9.145  -1.375  -1.704  1.00  0.00     0.040 A 
ATOM     69  F   UNL     1       7.915  -3.300  -1.964  1.00  0.00    -0.206 F 
ATOM     70  C   UNL     1      10.196  -0.539  -2.045  1.00  0.00     0.006 A 
ENDBRANCH  49  63
BRANCH  50  71
ATOM     71  C   UNL     1      11.404  -8.636   2.154  1.00  0.00     0.057 A 
ATOM     72  C   UNL     1      12.610  -8.465   2.842  1.00  0.00     0.134 A 
ATOM     73  C   UNL     1      10.246  -8.741   2.945  1.00  0.00     0.134 A 
ATOM     74  F   UNL     1      13.761  -8.312   2.170  1.00  0.00    -0.206 F 
ATOM     75  C   UNL     1      12.663  -8.391   4.240  1.00  0.00     0.040 A 
ATOM     76  C   UNL     1      10.284  -8.678   4.341  1.00  0.00     0.040 A 
ATOM     77  F   UNL     1       9.030  -8.826   2.385  1.00  0.00    -0.206 F 
ATOM     78  C   UNL     1      11.496  -8.491   4.993  1.00  0.00     0.006 A 
ENDBRANCH  50  71
BRANCH  62  79
ATOM     79  C   UNL     1      13.617  -8.265  -3.707  1.00  0.00     0.057 A 
ATOM     80  C   UNL     1      12.983  -9.504  -3.537  1.00  0.00     0.134 A 
ATOM     81  C   UNL     1      14.793  -8.256  -4.464  1.00  0.00     0.134 A 
ATOM     82  F   UNL     1      11.802  -9.599  -2.918  1.00  0.00    -0.206 F 
ATOM     83  C   UNL     1      13.519 -10.686  -4.056  1.00  0.00     0.040 A 
ATOM     84  C   UNL     1      15.322  -9.425  -5.017  1.00  0.00     0.040 A 
ATOM     85  F   UNL     1      15.422  -7.099  -4.722  1.00  0.00    -0.206 F 
ATOM     86  C   UNL     1      14.690 -10.648  -4.804  1.00  0.00     0.006 A 
ENDBRANCH  62  79
ENDBRANCH  36  37
ENDBRANCH  28  31
ENDBRANCH  26  27
ENDBRANCH  25  26
ENDBRANCH  24  25
ENDBRANCH  23  24
ENDBRANCH   1  23
TORSDOF 18
