REMARK SMILES CC(C)[N@@H+]1CCC[C@H]1CC(=O)NCCCCCCNC(=O)c1ccc(-c2c3nc(c(-c4c(F)cccc4F)c4ccc([nH]4)c(-c4c(F)cccc4F)c4nc(c(-c5c(F)cccc5F)c5ccc2[nH]5)C=C4)C=C3)cc1
REMARK SMILES IDX 15 1 14 2 13 3 12 4 10 5 11 6 9 8 8 9 4 10 5 11 6 13 7 14
REMARK SMILES IDX 2 15 1 16 3 17 16 18 17 19 18 20 19 21 20 22 21 24 22 25
REMARK SMILES IDX 23 26 75 27 24 28 74 29 25 30 26 31 27 32 68 33 28 34 73 35
REMARK SMILES IDX 67 36 69 37 29 38 72 39 66 40 65 41 30 43 56 44 39 45 55 46
REMARK SMILES IDX 40 47 43 48 54 49 70 50 41 51 42 52 53 54 71 55 44 56 31 57
REMARK SMILES IDX 32 58 37 59 33 60 34 61 36 62 38 63 35 64 57 65 58 66 63 67
REMARK SMILES IDX 59 68 60 69 62 70 64 71 61 72 45 73 46 74 51 75 47 76 48 77
REMARK SMILES IDX 50 78 52 79 49 80
REMARK H PARENT 12 7 4 12 19 23 69 42 43 53
REMARK Flexibility Score: inf
ROOT
ATOM      1  C   UNL     1      -5.589  -0.514   2.895  1.00  0.00     0.002 C 
ENDROOT
BRANCH   1   2
ATOM      2  C   UNL     1      -4.415  -1.428   2.540  1.00  0.00     0.021 C 
BRANCH   2   3
ATOM      3  C   UNL     1      -4.749  -2.524   1.529  1.00  0.00     0.116 C 
BRANCH   3   4
ATOM      4  N   UNL     1      -4.585  -2.012   0.184  1.00  0.00    -0.356 N 
ATOM      5  C   UNL     1      -3.535  -2.119  -0.679  1.00  0.00     0.225 C 
ATOM      6  O   UNL     1      -3.586  -1.445  -1.711  1.00  0.00    -0.275 OA
ATOM      7  H   UNL     1      -5.356  -1.507  -0.162  1.00  0.00     0.163 HD
BRANCH   5   8
ATOM      8  C   UNL     1      -2.413  -3.112  -0.432  1.00  0.00     0.164 C 
BRANCH   8   9
ATOM      9  C   UNL     1      -1.088  -2.665   0.226  1.00  0.00     0.193 C 
ATOM     10  N   UNL     1      -0.522  -1.386  -0.248  1.00  0.00    -0.330 N 
ATOM     11  C   UNL     1      -0.991  -0.384   0.714  1.00  0.00     0.262 C 
ATOM     12  H   UNL     1      -0.851  -1.155  -1.186  1.00  0.00     0.348 HD
ATOM     13  C   UNL     1      -0.880  -1.062   2.061  1.00  0.00     0.067 C 
ATOM     14  C   UNL     1      -1.139  -2.532   1.756  1.00  0.00     0.071 C 
BRANCH  10  15
ATOM     15  C   UNL     1       0.944  -1.411  -0.502  1.00  0.00     0.177 C 
ATOM     16  C   UNL     1       1.568  -0.010  -0.624  1.00  0.00     0.075 C 
ATOM     17  C   UNL     1       1.837  -2.245   0.438  1.00  0.00     0.075 C 
ENDBRANCH  10  15
ENDBRANCH   8   9
ENDBRANCH   5   8
ENDBRANCH   3   4
ENDBRANCH   2   3
ENDBRANCH   1   2
BRANCH   1  18
ATOM     18  C   UNL     1      -6.662  -1.161   3.774  1.00  0.00     0.002 C 
BRANCH  18  19
ATOM     19  C   UNL     1      -6.155  -1.792   5.074  1.00  0.00     0.021 C 
BRANCH  19  20
ATOM     20  C   UNL     1      -5.312  -0.875   5.958  1.00  0.00     0.116 C 
BRANCH  20  21
ATOM     21  N   UNL     1      -6.057   0.291   6.400  1.00  0.00    -0.352 N 
ATOM     22  C   UNL     1      -6.455   0.657   7.660  1.00  0.00     0.251 C 
ATOM     23  H   UNL     1      -6.315   0.916   5.684  1.00  0.00     0.163 HD
ATOM     24  O   UNL     1      -7.270   1.563   7.805  1.00  0.00    -0.269 OA
BRANCH  22  25
ATOM     25  C   UNL     1      -5.915  -0.037   8.850  1.00  0.00     0.039 A 
ATOM     26  C   UNL     1      -6.791  -0.368   9.888  1.00  0.00     0.014 A 
ATOM     27  C   UNL     1      -4.550  -0.311   8.972  1.00  0.00     0.014 A 
ATOM     28  C   UNL     1      -6.305  -1.012  11.028  1.00  0.00     0.010 A 
ATOM     29  C   UNL     1      -4.077  -1.011  10.080  1.00  0.00     0.010 A 
ATOM     30  C   UNL     1      -4.947  -1.358  11.124  1.00  0.00    -0.014 A 
BRANCH  30  31
ATOM     31  C   UNL     1      -4.426  -2.065  12.321  1.00  0.00     0.031 A 
ATOM     32  C   UNL     1      -3.453  -1.383  13.243  1.00  0.00     0.074 A 
ATOM     33  C   UNL     1      -4.798  -3.338  12.557  1.00  0.00     0.049 A 
ATOM     34  N   UNL     1      -2.870  -1.847  14.320  1.00  0.00    -0.248 NA
ATOM     35  C   UNL     1      -3.065  -0.007  12.896  1.00  0.00     0.031 C 
ATOM     36  C   UNL     1      -5.698  -4.126  11.714  1.00  0.00     0.029 A 
ATOM     37  N   UNL     1      -4.462  -4.193  13.576  1.00  0.00    -0.354 N 
ATOM     38  C   UNL     1      -2.041  -0.827  14.770  1.00  0.00     0.074 A 
ATOM     39  C   UNL     1      -2.156   0.261  13.823  1.00  0.00     0.031 C 
ATOM     40  C   UNL     1      -5.861  -5.341  12.262  1.00  0.00     0.029 A 
ATOM     41  C   UNL     1      -5.058  -5.427  13.478  1.00  0.00     0.049 A 
ATOM     42  H   UNL     1      -3.851  -3.946  14.307  1.00  0.00     0.167 HD
ATOM     43  C   UNL     1      -1.271  -0.791  15.884  1.00  0.00     0.037 A 
ATOM     44  C   UNL     1      -4.968  -6.505  14.279  1.00  0.00     0.037 A 
ATOM     45  C   UNL     1      -1.178  -1.861  16.841  1.00  0.00     0.049 A 
ATOM     46  C   UNL     1      -4.113  -6.436  15.514  1.00  0.00     0.074 A 
ATOM     47  C   UNL     1      -0.477  -1.894  18.034  1.00  0.00     0.029 A 
ATOM     48  N   UNL     1      -1.809  -3.090  16.714  1.00  0.00    -0.354 N 
ATOM     49  N   UNL     1      -3.389  -5.440  15.963  1.00  0.00    -0.248 NA
ATOM     50  C   UNL     1      -4.070  -7.640  16.356  1.00  0.00     0.031 C 
ATOM     51  C   UNL     1      -0.653  -3.157  18.611  1.00  0.00     0.029 A 
ATOM     52  C   UNL     1      -1.496  -3.896  17.797  1.00  0.00     0.049 A 
ATOM     53  H   UNL     1      -2.392  -3.351  15.965  1.00  0.00     0.167 HD
ATOM     54  C   UNL     1      -2.823  -5.887  17.149  1.00  0.00     0.074 A 
ATOM     55  C   UNL     1      -3.301  -7.239  17.359  1.00  0.00     0.031 C 
ATOM     56  C   UNL     1      -1.981  -5.238  17.990  1.00  0.00     0.037 A 
BRANCH  43  57
ATOM     57  C   UNL     1      -0.471   0.455  16.130  1.00  0.00     0.057 A 
ATOM     58  C   UNL     1      -1.080   1.658  16.513  1.00  0.00     0.134 A 
ATOM     59  C   UNL     1       0.924   0.446  16.014  1.00  0.00     0.134 A 
ATOM     60  F   UNL     1      -2.414   1.737  16.631  1.00  0.00    -0.206 F 
ATOM     61  C   UNL     1      -0.332   2.813  16.746  1.00  0.00     0.040 A 
ATOM     62  C   UNL     1       1.685   1.588  16.269  1.00  0.00     0.040 A 
ATOM     63  F   UNL     1       1.571  -0.674  15.657  1.00  0.00    -0.206 F 
ATOM     64  C   UNL     1       1.056   2.778  16.630  1.00  0.00     0.006 A 
ENDBRANCH  43  57
BRANCH  44  65
ATOM     65  C   UNL     1      -5.732  -7.735  13.955  1.00  0.00     0.057 A 
ATOM     66  C   UNL     1      -6.839  -8.117  14.722  1.00  0.00     0.134 A 
ATOM     67  C   UNL     1      -5.375  -8.557  12.880  1.00  0.00     0.134 A 
ATOM     68  F   UNL     1      -7.217  -7.379  15.776  1.00  0.00    -0.206 F 
ATOM     69  C   UNL     1      -7.553  -9.283  14.443  1.00  0.00     0.040 A 
ATOM     70  C   UNL     1      -6.094  -9.713  12.576  1.00  0.00     0.040 A 
ATOM     71  F   UNL     1      -4.328  -8.240  12.104  1.00  0.00    -0.206 F 
ATOM     72  C   UNL     1      -7.183 -10.083  13.363  1.00  0.00     0.006 A 
ENDBRANCH  44  65
BRANCH  56  73
ATOM     73  C   UNL     1      -1.542  -5.974  19.220  1.00  0.00     0.057 A 
ATOM     74  C   UNL     1      -0.617  -7.024  19.160  1.00  0.00     0.134 A 
ATOM     75  C   UNL     1      -2.027  -5.610  20.482  1.00  0.00     0.134 A 
ATOM     76  F   UNL     1      -0.125  -7.429  17.979  1.00  0.00    -0.206 F 
ATOM     77  C   UNL     1      -0.206  -7.700  20.309  1.00  0.00     0.040 A 
ATOM     78  C   UNL     1      -1.606  -6.262  21.642  1.00  0.00     0.040 A 
ATOM     79  F   UNL     1      -2.910  -4.608  20.610  1.00  0.00    -0.206 F 
ATOM     80  C   UNL     1      -0.697  -7.315  21.556  1.00  0.00     0.006 A 
ENDBRANCH  56  73
ENDBRANCH  30  31
ENDBRANCH  22  25
ENDBRANCH  20  21
ENDBRANCH  19  20
ENDBRANCH  18  19
ENDBRANCH   1  18
TORSDOF 15
