REMARK SMILES O=C(NCCCCCCNC(=O)c1cc(-c2ccccn2)nc2ccc(F)cc12)c1ccc(-c2c3nc(c(-c4c(F)cccc4F)c4ccc([nH]4)c(-c4c(F)cccc4F)c4nc(c(-c5c(F)cccc5F)c5ccc2[nH]5)C=C4)C=C3)cc1
REMARK SMILES IDX 6 1 5 2 4 3 3 4 1 5 2 6 30 8 31 9 83 10 32 11 82 12 33 13
REMARK SMILES IDX 34 14 35 15 76 16 36 17 81 18 75 19 77 20 37 21 80 22 74 23
REMARK SMILES IDX 73 24 38 26 64 27 47 28 63 29 48 30 51 31 62 32 78 33 49 34
REMARK SMILES IDX 50 35 61 37 79 38 52 39 39 40 40 41 45 42 41 43 42 44 44 45
REMARK SMILES IDX 46 46 43 47 65 48 66 49 71 50 67 51 68 52 70 53 72 54 69 55
REMARK SMILES IDX 53 56 54 57 59 58 55 59 56 60 58 61 60 62 57 63 7 64 8 65
REMARK SMILES IDX 9 66 10 67 11 68 12 70 13 71 14 72 29 73 15 74 23 75 28 76
REMARK SMILES IDX 22 77 24 78 26 79 25 80 27 81 16 82 17 83 21 84 18 85 20 86
REMARK SMILES IDX 19 87
REMARK H PARENT 3 7 77 25 51 36 10 69
REMARK Flexibility Score: inf
ROOT
ATOM      1  C   UNL     1       4.295  -3.276  -2.291  1.00  0.00     0.002 C 
ENDROOT
BRANCH   1   2
ATOM      2  C   UNL     1       4.788  -2.630  -0.995  1.00  0.00     0.021 C 
BRANCH   2   3
ATOM      3  C   UNL     1       4.575  -1.125  -0.886  1.00  0.00     0.116 C 
BRANCH   3   4
ATOM      4  N   UNL     1       3.175  -0.751  -0.942  1.00  0.00    -0.352 N 
ATOM      5  O   UNL     1       1.217   0.106  -0.253  1.00  0.00    -0.269 OA
ATOM      6  C   UNL     1       2.434   0.032  -0.095  1.00  0.00     0.251 C 
ATOM      7  H   UNL     1       2.678  -1.117  -1.709  1.00  0.00     0.163 HD
BRANCH   6   8
ATOM      8  C   UNL     1       3.070   0.782   1.014  1.00  0.00     0.039 A 
ATOM      9  C   UNL     1       2.370   0.900   2.220  1.00  0.00     0.014 A 
ATOM     10  C   UNL     1       4.298   1.433   0.862  1.00  0.00     0.014 A 
ATOM     11  C   UNL     1       2.899   1.660   3.265  1.00  0.00     0.010 A 
ATOM     12  C   UNL     1       4.864   2.124   1.933  1.00  0.00     0.010 A 
ATOM     13  C   UNL     1       4.151   2.280   3.130  1.00  0.00    -0.014 A 
BRANCH  13  14
ATOM     14  C   UNL     1       4.664   3.186   4.190  1.00  0.00     0.031 A 
ATOM     15  C   UNL     1       4.790   4.661   3.911  1.00  0.00     0.074 A 
ATOM     16  C   UNL     1       5.009   2.698   5.396  1.00  0.00     0.049 A 
ATOM     17  N   UNL     1       5.217   5.621   4.692  1.00  0.00    -0.248 NA
ATOM     18  C   UNL     1       4.409   5.114   2.563  1.00  0.00     0.031 C 
ATOM     19  C   UNL     1       4.970   1.288   5.785  1.00  0.00     0.029 A 
ATOM     20  N   UNL     1       5.456   3.343   6.522  1.00  0.00    -0.354 N 
ATOM     21  C   UNL     1       5.160   6.782   3.930  1.00  0.00     0.074 A 
ATOM     22  C   UNL     1       4.727   6.397   2.605  1.00  0.00     0.031 C 
ATOM     23  C   UNL     1       5.349   1.178   7.070  1.00  0.00     0.029 A 
ATOM     24  C   UNL     1       5.675   2.504   7.587  1.00  0.00     0.049 A 
ATOM     25  H   UNL     1       5.607   4.315   6.562  1.00  0.00     0.167 HD
ATOM     26  C   UNL     1       5.409   8.060   4.303  1.00  0.00     0.037 A 
ATOM     27  C   UNL     1       6.080   2.779   8.840  1.00  0.00     0.037 A 
ATOM     28  C   UNL     1       5.816   8.454   5.625  1.00  0.00     0.049 A 
ATOM     29  C   UNL     1       6.335   4.208   9.236  1.00  0.00     0.074 A 
ATOM     30  C   UNL     1       6.084   9.723   6.108  1.00  0.00     0.029 A 
ATOM     31  N   UNL     1       6.000   7.576   6.681  1.00  0.00    -0.354 N 
ATOM     32  N   UNL     1       6.245   5.297   8.512  1.00  0.00    -0.248 NA
ATOM     33  C   UNL     1       6.734   4.444  10.631  1.00  0.00     0.031 C 
ATOM     34  C   UNL     1       6.448   9.610   7.455  1.00  0.00     0.029 A 
ATOM     35  C   UNL     1       6.375   8.274   7.817  1.00  0.00     0.049 A 
ATOM     36  H   UNL     1       5.882   6.599   6.632  1.00  0.00     0.167 HD
ATOM     37  C   UNL     1       6.552   6.348   9.368  1.00  0.00     0.074 A 
ATOM     38  C   UNL     1       6.808   5.766  10.669  1.00  0.00     0.031 C 
ATOM     39  C   UNL     1       6.620   7.676   9.103  1.00  0.00     0.037 A 
BRANCH  26  40
ATOM     40  C   UNL     1       5.223   9.120   3.256  1.00  0.00     0.057 A 
ATOM     41  C   UNL     1       6.322   9.778   2.692  1.00  0.00     0.134 A 
ATOM     42  C   UNL     1       3.948   9.478   2.797  1.00  0.00     0.134 A 
ATOM     43  F   UNL     1       7.569   9.485   3.088  1.00  0.00    -0.206 F 
ATOM     44  C   UNL     1       6.159  10.748   1.701  1.00  0.00     0.040 A 
ATOM     45  C   UNL     1       3.775  10.427   1.788  1.00  0.00     0.040 A 
ATOM     46  F   UNL     1       2.855   8.870   3.283  1.00  0.00    -0.206 F 
ATOM     47  C   UNL     1       4.883  11.068   1.240  1.00  0.00     0.006 A 
ENDBRANCH  26  40
BRANCH  27  48
ATOM     48  C   UNL     1       6.237   1.687   9.833  1.00  0.00     0.057 A 
ATOM     49  C   UNL     1       7.301   0.783   9.760  1.00  0.00     0.134 A 
ATOM     50  C   UNL     1       5.341   1.549  10.900  1.00  0.00     0.134 A 
ATOM     51  F   UNL     1       8.189   0.860   8.758  1.00  0.00    -0.206 F 
ATOM     52  C   UNL     1       7.474  -0.218  10.718  1.00  0.00     0.040 A 
ATOM     53  C   UNL     1       5.515   0.567  11.877  1.00  0.00     0.040 A 
ATOM     54  F   UNL     1       4.313   2.400  11.033  1.00  0.00    -0.206 F 
ATOM     55  C   UNL     1       6.584  -0.321  11.786  1.00  0.00     0.006 A 
ENDBRANCH  27  48
BRANCH  39  56
ATOM     56  C   UNL     1       6.956   8.578  10.252  1.00  0.00     0.057 A 
ATOM     57  C   UNL     1       5.974   9.393  10.829  1.00  0.00     0.134 A 
ATOM     58  C   UNL     1       8.248   8.640  10.788  1.00  0.00     0.134 A 
ATOM     59  F   UNL     1       4.718   9.386  10.357  1.00  0.00    -0.206 F 
ATOM     60  C   UNL     1       6.265  10.232  11.905  1.00  0.00     0.040 A 
ATOM     61  C   UNL     1       8.545   9.456  11.880  1.00  0.00     0.040 A 
ATOM     62  F   UNL     1       9.229   7.872  10.289  1.00  0.00    -0.206 F 
ATOM     63  C   UNL     1       7.551  10.258  12.440  1.00  0.00     0.006 A 
ENDBRANCH  39  56
ENDBRANCH  13  14
ENDBRANCH   6   8
ENDBRANCH   3   4
ENDBRANCH   2   3
ENDBRANCH   1   2
BRANCH   1  64
ATOM     64  C   UNL     1       4.806  -2.651  -3.591  1.00  0.00     0.002 C 
BRANCH  64  65
ATOM     65  C   UNL     1       6.325  -2.501  -3.716  1.00  0.00     0.021 C 
BRANCH  65  66
ATOM     66  C   UNL     1       7.136  -3.772  -3.485  1.00  0.00     0.116 C 
BRANCH  66  67
ATOM     67  N   UNL     1       6.796  -4.833  -4.420  1.00  0.00    -0.352 N 
ATOM     68  C   UNL     1       7.627  -5.639  -5.154  1.00  0.00     0.252 C 
ATOM     69  H   UNL     1       5.833  -4.995  -4.543  1.00  0.00     0.163 HD
ATOM     70  O   UNL     1       7.160  -6.463  -5.940  1.00  0.00    -0.269 OA
BRANCH  68  71
ATOM     71  C   UNL     1       9.088  -5.532  -4.981  1.00  0.00     0.051 A 
ATOM     72  C   UNL     1       9.594  -5.727  -3.697  1.00  0.00     0.045 A 
ATOM     73  C   UNL     1       9.946  -5.249  -6.063  1.00  0.00     0.016 A 
ATOM     74  C   UNL     1      10.949  -5.551  -3.487  1.00  0.00     0.090 A 
ATOM     75  C   UNL     1      11.316  -5.129  -5.753  1.00  0.00     0.072 A 
ATOM     76  C   UNL     1       9.521  -5.070  -7.403  1.00  0.00     0.050 A 
ATOM     77  N   UNL     1      11.798  -5.263  -4.505  1.00  0.00    -0.246 NA
ATOM     78  C   UNL     1      12.211  -4.850  -6.781  1.00  0.00     0.032 A 
ATOM     79  C   UNL     1      10.445  -4.795  -8.402  1.00  0.00     0.123 A 
ATOM     80  C   UNL     1      11.791  -4.685  -8.103  1.00  0.00     0.041 A 
ATOM     81  F   UNL     1      10.030  -4.636  -9.664  1.00  0.00    -0.207 F 
BRANCH  74  82
ATOM     82  C   UNL     1      11.505  -5.610  -2.125  1.00  0.00     0.089 A 
ATOM     83  C   UNL     1      11.308  -6.720  -1.301  1.00  0.00     0.030 A 
ATOM     84  N   UNL     1      12.113  -4.481  -1.673  1.00  0.00    -0.255 NA
ATOM     85  C   UNL     1      11.744  -6.672   0.021  1.00  0.00     0.004 A 
ATOM     86  C   UNL     1      12.540  -4.468  -0.392  1.00  0.00     0.112 A 
ATOM     87  C   UNL     1      12.371  -5.524   0.487  1.00  0.00     0.020 A 
ENDBRANCH  74  82
ENDBRANCH  68  71
ENDBRANCH  66  67
ENDBRANCH  65  66
ENDBRANCH  64  65
ENDBRANCH   1  64
TORSDOF 14
