REMARK SMILES Cc1nn(C)cc1C[NH+]1CCN(C(=O)Cn2ccc(C(=O)NCCCCCCNC(=O)c3ccc(-c4c5nc(c(-c6c(F)cccc6F)c6ccc([nH]6)c(-c6c(F)cccc6F)c6nc(c(-c7c(F)cccc7F)c7ccc4[nH]7)C=C6)C=C5)cc3)n2)CC1
REMARK SMILES IDX 24 1 23 2 22 3 20 4 21 5 19 7 16 8 17 9 86 10 18 11 15 12
REMARK SMILES IDX 13 13 9 14 10 15 88 16 11 18 87 19 12 20 14 21 8 22 7 23
REMARK SMILES IDX 1 24 2 25 3 26 4 27 6 28 5 29 25 30 26 31 27 32 28 33 29 34
REMARK SMILES IDX 30 35 31 37 32 38 33 39 85 40 34 41 84 42 35 43 36 44 37 45
REMARK SMILES IDX 78 46 38 47 83 48 77 49 79 50 39 51 82 52 76 53 75 54 40 56
REMARK SMILES IDX 66 57 49 58 65 59 50 60 53 61 64 62 80 63 51 64 52 65 63 67
REMARK SMILES IDX 81 68 54 69 41 70 42 71 47 72 43 73 44 74 46 75 48 76 45 77
REMARK SMILES IDX 67 78 68 79 73 80 69 81 70 82 72 83 74 84 71 85 55 86 56 87
REMARK SMILES IDX 61 88 57 89 58 90 60 91 62 92 59 93
REMARK H PARENT 22 6 9 17 29 36 79 55 53 66
REMARK Flexibility Score: inf
ROOT
ATOM      1  C   UNL     1       7.553   3.950  -2.119  1.00  0.00     0.021 C 
ENDROOT
BRANCH   1   2
ATOM      2  C   UNL     1       7.244   3.114  -3.361  1.00  0.00     0.116 C 
BRANCH   2   3
ATOM      3  N   UNL     1       7.772   1.776  -3.220  1.00  0.00    -0.351 N 
ATOM      4  C   UNL     1       7.187   0.536  -3.142  1.00  0.00     0.271 C 
ATOM      5  O   UNL     1       7.975  -0.411  -3.046  1.00  0.00    -0.267 OA
ATOM      6  H   UNL     1       8.755   1.748  -3.169  1.00  0.00     0.163 HD
BRANCH   4   7
ATOM      7  C   UNL     1       5.721   0.336  -3.194  1.00  0.00     0.150 A 
ATOM      8  N   UNL     1       3.902  -0.764  -3.513  1.00  0.00    -0.263 N 
ATOM      9  C   UNL     1       3.489   0.495  -3.206  1.00  0.00     0.110 A 
ATOM     10  N   UNL     1       5.239  -0.895  -3.470  1.00  0.00    -0.167 NA
ATOM     11  C   UNL     1       4.632   1.220  -2.963  1.00  0.00     0.056 A 
BRANCH   8  12
ATOM     12  C   UNL     1       3.110  -1.968  -3.746  1.00  0.00     0.244 C 
BRANCH  12  13
ATOM     13  C   UNL     1       1.630  -1.685  -3.911  1.00  0.00     0.244 C 
ATOM     14  N   UNL     1      -1.313  -3.119  -1.029  1.00  0.00    -0.328 N 
ATOM     15  C   UNL     1      -1.683  -2.401  -2.251  1.00  0.00     0.284 C 
ATOM     16  C   UNL     1      -0.045  -3.829  -1.193  1.00  0.00     0.284 C 
ATOM     17  H   UNL     1      -2.022  -3.843  -0.910  1.00  0.00     0.348 HD
ATOM     18  C   UNL     1      -0.578  -1.543  -2.889  1.00  0.00     0.181 C 
ATOM     19  C   UNL     1       1.116  -3.058  -1.853  1.00  0.00     0.181 C 
ATOM     20  N   UNL     1       0.734  -2.192  -2.971  1.00  0.00    -0.330 N 
ATOM     21  O   UNL     1       1.241  -0.972  -4.842  1.00  0.00    -0.273 OA
BRANCH  14  22
ATOM     22  C   UNL     1      -1.523  -2.422   0.243  1.00  0.00     0.302 C 
BRANCH  22  23
ATOM     23  C   UNL     1      -0.734  -1.167   0.390  1.00  0.00     0.047 A 
ATOM     24  C   UNL     1      -2.528   0.707  -0.050  1.00  0.00     0.069 C 
ATOM     25  C   UNL     1      -1.167   0.183   0.229  1.00  0.00     0.068 A 
ATOM     26  N   UNL     1      -0.142   1.043   0.307  1.00  0.00    -0.178 NA
ATOM     27  N   UNL     1       0.923   0.259   0.529  1.00  0.00    -0.275 N 
ATOM     28  C   UNL     1       0.595  -1.043   0.749  1.00  0.00     0.118 A 
ATOM     29  C   UNL     1       2.253   0.799   0.389  1.00  0.00     0.173 C 
ENDBRANCH  22  23
ENDBRANCH  14  22
ENDBRANCH  12  13
ENDBRANCH   8  12
ENDBRANCH   4   7
ENDBRANCH   2   3
ENDBRANCH   1   2
BRANCH   1  30
ATOM     30  C   UNL     1       9.006   4.440  -2.050  1.00  0.00     0.002 C 
BRANCH  30  31
ATOM     31  C   UNL     1       9.505   5.222  -3.276  1.00  0.00     0.002 C 
BRANCH  31  32
ATOM     32  C   UNL     1       8.607   6.369  -3.764  1.00  0.00     0.021 C 
BRANCH  32  33
ATOM     33  C   UNL     1       8.510   7.528  -2.785  1.00  0.00     0.116 C 
BRANCH  33  34
ATOM     34  N   UNL     1       9.787   8.220  -2.622  1.00  0.00    -0.352 N 
ATOM     35  C   UNL     1      10.112   9.242  -1.750  1.00  0.00     0.251 C 
ATOM     36  H   UNL     1      10.514   7.917  -3.213  1.00  0.00     0.163 HD
ATOM     37  O   UNL     1      11.072   9.964  -1.952  1.00  0.00    -0.269 OA
BRANCH  35  38
ATOM     38  C   UNL     1       9.269   9.438  -0.559  1.00  0.00     0.039 A 
ATOM     39  C   UNL     1       8.916  10.717  -0.120  1.00  0.00     0.014 A 
ATOM     40  C   UNL     1       8.812   8.304   0.103  1.00  0.00     0.014 A 
ATOM     41  C   UNL     1       8.031  10.839   0.948  1.00  0.00     0.010 A 
ATOM     42  C   UNL     1       7.816   8.421   1.035  1.00  0.00     0.010 A 
ATOM     43  C   UNL     1       7.471   9.681   1.509  1.00  0.00    -0.014 A 
BRANCH  43  44
ATOM     44  C   UNL     1       6.436   9.762   2.534  1.00  0.00     0.031 A 
ATOM     45  C   UNL     1       5.234  10.548   2.142  1.00  0.00     0.074 A 
ATOM     46  C   UNL     1       6.457   8.985   3.639  1.00  0.00     0.049 A 
ATOM     47  N   UNL     1       4.799  11.646   2.666  1.00  0.00    -0.248 NA
ATOM     48  C   UNL     1       4.491  10.130   0.940  1.00  0.00     0.031 C 
ATOM     49  C   UNL     1       7.416   7.929   3.991  1.00  0.00     0.029 A 
ATOM     50  N   UNL     1       5.542   8.894   4.641  1.00  0.00    -0.354 N 
ATOM     51  C   UNL     1       3.612  11.946   2.001  1.00  0.00     0.074 A 
ATOM     52  C   UNL     1       3.575  11.095   0.841  1.00  0.00     0.031 C 
ATOM     53  C   UNL     1       6.904   7.157   4.974  1.00  0.00     0.029 A 
ATOM     54  C   UNL     1       5.676   7.767   5.445  1.00  0.00     0.049 A 
ATOM     55  H   UNL     1       4.842   9.571   4.786  1.00  0.00     0.167 HD
ATOM     56  C   UNL     1       2.640  12.688   2.601  1.00  0.00     0.037 A 
ATOM     57  C   UNL     1       4.825   7.355   6.415  1.00  0.00     0.037 A 
ATOM     58  C   UNL     1       3.161  13.386   3.751  1.00  0.00     0.049 A 
ATOM     59  C   UNL     1       3.982   8.517   6.784  1.00  0.00     0.074 A 
ATOM     60  C   UNL     1       4.158  14.319   3.958  1.00  0.00     0.029 A 
ATOM     61  N   UNL     1       2.881  12.861   4.988  1.00  0.00    -0.354 N 
ATOM     62  N   UNL     1       4.433   9.574   7.397  1.00  0.00    -0.248 NA
ATOM     63  C   UNL     1       2.729   8.696   6.067  1.00  0.00     0.031 C 
ATOM     64  C   UNL     1       4.752  13.953   5.202  1.00  0.00     0.029 A 
ATOM     65  C   UNL     1       4.041  12.868   5.716  1.00  0.00     0.049 A 
ATOM     66  H   UNL     1       2.003  12.537   5.296  1.00  0.00     0.167 HD
ATOM     67  C   UNL     1       3.783  10.636   6.787  1.00  0.00     0.074 A 
ATOM     68  C   UNL     1       2.674  10.030   6.053  1.00  0.00     0.031 C 
ATOM     69  C   UNL     1       4.378  11.862   6.696  1.00  0.00     0.037 A 
BRANCH  56  70
ATOM     70  C   UNL     1       1.154  12.476   2.411  1.00  0.00     0.057 A 
ATOM     71  C   UNL     1       0.254  13.368   3.025  1.00  0.00     0.134 A 
ATOM     72  C   UNL     1       0.571  11.287   1.925  1.00  0.00     0.134 A 
ATOM     73  F   UNL     1       0.680  14.535   3.533  1.00  0.00    -0.206 F 
ATOM     74  C   UNL     1      -1.097  13.058   3.226  1.00  0.00     0.040 A 
ATOM     75  C   UNL     1      -0.787  10.991   2.075  1.00  0.00     0.040 A 
ATOM     76  F   UNL     1       1.290  10.303   1.375  1.00  0.00    -0.206 F 
ATOM     77  C   UNL     1      -1.619  11.860   2.760  1.00  0.00     0.006 A 
ENDBRANCH  56  70
BRANCH  57  78
ATOM     78  C   UNL     1       4.504   5.981   6.861  1.00  0.00     0.057 A 
ATOM     79  C   UNL     1       3.872   5.749   8.090  1.00  0.00     0.134 A 
ATOM     80  C   UNL     1       4.544   4.895   5.970  1.00  0.00     0.134 A 
ATOM     81  F   UNL     1       3.755   6.735   8.992  1.00  0.00    -0.206 F 
ATOM     82  C   UNL     1       3.280   4.518   8.403  1.00  0.00     0.040 A 
ATOM     83  C   UNL     1       3.961   3.659   6.272  1.00  0.00     0.040 A 
ATOM     84  F   UNL     1       5.067   5.025   4.742  1.00  0.00    -0.206 F 
ATOM     85  C   UNL     1       3.311   3.473   7.486  1.00  0.00     0.006 A 
ENDBRANCH  57  78
BRANCH  69  86
ATOM     86  C   UNL     1       5.620  12.099   7.514  1.00  0.00     0.057 A 
ATOM     87  C   UNL     1       6.827  11.403   7.346  1.00  0.00     0.134 A 
ATOM     88  C   UNL     1       5.630  13.167   8.417  1.00  0.00     0.134 A 
ATOM     89  F   UNL     1       6.949  10.430   6.436  1.00  0.00    -0.206 F 
ATOM     90  C   UNL     1       7.975  11.726   8.078  1.00  0.00     0.040 A 
ATOM     91  C   UNL     1       6.778  13.523   9.128  1.00  0.00     0.040 A 
ATOM     92  F   UNL     1       4.528  13.915   8.591  1.00  0.00    -0.206 F 
ATOM     93  C   UNL     1       7.953  12.794   8.969  1.00  0.00     0.006 A 
ENDBRANCH  69  86
ENDBRANCH  43  44
ENDBRANCH  35  38
ENDBRANCH  33  34
ENDBRANCH  32  33
ENDBRANCH  31  32
ENDBRANCH  30  31
ENDBRANCH   1  30
TORSDOF 17
