REMARK SMILES CC[C@H](C(=O)NCCCCCCNC(=O)c1ccc(-c2c3nc(c(-c4c(F)cccc4F)c4ccc([nH]4)c(-c4c(F)cccc4F)c4nc(c(-c5c(F)cccc5F)c5ccc2[nH]5)C=C4)C=C3)cc1)[N@H+](C)Cc1cncn1C(C)C
REMARK SMILES IDX 8 1 7 2 6 3 4 4 5 5 3 7 2 8 1 9 70 10 71 11 72 13 73 14
REMARK SMILES IDX 74 15 77 16 75 17 76 18 78 19 79 20 80 21 9 22 10 23 11 24
REMARK SMILES IDX 12 25 13 26 14 27 15 29 16 30 17 31 69 32 18 33 68 34 19 35
REMARK SMILES IDX 20 36 21 37 62 38 22 39 67 40 61 41 63 42 23 43 66 44 60 45
REMARK SMILES IDX 59 46 24 48 50 49 33 50 49 51 34 52 37 53 48 54 64 55 35 56
REMARK SMILES IDX 36 57 47 59 65 60 38 61 25 62 26 63 31 64 27 65 28 66 30 67
REMARK SMILES IDX 32 68 29 69 51 70 52 71 57 72 53 73 54 74 56 75 58 76 55 77
REMARK SMILES IDX 39 78 40 79 45 80 41 81 42 82 44 83 46 84 43 85
REMARK H PARENT 6 6 70 12 13 28 63 47 37 58
REMARK Flexibility Score: inf
ROOT
ATOM      1  C   UNL     1       2.534   0.218  -1.983  1.00  0.00     0.021 C 
ENDROOT
BRANCH   1   2
ATOM      2  C   UNL     1       1.727   0.667  -0.778  1.00  0.00     0.116 C 
BRANCH   2   3
ATOM      3  N   UNL     1       1.013  -0.372  -0.069  1.00  0.00    -0.351 N 
ATOM      4  C   UNL     1       0.472  -0.290   1.199  1.00  0.00     0.278 C 
ATOM      5  O   UNL     1      -0.194  -1.248   1.595  1.00  0.00    -0.268 OA
ATOM      6  H   UNL     1       0.901  -1.229  -0.541  1.00  0.00     0.163 HD
BRANCH   4   7
ATOM      7  C   UNL     1       0.790   0.969   2.062  1.00  0.00     0.273 C 
BRANCH   7   8
ATOM      8  C   UNL     1       0.395   2.322   1.429  1.00  0.00     0.072 C 
ATOM      9  C   UNL     1      -0.857   2.376   0.564  1.00  0.00     0.011 C 
ENDBRANCH   7   8
BRANCH   7  10
ATOM     10  N   UNL     1       0.370   0.860   3.472  1.00  0.00    -0.322 N 
ATOM     11  C   UNL     1       1.398   0.597   4.453  1.00  0.00     0.333 C 
ATOM     12  H   UNL     1       0.141   1.852   3.414  1.00  0.00     0.348 HD
BRANCH  10  13
ATOM     13  C   UNL     1      -1.013   0.762   3.888  1.00  0.00     0.319 C 
BRANCH  13  14
ATOM     14  C   UNL     1      -1.747   2.054   3.751  1.00  0.00     0.093 A 
ATOM     15  C   UNL     1      -2.941   2.292   3.094  1.00  0.00     0.140 A 
ATOM     16  N   UNL     1      -1.373   3.295   4.233  1.00  0.00    -0.327 N 
ATOM     17  N   UNL     1      -3.227   3.627   3.046  1.00  0.00    -0.245 NA
ATOM     18  C   UNL     1      -2.250   4.207   3.700  1.00  0.00     0.200 A 
BRANCH  16  19
ATOM     19  C   UNL     1      -0.296   3.632   5.162  1.00  0.00     0.082 C 
ATOM     20  C   UNL     1       0.885   4.352   4.501  1.00  0.00     0.031 C 
ATOM     21  C   UNL     1      -0.813   4.478   6.331  1.00  0.00     0.031 C 
ENDBRANCH  16  19
ENDBRANCH  13  14
ENDBRANCH  10  13
ENDBRANCH   7  10
ENDBRANCH   4   7
ENDBRANCH   2   3
ENDBRANCH   1   2
BRANCH   1  22
ATOM     22  C   UNL     1       1.734  -0.409  -3.124  1.00  0.00     0.002 C 
BRANCH  22  23
ATOM     23  C   UNL     1       0.509   0.365  -3.623  1.00  0.00     0.002 C 
BRANCH  23  24
ATOM     24  C   UNL     1       0.732   1.820  -4.044  1.00  0.00     0.021 C 
BRANCH  24  25
ATOM     25  C   UNL     1       1.894   2.073  -4.998  1.00  0.00     0.116 C 
BRANCH  25  26
ATOM     26  N   UNL     1       1.830   1.262  -6.202  1.00  0.00    -0.352 N 
ATOM     27  C   UNL     1       1.980   1.629  -7.514  1.00  0.00     0.251 C 
ATOM     28  H   UNL     1       1.653   0.305  -6.053  1.00  0.00     0.163 HD
ATOM     29  O   UNL     1       1.773   0.812  -8.410  1.00  0.00    -0.269 OA
BRANCH  27  30
ATOM     30  C   UNL     1       2.354   3.015  -7.858  1.00  0.00     0.039 A 
ATOM     31  C   UNL     1       1.638   3.669  -8.864  1.00  0.00     0.014 A 
ATOM     32  C   UNL     1       3.392   3.674  -7.192  1.00  0.00     0.014 A 
ATOM     33  C   UNL     1       1.911   5.008  -9.149  1.00  0.00     0.010 A 
ATOM     34  C   UNL     1       3.616   5.028  -7.429  1.00  0.00     0.010 A 
ATOM     35  C   UNL     1       2.869   5.711  -8.401  1.00  0.00    -0.014 A 
BRANCH  35  36
ATOM     36  C   UNL     1       3.065   7.170  -8.595  1.00  0.00     0.031 A 
ATOM     37  C   UNL     1       4.375   7.708  -9.095  1.00  0.00     0.074 A 
ATOM     38  C   UNL     1       2.071   8.016  -8.255  1.00  0.00     0.049 A 
ATOM     39  N   UNL     1       4.743   8.952  -9.270  1.00  0.00    -0.248 NA
ATOM     40  C   UNL     1       5.417   6.722  -9.423  1.00  0.00     0.031 C 
ATOM     41  C   UNL     1       0.770   7.618  -7.713  1.00  0.00     0.029 A 
ATOM     42  N   UNL     1       2.003   9.386  -8.304  1.00  0.00    -0.354 N 
ATOM     43  C   UNL     1       6.056   8.899  -9.719  1.00  0.00     0.074 A 
ATOM     44  C   UNL     1       6.438   7.503  -9.744  1.00  0.00     0.031 C 
ATOM     45  C   UNL     1       0.028   8.715  -7.498  1.00  0.00     0.029 A 
ATOM     46  C   UNL     1       0.813   9.895  -7.843  1.00  0.00     0.049 A 
ATOM     47  H   UNL     1       2.738   9.951  -8.637  1.00  0.00     0.167 HD
ATOM     48  C   UNL     1       6.862   9.921 -10.094  1.00  0.00     0.037 A 
ATOM     49  C   UNL     1       0.404  11.170  -7.699  1.00  0.00     0.037 A 
ATOM     50  C   UNL     1       6.471  11.307 -10.081  1.00  0.00     0.049 A 
ATOM     51  C   UNL     1       1.330  12.285  -8.100  1.00  0.00     0.074 A 
ATOM     52  C   UNL     1       7.194  12.409 -10.505  1.00  0.00     0.029 A 
ATOM     53  N   UNL     1       5.256  11.783  -9.612  1.00  0.00    -0.354 N 
ATOM     54  N   UNL     1       2.540  12.215  -8.599  1.00  0.00    -0.248 NA
ATOM     55  C   UNL     1       0.833  13.656  -7.920  1.00  0.00     0.031 C 
ATOM     56  C   UNL     1       6.442  13.556 -10.236  1.00  0.00     0.029 A 
ATOM     57  C   UNL     1       5.225  13.166  -9.701  1.00  0.00     0.049 A 
ATOM     58  H   UNL     1       4.525  11.222  -9.266  1.00  0.00     0.167 HD
ATOM     59  C   UNL     1       2.939  13.528  -8.814  1.00  0.00     0.074 A 
ATOM     60  C   UNL     1       1.833  14.372  -8.413  1.00  0.00     0.031 C 
ATOM     61  C   UNL     1       4.117  13.993  -9.297  1.00  0.00     0.037 A 
BRANCH  48  62
ATOM     62  C   UNL     1       8.253   9.584 -10.551  1.00  0.00     0.057 A 
ATOM     63  C   UNL     1       8.496   8.936 -11.769  1.00  0.00     0.134 A 
ATOM     64  C   UNL     1       9.366   9.968  -9.791  1.00  0.00     0.134 A 
ATOM     65  F   UNL     1       7.475   8.533 -12.540  1.00  0.00    -0.206 F 
ATOM     66  C   UNL     1       9.794   8.665 -12.206  1.00  0.00     0.040 A 
ATOM     67  C   UNL     1      10.669   9.728 -10.232  1.00  0.00     0.040 A 
ATOM     68  F   UNL     1       9.206  10.598  -8.618  1.00  0.00    -0.206 F 
ATOM     69  C   UNL     1      10.885   9.071 -11.441  1.00  0.00     0.006 A 
ENDBRANCH  48  62
BRANCH  49  70
ATOM     70  C   UNL     1      -0.943  11.465  -7.145  1.00  0.00     0.057 A 
ATOM     71  C   UNL     1      -1.942  12.045  -7.937  1.00  0.00     0.134 A 
ATOM     72  C   UNL     1      -1.258  11.196  -5.807  1.00  0.00     0.134 A 
ATOM     73  F   UNL     1      -1.696  12.344  -9.221  1.00  0.00    -0.206 F 
ATOM     74  C   UNL     1      -3.194  12.370  -7.413  1.00  0.00     0.040 A 
ATOM     75  C   UNL     1      -2.516  11.488  -5.278  1.00  0.00     0.040 A 
ATOM     76  F   UNL     1      -0.348  10.634  -4.997  1.00  0.00    -0.206 F 
ATOM     77  C   UNL     1      -3.485  12.087  -6.080  1.00  0.00     0.006 A 
ENDBRANCH  49  70
BRANCH  61  78
ATOM     78  C   UNL     1       4.261  15.481  -9.440  1.00  0.00     0.057 A 
ATOM     79  C   UNL     1       4.379  16.323  -8.327  1.00  0.00     0.134 A 
ATOM     80  C   UNL     1       4.318  16.075 -10.708  1.00  0.00     0.134 A 
ATOM     81  F   UNL     1       4.319  15.821  -7.084  1.00  0.00    -0.206 F 
ATOM     82  C   UNL     1       4.524  17.704  -8.469  1.00  0.00     0.040 A 
ATOM     83  C   UNL     1       4.494  17.450 -10.863  1.00  0.00     0.040 A 
ATOM     84  F   UNL     1       4.221  15.325 -11.816  1.00  0.00    -0.206 F 
ATOM     85  C   UNL     1       4.590  18.270  -9.741  1.00  0.00     0.006 A 
ENDBRANCH  61  78
ENDBRANCH  35  36
ENDBRANCH  27  30
ENDBRANCH  25  26
ENDBRANCH  24  25
ENDBRANCH  23  24
ENDBRANCH  22  23
ENDBRANCH   1  22
TORSDOF 18
