REMARK SMILES CCOC(=O)c1c(NC(=O)[C@H]2CCCC[C@@H]2C(=O)NCCCCCCNC(=O)c2ccc(-c3c4nc(c(-c5c(F)cccc5F)c5ccc([nH]5)c(-c5c(F)cccc5F)c5nc(c(-c6c(F)cccc6F)c6ccc3[nH]6)C=C5)C=C4)cc2)sc2c1CC[C@H](C)C2
REMARK SMILES IDX 21 1 20 2 19 3 17 4 18 5 16 7 11 8 12 9 13 10 15 11 14 12
REMARK SMILES IDX 9 13 8 14 10 16 7 17 6 18 85 19 83 20 84 21 86 22 90 23
REMARK SMILES IDX 87 24 88 25 89 26 4 27 5 28 3 29 2 30 1 31 22 32 23 33 24 34
REMARK SMILES IDX 25 35 26 36 27 37 28 39 29 40 30 41 82 42 31 43 81 44 32 45
REMARK SMILES IDX 33 46 34 47 75 48 35 49 80 50 74 51 76 52 36 53 79 54 73 55
REMARK SMILES IDX 72 56 37 58 63 59 46 60 62 61 47 62 50 63 61 64 77 65 48 66
REMARK SMILES IDX 49 67 60 69 78 70 51 71 38 72 39 73 44 74 40 75 41 76 43 77
REMARK SMILES IDX 45 78 42 79 64 80 65 81 70 82 66 83 67 84 69 85 71 86 68 87
REMARK SMILES IDX 52 88 53 89 58 90 54 91 55 92 57 93 59 94 56 95
REMARK H PARENT 19 6 8 15 26 38 76 57 50 68
REMARK Flexibility Score: inf
ROOT
ATOM      1  C   UNL     1      -0.787   4.255  -4.907  1.00  0.00     0.021 C 
ENDROOT
BRANCH   1   2
ATOM      2  C   UNL     1      -0.463   2.775  -4.923  1.00  0.00     0.116 C 
BRANCH   2   3
ATOM      3  N   UNL     1       0.434   2.216  -5.923  1.00  0.00    -0.356 N 
ATOM      4  C   UNL     1       1.365   1.201  -5.863  1.00  0.00     0.223 C 
ATOM      5  O   UNL     1       1.681   0.710  -6.955  1.00  0.00    -0.275 OA
ATOM      6  H   UNL     1       0.363   2.642  -6.808  1.00  0.00     0.163 HD
BRANCH   4   7
ATOM      7  C   UNL     1       2.013   0.603  -4.559  1.00  0.00     0.091 C 
ATOM      8  C   UNL     1       1.113  -0.468  -3.889  1.00  0.00     0.091 C 
ATOM      9  C   UNL     1       0.023   0.315  -3.278  1.00  0.00     0.014 C 
ATOM     10  C   UNL     1       0.463   1.215  -2.139  1.00  0.00     0.001 C 
ATOM     11  C   UNL     1       2.545   1.692  -3.616  1.00  0.00     0.014 C 
ATOM     12  C   UNL     1       1.692   2.069  -2.406  1.00  0.00     0.001 C 
BRANCH   8  13
ATOM     13  C   UNL     1       1.684  -1.476  -2.863  1.00  0.00     0.228 C 
ATOM     14  N   UNL     1       0.966  -2.131  -1.862  1.00  0.00    -0.317 N 
ATOM     15  H   UNL     1       1.351  -3.003  -1.614  1.00  0.00     0.170 HD
ATOM     16  O   UNL     1       2.882  -1.786  -2.950  1.00  0.00    -0.274 OA
BRANCH  14  17
ATOM     17  C   UNL     1      -0.193  -1.810  -1.134  1.00  0.00     0.110 A 
ATOM     18  C   UNL     1      -1.526  -1.389  -1.302  1.00  0.00     0.098 A 
ATOM     19  C   UNL     1      -1.834  -0.464  -0.204  1.00  0.00    -0.017 A 
ATOM     20  S   UNL     1       0.186  -1.823   0.560  1.00  0.00    -0.122 S 
ATOM     21  C   UNL     1      -0.988  -0.635   0.870  1.00  0.00     0.011 A 
ATOM     22  C   UNL     1      -2.902   0.611  -0.205  1.00  0.00     0.038 C 
ATOM     23  C   UNL     1      -1.045   0.162   2.142  1.00  0.00     0.050 C 
ATOM     24  C   UNL     1      -2.813   1.557   1.005  1.00  0.00     0.008 C 
ATOM     25  C   UNL     1      -2.450   0.792   2.291  1.00  0.00    -0.009 C 
ATOM     26  C   UNL     1      -2.536   1.702   3.513  1.00  0.00     0.008 C 
BRANCH  18  27
ATOM     27  C   UNL     1      -2.400  -1.488  -2.501  1.00  0.00     0.341 C 
ATOM     28  O   UNL     1      -3.403  -0.768  -2.623  1.00  0.00    -0.246 OA
BRANCH  27  29
ATOM     29  O   UNL     1      -1.917  -2.275  -3.490  1.00  0.00    -0.462 OA
BRANCH  29  30
ATOM     30  C   UNL     1      -2.250  -2.056  -4.887  1.00  0.00     0.230 C 
ATOM     31  C   UNL     1      -3.395  -1.130  -5.280  1.00  0.00     0.049 C 
ENDBRANCH  29  30
ENDBRANCH  27  29
ENDBRANCH  18  27
ENDBRANCH  14  17
ENDBRANCH   8  13
ENDBRANCH   4   7
ENDBRANCH   2   3
ENDBRANCH   1   2
BRANCH   1  32
ATOM     32  C   UNL     1      -2.152   4.626  -5.491  1.00  0.00     0.002 C 
BRANCH  32  33
ATOM     33  C   UNL     1      -3.408   3.876  -4.990  1.00  0.00     0.002 C 
BRANCH  33  34
ATOM     34  C   UNL     1      -3.724   3.845  -3.486  1.00  0.00     0.021 C 
BRANCH  34  35
ATOM     35  C   UNL     1      -3.916   5.207  -2.840  1.00  0.00     0.116 C 
BRANCH  35  36
ATOM     36  N   UNL     1      -4.974   6.026  -3.455  1.00  0.00    -0.352 N 
ATOM     37  C   UNL     1      -5.322   7.350  -3.202  1.00  0.00     0.251 C 
ATOM     38  H   UNL     1      -5.512   5.573  -4.144  1.00  0.00     0.163 HD
ATOM     39  O   UNL     1      -6.403   7.806  -3.546  1.00  0.00    -0.269 OA
BRANCH  37  40
ATOM     40  C   UNL     1      -4.340   8.206  -2.515  1.00  0.00     0.039 A 
ATOM     41  C   UNL     1      -4.661   9.179  -1.564  1.00  0.00     0.014 A 
ATOM     42  C   UNL     1      -3.020   7.937  -2.818  1.00  0.00     0.014 A 
ATOM     43  C   UNL     1      -3.613   9.819  -0.899  1.00  0.00     0.010 A 
ATOM     44  C   UNL     1      -2.069   8.252  -1.908  1.00  0.00     0.010 A 
ATOM     45  C   UNL     1      -2.311   9.336  -1.090  1.00  0.00    -0.014 A 
BRANCH  45  46
ATOM     46  C   UNL     1      -1.124   9.898  -0.474  1.00  0.00     0.031 A 
ATOM     47  C   UNL     1      -1.127   9.884   1.004  1.00  0.00     0.074 A 
ATOM     48  C   UNL     1      -0.001  10.124  -1.196  1.00  0.00     0.049 A 
ATOM     49  N   UNL     1      -1.187  10.898   1.799  1.00  0.00    -0.248 NA
ATOM     50  C   UNL     1      -1.214   8.582   1.684  1.00  0.00     0.031 C 
ATOM     51  C   UNL     1       0.267   9.852  -2.621  1.00  0.00     0.029 A 
ATOM     52  N   UNL     1       1.209  10.553  -0.757  1.00  0.00    -0.354 N 
ATOM     53  C   UNL     1      -1.094  10.375   3.083  1.00  0.00     0.074 A 
ATOM     54  C   UNL     1      -1.319   8.958   2.960  1.00  0.00     0.031 C 
ATOM     55  C   UNL     1       1.596   9.895  -2.856  1.00  0.00     0.029 A 
ATOM     56  C   UNL     1       2.253  10.379  -1.660  1.00  0.00     0.049 A 
ATOM     57  H   UNL     1       1.339  10.956   0.132  1.00  0.00     0.167 HD
ATOM     58  C   UNL     1      -0.580  11.113   4.105  1.00  0.00     0.037 A 
ATOM     59  C   UNL     1       3.567  10.595  -1.408  1.00  0.00     0.037 A 
ATOM     60  C   UNL     1      -0.497  12.510   3.753  1.00  0.00     0.049 A 
ATOM     61  C   UNL     1       3.634  11.482  -0.217  1.00  0.00     0.074 A 
ATOM     62  C   UNL     1      -1.414  13.464   3.353  1.00  0.00     0.029 A 
ATOM     63  N   UNL     1       0.731  13.005   3.382  1.00  0.00    -0.354 N 
ATOM     64  N   UNL     1       3.208  12.717  -0.217  1.00  0.00    -0.248 NA
ATOM     65  C   UNL     1       3.692  10.842   1.090  1.00  0.00     0.031 C 
ATOM     66  C   UNL     1      -0.752  14.197   2.322  1.00  0.00     0.029 A 
ATOM     67  C   UNL     1       0.549  13.702   2.213  1.00  0.00     0.049 A 
ATOM     68  H   UNL     1       1.581  12.883   3.864  1.00  0.00     0.167 HD
ATOM     69  C   UNL     1       2.555  12.872   0.999  1.00  0.00     0.074 A 
ATOM     70  C   UNL     1       2.941  11.701   1.788  1.00  0.00     0.031 C 
ATOM     71  C   UNL     1       1.529  13.762   1.152  1.00  0.00     0.037 A 
BRANCH  58  72
ATOM     72  C   UNL     1       0.193  10.534   5.259  1.00  0.00     0.057 A 
ATOM     73  C   UNL     1       0.488  11.352   6.363  1.00  0.00     0.134 A 
ATOM     74  C   UNL     1       0.899   9.315   5.207  1.00  0.00     0.134 A 
ATOM     75  F   UNL     1      -0.109  12.544   6.513  1.00  0.00    -0.206 F 
ATOM     76  C   UNL     1       1.466  11.013   7.305  1.00  0.00     0.040 A 
ATOM     77  C   UNL     1       1.838   8.942   6.171  1.00  0.00     0.040 A 
ATOM     78  F   UNL     1       0.799   8.469   4.174  1.00  0.00    -0.206 F 
ATOM     79  C   UNL     1       2.150   9.808   7.207  1.00  0.00     0.006 A 
ENDBRANCH  58  72
BRANCH  59  80
ATOM     80  C   UNL     1       4.723   9.809  -1.898  1.00  0.00     0.057 A 
ATOM     81  C   UNL     1       6.030  10.307  -1.822  1.00  0.00     0.134 A 
ATOM     82  C   UNL     1       4.602   8.440  -2.202  1.00  0.00     0.134 A 
ATOM     83  F   UNL     1       6.250  11.589  -1.496  1.00  0.00    -0.206 F 
ATOM     84  C   UNL     1       7.152   9.488  -2.017  1.00  0.00     0.040 A 
ATOM     85  C   UNL     1       5.712   7.613  -2.403  1.00  0.00     0.040 A 
ATOM     86  F   UNL     1       3.402   7.839  -2.228  1.00  0.00    -0.206 F 
ATOM     87  C   UNL     1       6.995   8.134  -2.297  1.00  0.00     0.006 A 
ENDBRANCH  59  80
BRANCH  71  88
ATOM     88  C   UNL     1       1.244  14.717   0.021  1.00  0.00     0.057 A 
ATOM     89  C   UNL     1       0.803  14.320  -1.252  1.00  0.00     0.134 A 
ATOM     90  C   UNL     1       1.254  16.091   0.275  1.00  0.00     0.134 A 
ATOM     91  F   UNL     1       0.657  13.028  -1.562  1.00  0.00    -0.206 F 
ATOM     92  C   UNL     1       0.431  15.243  -2.235  1.00  0.00     0.040 A 
ATOM     93  C   UNL     1       0.857  17.025  -0.687  1.00  0.00     0.040 A 
ATOM     94  F   UNL     1       1.603  16.550   1.487  1.00  0.00    -0.206 F 
ATOM     95  C   UNL     1       0.453  16.603  -1.951  1.00  0.00     0.006 A 
ENDBRANCH  71  88
ENDBRANCH  45  46
ENDBRANCH  37  40
ENDBRANCH  35  36
ENDBRANCH  34  35
ENDBRANCH  33  34
ENDBRANCH  32  33
ENDBRANCH   1  32
TORSDOF 18
