REMARK SMILES Cc1ccc2c(=O)c3cccc(CC(=O)NCCCCCCNC(=O)c4ccc(-c5c6nc(c(-c7c(F)cccc7F)c7ccc([nH]7)c(-c7c(F)cccc7F)c7nc(c(-c8c(F)cccc8F)c8ccc5[nH]8)C=C7)C=C6)cc4)c3oc2c1C
REMARK SMILES IDX 20 1 19 2 18 3 17 4 16 5 14 6 15 7 13 9 12 10 1 11 2 12 3 13
REMARK SMILES IDX 83 14 4 15 82 16 84 17 5 18 81 19 6 20 80 21 7 22 8 23 9 24
REMARK SMILES IDX 11 25 10 26 21 27 22 28 23 29 24 30 25 32 26 33 27 34 79 35
REMARK SMILES IDX 28 36 78 37 29 38 30 39 31 40 72 41 32 42 77 43 71 44 73 45
REMARK SMILES IDX 33 46 76 47 70 48 69 49 34 51 60 52 43 53 59 54 44 55 47 56
REMARK SMILES IDX 58 57 74 58 45 59 46 60 57 62 75 63 48 64 35 65 36 66 41 67
REMARK SMILES IDX 37 68 38 69 40 70 42 71 39 72 61 73 62 74 67 75 63 76 64 77
REMARK SMILES IDX 66 78 68 79 65 80 49 81 50 82 55 83 51 84 52 85 54 86 56 87
REMARK SMILES IDX 53 88
REMARK H PARENT 16 8 23 31 73 50 47 61
REMARK Flexibility Score: inf
ROOT
ATOM      1  C   UNL     1       6.427   6.728   5.098  1.00  0.00     0.002 C 
ENDROOT
BRANCH   1   2
ATOM      2  C   UNL     1       5.285   5.728   4.887  1.00  0.00     0.002 C 
BRANCH   2   3
ATOM      3  C   UNL     1       3.877   6.340   4.860  1.00  0.00     0.021 C 
BRANCH   3   4
ATOM      4  C   UNL     1       3.688   7.405   3.779  1.00  0.00     0.116 C 
BRANCH   4   5
ATOM      5  N   UNL     1       3.691   6.815   2.456  1.00  0.00    -0.356 N 
ATOM      6  C   UNL     1       2.649   6.582   1.607  1.00  0.00     0.224 C 
ATOM      7  O   UNL     1       2.890   6.024   0.534  1.00  0.00    -0.275 OA
ATOM      8  H   UNL     1       4.575   6.543   2.120  1.00  0.00     0.163 HD
BRANCH   6   9
ATOM      9  C   UNL     1       1.254   7.088   1.938  1.00  0.00     0.139 C 
BRANCH   9  10
ATOM     10  C   UNL     1       0.608   6.479   3.163  1.00  0.00     0.005 A 
ATOM     11  C   UNL     1       1.025  -0.098   0.004  1.00  0.00     0.045 C 
ATOM     12  C   UNL     1       0.644   0.785   1.162  1.00  0.00    -0.044 A 
ATOM     13  C   UNL     1       0.061   0.189   2.293  1.00  0.00     0.005 A 
ATOM     14  C   UNL     1       0.869   2.182   1.148  1.00  0.00    -0.005 A 
ATOM     15  C   UNL     1      -0.291   0.954   3.402  1.00  0.00     0.016 A 
ATOM     16  C   UNL     1       0.506   2.948   2.277  1.00  0.00     0.141 A 
ATOM     17  C   UNL     1       1.505   2.881  -0.028  1.00  0.00     0.049 C 
ATOM     18  C   UNL     1      -0.064   2.329   3.388  1.00  0.00     0.066 A 
ATOM     19  O   UNL     1       0.745   4.304   2.219  1.00  0.00    -0.455 OA
ATOM     20  C   UNL     1      -0.419   3.145   4.555  1.00  0.00     0.200 A 
ATOM     21  C   UNL     1       0.384   5.097   3.281  1.00  0.00     0.142 A 
ATOM     22  O   UNL     1      -0.889   2.647   5.570  1.00  0.00    -0.288 OA
ATOM     23  C   UNL     1      -0.187   4.590   4.449  1.00  0.00     0.066 A 
ATOM     24  C   UNL     1      -0.541   5.434   5.506  1.00  0.00     0.016 A 
ATOM     25  C   UNL     1       0.202   7.325   4.215  1.00  0.00     0.008 A 
ATOM     26  C   UNL     1      -0.352   6.806   5.384  1.00  0.00     0.001 A 
ENDBRANCH   9  10
ENDBRANCH   6   9
ENDBRANCH   4   5
ENDBRANCH   3   4
ENDBRANCH   2   3
ENDBRANCH   1   2
BRANCH   1  27
ATOM     27  C   UNL     1       6.299   7.603   6.345  1.00  0.00     0.021 C 
BRANCH  27  28
ATOM     28  C   UNL     1       6.258   6.829   7.656  1.00  0.00     0.116 C 
BRANCH  28  29
ATOM     29  N   UNL     1       7.505   6.129   7.931  1.00  0.00    -0.352 N 
ATOM     30  C   UNL     1       8.309   6.172   9.045  1.00  0.00     0.251 C 
ATOM     31  H   UNL     1       7.820   5.536   7.210  1.00  0.00     0.163 HD
ATOM     32  O   UNL     1       9.418   5.643   9.026  1.00  0.00    -0.269 OA
BRANCH  30  33
ATOM     33  C   UNL     1       7.850   6.880  10.260  1.00  0.00     0.039 A 
ATOM     34  C   UNL     1       6.527   6.772  10.686  1.00  0.00     0.014 A 
ATOM     35  C   UNL     1       8.752   7.672  10.979  1.00  0.00     0.014 A 
ATOM     36  C   UNL     1       6.062   7.595  11.704  1.00  0.00     0.010 A 
ATOM     37  C   UNL     1       8.304   8.415  12.078  1.00  0.00     0.010 A 
ATOM     38  C   UNL     1       6.943   8.423  12.420  1.00  0.00    -0.014 A 
BRANCH  38  39
ATOM     39  C   UNL     1       6.396   9.258  13.524  1.00  0.00     0.031 A 
ATOM     40  C   UNL     1       6.452  10.763  13.472  1.00  0.00     0.074 A 
ATOM     41  C   UNL     1       5.770   8.645  14.548  1.00  0.00     0.049 A 
ATOM     42  N   UNL     1       5.920  11.635  14.294  1.00  0.00    -0.248 NA
ATOM     43  C   UNL     1       7.206  11.373  12.366  1.00  0.00     0.031 C 
ATOM     44  C   UNL     1       5.669   7.193  14.727  1.00  0.00     0.029 A 
ATOM     45  N   UNL     1       5.067   9.157  15.609  1.00  0.00    -0.354 N 
ATOM     46  C   UNL     1       6.288  12.888  13.817  1.00  0.00     0.074 A 
ATOM     47  C   UNL     1       7.116  12.664  12.652  1.00  0.00     0.031 C 
ATOM     48  C   UNL     1       4.891   6.932  15.788  1.00  0.00     0.029 A 
ATOM     49  C   UNL     1       4.493   8.192  16.402  1.00  0.00     0.049 A 
ATOM     50  H   UNL     1       4.983  10.121  15.785  1.00  0.00     0.167 HD
ATOM     51  C   UNL     1       5.958  14.111  14.299  1.00  0.00     0.037 A 
ATOM     52  C   UNL     1       3.735   8.308  17.507  1.00  0.00     0.037 A 
ATOM     53  C   UNL     1       5.120  14.334  15.450  1.00  0.00     0.049 A 
ATOM     54  C   UNL     1       3.402   9.679  18.022  1.00  0.00     0.074 A 
ATOM     55  C   UNL     1       4.686  15.537  15.982  1.00  0.00     0.029 A 
ATOM     56  N   UNL     1       4.596  13.333  16.255  1.00  0.00    -0.354 N 
ATOM     57  N   UNL     1       3.703  10.851  17.518  1.00  0.00    -0.248 NA
ATOM     58  C   UNL     1       2.621   9.739  19.264  1.00  0.00     0.031 C 
ATOM     59  C   UNL     1       3.949  15.265  17.141  1.00  0.00     0.029 A 
ATOM     60  C   UNL     1       3.871  13.892  17.297  1.00  0.00     0.049 A 
ATOM     61  H   UNL     1       4.720  12.367  16.107  1.00  0.00     0.167 HD
ATOM     62  C   UNL     1       3.133  11.786  18.371  1.00  0.00     0.074 A 
ATOM     63  C   UNL     1       2.434  11.043  19.398  1.00  0.00     0.031 C 
ATOM     64  C   UNL     1       3.189  13.140  18.318  1.00  0.00     0.037 A 
BRANCH  51  65
ATOM     65  C   UNL     1       6.521  15.315  13.596  1.00  0.00     0.057 A 
ATOM     66  C   UNL     1       7.479  16.122  14.226  1.00  0.00     0.134 A 
ATOM     67  C   UNL     1       6.082  15.710  12.326  1.00  0.00     0.134 A 
ATOM     68  F   UNL     1       7.938  15.807  15.446  1.00  0.00    -0.206 F 
ATOM     69  C   UNL     1       7.974  17.279  13.621  1.00  0.00     0.040 A 
ATOM     70  C   UNL     1       6.589  16.851  11.699  1.00  0.00     0.040 A 
ATOM     71  F   UNL     1       5.174  14.979  11.662  1.00  0.00    -0.206 F 
ATOM     72  C   UNL     1       7.532  17.643  12.351  1.00  0.00     0.006 A 
ENDBRANCH  51  65
BRANCH  52  73
ATOM     73  C   UNL     1       3.251   7.098  18.222  1.00  0.00     0.057 A 
ATOM     74  C   UNL     1       4.140   6.240  18.880  1.00  0.00     0.134 A 
ATOM     75  C   UNL     1       1.885   6.808  18.320  1.00  0.00     0.134 A 
ATOM     76  F   UNL     1       5.462   6.457  18.819  1.00  0.00    -0.206 F 
ATOM     77  C   UNL     1       3.690   5.142  19.613  1.00  0.00     0.040 A 
ATOM     78  C   UNL     1       1.418   5.734  19.080  1.00  0.00     0.040 A 
ATOM     79  F   UNL     1       0.981   7.603  17.728  1.00  0.00    -0.206 F 
ATOM     80  C   UNL     1       2.324   4.897  19.729  1.00  0.00     0.006 A 
ENDBRANCH  52  73
BRANCH  64  81
ATOM     81  C   UNL     1       2.446  13.885  19.391  1.00  0.00     0.057 A 
ATOM     82  C   UNL     1       1.285  14.606  19.085  1.00  0.00     0.134 A 
ATOM     83  C   UNL     1       2.855  13.858  20.731  1.00  0.00     0.134 A 
ATOM     84  F   UNL     1       0.842  14.684  17.822  1.00  0.00    -0.206 F 
ATOM     85  C   UNL     1       0.548  15.257  20.076  1.00  0.00     0.040 A 
ATOM     86  C   UNL     1       2.107  14.475  21.735  1.00  0.00     0.040 A 
ATOM     87  F   UNL     1       3.950  13.173  21.095  1.00  0.00    -0.206 F 
ATOM     88  C   UNL     1       0.950  15.178  21.408  1.00  0.00     0.006 A 
ENDBRANCH  64  81
ENDBRANCH  38  39
ENDBRANCH  30  33
ENDBRANCH  28  29
ENDBRANCH  27  28
ENDBRANCH   1  27
TORSDOF 14
