REMARK SMILES C[C@H](NC(=O)c1cccc(NC(=O)c2ccccc2C(=O)NCCCCCCNC(=O)c2ccc(-c3c4nc(c(-c5c(F)cccc5F)c5ccc([nH]5)c(-c5c(F)cccc5F)c5nc(c(-c6c(F)cccc6F)c6ccc3[nH]6)C=C5)C=C4)cc2)c1)c1ccccc1
REMARK SMILES IDX 24 1 23 2 22 3 20 4 21 5 19 7 14 8 15 9 16 10 18 11 17 12
REMARK SMILES IDX 12 13 11 14 13 16 10 17 6 18 7 19 86 20 8 21 9 22 4 23 3 24
REMARK SMILES IDX 5 26 2 27 1 28 87 29 88 30 92 31 89 32 91 33 90 34 25 35
REMARK SMILES IDX 26 36 27 37 28 38 29 39 30 40 31 42 32 43 33 44 85 45 34 46
REMARK SMILES IDX 84 47 35 48 36 49 37 50 78 51 38 52 83 53 77 54 79 55 39 56
REMARK SMILES IDX 82 57 76 58 75 59 40 61 66 62 49 63 65 64 50 65 53 66 64 67
REMARK SMILES IDX 80 68 51 69 52 70 63 72 81 73 54 74 41 75 42 76 47 77 43 78
REMARK SMILES IDX 44 79 46 80 48 81 45 82 67 83 68 84 73 85 69 86 70 87 72 88
REMARK SMILES IDX 74 89 71 90 55 91 56 92 61 93 57 94 58 95 60 96 62 97 59 98
REMARK H PARENT 22 6 11 15 3 25 29 41 79 60 53 71
REMARK Flexibility Score: inf
ROOT
ATOM      1  C   UNL     1       0.971   2.986   6.047  1.00  0.00     0.021 C 
ENDROOT
BRANCH   1   2
ATOM      2  C   UNL     1       1.342   3.994   4.966  1.00  0.00     0.116 C 
BRANCH   2   3
ATOM      3  N   UNL     1       0.348   4.169   3.932  1.00  0.00    -0.352 N 
ATOM      4  C   UNL     1       0.190   5.198   3.037  1.00  0.00     0.252 C 
ATOM      5  O   UNL     1      -0.756   5.136   2.250  1.00  0.00    -0.269 OA
ATOM      6  H   UNL     1      -0.313   3.443   3.858  1.00  0.00     0.163 HD
BRANCH   4   7
ATOM      7  C   UNL     1       1.042   6.422   3.039  1.00  0.00     0.052 A 
ATOM      8  C   UNL     1       2.440   6.487   3.156  1.00  0.00     0.052 A 
ATOM      9  C   UNL     1       3.075   7.743   3.237  1.00  0.00     0.014 A 
ATOM     10  C   UNL     1       2.355   8.925   3.074  1.00  0.00     0.001 A 
ATOM     11  C   UNL     1       0.340   7.628   2.822  1.00  0.00     0.014 A 
ATOM     12  C   UNL     1       0.991   8.864   2.826  1.00  0.00     0.001 A 
BRANCH   8  13
ATOM     13  C   UNL     1       3.377   5.344   3.180  1.00  0.00     0.256 C 
ATOM     14  N   UNL     1       3.387   4.332   2.245  1.00  0.00    -0.322 N 
ATOM     15  H   UNL     1       4.028   3.612   2.443  1.00  0.00     0.170 HD
ATOM     16  O   UNL     1       4.169   5.284   4.125  1.00  0.00    -0.269 OA
BRANCH  14  17
ATOM     17  C   UNL     1       2.654   4.133   1.063  1.00  0.00     0.042 A 
ATOM     18  C   UNL     1       1.605   2.534  -0.429  1.00  0.00     0.041 A 
ATOM     19  C   UNL     1       0.926   3.576  -1.065  1.00  0.00     0.014 A 
ATOM     20  C   UNL     1       2.515   2.817   0.598  1.00  0.00     0.040 A 
ATOM     21  C   UNL     1       1.167   4.893  -0.688  1.00  0.00     0.003 A 
ATOM     22  C   UNL     1       2.046   5.170   0.357  1.00  0.00     0.026 A 
BRANCH  18  23
ATOM     23  C   UNL     1       1.464   1.199  -1.035  1.00  0.00     0.251 C 
ATOM     24  N   UNL     1       0.752   0.172  -0.484  1.00  0.00    -0.346 N 
ATOM     25  H   UNL     1       0.606  -0.558  -1.129  1.00  0.00     0.164 HD
ATOM     26  O   UNL     1       1.979   1.032  -2.141  1.00  0.00    -0.269 OA
BRANCH  24  27
ATOM     27  C   UNL     1       0.153  -0.120   0.806  1.00  0.00     0.109 C 
ATOM     28  C   UNL     1       0.715   0.616   1.992  1.00  0.00     0.036 C 
BRANCH  27  29
ATOM     29  C   UNL     1      -1.360  -0.094   0.866  1.00  0.00    -0.026 A 
ATOM     30  C   UNL     1      -2.077   1.110   0.914  1.00  0.00     0.006 A 
ATOM     31  C   UNL     1      -2.053  -1.300   1.080  1.00  0.00     0.006 A 
ATOM     32  C   UNL     1      -3.441   1.108   1.219  1.00  0.00     0.000 A 
ATOM     33  C   UNL     1      -3.416  -1.299   1.376  1.00  0.00     0.000 A 
ATOM     34  C   UNL     1      -4.107  -0.094   1.457  1.00  0.00     0.000 A 
ENDBRANCH  27  29
ENDBRANCH  24  27
ENDBRANCH  18  23
ENDBRANCH  14  17
ENDBRANCH   8  13
ENDBRANCH   4   7
ENDBRANCH   2   3
ENDBRANCH   1   2
BRANCH   1  35
ATOM     35  C   UNL     1       0.844   1.537   5.573  1.00  0.00     0.002 C 
BRANCH  35  36
ATOM     36  C   UNL     1       2.012   0.996   4.746  1.00  0.00     0.002 C 
BRANCH  36  37
ATOM     37  C   UNL     1       3.390   0.961   5.375  1.00  0.00     0.021 C 
BRANCH  37  38
ATOM     38  C   UNL     1       3.445   0.264   6.715  1.00  0.00     0.116 C 
BRANCH  38  39
ATOM     39  N   UNL     1       2.881  -1.078   6.696  1.00  0.00    -0.352 N 
ATOM     40  C   UNL     1       3.373  -2.239   7.241  1.00  0.00     0.251 C 
ATOM     41  H   UNL     1       2.022  -1.167   6.223  1.00  0.00     0.163 HD
ATOM     42  O   UNL     1       2.814  -3.306   7.031  1.00  0.00    -0.269 OA
BRANCH  40  43
ATOM     43  C   UNL     1       4.604  -2.190   8.059  1.00  0.00     0.039 A 
ATOM     44  C   UNL     1       5.552  -3.204   7.918  1.00  0.00     0.014 A 
ATOM     45  C   UNL     1       4.830  -1.135   8.946  1.00  0.00     0.014 A 
ATOM     46  C   UNL     1       6.745  -3.131   8.638  1.00  0.00     0.010 A 
ATOM     47  C   UNL     1       6.068  -0.994   9.553  1.00  0.00     0.010 A 
ATOM     48  C   UNL     1       7.021  -2.012   9.442  1.00  0.00    -0.014 A 
BRANCH  48  49
ATOM     49  C   UNL     1       8.269  -1.926  10.236  1.00  0.00     0.031 A 
ATOM     50  C   UNL     1       8.188  -1.842  11.740  1.00  0.00     0.074 A 
ATOM     51  C   UNL     1       9.461  -1.887   9.610  1.00  0.00     0.049 A 
ATOM     52  N   UNL     1       9.155  -1.747  12.615  1.00  0.00    -0.248 NA
ATOM     53  C   UNL     1       6.841  -1.825  12.341  1.00  0.00     0.031 C 
ATOM     54  C   UNL     1       9.660  -1.886   8.158  1.00  0.00     0.029 A 
ATOM     55  N   UNL     1      10.733  -1.841  10.118  1.00  0.00    -0.354 N 
ATOM     56  C   UNL     1       8.534  -1.635  13.853  1.00  0.00     0.074 A 
ATOM     57  C   UNL     1       7.111  -1.606  13.618  1.00  0.00     0.031 C 
ATOM     58  C   UNL     1      10.977  -1.880   7.895  1.00  0.00     0.029 A 
ATOM     59  C   UNL     1      11.713  -1.843   9.154  1.00  0.00     0.049 A 
ATOM     60  H   UNL     1      10.928  -1.810  11.083  1.00  0.00     0.167 HD
ATOM     61  C   UNL     1       9.099  -1.595  15.081  1.00  0.00     0.037 A 
ATOM     62  C   UNL     1      13.053  -1.822   9.279  1.00  0.00     0.037 A 
ATOM     63  C   UNL     1      10.515  -1.683  15.312  1.00  0.00     0.049 A 
ATOM     64  C   UNL     1      13.650  -1.822  10.661  1.00  0.00     0.074 A 
ATOM     65  C   UNL     1      11.188  -1.742  16.518  1.00  0.00     0.029 A 
ATOM     66  N   UNL     1      11.473  -1.729  14.312  1.00  0.00    -0.354 N 
ATOM     67  N   UNL     1      13.047  -1.819  11.826  1.00  0.00    -0.248 NA
ATOM     68  C   UNL     1      15.116  -1.844  10.745  1.00  0.00     0.031 C 
ATOM     69  C   UNL     1      12.559  -1.771  16.249  1.00  0.00     0.029 A 
ATOM     70  C   UNL     1      12.736  -1.793  14.875  1.00  0.00     0.049 A 
ATOM     71  H   UNL     1      11.284  -1.718  13.346  1.00  0.00     0.167 HD
ATOM     72  C   UNL     1      14.058  -1.875  12.778  1.00  0.00     0.074 A 
ATOM     73  C   UNL     1      15.309  -1.938  12.052  1.00  0.00     0.031 C 
ATOM     74  C   UNL     1      13.965  -1.871  14.130  1.00  0.00     0.037 A 
BRANCH  61  75
ATOM     75  C   UNL     1       8.193  -1.466  16.271  1.00  0.00     0.057 A 
ATOM     76  C   UNL     1       7.359  -2.513  16.686  1.00  0.00     0.134 A 
ATOM     77  C   UNL     1       8.204  -0.302  17.049  1.00  0.00     0.134 A 
ATOM     78  F   UNL     1       7.287  -3.649  15.976  1.00  0.00    -0.206 F 
ATOM     79  C   UNL     1       6.560  -2.401  17.826  1.00  0.00     0.040 A 
ATOM     80  C   UNL     1       7.431  -0.189  18.205  1.00  0.00     0.040 A 
ATOM     81  F   UNL     1       8.979   0.739  16.707  1.00  0.00    -0.206 F 
ATOM     82  C   UNL     1       6.605  -1.240  18.596  1.00  0.00     0.006 A 
ENDBRANCH  61  75
BRANCH  62  83
ATOM     83  C   UNL     1      13.929  -1.820   8.078  1.00  0.00     0.057 A 
ATOM     84  C   UNL     1      14.768  -2.903   7.788  1.00  0.00     0.134 A 
ATOM     85  C   UNL     1      13.993  -0.712   7.225  1.00  0.00     0.134 A 
ATOM     86  F   UNL     1      14.764  -3.990   8.574  1.00  0.00    -0.206 F 
ATOM     87  C   UNL     1      15.672  -2.866   6.725  1.00  0.00     0.040 A 
ATOM     88  C   UNL     1      14.869  -0.674   6.139  1.00  0.00     0.040 A 
ATOM     89  F   UNL     1      13.207   0.354   7.437  1.00  0.00    -0.206 F 
ATOM     90  C   UNL     1      15.724  -1.747   5.897  1.00  0.00     0.006 A 
ENDBRANCH  62  83
BRANCH  74  91
ATOM     91  C   UNL     1      15.247  -1.992  14.902  1.00  0.00     0.057 A 
ATOM     92  C   UNL     1      16.199  -0.965  14.929  1.00  0.00     0.134 A 
ATOM     93  C   UNL     1      15.526  -3.153  15.635  1.00  0.00     0.134 A 
ATOM     94  F   UNL     1      15.997   0.169  14.242  1.00  0.00    -0.206 F 
ATOM     95  C   UNL     1      17.403  -1.107  15.620  1.00  0.00     0.040 A 
ATOM     96  C   UNL     1      16.710  -3.291  16.359  1.00  0.00     0.040 A 
ATOM     97  F   UNL     1      14.649  -4.168  15.665  1.00  0.00    -0.206 F 
ATOM     98  C   UNL     1      17.659  -2.272  16.341  1.00  0.00     0.006 A 
ENDBRANCH  74  91
ENDBRANCH  48  49
ENDBRANCH  40  43
ENDBRANCH  38  39
ENDBRANCH  37  38
ENDBRANCH  36  37
ENDBRANCH  35  36
ENDBRANCH   1  35
TORSDOF 18
