REMARK SMILES Cc1cccc(S(=O)(=O)Nc2cc(C(=O)NCCCCCCNC(=O)c3ccc(-c4c5nc(c(-c6c(F)cccc6F)c6ccc([nH]6)c(-c6c(F)cccc6F)c6nc(c(-c7c(F)cccc7F)c7ccc4[nH]7)C=C6)C=C5)cc3)cnc2N2CCC[C@H](C)C2)c1
REMARK SMILES IDX 19 1 18 2 17 3 16 4 14 5 15 6 13 8 11 9 12 10 82 11 81 12
REMARK SMILES IDX 80 13 10 14 7 16 8 17 9 18 6 19 1 20 2 21 3 22 90 23 4 24
REMARK SMILES IDX 5 25 83 26 84 27 89 28 85 29 87 30 86 31 88 32 20 33 21 34
REMARK SMILES IDX 22 35 23 36 24 37 25 39 26 40 27 41 79 42 28 43 78 44 29 45
REMARK SMILES IDX 30 46 31 47 72 48 32 49 77 50 71 51 73 52 33 53 76 54 70 55
REMARK SMILES IDX 69 56 34 58 60 59 43 60 59 61 44 62 47 63 58 64 74 65 45 66
REMARK SMILES IDX 46 67 57 69 75 70 48 71 35 72 36 73 41 74 37 75 38 76 40 77
REMARK SMILES IDX 42 78 39 79 61 80 62 81 67 82 63 83 64 84 66 85 68 86 65 87
REMARK SMILES IDX 49 88 50 89 55 90 51 91 52 92 54 93 56 94 53 95
REMARK H PARENT 16 7 10 15 23 38 73 57 47 68
REMARK Flexibility Score: inf
ROOT
ATOM      1  C   UNL     1       1.046   0.029  -5.288  1.00  0.00     0.002 C 
ENDROOT
BRANCH   1   2
ATOM      2  C   UNL     1       0.781   1.061  -4.184  1.00  0.00     0.021 C 
BRANCH   2   3
ATOM      3  C   UNL     1       1.442   0.717  -2.849  1.00  0.00     0.116 C 
BRANCH   3   4
ATOM      4  N   UNL     1       2.787   1.259  -2.762  1.00  0.00    -0.352 N 
ATOM      5  C   UNL     1       3.335   2.261  -2.000  1.00  0.00     0.252 C 
ATOM      6  O   UNL     1       4.554   2.423  -2.041  1.00  0.00    -0.269 OA
ATOM      7  H   UNL     1       3.430   0.824  -3.366  1.00  0.00     0.163 HD
BRANCH   5   8
ATOM      8  C   UNL     1       2.539   3.116  -1.091  1.00  0.00     0.060 A 
ATOM      9  C   UNL     1       0.505   4.058  -0.243  1.00  0.00     0.092 A 
ATOM     10  C   UNL     1       1.188   3.383  -1.249  1.00  0.00     0.046 A 
ATOM     11  C   UNL     1       1.220   4.652   0.819  1.00  0.00     0.153 A 
ATOM     12  N   UNL     1       2.551   4.471   0.938  1.00  0.00    -0.236 NA
ATOM     13  C   UNL     1       3.172   3.691   0.008  1.00  0.00     0.127 A 
BRANCH   9  14
ATOM     14  N   UNL     1      -0.924   4.137  -0.344  1.00  0.00    -0.276 N 
ATOM     15  H   UNL     1      -1.341   4.938  -0.736  1.00  0.00     0.180 HD
BRANCH  14  16
ATOM     16  S   UNL     1      -1.909   2.857   0.207  1.00  0.00     0.262 S 
ATOM     17  O   UNL     1      -2.947   2.745  -0.803  1.00  0.00    -0.201 OA
ATOM     18  O   UNL     1      -2.276   3.155   1.573  1.00  0.00    -0.201 OA
BRANCH  16  19
ATOM     19  C   UNL     1      -1.073   1.279   0.245  1.00  0.00     0.088 A 
ATOM     20  C   UNL     1       2.311  -0.323   0.948  1.00  0.00     0.044 C 
ATOM     21  C   UNL     1       0.851  -0.154   0.631  1.00  0.00    -0.050 A 
ATOM     22  C   UNL     1       0.120  -1.254   0.167  1.00  0.00     0.003 A 
ATOM     23  C   UNL     1       0.220   1.097   0.745  1.00  0.00     0.025 A 
ATOM     24  C   UNL     1      -1.207  -1.101  -0.225  1.00  0.00     0.002 A 
ATOM     25  C   UNL     1      -1.793   0.165  -0.214  1.00  0.00     0.022 A 
ENDBRANCH  16  19
ENDBRANCH  14  16
ENDBRANCH   9  14
BRANCH  11  26
ATOM     26  N   UNL     1       0.591   5.582   1.623  1.00  0.00    -0.355 N 
ATOM     27  C   UNL     1      -0.202   5.196   2.779  1.00  0.00     0.118 C 
ATOM     28  C   UNL     1       1.211   6.899   1.724  1.00  0.00     0.121 C 
ATOM     29  C   UNL     1      -1.405   6.144   2.832  1.00  0.00     0.022 C 
ATOM     30  C   UNL     1       0.080   7.943   1.721  1.00  0.00     0.005 C 
ATOM     31  C   UNL     1      -0.971   7.618   2.804  1.00  0.00     0.007 C 
ATOM     32  C   UNL     1      -0.548   8.049   0.326  1.00  0.00     0.009 C 
ENDBRANCH  11  26
ENDBRANCH   5   8
ENDBRANCH   3   4
ENDBRANCH   2   3
ENDBRANCH   1   2
BRANCH   1  33
ATOM     33  C   UNL     1       0.640  -1.421  -4.968  1.00  0.00     0.002 C 
BRANCH  33  34
ATOM     34  C   UNL     1      -0.760  -1.608  -4.377  1.00  0.00     0.021 C 
BRANCH  34  35
ATOM     35  C   UNL     1      -1.883  -1.380  -5.381  1.00  0.00     0.116 C 
BRANCH  35  36
ATOM     36  N   UNL     1      -2.292  -2.590  -6.083  1.00  0.00    -0.352 N 
ATOM     37  C   UNL     1      -3.157  -2.741  -7.156  1.00  0.00     0.251 C 
ATOM     38  H   UNL     1      -1.894  -3.424  -5.745  1.00  0.00     0.163 HD
ATOM     39  O   UNL     1      -3.400  -3.855  -7.595  1.00  0.00    -0.269 OA
BRANCH  37  40
ATOM     40  C   UNL     1      -3.663  -1.537  -7.858  1.00  0.00     0.039 A 
ATOM     41  C   UNL     1      -3.557  -1.514  -9.254  1.00  0.00     0.014 A 
ATOM     42  C   UNL     1      -3.998  -0.380  -7.162  1.00  0.00     0.014 A 
ATOM     43  C   UNL     1      -3.505  -0.289  -9.912  1.00  0.00     0.010 A 
ATOM     44  C   UNL     1      -3.853   0.838  -7.796  1.00  0.00     0.010 A 
ATOM     45  C   UNL     1      -3.520   0.879  -9.154  1.00  0.00    -0.014 A 
BRANCH  45  46
ATOM     46  C   UNL     1      -3.041   2.160  -9.661  1.00  0.00     0.031 A 
ATOM     47  C   UNL     1      -3.978   3.257  -9.962  1.00  0.00     0.074 A 
ATOM     48  C   UNL     1      -1.708   2.364  -9.765  1.00  0.00     0.049 A 
ATOM     49  N   UNL     1      -3.693   4.278 -10.696  1.00  0.00    -0.248 NA
ATOM     50  C   UNL     1      -5.351   3.259  -9.479  1.00  0.00     0.031 C 
ATOM     51  C   UNL     1      -1.011   3.631  -9.968  1.00  0.00     0.029 A 
ATOM     52  N   UNL     1      -0.716   1.389  -9.942  1.00  0.00    -0.354 N 
ATOM     53  C   UNL     1      -4.722   5.184 -10.582  1.00  0.00     0.074 A 
ATOM     54  C   UNL     1      -5.753   4.477  -9.855  1.00  0.00     0.031 C 
ATOM     55  C   UNL     1       0.183   3.378 -10.526  1.00  0.00     0.029 A 
ATOM     56  C   UNL     1       0.220   1.959 -10.836  1.00  0.00     0.049 A 
ATOM     57  H   UNL     1      -0.679   0.496  -9.530  1.00  0.00     0.167 HD
ATOM     58  C   UNL     1      -4.533   6.464 -11.019  1.00  0.00     0.037 A 
ATOM     59  C   UNL     1       0.407   1.429 -12.079  1.00  0.00     0.037 A 
ATOM     60  C   UNL     1      -3.249   6.612 -11.706  1.00  0.00     0.049 A 
ATOM     61  C   UNL     1       0.103   2.370 -13.228  1.00  0.00     0.074 A 
ATOM     62  C   UNL     1      -2.000   7.094 -11.348  1.00  0.00     0.029 A 
ATOM     63  N   UNL     1      -3.068   5.953 -12.908  1.00  0.00    -0.354 N 
ATOM     64  N   UNL     1      -0.409   3.563 -13.092  1.00  0.00    -0.248 NA
ATOM     65  C   UNL     1       0.255   1.988 -14.634  1.00  0.00     0.031 C 
ATOM     66  C   UNL     1      -1.064   6.695 -12.346  1.00  0.00     0.029 A 
ATOM     67  C   UNL     1      -1.747   5.975 -13.309  1.00  0.00     0.049 A 
ATOM     68  H   UNL     1      -3.792   5.521 -13.416  1.00  0.00     0.167 HD
ATOM     69  C   UNL     1      -0.719   4.063 -14.329  1.00  0.00     0.074 A 
ATOM     70  C   UNL     1      -0.276   3.048 -15.264  1.00  0.00     0.031 C 
ATOM     71  C   UNL     1      -1.369   5.247 -14.507  1.00  0.00     0.037 A 
BRANCH  58  72
ATOM     72  C   UNL     1      -5.408   7.634 -10.627  1.00  0.00     0.057 A 
ATOM     73  C   UNL     1      -4.877   8.938 -10.563  1.00  0.00     0.134 A 
ATOM     74  C   UNL     1      -6.758   7.548 -10.249  1.00  0.00     0.134 A 
ATOM     75  F   UNL     1      -3.642   9.221 -10.999  1.00  0.00    -0.206 F 
ATOM     76  C   UNL     1      -5.587  10.029 -10.043  1.00  0.00     0.040 A 
ATOM     77  C   UNL     1      -7.463   8.615  -9.672  1.00  0.00     0.040 A 
ATOM     78  F   UNL     1      -7.485   6.449 -10.482  1.00  0.00    -0.206 F 
ATOM     79  C   UNL     1      -6.871   9.861  -9.552  1.00  0.00     0.006 A 
ENDBRANCH  58  72
BRANCH  59  80
ATOM     80  C   UNL     1       0.200  -0.044 -12.124  1.00  0.00     0.057 A 
ATOM     81  C   UNL     1       1.004  -0.873 -11.320  1.00  0.00     0.134 A 
ATOM     82  C   UNL     1      -0.961  -0.611 -12.658  1.00  0.00     0.134 A 
ATOM     83  F   UNL     1       2.133  -0.393 -10.772  1.00  0.00    -0.206 F 
ATOM     84  C   UNL     1       0.613  -2.167 -10.971  1.00  0.00     0.040 A 
ATOM     85  C   UNL     1      -1.351  -1.914 -12.333  1.00  0.00     0.040 A 
ATOM     86  F   UNL     1      -1.794   0.119 -13.414  1.00  0.00    -0.206 F 
ATOM     87  C   UNL     1      -0.585  -2.680 -11.457  1.00  0.00     0.006 A 
ENDBRANCH  59  80
BRANCH  71  88
ATOM     88  C   UNL     1      -1.713   5.794 -15.858  1.00  0.00     0.057 A 
ATOM     89  C   UNL     1      -0.770   5.889 -16.890  1.00  0.00     0.134 A 
ATOM     90  C   UNL     1      -2.977   6.353 -16.126  1.00  0.00     0.134 A 
ATOM     91  F   UNL     1       0.479   5.426 -16.725  1.00  0.00    -0.206 F 
ATOM     92  C   UNL     1      -1.073   6.478 -18.122  1.00  0.00     0.040 A 
ATOM     93  C   UNL     1      -3.277   6.985 -17.334  1.00  0.00     0.040 A 
ATOM     94  F   UNL     1      -3.976   6.286 -15.233  1.00  0.00    -0.206 F 
ATOM     95  C   UNL     1      -2.325   7.042 -18.343  1.00  0.00     0.006 A 
ENDBRANCH  71  88
ENDBRANCH  45  46
ENDBRANCH  37  40
ENDBRANCH  35  36
ENDBRANCH  34  35
ENDBRANCH  33  34
ENDBRANCH   1  33
TORSDOF 17
