REMARK SMILES CCC(CC)(NC(=O)N1CC[C@@H]2CC[C@H](C1)[N@H+]2C)C(=O)NCCCCCCNC(=O)c1ccc(-c2c3nc(c(-c4c(F)cccc4F)c4ccc([nH]4)c(-c4c(F)cccc4F)c4nc(c(-c5c(F)cccc5F)c5ccc2[nH]5)C=C4)C=C3)cc1
REMARK SMILES IDX 23 1 22 2 21 3 19 4 20 5 3 7 2 8 1 9 4 10 5 11 6 12 7 13
REMARK SMILES IDX 8 15 9 16 10 17 11 18 12 19 13 20 17 21 14 22 15 23 18 24
REMARK SMILES IDX 16 27 24 29 25 30 26 31 27 32 28 33 29 34 30 36 31 37 32 38
REMARK SMILES IDX 84 39 33 40 83 41 34 42 35 43 36 44 77 45 37 46 82 47 76 48
REMARK SMILES IDX 78 49 38 50 81 51 75 52 74 53 39 55 65 56 48 57 64 58 49 59
REMARK SMILES IDX 52 60 63 61 79 62 50 63 51 64 62 66 80 67 53 68 40 69 41 70
REMARK SMILES IDX 46 71 42 72 43 73 45 74 47 75 44 76 66 77 67 78 72 79 68 80
REMARK SMILES IDX 69 81 71 82 73 83 70 84 54 85 55 86 60 87 56 88 57 89 59 90
REMARK SMILES IDX 61 91 58 92
REMARK H PARENT 21 6 6 14 17 25 28 35 78 54 52 65
REMARK Flexibility Score: 90.00
ROOT
ATOM      1  C   UNL     1       2.674   2.761  -5.536  1.00  0.00     0.021 C 
ENDROOT
BRANCH   1   2
ATOM      2  C   UNL     1       1.959   1.420  -5.328  1.00  0.00     0.116 C 
BRANCH   2   3
ATOM      3  N   UNL     1       2.455   0.560  -4.261  1.00  0.00    -0.354 N 
ATOM      4  C   UNL     1       2.033   0.351  -2.966  1.00  0.00     0.245 C 
ATOM      5  O   UNL     1       2.582  -0.575  -2.363  1.00  0.00    -0.272 OA
ATOM      6  H   UNL     1       3.243   0.027  -4.514  1.00  0.00     0.163 HD
BRANCH   4   7
ATOM      7  C   UNL     1       0.808   1.116  -2.385  1.00  0.00     0.120 C 
BRANCH   7   8
ATOM      8  C   UNL     1       0.573   1.057  -0.852  1.00  0.00     0.035 C 
ATOM      9  C   UNL     1       0.754  -0.264  -0.125  1.00  0.00     0.007 C 
ENDBRANCH   7   8
BRANCH   7  10
ATOM     10  C   UNL     1      -0.391   0.372  -3.094  1.00  0.00     0.035 C 
ATOM     11  C   UNL     1      -1.813   0.805  -2.766  1.00  0.00     0.007 C 
ENDBRANCH   7  10
BRANCH   7  12
ATOM     12  N   UNL     1       0.872   2.562  -2.747  1.00  0.00    -0.323 N 
ATOM     13  C   UNL     1       1.587   3.634  -2.324  1.00  0.00     0.318 C 
ATOM     14  H   UNL     1       0.243   2.794  -3.468  1.00  0.00     0.166 HD
ATOM     15  O   UNL     1       0.955   4.696  -2.400  1.00  0.00    -0.249 OA
BRANCH  13  16
ATOM     16  N   UNL     1       2.890   3.615  -1.889  1.00  0.00    -0.319 N 
BRANCH  16  17
ATOM     17  C   UNL     1       3.920   2.609  -2.117  1.00  0.00     0.128 C 
BRANCH  17  18
ATOM     18  C   UNL     1       4.377   1.804  -0.909  1.00  0.00     0.086 C 
BRANCH  18  19
ATOM     19  C   UNL     1       4.701   2.632   0.337  1.00  0.00     0.186 C 
ATOM     20  C   UNL     1       3.454   3.023   1.134  1.00  0.00     0.071 C 
ATOM     21  N   UNL     1       5.364   3.891  -0.055  1.00  0.00    -0.331 N 
ATOM     22  C   UNL     1       3.349   4.532   1.040  1.00  0.00     0.073 C 
ATOM     23  C   UNL     1       4.269   4.896  -0.116  1.00  0.00     0.204 CG0
ATOM     24  C   UNL     1       6.387   4.252   0.929  1.00  0.00     0.333 C 
ATOM     25  H   UNL     1       5.849   3.821  -0.949  1.00  0.00     0.348 HD
ATOM     26  G   UNL     1       3.483   4.907  -1.463  1.00  0.00     0.000 G0
ENDBRANCH  18  19
ENDBRANCH  17  18
ENDBRANCH  16  17
BRANCH  16  27
ATOM     27  C   UNL     1       3.483   4.907  -1.463  1.00  0.00     0.186 CG0
ATOM     28  G   UNL     1       4.269   4.896  -0.116  1.00  0.00     0.000 G0
ENDBRANCH  16  27
ENDBRANCH  13  16
ENDBRANCH   7  12
ENDBRANCH   4   7
ENDBRANCH   2   3
ENDBRANCH   1   2
BRANCH   1  29
ATOM     29  C   UNL     1       4.197   2.756  -5.666  1.00  0.00     0.002 C 
BRANCH  29  30
ATOM     30  C   UNL     1       4.788   1.744  -6.638  1.00  0.00     0.002 C 
BRANCH  30  31
ATOM     31  C   UNL     1       4.243   1.827  -8.058  1.00  0.00     0.021 C 
BRANCH  31  32
ATOM     32  C   UNL     1       4.344   3.203  -8.697  1.00  0.00     0.116 C 
BRANCH  32  33
ATOM     33  N   UNL     1       5.718   3.647  -8.863  1.00  0.00    -0.352 N 
ATOM     34  C   UNL     1       6.307   4.174  -9.991  1.00  0.00     0.251 C 
ATOM     35  H   UNL     1       6.299   3.559  -8.073  1.00  0.00     0.163 HD
ATOM     36  O   UNL     1       7.503   4.380 -10.050  1.00  0.00    -0.269 OA
BRANCH  34  37
ATOM     37  C   UNL     1       5.436   4.455 -11.152  1.00  0.00     0.039 A 
ATOM     38  C   UNL     1       5.735   3.864 -12.380  1.00  0.00     0.014 A 
ATOM     39  C   UNL     1       4.282   5.226 -10.986  1.00  0.00     0.014 A 
ATOM     40  C   UNL     1       4.833   3.995 -13.436  1.00  0.00     0.010 A 
ATOM     41  C   UNL     1       3.351   5.291 -12.015  1.00  0.00     0.010 A 
ATOM     42  C   UNL     1       3.619   4.679 -13.249  1.00  0.00    -0.014 A 
BRANCH  42  43
ATOM     43  C   UNL     1       2.618   4.776 -14.339  1.00  0.00     0.031 A 
ATOM     44  C   UNL     1       2.280   6.119 -14.923  1.00  0.00     0.074 A 
ATOM     45  C   UNL     1       1.975   3.670 -14.761  1.00  0.00     0.049 A 
ATOM     46  N   UNL     1       1.393   6.424 -15.835  1.00  0.00    -0.248 NA
ATOM     47  C   UNL     1       3.017   7.276 -14.389  1.00  0.00     0.031 C 
ATOM     48  C   UNL     1       2.183   2.318 -14.240  1.00  0.00     0.029 A 
ATOM     49  N   UNL     1       1.009   3.511 -15.722  1.00  0.00    -0.354 N 
ATOM     50  C   UNL     1       1.459   7.804 -15.975  1.00  0.00     0.074 A 
ATOM     51  C   UNL     1       2.427   8.283 -15.013  1.00  0.00     0.031 C 
ATOM     52  C   UNL     1       1.391   1.463 -14.908  1.00  0.00     0.029 A 
ATOM     53  C   UNL     1       0.596   2.210 -15.878  1.00  0.00     0.049 A 
ATOM     54  H   UNL     1       0.647   4.258 -16.250  1.00  0.00     0.167 HD
ATOM     55  C   UNL     1       0.795   8.598 -16.848  1.00  0.00     0.037 A 
ATOM     56  C   UNL     1      -0.322   1.682 -16.710  1.00  0.00     0.037 A 
ATOM     57  C   UNL     1      -0.150   8.116 -17.819  1.00  0.00     0.049 A 
ATOM     58  C   UNL     1      -1.054   2.586 -17.662  1.00  0.00     0.074 A 
ATOM     59  C   UNL     1      -0.842   8.832 -18.779  1.00  0.00     0.029 A 
ATOM     60  N   UNL     1      -0.534   6.790 -17.953  1.00  0.00    -0.354 N 
ATOM     61  N   UNL     1      -0.940   3.882 -17.825  1.00  0.00    -0.248 NA
ATOM     62  C   UNL     1      -2.039   1.954 -18.550  1.00  0.00     0.031 C 
ATOM     63  C   UNL     1      -1.674   7.945 -19.469  1.00  0.00     0.029 A 
ATOM     64  C   UNL     1      -1.466   6.669 -18.970  1.00  0.00     0.049 A 
ATOM     65  H   UNL     1      -0.194   6.045 -17.406  1.00  0.00     0.167 HD
ATOM     66  C   UNL     1      -1.815   4.216 -18.851  1.00  0.00     0.074 A 
ATOM     67  C   UNL     1      -2.444   2.984 -19.280  1.00  0.00     0.031 C 
ATOM     68  C   UNL     1      -2.074   5.432 -19.389  1.00  0.00     0.037 A 
BRANCH  55  69
ATOM     69  C   UNL     1       1.081  10.070 -16.793  1.00  0.00     0.057 A 
ATOM     70  C   UNL     1       2.310  10.598 -17.212  1.00  0.00     0.134 A 
ATOM     71  C   UNL     1       0.113  10.973 -16.337  1.00  0.00     0.134 A 
ATOM     72  F   UNL     1       3.286   9.785 -17.645  1.00  0.00    -0.206 F 
ATOM     73  C   UNL     1       2.575  11.966 -17.154  1.00  0.00     0.040 A 
ATOM     74  C   UNL     1       0.356  12.347 -16.301  1.00  0.00     0.040 A 
ATOM     75  F   UNL     1      -1.087  10.536 -15.925  1.00  0.00    -0.206 F 
ATOM     76  C   UNL     1       1.594  12.846 -16.704  1.00  0.00     0.006 A 
ENDBRANCH  55  69
BRANCH  56  77
ATOM     77  C   UNL     1      -0.577   0.220 -16.705  1.00  0.00     0.057 A 
ATOM     78  C   UNL     1      -0.174  -0.583 -17.779  1.00  0.00     0.134 A 
ATOM     79  C   UNL     1      -1.231  -0.409 -15.640  1.00  0.00     0.134 A 
ATOM     80  F   UNL     1       0.441  -0.035 -18.837  1.00  0.00    -0.206 F 
ATOM     81  C   UNL     1      -0.427  -1.956 -17.802  1.00  0.00     0.040 A 
ATOM     82  C   UNL     1      -1.470  -1.784 -15.639  1.00  0.00     0.040 A 
ATOM     83  F   UNL     1      -1.635   0.303 -14.578  1.00  0.00    -0.206 F 
ATOM     84  C   UNL     1      -1.074  -2.561 -16.726  1.00  0.00     0.006 A 
ENDBRANCH  56  77
BRANCH  68  85
ATOM     85  C   UNL     1      -3.052   5.486 -20.525  1.00  0.00     0.057 A 
ATOM     86  C   UNL     1      -4.428   5.319 -20.325  1.00  0.00     0.134 A 
ATOM     87  C   UNL     1      -2.614   5.753 -21.828  1.00  0.00     0.134 A 
ATOM     88  F   UNL     1      -4.909   5.049 -19.102  1.00  0.00    -0.206 F 
ATOM     89  C   UNL     1      -5.332   5.396 -21.385  1.00  0.00     0.040 A 
ATOM     90  C   UNL     1      -3.510   5.857 -22.892  1.00  0.00     0.040 A 
ATOM     91  F   UNL     1      -1.309   5.931 -22.086  1.00  0.00    -0.206 F 
ATOM     92  C   UNL     1      -4.874   5.673 -22.672  1.00  0.00     0.006 A 
ENDBRANCH  68  85
ENDBRANCH  42  43
ENDBRANCH  34  37
ENDBRANCH  32  33
ENDBRANCH  31  32
ENDBRANCH  30  31
ENDBRANCH  29  30
ENDBRANCH   1  29
TORSDOF 17
