REMARK SMILES CC[NH2+]C(C)(C)C(=O)N[C@@](C)(C(=O)NCCCCCCNC(=O)c1ccc(-c2c3nc(c(-c4c(F)cccc4F)c4ccc([nH]4)c(-c4c(F)cccc4F)c4nc(c(-c5c(F)cccc5F)c5ccc2[nH]5)C=C4)C=C3)cc1)C(F)(F)F
REMARK SMILES IDX 16 1 15 2 14 3 12 4 13 5 10 7 11 8 9 9 7 10 8 11 4 13 5 14
REMARK SMILES IDX 6 15 3 16 2 19 1 20 78 21 79 22 80 23 81 24 17 25 18 26
REMARK SMILES IDX 19 27 20 28 21 29 22 30 23 32 24 33 25 34 77 35 26 36 76 37
REMARK SMILES IDX 27 38 28 39 29 40 70 41 30 42 75 43 69 44 71 45 31 46 74 47
REMARK SMILES IDX 68 48 67 49 32 51 58 52 41 53 57 54 42 55 45 56 56 57 72 58
REMARK SMILES IDX 43 59 44 60 55 62 73 63 46 64 33 65 34 66 39 67 35 68 36 69
REMARK SMILES IDX 38 70 40 71 37 72 59 73 60 74 65 75 61 76 62 77 64 78 66 79
REMARK SMILES IDX 63 80 47 81 48 82 53 83 49 84 50 85 52 86 54 87 51 88
REMARK H PARENT 14 6 9 12 3 17 3 18 21 31 71 50 45 61
REMARK Flexibility Score: inf
ROOT
ATOM      1  C   UNL     1      -4.806   5.429   2.764  1.00  0.00     0.021 C 
ENDROOT
BRANCH   1   2
ATOM      2  C   UNL     1      -3.825   6.481   2.254  1.00  0.00     0.116 C 
BRANCH   2   3
ATOM      3  N   UNL     1      -2.643   6.551   3.095  1.00  0.00    -0.354 N 
ATOM      4  C   UNL     1      -1.302   6.547   2.856  1.00  0.00     0.254 C 
ATOM      5  O   UNL     1      -0.602   6.592   3.872  1.00  0.00    -0.272 OA
ATOM      6  H   UNL     1      -2.860   6.615   4.053  1.00  0.00     0.163 HD
BRANCH   4   7
ATOM      7  C   UNL     1      -0.693   6.469   1.436  1.00  0.00     0.212 C 
ATOM      8  C   UNL     1      -1.254   7.583   0.522  1.00  0.00     0.056 C 
BRANCH   7   9
ATOM      9  N   UNL     1      -1.159   5.139   0.856  1.00  0.00    -0.329 N 
ATOM     10  C   UNL     1      -0.747   3.886   0.526  1.00  0.00     0.281 C 
ATOM     11  O   UNL     1      -1.689   3.119   0.287  1.00  0.00    -0.268 OA
ATOM     12  H   UNL     1      -2.116   5.217   0.638  1.00  0.00     0.165 HD
BRANCH  10  13
ATOM     13  C   UNL     1       0.735   3.449   0.416  1.00  0.00     0.169 C 
ATOM     14  C   UNL     1       1.375   3.482   1.808  1.00  0.00     0.090 C 
ATOM     15  C   UNL     1       1.400   4.397  -0.607  1.00  0.00     0.090 C 
BRANCH  13  16
ATOM     16  N   UNL     1       0.937   2.117  -0.226  1.00  0.00    -0.334 N 
ATOM     17  H   UNL     1       0.507   2.161  -1.149  1.00  0.00     0.347 HD
ATOM     18  H   UNL     1       1.948   1.983  -0.201  1.00  0.00     0.347 HD
BRANCH  16  19
ATOM     19  C   UNL     1       0.410   0.928   0.436  1.00  0.00     0.257 C 
ATOM     20  C   UNL     1       0.916  -0.304  -0.311  1.00  0.00     0.071 C 
ENDBRANCH  16  19
ENDBRANCH  13  16
ENDBRANCH  10  13
ENDBRANCH   7   9
BRANCH   7  21
ATOM     21  C   UNL     1       0.805   6.865   1.628  1.00  0.00     0.420 C 
ATOM     22  F   UNL     1       1.536   6.035   2.389  1.00  0.00    -0.168 F 
ATOM     23  F   UNL     1       1.449   6.973   0.440  1.00  0.00    -0.168 F 
ATOM     24  F   UNL     1       0.909   8.102   2.188  1.00  0.00    -0.168 F 
ENDBRANCH   7  21
ENDBRANCH   4   7
ENDBRANCH   2   3
ENDBRANCH   1   2
BRANCH   1  25
ATOM     25  C   UNL     1      -5.409   5.737   4.138  1.00  0.00     0.002 C 
BRANCH  25  26
ATOM     26  C   UNL     1      -6.087   7.105   4.258  1.00  0.00     0.002 C 
BRANCH  26  27
ATOM     27  C   UNL     1      -7.159   7.391   3.205  1.00  0.00     0.021 C 
BRANCH  27  28
ATOM     28  C   UNL     1      -8.283   6.364   3.150  1.00  0.00     0.116 C 
BRANCH  28  29
ATOM     29  N   UNL     1      -9.035   6.307   4.393  1.00  0.00    -0.352 N 
ATOM     30  C   UNL     1     -10.388   6.408   4.591  1.00  0.00     0.251 C 
ATOM     31  H   UNL     1      -8.497   6.179   5.207  1.00  0.00     0.163 HD
ATOM     32  O   UNL     1     -10.839   6.531   5.728  1.00  0.00    -0.269 OA
BRANCH  30  33
ATOM     33  C   UNL     1     -11.303   6.392   3.432  1.00  0.00     0.039 A 
ATOM     34  C   UNL     1     -12.342   7.323   3.380  1.00  0.00     0.014 A 
ATOM     35  C   UNL     1     -11.136   5.464   2.400  1.00  0.00     0.014 A 
ATOM     36  C   UNL     1     -13.180   7.361   2.263  1.00  0.00     0.010 A 
ATOM     37  C   UNL     1     -11.921   5.554   1.254  1.00  0.00     0.010 A 
ATOM     38  C   UNL     1     -12.954   6.500   1.177  1.00  0.00    -0.014 A 
BRANCH  38  39
ATOM     39  C   UNL     1     -13.790   6.576  -0.048  1.00  0.00     0.031 A 
ATOM     40  C   UNL     1     -14.643   5.408  -0.457  1.00  0.00     0.074 A 
ATOM     41  C   UNL     1     -13.730   7.674  -0.827  1.00  0.00     0.049 A 
ATOM     42  N   UNL     1     -15.393   5.264  -1.521  1.00  0.00    -0.248 NA
ATOM     43  C   UNL     1     -14.633   4.237   0.433  1.00  0.00     0.031 C 
ATOM     44  C   UNL     1     -12.902   8.853  -0.565  1.00  0.00     0.029 A 
ATOM     45  N   UNL     1     -14.370   7.973  -2.003  1.00  0.00    -0.354 N 
ATOM     46  C   UNL     1     -15.929   3.986  -1.435  1.00  0.00     0.074 A 
ATOM     47  C   UNL     1     -15.377   3.375  -0.245  1.00  0.00     0.031 C 
ATOM     48  C   UNL     1     -13.100   9.754  -1.540  1.00  0.00     0.029 A 
ATOM     49  C   UNL     1     -14.035   9.203  -2.515  1.00  0.00     0.049 A 
ATOM     50  H   UNL     1     -15.008   7.364  -2.439  1.00  0.00     0.167 HD
ATOM     51  C   UNL     1     -16.818   3.383  -2.260  1.00  0.00     0.037 A 
ATOM     52  C   UNL     1     -14.429   9.814  -3.648  1.00  0.00     0.037 A 
ATOM     53  C   UNL     1     -17.380   4.002  -3.432  1.00  0.00     0.049 A 
ATOM     54  C   UNL     1     -15.411   9.121  -4.553  1.00  0.00     0.074 A 
ATOM     55  C   UNL     1     -18.337   3.500  -4.296  1.00  0.00     0.029 A 
ATOM     56  N   UNL     1     -17.028   5.256  -3.909  1.00  0.00    -0.354 N 
ATOM     57  N   UNL     1     -15.970   7.943  -4.418  1.00  0.00    -0.248 NA
ATOM     58  C   UNL     1     -15.821   9.846  -5.764  1.00  0.00     0.031 C 
ATOM     59  C   UNL     1     -18.525   4.427  -5.327  1.00  0.00     0.029 A 
ATOM     60  C   UNL     1     -17.729   5.532  -5.073  1.00  0.00     0.049 A 
ATOM     61  H   UNL     1     -16.378   5.860  -3.485  1.00  0.00     0.167 HD
ATOM     62  C   UNL     1     -16.818   7.797  -5.509  1.00  0.00     0.074 A 
ATOM     63  C   UNL     1     -16.711   9.014  -6.287  1.00  0.00     0.031 C 
ATOM     64  C   UNL     1     -17.614   6.750  -5.835  1.00  0.00     0.037 A 
BRANCH  51  65
ATOM     65  C   UNL     1     -17.235   1.979  -1.924  1.00  0.00     0.057 A 
ATOM     66  C   UNL     1     -18.025   1.687  -0.804  1.00  0.00     0.134 A 
ATOM     67  C   UNL     1     -16.867   0.909  -2.749  1.00  0.00     0.134 A 
ATOM     68  F   UNL     1     -18.404   2.664   0.034  1.00  0.00    -0.206 F 
ATOM     69  C   UNL     1     -18.409   0.380  -0.501  1.00  0.00     0.040 A 
ATOM     70  C   UNL     1     -17.270  -0.399  -2.473  1.00  0.00     0.040 A 
ATOM     71  F   UNL     1     -16.117   1.116  -3.842  1.00  0.00    -0.206 F 
ATOM     72  C   UNL     1     -18.037  -0.667  -1.341  1.00  0.00     0.006 A 
ENDBRANCH  51  65
BRANCH  52  73
ATOM     73  C   UNL     1     -13.906  11.163  -3.985  1.00  0.00     0.057 A 
ATOM     74  C   UNL     1     -14.737  12.289  -3.957  1.00  0.00     0.134 A 
ATOM     75  C   UNL     1     -12.568  11.358  -4.347  1.00  0.00     0.134 A 
ATOM     76  F   UNL     1     -16.033  12.164  -3.635  1.00  0.00    -0.206 F 
ATOM     77  C   UNL     1     -14.262  13.557  -4.297  1.00  0.00     0.040 A 
ATOM     78  C   UNL     1     -12.073  12.625  -4.662  1.00  0.00     0.040 A 
ATOM     79  F   UNL     1     -11.717  10.322  -4.383  1.00  0.00    -0.206 F 
ATOM     80  C   UNL     1     -12.924  13.728  -4.646  1.00  0.00     0.006 A 
ENDBRANCH  52  73
BRANCH  64  81
ATOM     81  C   UNL     1     -18.460   6.886  -7.069  1.00  0.00     0.057 A 
ATOM     82  C   UNL     1     -17.906   6.861  -8.355  1.00  0.00     0.134 A 
ATOM     83  C   UNL     1     -19.852   7.006  -6.967  1.00  0.00     0.134 A 
ATOM     84  F   UNL     1     -16.579   6.762  -8.523  1.00  0.00    -0.206 F 
ATOM     85  C   UNL     1     -18.704   6.974  -9.495  1.00  0.00     0.040 A 
ATOM     86  C   UNL     1     -20.663   7.089  -8.100  1.00  0.00     0.040 A 
ATOM     87  F   UNL     1     -20.448   7.028  -5.766  1.00  0.00    -0.206 F 
ATOM     88  C   UNL     1     -20.088   7.080  -9.368  1.00  0.00     0.006 A 
ENDBRANCH  64  81
ENDBRANCH  38  39
ENDBRANCH  30  33
ENDBRANCH  28  29
ENDBRANCH  27  28
ENDBRANCH  26  27
ENDBRANCH  25  26
ENDBRANCH   1  25
TORSDOF 18
