REMARK SMILES O=C(NCCCCCCNC(=O)[C@H]1CC[C@@H](CN2CC(=O)N3CCCC[C@H]3C2=O)O1)c1ccc(-c2c3nc(c(-c4c(F)cccc4F)c4ccc([nH]4)c(-c4c(F)cccc4F)c4nc(c(-c5c(F)cccc5F)c5ccc2[nH]5)C=C4)C=C3)cc1
REMARK SMILES IDX 6 1 5 2 4 3 3 4 1 5 2 6 31 8 32 9 84 10 33 11 83 12 34 13
REMARK SMILES IDX 35 14 36 15 77 16 37 17 82 18 76 19 78 20 38 21 81 22 75 23
REMARK SMILES IDX 74 24 39 26 65 27 48 28 64 29 49 30 52 31 63 32 79 33 50 34
REMARK SMILES IDX 51 35 62 37 80 38 53 39 40 40 41 41 46 42 42 43 43 44 45 45
REMARK SMILES IDX 47 46 44 47 66 48 67 49 72 50 68 51 69 52 71 53 73 54 70 55
REMARK SMILES IDX 54 56 55 57 60 58 56 59 57 60 59 61 61 62 58 63 7 64 8 65
REMARK SMILES IDX 9 66 10 67 11 68 12 70 13 71 14 72 30 73 15 74 16 75 17 76
REMARK SMILES IDX 18 77 19 78 28 79 20 80 27 81 29 82 21 83 22 84 26 85 23 86
REMARK SMILES IDX 25 87 24 88
REMARK H PARENT 3 7 78 25 52 36 10 69
REMARK Flexibility Score: inf
ROOT
ATOM      1  C   UNL     1       8.066 -10.863   3.672  1.00  0.00     0.002 C 
ENDROOT
BRANCH   1   2
ATOM      2  C   UNL     1       7.630 -12.297   3.399  1.00  0.00     0.021 C 
BRANCH   2   3
ATOM      3  C   UNL     1       8.762 -13.316   3.392  1.00  0.00     0.116 C 
BRANCH   3   4
ATOM      4  N   UNL     1       9.360 -13.507   4.705  1.00  0.00    -0.352 N 
ATOM      5  O   UNL     1       9.852 -14.655   6.596  1.00  0.00    -0.269 OA
ATOM      6  C   UNL     1       9.453 -14.665   5.444  1.00  0.00     0.251 C 
ATOM      7  H   UNL     1       9.749 -12.702   5.119  1.00  0.00     0.163 HD
BRANCH   6   8
ATOM      8  C   UNL     1       9.024 -15.931   4.814  1.00  0.00     0.039 A 
ATOM      9  C   UNL     1       9.512 -16.281   3.553  1.00  0.00     0.014 A 
ATOM     10  C   UNL     1       8.075 -16.727   5.457  1.00  0.00     0.014 A 
ATOM     11  C   UNL     1       8.930 -17.338   2.866  1.00  0.00     0.010 A 
ATOM     12  C   UNL     1       7.557 -17.845   4.799  1.00  0.00     0.010 A 
ATOM     13  C   UNL     1       7.951 -18.135   3.483  1.00  0.00    -0.014 A 
BRANCH  13  14
ATOM     14  C   UNL     1       7.385 -19.289   2.742  1.00  0.00     0.031 A 
ATOM     15  C   UNL     1       5.933 -19.335   2.356  1.00  0.00     0.074 A 
ATOM     16  C   UNL     1       8.211 -20.291   2.388  1.00  0.00     0.049 A 
ATOM     17  N   UNL     1       5.286 -20.261   1.693  1.00  0.00    -0.248 NA
ATOM     18  C   UNL     1       5.094 -18.201   2.774  1.00  0.00     0.031 C 
ATOM     19  C   UNL     1       9.639 -20.357   2.710  1.00  0.00     0.029 A 
ATOM     20  N   UNL     1       7.980 -21.431   1.664  1.00  0.00    -0.354 N 
ATOM     21  C   UNL     1       3.963 -19.840   1.640  1.00  0.00     0.074 A 
ATOM     22  C   UNL     1       3.895 -18.581   2.353  1.00  0.00     0.031 C 
ATOM     23  C   UNL     1      10.168 -21.448   2.139  1.00  0.00     0.029 A 
ATOM     24  C   UNL     1       9.107 -22.190   1.468  1.00  0.00     0.049 A 
ATOM     25  H   UNL     1       7.093 -21.682   1.319  1.00  0.00     0.167 HD
ATOM     26  C   UNL     1       2.906 -20.447   1.048  1.00  0.00     0.037 A 
ATOM     27  C   UNL     1       9.270 -23.361   0.828  1.00  0.00     0.037 A 
ATOM     28  C   UNL     1       2.986 -21.689   0.321  1.00  0.00     0.049 A 
ATOM     29  C   UNL     1       8.081 -24.016   0.193  1.00  0.00     0.074 A 
ATOM     30  C   UNL     1       1.979 -22.363  -0.349  1.00  0.00     0.029 A 
ATOM     31  N   UNL     1       4.139 -22.445   0.173  1.00  0.00    -0.354 N 
ATOM     32  N   UNL     1       6.843 -23.593   0.129  1.00  0.00    -0.248 NA
ATOM     33  C   UNL     1       8.312 -25.315  -0.453  1.00  0.00     0.031 C 
ATOM     34  C   UNL     1       2.515 -23.548  -0.868  1.00  0.00     0.029 A 
ATOM     35  C   UNL     1       3.865 -23.589  -0.560  1.00  0.00     0.049 A 
ATOM     36  H   UNL     1       5.022 -22.204   0.535  1.00  0.00     0.167 HD
ATOM     37  C   UNL     1       6.148 -24.562  -0.581  1.00  0.00     0.074 A 
ATOM     38  C   UNL     1       7.109 -25.588  -0.937  1.00  0.00     0.031 C 
ATOM     39  C   UNL     1       4.833 -24.599  -0.908  1.00  0.00     0.037 A 
BRANCH  26  40
ATOM     40  C   UNL     1       1.562 -19.789   1.187  1.00  0.00     0.057 A 
ATOM     41  C   UNL     1       1.236 -18.609   0.507  1.00  0.00     0.134 A 
ATOM     42  C   UNL     1       0.570 -20.363   1.993  1.00  0.00     0.134 A 
ATOM     43  F   UNL     1       2.143 -18.001  -0.273  1.00  0.00    -0.206 F 
ATOM     44  C   UNL     1      -0.018 -18.009   0.643  1.00  0.00     0.040 A 
ATOM     45  C   UNL     1      -0.695 -19.786   2.119  1.00  0.00     0.040 A 
ATOM     46  F   UNL     1       0.811 -21.497   2.667  1.00  0.00    -0.206 F 
ATOM     47  C   UNL     1      -0.990 -18.601   1.448  1.00  0.00     0.006 A 
ENDBRANCH  26  40
BRANCH  27  48
ATOM     48  C   UNL     1      10.619 -23.971   0.751  1.00  0.00     0.057 A 
ATOM     49  C   UNL     1      11.326 -24.002  -0.456  1.00  0.00     0.134 A 
ATOM     50  C   UNL     1      11.247 -24.500   1.885  1.00  0.00     0.134 A 
ATOM     51  F   UNL     1      10.770 -23.521  -1.577  1.00  0.00    -0.206 F 
ATOM     52  C   UNL     1      12.609 -24.544  -0.534  1.00  0.00     0.040 A 
ATOM     53  C   UNL     1      12.539 -25.023   1.826  1.00  0.00     0.040 A 
ATOM     54  F   UNL     1      10.623 -24.488   3.072  1.00  0.00    -0.206 F 
ATOM     55  C   UNL     1      13.222 -25.049   0.612  1.00  0.00     0.006 A 
ENDBRANCH  27  48
BRANCH  39  56
ATOM     56  C   UNL     1       4.371 -25.771  -1.721  1.00  0.00     0.057 A 
ATOM     57  C   UNL     1       4.234 -27.048  -1.165  1.00  0.00     0.134 A 
ATOM     58  C   UNL     1       4.045 -25.613  -3.074  1.00  0.00     0.134 A 
ATOM     59  F   UNL     1       4.546 -27.267   0.122  1.00  0.00    -0.206 F 
ATOM     60  C   UNL     1       3.813 -28.135  -1.933  1.00  0.00     0.040 A 
ATOM     61  C   UNL     1       3.600 -26.686  -3.845  1.00  0.00     0.040 A 
ATOM     62  F   UNL     1       4.150 -24.413  -3.665  1.00  0.00    -0.206 F 
ATOM     63  C   UNL     1       3.489 -27.954  -3.276  1.00  0.00     0.006 A 
ENDBRANCH  39  56
ENDBRANCH  13  14
ENDBRANCH   6   8
ENDBRANCH   3   4
ENDBRANCH   2   3
ENDBRANCH   1   2
BRANCH   1  64
ATOM     64  C   UNL     1       9.224 -10.368   2.809  1.00  0.00     0.002 C 
BRANCH  64  65
ATOM     65  C   UNL     1       9.010 -10.451   1.291  1.00  0.00     0.021 C 
BRANCH  65  66
ATOM     66  C   UNL     1       8.046  -9.414   0.706  1.00  0.00     0.116 C 
BRANCH  66  67
ATOM     67  N   UNL     1       8.459  -8.046   0.965  1.00  0.00    -0.354 N 
ATOM     68  C   UNL     1       8.720  -7.020   0.102  1.00  0.00     0.249 C 
ATOM     69  H   UNL     1       8.568  -7.822   1.918  1.00  0.00     0.163 HD
ATOM     70  O   UNL     1       9.001  -5.920   0.581  1.00  0.00    -0.272 OA
BRANCH  68  71
ATOM     71  C   UNL     1       8.648  -7.263  -1.419  1.00  0.00     0.207 C 
ATOM     72  C   UNL     1       8.934  -5.999  -2.221  1.00  0.00     0.045 C 
ATOM     73  O   UNL     1       9.632  -8.229  -1.835  1.00  0.00    -0.363 OA
ATOM     74  C   UNL     1      10.431  -6.065  -2.416  1.00  0.00     0.037 C 
ATOM     75  C   UNL     1      10.652  -7.555  -2.603  1.00  0.00     0.139 C 
BRANCH  75  76
ATOM     76  C   UNL     1      12.068  -8.058  -2.257  1.00  0.00     0.152 C 
BRANCH  76  77
ATOM     77  N   UNL     1      12.530  -7.697  -0.913  1.00  0.00    -0.329 N 
ATOM     78  C   UNL     1      11.996  -8.431   0.221  1.00  0.00     0.219 C 
ATOM     79  C   UNL     1      13.647  -6.897  -0.716  1.00  0.00     0.245 C 
ATOM     80  C   UNL     1      11.835  -7.587   1.481  1.00  0.00     0.242 C 
ATOM     81  C   UNL     1      13.942  -6.535   0.757  1.00  0.00     0.174 C 
ATOM     82  O   UNL     1      14.400  -6.560  -1.627  1.00  0.00    -0.272 OA
ATOM     83  O   UNL     1      11.093  -7.926   2.400  1.00  0.00    -0.273 OA
ATOM     84  N   UNL     1      12.753  -6.552   1.609  1.00  0.00    -0.329 N 
ATOM     85  C   UNL     1      15.009  -7.416   1.413  1.00  0.00     0.035 C 
ATOM     86  C   UNL     1      12.930  -5.962   2.923  1.00  0.00     0.120 C 
ATOM     87  C   UNL     1      15.254  -6.976   2.870  1.00  0.00     0.004 C 
ATOM     88  C   UNL     1      13.957  -6.808   3.681  1.00  0.00     0.022 C 
ENDBRANCH  76  77
ENDBRANCH  75  76
ENDBRANCH  68  71
ENDBRANCH  66  67
ENDBRANCH  65  66
ENDBRANCH  64  65
ENDBRANCH   1  64
TORSDOF 15
