REMARK SMILES CCOc1cc(C[NH+]2CCC3(CC2)[C@H](C(=O)NCCCCCCNC(=O)c2ccc(-c4c5nc(c(-c6c(F)cccc6F)c6ccc([nH]6)c(-c6c(F)cccc6F)c6nc(c(-c7c(F)cccc7F)c7ccc4[nH]7)C=C6)C=C5)cc2)CC(=O)N3C)ccc1OC
REMARK SMILES IDX 19 1 18 2 17 3 15 4 16 5 14 7 8 8 9 9 13 10 10 12 12 13
REMARK SMILES IDX 11 14 84 15 81 16 82 17 85 18 83 19 7 20 6 21 4 22 5 23
REMARK SMILES IDX 88 24 87 25 86 26 3 27 2 28 1 29 89 30 90 31 20 32 21 33
REMARK SMILES IDX 22 34 23 35 24 36 25 37 26 39 27 40 28 41 80 42 29 43 79 44
REMARK SMILES IDX 30 45 31 46 32 47 73 48 33 49 78 50 72 51 74 52 34 53 77 54
REMARK SMILES IDX 71 55 70 56 35 58 61 59 44 60 60 61 45 62 48 63 59 64 75 65
REMARK SMILES IDX 46 66 47 67 58 69 76 70 49 71 36 72 37 73 42 74 38 75 39 76
REMARK SMILES IDX 41 77 43 78 40 79 62 80 63 81 68 82 64 83 65 84 67 85 69 86
REMARK SMILES IDX 66 87 50 88 51 89 56 90 52 91 53 92 55 93 57 94 54 95
REMARK H PARENT 17 6 8 11 24 38 74 57 48 68
REMARK Flexibility Score: inf
ROOT
ATOM      1  C   UNL     1       3.597  -6.529  -0.738  1.00  0.00     0.021 C 
ENDROOT
BRANCH   1   2
ATOM      2  C   UNL     1       2.529  -5.543  -0.288  1.00  0.00     0.116 C 
BRANCH   2   3
ATOM      3  N   UNL     1       3.139  -4.309   0.093  1.00  0.00    -0.356 N 
ATOM      4  C   UNL     1       3.135  -3.118  -0.528  1.00  0.00     0.226 C 
ATOM      5  O   UNL     1       4.074  -2.385  -0.212  1.00  0.00    -0.275 OA
ATOM      6  H   UNL     1       3.639  -4.335   0.941  1.00  0.00     0.163 HD
BRANCH   4   7
ATOM      7  C   UNL     1       2.070  -2.676  -1.540  1.00  0.00     0.114 C 
ATOM      8  N   UNL     1       3.736  -2.465  -5.258  1.00  0.00    -0.331 N 
ATOM      9  C   UNL     1       3.976  -3.770  -4.680  1.00  0.00     0.265 C 
ATOM     10  C   UNL     1       2.319  -2.197  -5.354  1.00  0.00     0.265 C 
ATOM     11  H   UNL     1       4.068  -2.524  -6.221  1.00  0.00     0.348 HD
ATOM     12  C   UNL     1       3.403  -3.929  -3.285  1.00  0.00     0.091 C 
ATOM     13  C   UNL     1       1.563  -2.222  -4.025  1.00  0.00     0.091 C 
ATOM     14  C   UNL     1       2.031  -3.278  -2.979  1.00  0.00     0.065 C 
ATOM     15  N   UNL     1       0.906  -4.225  -2.847  1.00  0.00    -0.339 N 
ATOM     16  C   UNL     1       0.659  -2.789  -0.986  1.00  0.00     0.116 C 
ATOM     17  C   UNL     1       0.048  -3.894  -1.796  1.00  0.00     0.223 C 
ATOM     18  C   UNL     1       0.429  -5.061  -3.928  1.00  0.00     0.147 C 
ATOM     19  O   UNL     1      -1.046  -4.394  -1.572  1.00  0.00    -0.275 OA
BRANCH   8  20
ATOM     20  C   UNL     1       4.662  -1.362  -4.955  1.00  0.00     0.299 C 
BRANCH  20  21
ATOM     21  C   UNL     1       4.515  -0.576  -3.660  1.00  0.00     0.010 A 
ATOM     22  C   UNL     1       3.151   0.710  -2.100  1.00  0.00     0.161 A 
ATOM     23  C   UNL     1       3.397   0.242  -3.400  1.00  0.00     0.060 A 
ATOM     24  C   UNL     1       4.160   0.636  -1.135  1.00  0.00     0.160 A 
ATOM     25  C   UNL     1       5.363   0.011  -1.448  1.00  0.00     0.051 A 
ATOM     26  C   UNL     1       5.511  -0.654  -2.672  1.00  0.00     0.013 A 
BRANCH  22  27
ATOM     27  O   UNL     1       1.871   0.687  -1.607  1.00  0.00    -0.490 OA
BRANCH  27  28
ATOM     28  C   UNL     1       0.908   1.638  -2.010  1.00  0.00     0.226 C 
ATOM     29  C   UNL     1      -0.054   1.712  -0.826  1.00  0.00     0.049 C 
ENDBRANCH  27  28
ENDBRANCH  22  27
BRANCH  24  30
ATOM     30  O   UNL     1       4.033   1.162   0.126  1.00  0.00    -0.493 OA
ATOM     31  C   UNL     1       3.077   0.484   0.940  1.00  0.00     0.278 C 
ENDBRANCH  24  30
ENDBRANCH  20  21
ENDBRANCH   8  20
ENDBRANCH   4   7
ENDBRANCH   2   3
ENDBRANCH   1   2
BRANCH   1  32
ATOM     32  C   UNL     1       4.518  -7.013   0.381  1.00  0.00     0.002 C 
BRANCH  32  33
ATOM     33  C   UNL     1       3.811  -7.434   1.670  1.00  0.00     0.002 C 
BRANCH  33  34
ATOM     34  C   UNL     1       2.619  -8.373   1.484  1.00  0.00     0.021 C 
BRANCH  34  35
ATOM     35  C   UNL     1       2.881  -9.547   0.562  1.00  0.00     0.116 C 
BRANCH  35  36
ATOM     36  N   UNL     1       3.950 -10.391   1.051  1.00  0.00    -0.352 N 
ATOM     37  C   UNL     1       3.925 -11.754   1.183  1.00  0.00     0.251 C 
ATOM     38  H   UNL     1       4.783  -9.938   1.317  1.00  0.00     0.163 HD
ATOM     39  O   UNL     1       4.809 -12.358   1.775  1.00  0.00    -0.269 OA
BRANCH  37  40
ATOM     40  C   UNL     1       2.773 -12.469   0.607  1.00  0.00     0.039 A 
ATOM     41  C   UNL     1       2.000 -13.278   1.436  1.00  0.00     0.014 A 
ATOM     42  C   UNL     1       2.415 -12.245  -0.728  1.00  0.00     0.014 A 
ATOM     43  C   UNL     1       0.842 -13.859   0.925  1.00  0.00     0.010 A 
ATOM     44  C   UNL     1       1.216 -12.755  -1.207  1.00  0.00     0.010 A 
ATOM     45  C   UNL     1       0.434 -13.589  -0.393  1.00  0.00    -0.014 A 
BRANCH  45  46
ATOM     46  C   UNL     1      -0.777 -14.225  -0.960  1.00  0.00     0.031 A 
ATOM     47  C   UNL     1      -0.633 -15.187  -2.107  1.00  0.00     0.074 A 
ATOM     48  C   UNL     1      -1.993 -13.921  -0.468  1.00  0.00     0.049 A 
ATOM     49  N   UNL     1      -1.561 -15.810  -2.786  1.00  0.00    -0.248 NA
ATOM     50  C   UNL     1       0.738 -15.466  -2.571  1.00  0.00     0.031 C 
ATOM     51  C   UNL     1      -2.257 -12.980   0.623  1.00  0.00     0.029 A 
ATOM     52  N   UNL     1      -3.238 -14.373  -0.825  1.00  0.00    -0.354 N 
ATOM     53  C   UNL     1      -0.888 -16.546  -3.753  1.00  0.00     0.074 A 
ATOM     54  C   UNL     1       0.518 -16.239  -3.623  1.00  0.00     0.031 C 
ATOM     55  C   UNL     1      -3.579 -12.948   0.864  1.00  0.00     0.029 A 
ATOM     56  C   UNL     1      -4.257 -13.830  -0.080  1.00  0.00     0.049 A 
ATOM     57  H   UNL     1      -3.387 -15.026  -1.547  1.00  0.00     0.167 HD
ATOM     58  C   UNL     1      -1.393 -17.425  -4.648  1.00  0.00     0.037 A 
ATOM     59  C   UNL     1      -5.587 -14.021  -0.160  1.00  0.00     0.037 A 
ATOM     60  C   UNL     1      -2.791 -17.743  -4.758  1.00  0.00     0.049 A 
ATOM     61  C   UNL     1      -6.125 -14.976  -1.194  1.00  0.00     0.074 A 
ATOM     62  C   UNL     1      -3.405 -18.641  -5.613  1.00  0.00     0.029 A 
ATOM     63  N   UNL     1      -3.791 -17.174  -3.985  1.00  0.00    -0.354 N 
ATOM     64  N   UNL     1      -5.473 -15.704  -2.068  1.00  0.00    -0.248 NA
ATOM     65  C   UNL     1      -7.584 -15.139  -1.248  1.00  0.00     0.031 C 
ATOM     66  C   UNL     1      -4.783 -18.582  -5.386  1.00  0.00     0.029 A 
ATOM     67  C   UNL     1      -5.021 -17.690  -4.353  1.00  0.00     0.049 A 
ATOM     68  H   UNL     1      -3.647 -16.503  -3.279  1.00  0.00     0.167 HD
ATOM     69  C   UNL     1      -6.437 -16.440  -2.745  1.00  0.00     0.074 A 
ATOM     70  C   UNL     1      -7.717 -16.078  -2.172  1.00  0.00     0.031 C 
ATOM     71  C   UNL     1      -6.280 -17.336  -3.749  1.00  0.00     0.037 A 
BRANCH  58  72
ATOM     72  C   UNL     1      -0.427 -18.115  -5.566  1.00  0.00     0.057 A 
ATOM     73  C   UNL     1       0.479 -19.076  -5.094  1.00  0.00     0.134 A 
ATOM     74  C   UNL     1      -0.427 -17.849  -6.941  1.00  0.00     0.134 A 
ATOM     75  F   UNL     1       0.542 -19.366  -3.786  1.00  0.00    -0.206 F 
ATOM     76  C   UNL     1       1.362 -19.731  -5.954  1.00  0.00     0.040 A 
ATOM     77  C   UNL     1       0.430 -18.520  -7.814  1.00  0.00     0.040 A 
ATOM     78  F   UNL     1      -1.270 -16.942  -7.459  1.00  0.00    -0.206 F 
ATOM     79  C   UNL     1       1.332 -19.460  -7.320  1.00  0.00     0.006 A 
ENDBRANCH  58  72
BRANCH  59  80
ATOM     80  C   UNL     1      -6.509 -13.311   0.763  1.00  0.00     0.057 A 
ATOM     81  C   UNL     1      -7.258 -14.011   1.718  1.00  0.00     0.134 A 
ATOM     82  C   UNL     1      -6.700 -11.926   0.688  1.00  0.00     0.134 A 
ATOM     83  F   UNL     1      -7.134 -15.342   1.829  1.00  0.00    -0.206 F 
ATOM     84  C   UNL     1      -8.186 -13.367   2.538  1.00  0.00     0.040 A 
ATOM     85  C   UNL     1      -7.602 -11.264   1.522  1.00  0.00     0.040 A 
ATOM     86  F   UNL     1      -6.008 -11.194  -0.199  1.00  0.00    -0.206 F 
ATOM     87  C   UNL     1      -8.359 -11.988   2.442  1.00  0.00     0.006 A 
ENDBRANCH  59  80
BRANCH  71  88
ATOM     88  C   UNL     1      -7.510 -18.033  -4.252  1.00  0.00     0.057 A 
ATOM     89  C   UNL     1      -8.479 -17.373  -5.017  1.00  0.00     0.134 A 
ATOM     90  C   UNL     1      -7.697 -19.400  -4.008  1.00  0.00     0.134 A 
ATOM     91  F   UNL     1      -8.364 -16.062  -5.277  1.00  0.00    -0.206 F 
ATOM     92  C   UNL     1      -9.603 -18.043  -5.502  1.00  0.00     0.040 A 
ATOM     93  C   UNL     1      -8.800 -20.087  -4.513  1.00  0.00     0.040 A 
ATOM     94  F   UNL     1      -6.799 -20.094  -3.291  1.00  0.00    -0.206 F 
ATOM     95  C   UNL     1      -9.761 -19.407  -5.258  1.00  0.00     0.006 A 
ENDBRANCH  71  88
ENDBRANCH  45  46
ENDBRANCH  37  40
ENDBRANCH  35  36
ENDBRANCH  34  35
ENDBRANCH  33  34
ENDBRANCH  32  33
ENDBRANCH   1  32
TORSDOF 18
