REMARK SMILES CC[C@@H](NC(=O)N[C@H]1CCCCC[C@@H]1C(=O)NCCCCCCNC(=O)c1ccc(-c2c3nc(c(-c4c(F)cccc4F)c4ccc([nH]4)c(-c4c(F)cccc4F)c4nc(c(-c5c(F)cccc5F)c5ccc2[nH]5)C=C4)C=C3)cc1)C(C)C
REMARK SMILES IDX 19 1 18 2 17 3 15 4 16 5 14 7 8 8 7 9 4 10 5 11 6 13 3 15
REMARK SMILES IDX 2 16 1 17 81 18 82 19 83 20 9 21 10 22 11 23 13 25 12 26
REMARK SMILES IDX 20 28 21 29 22 30 23 31 24 32 25 33 26 35 27 36 28 37 80 38
REMARK SMILES IDX 29 39 79 40 30 41 31 42 32 43 73 44 33 45 78 46 72 47 74 48
REMARK SMILES IDX 34 49 77 50 71 51 70 52 35 54 61 55 44 56 60 57 45 58 48 59
REMARK SMILES IDX 59 60 75 61 46 62 47 63 58 65 76 66 49 67 36 68 37 69 42 70
REMARK SMILES IDX 38 71 39 72 41 73 43 74 40 75 62 76 63 77 68 78 64 79 65 80
REMARK SMILES IDX 67 81 69 82 66 83 50 84 51 85 56 86 52 87 53 88 55 89 57 90
REMARK SMILES IDX 54 91
REMARK H PARENT 17 6 4 12 7 14 24 34 74 53 48 64
REMARK Flexibility Score: 90.00
ROOT
ATOM      1  C   UNL     1      -3.697  -6.052  -1.296  1.00  0.00     0.021 C 
ENDROOT
BRANCH   1   2
ATOM      2  C   UNL     1      -3.817  -4.830  -2.206  1.00  0.00     0.116 C 
BRANCH   2   3
ATOM      3  N   UNL     1      -3.732  -3.651  -1.395  1.00  0.00    -0.356 N 
ATOM      4  C   UNL     1      -2.628  -2.925  -1.096  1.00  0.00     0.225 C 
ATOM      5  O   UNL     1      -2.744  -2.094  -0.193  1.00  0.00    -0.275 OA
ATOM      6  H   UNL     1      -4.579  -3.330  -1.009  1.00  0.00     0.163 HD
BRANCH   4   7
ATOM      7  C   UNL     1      -1.340  -3.056  -1.945  1.00  0.00     0.101 C 
BRANCH   7   8
ATOM      8  C   UNL     1      -0.444  -4.736  -1.973  1.00  0.00     0.096 C 
BRANCH   8   9
ATOM      9  N   UNL     1      -0.978  -5.534  -3.026  1.00  0.00    -0.335 N 
ATOM     10  N   UNL     1       0.179  -4.045  -4.209  1.00  0.00    -0.335 N 
ATOM     11  C   UNL     1      -0.616  -5.123  -4.230  1.00  0.00     0.315 C 
ATOM     12  H   UNL     1       0.599  -3.910  -5.089  1.00  0.00     0.165 HD
ATOM     13  O   UNL     1      -0.934  -5.700  -5.264  1.00  0.00    -0.249 OA
ATOM     14  H   UNL     1      -1.559  -6.314  -2.872  1.00  0.00     0.165 HD
BRANCH  10  15
ATOM     15  C   UNL     1       0.658  -2.899  -3.172  1.00  0.00     0.086 C 
BRANCH  15  16
ATOM     16  C   UNL     1       1.519  -2.099  -4.486  1.00  0.00     0.022 C 
ATOM     17  C   UNL     1       0.555  -1.368  -5.462  1.00  0.00     0.006 C 
ENDBRANCH  15  16
BRANCH  15  18
ATOM     18  C   UNL     1       0.927  -2.977  -1.105  1.00  0.00     0.005 C 
ATOM     19  C   UNL     1       1.557  -1.831   0.076  1.00  0.00     0.009 C 
ATOM     20  C   UNL     1      -0.039  -3.559   0.188  1.00  0.00     0.009 C 
ENDBRANCH  15  18
ENDBRANCH  10  15
ENDBRANCH   8   9
BRANCH   8  21
ATOM     21  C   UNL     1       1.354  -5.066  -2.146  1.00  0.00     0.026 C 
BRANCH  21  22
ATOM     22  C   UNL     1       2.669  -3.921  -2.606  1.00  0.00     0.002 C 
BRANCH  22  23
ATOM     23  C   UNL     1       2.729  -2.127  -2.280  1.00  0.00     0.000 CG0
ATOM     24  G   UNL     1       1.253  -0.925  -2.160  1.00  0.00     0.000 G0
ENDBRANCH  22  23
ENDBRANCH  21  22
ENDBRANCH   8  21
ENDBRANCH   7   8
BRANCH   7  25
ATOM     25  C   UNL     1      -0.521  -1.365  -1.759  1.00  0.00     0.015 C 
BRANCH  25  26
ATOM     26  C   UNL     1       1.253  -0.925  -2.160  1.00  0.00     0.001 CG0
ATOM     27  G   UNL     1       2.729  -2.127  -2.280  1.00  0.00     0.000 G0
ENDBRANCH  25  26
ENDBRANCH   7  25
ENDBRANCH   4   7
ENDBRANCH   2   3
ENDBRANCH   1   2
BRANCH   1  28
ATOM     28  C   UNL     1      -5.013  -6.327  -0.564  1.00  0.00     0.002 C 
BRANCH  28  29
ATOM     29  C   UNL     1      -6.201  -6.497  -1.517  1.00  0.00     0.002 C 
BRANCH  29  30
ATOM     30  C   UNL     1      -5.955  -7.543  -2.609  1.00  0.00     0.021 C 
BRANCH  30  31
ATOM     31  C   UNL     1      -5.687  -8.927  -2.037  1.00  0.00     0.116 C 
BRANCH  31  32
ATOM     32  N   UNL     1      -6.815  -9.361  -1.227  1.00  0.00    -0.352 N 
ATOM     33  C   UNL     1      -7.686 -10.386  -1.477  1.00  0.00     0.251 C 
ATOM     34  H   UNL     1      -6.971  -8.855  -0.397  1.00  0.00     0.163 HD
ATOM     35  O   UNL     1      -8.796 -10.411  -0.959  1.00  0.00    -0.269 OA
BRANCH  33  36
ATOM     36  C   UNL     1      -7.245 -11.470  -2.370  1.00  0.00     0.039 A 
ATOM     37  C   UNL     1      -8.129 -11.978  -3.320  1.00  0.00     0.014 A 
ATOM     38  C   UNL     1      -5.946 -11.976  -2.251  1.00  0.00     0.014 A 
ATOM     39  C   UNL     1      -7.694 -12.984  -4.179  1.00  0.00     0.010 A 
ATOM     40  C   UNL     1      -5.488 -12.912  -3.164  1.00  0.00     0.010 A 
ATOM     41  C   UNL     1      -6.365 -13.441  -4.120  1.00  0.00    -0.014 A 
BRANCH  41  42
ATOM     42  C   UNL     1      -5.877 -14.491  -5.041  1.00  0.00     0.031 A 
ATOM     43  C   UNL     1      -5.422 -15.813  -4.492  1.00  0.00     0.074 A 
ATOM     44  C   UNL     1      -5.796 -14.229  -6.358  1.00  0.00     0.049 A 
ATOM     45  N   UNL     1      -4.917 -16.840  -5.126  1.00  0.00    -0.248 NA
ATOM     46  C   UNL     1      -5.518 -15.997  -3.034  1.00  0.00     0.031 C 
ATOM     47  C   UNL     1      -6.163 -12.961  -6.993  1.00  0.00     0.029 A 
ATOM     48  N   UNL     1      -5.372 -15.013  -7.398  1.00  0.00    -0.354 N 
ATOM     49  C   UNL     1      -4.629 -17.782  -4.147  1.00  0.00     0.074 A 
ATOM     50  C   UNL     1      -4.953 -17.183  -2.871  1.00  0.00     0.031 C 
ATOM     51  C   UNL     1      -5.976 -13.065  -8.318  1.00  0.00     0.029 A 
ATOM     52  C   UNL     1      -5.436 -14.387  -8.619  1.00  0.00     0.049 A 
ATOM     53  H   UNL     1      -5.051 -15.937  -7.282  1.00  0.00     0.167 HD
ATOM     54  C   UNL     1      -4.162 -19.043  -4.301  1.00  0.00     0.037 A 
ATOM     55  C   UNL     1      -5.089 -14.830  -9.841  1.00  0.00     0.037 A 
ATOM     56  C   UNL     1      -3.857 -19.634  -5.577  1.00  0.00     0.049 A 
ATOM     57  C   UNL     1      -4.554 -16.227  -9.983  1.00  0.00     0.074 A 
ATOM     58  C   UNL     1      -3.429 -20.921  -5.851  1.00  0.00     0.029 A 
ATOM     59  N   UNL     1      -3.942 -18.972  -6.794  1.00  0.00    -0.354 N 
ATOM     60  N   UNL     1      -4.355 -17.136  -9.058  1.00  0.00    -0.248 NA
ATOM     61  C   UNL     1      -4.201 -16.665 -11.340  1.00  0.00     0.031 C 
ATOM     62  C   UNL     1      -3.201 -21.020  -7.226  1.00  0.00     0.029 A 
ATOM     63  C   UNL     1      -3.547 -19.816  -7.818  1.00  0.00     0.049 A 
ATOM     64  H   UNL     1      -4.238 -18.041  -6.911  1.00  0.00     0.167 HD
ATOM     65  C   UNL     1      -3.885 -18.260  -9.723  1.00  0.00     0.074 A 
ATOM     66  C   UNL     1      -3.844 -17.923 -11.131  1.00  0.00     0.031 C 
ATOM     67  C   UNL     1      -3.519 -19.463  -9.216  1.00  0.00     0.037 A 
BRANCH  54  68
ATOM     68  C   UNL     1      -3.955 -19.863  -3.060  1.00  0.00     0.057 A 
ATOM     69  C   UNL     1      -5.029 -20.309  -2.277  1.00  0.00     0.134 A 
ATOM     70  C   UNL     1      -2.667 -20.238  -2.658  1.00  0.00     0.134 A 
ATOM     71  F   UNL     1      -6.289 -19.975  -2.597  1.00  0.00    -0.206 F 
ATOM     72  C   UNL     1      -4.828 -21.072  -1.126  1.00  0.00     0.040 A 
ATOM     73  C   UNL     1      -2.455 -21.028  -1.526  1.00  0.00     0.040 A 
ATOM     74  F   UNL     1      -1.593 -19.851  -3.362  1.00  0.00    -0.206 F 
ATOM     75  C   UNL     1      -3.538 -21.440  -0.752  1.00  0.00     0.006 A 
ENDBRANCH  54  68
BRANCH  55  76
ATOM     76  C   UNL     1      -5.254 -13.950 -11.026  1.00  0.00     0.057 A 
ATOM     77  C   UNL     1      -6.204 -14.237 -12.013  1.00  0.00     0.134 A 
ATOM     78  C   UNL     1      -4.464 -12.808 -11.204  1.00  0.00     0.134 A 
ATOM     79  F   UNL     1      -6.981 -15.325 -11.906  1.00  0.00    -0.206 F 
ATOM     80  C   UNL     1      -6.345 -13.436 -13.147  1.00  0.00     0.040 A 
ATOM     81  C   UNL     1      -4.614 -11.982 -12.319  1.00  0.00     0.040 A 
ATOM     82  F   UNL     1      -3.543 -12.472 -10.290  1.00  0.00    -0.206 F 
ATOM     83  C   UNL     1      -5.551 -12.301 -13.300  1.00  0.00     0.006 A 
ENDBRANCH  55  76
BRANCH  67  84
ATOM     84  C   UNL     1      -3.083 -20.517 -10.193  1.00  0.00     0.057 A 
ATOM     85  C   UNL     1      -1.868 -20.432 -10.884  1.00  0.00     0.134 A 
ATOM     86  C   UNL     1      -3.876 -21.651 -10.415  1.00  0.00     0.134 A 
ATOM     87  F   UNL     1      -1.068 -19.367 -10.726  1.00  0.00    -0.206 F 
ATOM     88  C   UNL     1      -1.469 -21.424 -11.782  1.00  0.00     0.040 A 
ATOM     89  C   UNL     1      -3.473 -22.664 -11.285  1.00  0.00     0.040 A 
ATOM     90  F   UNL     1      -5.046 -21.800  -9.778  1.00  0.00    -0.206 F 
ATOM     91  C   UNL     1      -2.270 -22.548 -11.978  1.00  0.00     0.006 A 
ENDBRANCH  67  84
ENDBRANCH  41  42
ENDBRANCH  33  36
ENDBRANCH  31  32
ENDBRANCH  30  31
ENDBRANCH  29  30
ENDBRANCH  28  29
ENDBRANCH   1  28
TORSDOF 17
