REMARK SMILES C[C@H]1[C@H](C)CC[C@@]2(C(=O)NCCCCCCNC(=O)c3ccc(-c4c5nc(c(-c6c(F)cccc6F)c6ccc([nH]6)c(-c6c(F)cccc6F)c6nc(c(-c7c(F)cccc7F)c7ccc4[nH]7)C=C6)C=C5)cc3)CC[C@@]3(C)C(=CC[C@@H]4[C@@]5(C)CC[C@H](O)C(C)(C)[C@@H]5CC[C@]43C)[C@H]12
REMARK SMILES IDX 14 1 13 2 12 3 11 4 10 5 8 6 9 7 7 9 1 10 2 11 3 12 96 13
REMARK SMILES IDX 4 14 5 15 78 16 6 17 74 18 76 19 79 20 75 21 77 22 94 23
REMARK SMILES IDX 80 24 81 25 93 26 95 27 82 28 92 29 83 30 84 31 91 32 85 33
REMARK SMILES IDX 88 34 86 35 89 36 90 37 87 38 15 40 16 41 17 42 18 43 19 45
REMARK SMILES IDX 20 46 21 47 73 48 22 49 72 50 23 51 24 52 25 53 66 54 26 55
REMARK SMILES IDX 71 56 65 57 67 58 27 59 70 60 64 61 63 62 28 64 54 65 37 66
REMARK SMILES IDX 53 67 38 68 41 69 52 70 68 71 39 72 40 73 51 75 69 76 42 77
REMARK SMILES IDX 29 78 30 79 35 80 31 81 32 82 34 83 36 84 33 85 55 86 56 87
REMARK SMILES IDX 61 88 57 89 58 90 60 91 62 92 59 93 43 94 44 95 49 96 45 97
REMARK SMILES IDX 46 98 48 99 50 100 47 101
REMARK H PARENT 10 8 87 39 17 44 67 63 41 74
REMARK Flexibility Score: inf
ROOT
ATOM      1  C   UNL     1      -0.575  -1.750  -1.700  1.00  0.00     0.002 C 
ENDROOT
BRANCH   1   2
ATOM      2  C   UNL     1      -0.734  -0.911  -2.973  1.00  0.00     0.002 C 
BRANCH   2   3
ATOM      3  C   UNL     1      -1.585   0.367  -2.937  1.00  0.00     0.021 C 
BRANCH   3   4
ATOM      4  C   UNL     1      -1.178   1.487  -1.974  1.00  0.00     0.116 C 
BRANCH   4   5
ATOM      5  N   UNL     1       0.052   2.174  -2.321  1.00  0.00    -0.356 N 
ATOM      6  C   UNL     1       0.654   3.273  -1.767  1.00  0.00     0.226 C 
ATOM      7  O   UNL     1       1.175   4.030  -2.598  1.00  0.00    -0.274 OA
ATOM      8  H   UNL     1       0.537   1.784  -3.084  1.00  0.00     0.163 HD
BRANCH   6   9
ATOM      9  C   UNL     1       0.783   3.567  -0.221  1.00  0.00     0.056 C 
ATOM     10  C   UNL     1       1.644   0.151   1.569  1.00  0.00     0.008 C 
ATOM     11  C   UNL     1       0.784   1.200   0.841  1.00  0.00    -0.003 C 
ATOM     12  C   UNL     1      -0.490   1.581   1.664  1.00  0.00    -0.011 C 
ATOM     13  C   UNL     1       1.608   2.479   0.525  1.00  0.00     0.034 C 
ATOM     14  C   UNL     1      -1.478   0.423   1.885  1.00  0.00     0.008 C 
ATOM     15  C   UNL     1      -1.328   2.731   1.076  1.00  0.00     0.005 C 
ATOM     16  C   UNL     1       2.947   2.399  -0.239  1.00  0.00    -0.063 C 
ATOM     17  C   UNL     1      -0.587   3.868   0.410  1.00  0.00     0.018 C 
ATOM     18  C   UNL     1       1.588   4.910  -0.016  1.00  0.00     0.018 C 
ATOM     19  C   UNL     1       3.900   3.616  -0.043  1.00  0.00    -0.006 C 
ATOM     20  C   UNL     1       3.131   1.504  -1.233  1.00  0.00    -0.027 C 
ATOM     21  C   UNL     1       3.082   4.914  -0.363  1.00  0.00     0.013 C 
ATOM     22  C   UNL     1       4.352   3.687   1.440  1.00  0.00     0.017 C 
ATOM     23  C   UNL     1       5.207   3.522  -1.010  1.00  0.00    -0.020 C 
ATOM     24  C   UNL     1       4.099   1.704  -2.374  1.00  0.00     0.032 C 
ATOM     25  C   UNL     1       4.647   3.156  -2.433  1.00  0.00     0.006 C 
ATOM     26  C   UNL     1       6.020   4.845  -1.033  1.00  0.00     0.008 C 
ATOM     27  C   UNL     1       6.203   2.436  -0.494  1.00  0.00     0.012 C 
ATOM     28  C   UNL     1       5.481   3.547  -3.724  1.00  0.00    -0.025 C 
ATOM     29  C   UNL     1       7.012   4.930  -2.194  1.00  0.00     0.005 C 
ATOM     30  C   UNL     1       6.385   2.370  -4.134  1.00  0.00     0.012 C 
ATOM     31  C   UNL     1       4.470   3.825  -4.886  1.00  0.00     0.010 C 
ATOM     32  C   UNL     1       6.237   4.914  -3.515  1.00  0.00     0.003 C 
ATOM     33  C   UNL     1       5.117   4.347  -6.168  1.00  0.00     0.033 C 
ATOM     34  C   UNL     1       7.023   5.463  -4.767  1.00  0.00    -0.006 C 
ATOM     35  C   UNL     1       6.016   5.569  -5.955  1.00  0.00     0.120 C 
ATOM     36  C   UNL     1       8.286   4.655  -5.133  1.00  0.00     0.014 C 
ATOM     37  C   UNL     1       7.538   6.906  -4.487  1.00  0.00     0.014 C 
BRANCH  35  38
ATOM     38  O   UNL     1       6.688   5.865  -7.180  1.00  0.00    -0.393 OA
ATOM     39  H   UNL     1       7.265   5.123  -7.420  1.00  0.00     0.210 HD
ENDBRANCH  35  38
ENDBRANCH   6   9
ENDBRANCH   4   5
ENDBRANCH   3   4
ENDBRANCH   2   3
ENDBRANCH   1   2
BRANCH   1  40
ATOM     40  C   UNL     1      -1.828  -2.111  -0.907  1.00  0.00     0.021 C 
BRANCH  40  41
ATOM     41  C   UNL     1      -3.018  -2.674  -1.666  1.00  0.00     0.116 C 
BRANCH  41  42
ATOM     42  N   UNL     1      -2.756  -3.919  -2.357  1.00  0.00    -0.352 N 
ATOM     43  C   UNL     1      -3.529  -5.058  -2.423  1.00  0.00     0.251 C 
ATOM     44  H   UNL     1      -1.904  -3.957  -2.849  1.00  0.00     0.163 HD
ATOM     45  O   UNL     1      -3.117  -6.042  -3.017  1.00  0.00    -0.269 OA
BRANCH  43  46
ATOM     46  C   UNL     1      -4.845  -5.111  -1.736  1.00  0.00     0.039 A 
ATOM     47  C   UNL     1      -5.171  -6.261  -1.011  1.00  0.00     0.014 A 
ATOM     48  C   UNL     1      -5.753  -4.050  -1.796  1.00  0.00     0.014 A 
ATOM     49  C   UNL     1      -6.372  -6.321  -0.298  1.00  0.00     0.010 A 
ATOM     50  C   UNL     1      -6.907  -4.074  -1.015  1.00  0.00     0.010 A 
ATOM     51  C   UNL     1      -7.235  -5.214  -0.265  1.00  0.00    -0.014 A 
BRANCH  51  52
ATOM     52  C   UNL     1      -8.492  -5.242   0.530  1.00  0.00     0.031 A 
ATOM     53  C   UNL     1      -9.825  -5.118  -0.160  1.00  0.00     0.074 A 
ATOM     54  C   UNL     1      -8.436  -5.329   1.874  1.00  0.00     0.049 A 
ATOM     55  N   UNL     1     -11.026  -5.071   0.360  1.00  0.00    -0.248 NA
ATOM     56  C   UNL     1      -9.804  -5.004  -1.627  1.00  0.00     0.031 C 
ATOM     57  C   UNL     1      -7.207  -5.407   2.667  1.00  0.00     0.029 A 
ATOM     58  N   UNL     1      -9.438  -5.362   2.812  1.00  0.00    -0.354 N 
ATOM     59  C   UNL     1     -11.896  -4.909  -0.711  1.00  0.00     0.074 A 
ATOM     60  C   UNL     1     -11.084  -4.803  -1.903  1.00  0.00     0.031 C 
ATOM     61  C   UNL     1      -7.528  -5.507   3.967  1.00  0.00     0.029 A 
ATOM     62  C   UNL     1      -8.980  -5.462   4.105  1.00  0.00     0.049 A 
ATOM     63  H   UNL     1     -10.394  -5.319   2.582  1.00  0.00     0.167 HD
ATOM     64  C   UNL     1     -13.250  -4.878  -0.707  1.00  0.00     0.037 A 
ATOM     65  C   UNL     1      -9.655  -5.508   5.270  1.00  0.00     0.037 A 
ATOM     66  C   UNL     1     -14.057  -5.011   0.477  1.00  0.00     0.049 A 
ATOM     67  C   UNL     1     -11.159  -5.464   5.248  1.00  0.00     0.074 A 
ATOM     68  C   UNL     1     -15.436  -5.051   0.580  1.00  0.00     0.029 A 
ATOM     69  N   UNL     1     -13.556  -5.123   1.765  1.00  0.00    -0.354 N 
ATOM     70  N   UNL     1     -11.970  -5.379   4.221  1.00  0.00    -0.248 NA
ATOM     71  C   UNL     1     -11.842  -5.528   6.548  1.00  0.00     0.031 C 
ATOM     72  C   UNL     1     -15.771  -5.138   1.935  1.00  0.00     0.029 A 
ATOM     73  C   UNL     1     -14.599  -5.208   2.672  1.00  0.00     0.049 A 
ATOM     74  H   UNL     1     -12.600  -5.139   2.000  1.00  0.00     0.167 HD
ATOM     75  C   UNL     1     -13.255  -5.411   4.746  1.00  0.00     0.074 A 
ATOM     76  C   UNL     1     -13.116  -5.538   6.182  1.00  0.00     0.031 C 
ATOM     77  C   UNL     1     -14.444  -5.342   4.098  1.00  0.00     0.037 A 
BRANCH  64  78
ATOM     78  C   UNL     1     -13.943  -4.699  -2.028  1.00  0.00     0.057 A 
ATOM     79  C   UNL     1     -13.936  -5.699  -3.010  1.00  0.00     0.134 A 
ATOM     80  C   UNL     1     -14.654  -3.525  -2.310  1.00  0.00     0.134 A 
ATOM     81  F   UNL     1     -13.265  -6.843  -2.810  1.00  0.00    -0.206 F 
ATOM     82  C   UNL     1     -14.584  -5.527  -4.235  1.00  0.00     0.040 A 
ATOM     83  C   UNL     1     -15.331  -3.353  -3.519  1.00  0.00     0.040 A 
ATOM     84  F   UNL     1     -14.709  -2.529  -1.413  1.00  0.00    -0.206 F 
ATOM     85  C   UNL     1     -15.290  -4.353  -4.489  1.00  0.00     0.006 A 
ENDBRANCH  64  78
BRANCH  65  86
ATOM     86  C   UNL     1      -8.919  -5.622   6.556  1.00  0.00     0.057 A 
ATOM     87  C   UNL     1      -8.986  -6.789   7.326  1.00  0.00     0.134 A 
ATOM     88  C   UNL     1      -8.146  -4.566   7.053  1.00  0.00     0.134 A 
ATOM     89  F   UNL     1      -9.726  -7.829   6.913  1.00  0.00    -0.206 F 
ATOM     90  C   UNL     1      -8.329  -6.895   8.554  1.00  0.00     0.040 A 
ATOM     91  C   UNL     1      -7.461  -4.669   8.266  1.00  0.00     0.040 A 
ATOM     92  F   UNL     1      -8.034  -3.423   6.361  1.00  0.00    -0.206 F 
ATOM     93  C   UNL     1      -7.560  -5.833   9.024  1.00  0.00     0.006 A 
ENDBRANCH  65  86
BRANCH  77  94
ATOM     94  C   UNL     1     -15.689  -5.441   4.931  1.00  0.00     0.057 A 
ATOM     95  C   UNL     1     -16.100  -4.402   5.776  1.00  0.00     0.134 A 
ATOM     96  C   UNL     1     -16.507  -6.575   4.855  1.00  0.00     0.134 A 
ATOM     97  F   UNL     1     -15.355  -3.294   5.904  1.00  0.00    -0.206 F 
ATOM     98  C   UNL     1     -17.269  -4.499   6.533  1.00  0.00     0.040 A 
ATOM     99  C   UNL     1     -17.693  -6.671   5.584  1.00  0.00     0.040 A 
ATOM    100  F   UNL     1     -16.176  -7.602   4.057  1.00  0.00    -0.206 F 
ATOM    101  C   UNL     1     -18.073  -5.633   6.432  1.00  0.00     0.006 A 
ENDBRANCH  77  94
ENDBRANCH  51  52
ENDBRANCH  43  46
ENDBRANCH  41  42
ENDBRANCH  40  41
ENDBRANCH   1  40
TORSDOF 14
