REMARK SMILES Cc1ncccc1C(=O)NCCOCC(=O)NCCCCCCNC(=O)c1ccc(-c2c3nc(c(-c4c(F)cccc4F)c4ccc([nH]4)c(-c4c(F)cccc4F)c4nc(c(-c5c(F)cccc5F)c5ccc2[nH]5)C=C4)C=C3)cc1
REMARK SMILES IDX 19 1 18 2 17 3 15 4 16 5 14 7 13 8 12 9 11 10 10 11 8 12
REMARK SMILES IDX 9 13 7 15 1 16 2 17 3 18 4 19 6 20 5 21 20 22 21 23 22 24
REMARK SMILES IDX 23 25 24 26 25 27 26 29 27 30 28 31 80 32 29 33 79 34 30 35
REMARK SMILES IDX 31 36 32 37 73 38 33 39 78 40 72 41 74 42 34 43 77 44 71 45
REMARK SMILES IDX 70 46 35 48 61 49 44 50 60 51 45 52 48 53 59 54 75 55 46 56
REMARK SMILES IDX 47 57 58 59 76 60 49 61 36 62 37 63 42 64 38 65 39 66 41 67
REMARK SMILES IDX 43 68 40 69 62 70 63 71 68 72 64 73 65 74 67 75 69 76 66 77
REMARK SMILES IDX 50 78 51 79 56 80 52 81 53 82 55 83 57 84 54 85
REMARK H PARENT 17 6 10 14 24 28 74 47 48 58
REMARK Flexibility Score: inf
ROOT
ATOM      1  C   UNL     1       5.511  -2.429   4.889  1.00  0.00     0.021 C 
ENDROOT
BRANCH   1   2
ATOM      2  C   UNL     1       5.446  -3.764   4.144  1.00  0.00     0.116 C 
BRANCH   2   3
ATOM      3  N   UNL     1       4.083  -4.172   3.871  1.00  0.00    -0.354 N 
ATOM      4  C   UNL     1       3.516  -4.458   2.662  1.00  0.00     0.245 C 
ATOM      5  O   UNL     1       2.337  -4.805   2.619  1.00  0.00    -0.272 OA
ATOM      6  H   UNL     1       3.492  -4.252   4.655  1.00  0.00     0.163 HD
BRANCH   4   7
ATOM      7  C   UNL     1       4.370  -4.316   1.392  1.00  0.00     0.260 C 
BRANCH   7   8
ATOM      8  O   UNL     1       4.945  -3.061   1.062  1.00  0.00    -0.370 OA
BRANCH   8   9
ATOM      9  C   UNL     1       4.197  -1.913   1.453  1.00  0.00     0.182 C 
BRANCH   9  10
ATOM     10  C   UNL     1       3.221  -1.395   0.404  1.00  0.00     0.144 C 
BRANCH  10  11
ATOM     11  N   UNL     1       2.196  -2.321  -0.028  1.00  0.00    -0.350 N 
ATOM     12  C   UNL     1       0.900  -2.128  -0.425  1.00  0.00     0.253 C 
ATOM     13  O   UNL     1       0.290  -3.107  -0.860  1.00  0.00    -0.269 OA
ATOM     14  H   UNL     1       2.484  -3.262  -0.038  1.00  0.00     0.163 HD
BRANCH  12  15
ATOM     15  C   UNL     1       0.163  -0.846  -0.289  1.00  0.00     0.061 A 
ATOM     16  C   UNL     1       1.896   0.754  -1.305  1.00  0.00     0.067 C 
ATOM     17  C   UNL     1       0.591   0.435  -0.647  1.00  0.00     0.050 A 
ATOM     18  N   UNL     1      -0.195   1.540  -0.470  1.00  0.00    -0.261 NA
ATOM     19  C   UNL     1      -1.458   1.367  -0.028  1.00  0.00     0.111 A 
ATOM     20  C   UNL     1      -1.171  -0.979   0.143  1.00  0.00     0.017 A 
ATOM     21  C   UNL     1      -1.996   0.134   0.266  1.00  0.00     0.021 A 
ENDBRANCH  12  15
ENDBRANCH  10  11
ENDBRANCH   9  10
ENDBRANCH   8   9
ENDBRANCH   7   8
ENDBRANCH   4   7
ENDBRANCH   2   3
ENDBRANCH   1   2
BRANCH   1  22
ATOM     22  C   UNL     1       4.829  -2.429   6.261  1.00  0.00     0.002 C 
BRANCH  22  23
ATOM     23  C   UNL     1       5.264  -3.558   7.199  1.00  0.00     0.002 C 
BRANCH  23  24
ATOM     24  C   UNL     1       6.774  -3.668   7.418  1.00  0.00     0.021 C 
BRANCH  24  25
ATOM     25  C   UNL     1       7.419  -2.413   7.992  1.00  0.00     0.116 C 
BRANCH  25  26
ATOM     26  N   UNL     1       6.929  -2.112   9.327  1.00  0.00    -0.352 N 
ATOM     27  C   UNL     1       7.635  -1.946  10.489  1.00  0.00     0.251 C 
ATOM     28  H   UNL     1       5.952  -2.014   9.407  1.00  0.00     0.163 HD
ATOM     29  O   UNL     1       7.050  -1.909  11.570  1.00  0.00    -0.269 OA
BRANCH  27  30
ATOM     30  C   UNL     1       9.107  -1.830  10.442  1.00  0.00     0.039 A 
ATOM     31  C   UNL     1       9.872  -2.545  11.366  1.00  0.00     0.014 A 
ATOM     32  C   UNL     1       9.729  -1.019   9.489  1.00  0.00     0.014 A 
ATOM     33  C   UNL     1      11.265  -2.489  11.297  1.00  0.00     0.010 A 
ATOM     34  C   UNL     1      11.115  -1.028   9.371  1.00  0.00     0.010 A 
ATOM     35  C   UNL     1      11.898  -1.758  10.279  1.00  0.00    -0.014 A 
BRANCH  35  36
ATOM     36  C   UNL     1      13.377  -1.743  10.149  1.00  0.00     0.031 A 
ATOM     37  C   UNL     1      14.138  -0.456  10.310  1.00  0.00     0.074 A 
ATOM     38  C   UNL     1      14.028  -2.878   9.829  1.00  0.00     0.049 A 
ATOM     39  N   UNL     1      15.421  -0.232  10.177  1.00  0.00    -0.248 NA
ATOM     40  C   UNL     1      13.351   0.743  10.638  1.00  0.00     0.031 C 
ATOM     41  C   UNL     1      13.398  -4.180   9.602  1.00  0.00     0.029 A 
ATOM     42  N   UNL     1      15.364  -3.117   9.630  1.00  0.00    -0.354 N 
ATOM     43  C   UNL     1      15.591   1.129  10.394  1.00  0.00     0.074 A 
ATOM     44  C   UNL     1      14.275   1.691  10.609  1.00  0.00     0.031 C 
ATOM     45  C   UNL     1      14.349  -5.085   9.322  1.00  0.00     0.029 A 
ATOM     46  C   UNL     1      15.648  -4.422   9.306  1.00  0.00     0.049 A 
ATOM     47  H   UNL     1      16.055  -2.420   9.712  1.00  0.00     0.167 HD
ATOM     48  C   UNL     1      16.741   1.843  10.435  1.00  0.00     0.037 A 
ATOM     49  C   UNL     1      16.823  -5.014   9.019  1.00  0.00     0.037 A 
ATOM     50  C   UNL     1      18.050   1.276  10.238  1.00  0.00     0.049 A 
ATOM     51  C   UNL     1      18.084  -4.195   9.050  1.00  0.00     0.074 A 
ATOM     52  C   UNL     1      19.281   1.904  10.314  1.00  0.00     0.029 A 
ATOM     53  N   UNL     1      18.297  -0.050   9.918  1.00  0.00    -0.354 N 
ATOM     54  N   UNL     1      18.238  -2.922   9.326  1.00  0.00    -0.248 NA
ATOM     55  C   UNL     1      19.337  -4.896   8.735  1.00  0.00     0.031 C 
ATOM     56  C   UNL     1      20.269   0.971   9.986  1.00  0.00     0.029 A 
ATOM     57  C   UNL     1      19.659  -0.254   9.765  1.00  0.00     0.049 A 
ATOM     58  H   UNL     1      17.607  -0.745   9.814  1.00  0.00     0.167 HD
ATOM     59  C   UNL     1      19.603  -2.678   9.249  1.00  0.00     0.074 A 
ATOM     60  C   UNL     1      20.234  -3.938   8.916  1.00  0.00     0.031 C 
ATOM     61  C   UNL     1      20.274  -1.516   9.440  1.00  0.00     0.037 A 
BRANCH  48  62
ATOM     62  C   UNL     1      16.635   3.317  10.704  1.00  0.00     0.057 A 
ATOM     63  C   UNL     1      16.240   3.816  11.953  1.00  0.00     0.134 A 
ATOM     64  C   UNL     1      16.965   4.250   9.713  1.00  0.00     0.134 A 
ATOM     65  F   UNL     1      15.898   2.978  12.943  1.00  0.00    -0.206 F 
ATOM     66  C   UNL     1      16.149   5.188  12.197  1.00  0.00     0.040 A 
ATOM     67  C   UNL     1      16.909   5.624   9.955  1.00  0.00     0.040 A 
ATOM     68  F   UNL     1      17.358   3.843   8.497  1.00  0.00    -0.206 F 
ATOM     69  C   UNL     1      16.492   6.096  11.198  1.00  0.00     0.006 A 
ENDBRANCH  48  62
BRANCH  49  70
ATOM     70  C   UNL     1      16.867  -6.463   8.693  1.00  0.00     0.057 A 
ATOM     71  C   UNL     1      17.468  -7.381   9.561  1.00  0.00     0.134 A 
ATOM     72  C   UNL     1      16.322  -6.963   7.503  1.00  0.00     0.134 A 
ATOM     73  F   UNL     1      18.024  -6.962  10.708  1.00  0.00    -0.206 F 
ATOM     74  C   UNL     1      17.549  -8.739   9.249  1.00  0.00     0.040 A 
ATOM     75  C   UNL     1      16.370  -8.322   7.192  1.00  0.00     0.040 A 
ATOM     76  F   UNL     1      15.724  -6.137   6.633  1.00  0.00    -0.206 F 
ATOM     77  C   UNL     1      16.994  -9.214   8.062  1.00  0.00     0.006 A 
ENDBRANCH  49  70
BRANCH  61  78
ATOM     78  C   UNL     1      21.771  -1.559   9.332  1.00  0.00     0.057 A 
ATOM     79  C   UNL     1      22.424  -1.735   8.104  1.00  0.00     0.134 A 
ATOM     80  C   UNL     1      22.571  -1.384  10.469  1.00  0.00     0.134 A 
ATOM     81  F   UNL     1      21.717  -1.921   6.979  1.00  0.00    -0.206 F 
ATOM     82  C   UNL     1      23.817  -1.760   8.016  1.00  0.00     0.040 A 
ATOM     83  C   UNL     1      23.964  -1.376  10.389  1.00  0.00     0.040 A 
ATOM     84  F   UNL     1      22.012  -1.201  11.674  1.00  0.00    -0.206 F 
ATOM     85  C   UNL     1      24.591  -1.572   9.160  1.00  0.00     0.006 A 
ENDBRANCH  61  78
ENDBRANCH  35  36
ENDBRANCH  27  30
ENDBRANCH  25  26
ENDBRANCH  24  25
ENDBRANCH  23  24
ENDBRANCH  22  23
ENDBRANCH   1  22
TORSDOF 18
