REMARK SMILES Cc1cc(=O)c(Oc2ccc(C(=O)NCCCCCCNC(=O)c3ccc(-c4c5nc(c(-c6c(F)cccc6F)c6ccc([nH]6)c(-c6c(F)cccc6F)c6nc(c(-c7c(F)cccc7F)c7ccc4[nH]7)C=C6)C=C5)cc3)cc2)c(-c2ccc(S(C)(=O)=O)cc2)o1
REMARK SMILES IDX 16 1 15 2 14 3 12 4 13 5 11 7 8 8 9 9 79 10 10 11 78 12 7 13
REMARK SMILES IDX 6 14 1 15 2 16 3 17 91 18 4 19 80 20 5 21 81 22 82 23 90 24
REMARK SMILES IDX 83 25 89 26 84 27 85 28 86 29 87 30 88 31 17 32 18 33 19 34
REMARK SMILES IDX 20 35 21 36 22 37 23 39 24 40 25 41 77 42 26 43 76 44 27 45
REMARK SMILES IDX 28 46 29 47 70 48 30 49 75 50 69 51 71 52 31 53 74 54 68 55
REMARK SMILES IDX 67 56 32 58 58 59 41 60 57 61 42 62 45 63 56 64 72 65 43 66
REMARK SMILES IDX 44 67 55 69 73 70 46 71 33 72 34 73 39 74 35 75 36 76 38 77
REMARK SMILES IDX 40 78 37 79 59 80 60 81 65 82 61 83 62 84 64 85 66 86 63 87
REMARK SMILES IDX 47 88 48 89 53 90 49 91 50 92 52 93 54 94 51 95
REMARK H PARENT 14 6 21 38 71 57 45 68
REMARK Flexibility Score: inf
ROOT
ATOM      1  C   UNL     1      -6.456  -2.440  -7.559  1.00  0.00     0.021 C 
ENDROOT
BRANCH   1   2
ATOM      2  C   UNL     1      -5.123  -3.134  -7.825  1.00  0.00     0.116 C 
BRANCH   2   3
ATOM      3  N   UNL     1      -4.247  -2.482  -8.777  1.00  0.00    -0.352 N 
ATOM      4  C   UNL     1      -2.874  -2.512  -8.902  1.00  0.00     0.251 C 
ATOM      5  O   UNL     1      -2.352  -1.983  -9.880  1.00  0.00    -0.269 OA
ATOM      6  H   UNL     1      -4.708  -1.926  -9.446  1.00  0.00     0.163 HD
BRANCH   4   7
ATOM      7  C   UNL     1      -2.003  -3.058  -7.825  1.00  0.00     0.040 A 
ATOM      8  C   UNL     1      -0.620  -3.534  -5.460  1.00  0.00     0.127 A 
ATOM      9  C   UNL     1      -0.087  -2.648  -6.388  1.00  0.00     0.048 A 
ATOM     10  C   UNL     1      -1.688  -4.355  -5.816  1.00  0.00     0.048 A 
ATOM     11  C   UNL     1      -0.804  -2.379  -7.557  1.00  0.00     0.017 A 
ATOM     12  C   UNL     1      -2.356  -4.141  -7.021  1.00  0.00     0.017 A 
BRANCH   8  13
ATOM     13  O   UNL     1      -0.104  -3.705  -4.211  1.00  0.00    -0.449 OA
BRANCH  13  14
ATOM     14  C   UNL     1      -0.016  -2.692  -3.263  1.00  0.00     0.217 A 
ATOM     15  C   UNL     1       0.789   0.152  -0.108  1.00  0.00     0.088 C 
ATOM     16  C   UNL     1       0.515  -0.919  -1.113  1.00  0.00     0.105 A 
ATOM     17  C   UNL     1       0.925  -2.178  -0.946  1.00  0.00     0.098 A 
ATOM     18  O   UNL     1      -0.199  -0.513  -2.219  1.00  0.00    -0.457 OA
ATOM     19  C   UNL     1       0.650  -3.159  -2.003  1.00  0.00     0.228 A 
ATOM     20  C   UNL     1      -0.453  -1.403  -3.261  1.00  0.00     0.180 A 
ATOM     21  O   UNL     1       0.970  -4.332  -1.826  1.00  0.00    -0.285 OA
BRANCH  20  22
ATOM     22  C   UNL     1      -1.225  -0.710  -4.312  1.00  0.00     0.021 A 
ATOM     23  C   UNL     1      -0.612   0.302  -5.072  1.00  0.00     0.013 A 
ATOM     24  C   UNL     1      -2.571  -1.020  -4.551  1.00  0.00     0.013 A 
ATOM     25  C   UNL     1      -1.304   0.932  -6.111  1.00  0.00     0.021 A 
ATOM     26  C   UNL     1      -3.273  -0.382  -5.581  1.00  0.00     0.021 A 
ATOM     27  C   UNL     1      -2.632   0.581  -6.363  1.00  0.00     0.067 A 
BRANCH  27  28
ATOM     28  S   UNL     1      -3.469   1.308  -7.756  1.00  0.00     0.175 S 
ATOM     29  C   UNL     1      -3.882   2.935  -7.195  1.00  0.00     0.163 C 
ATOM     30  O   UNL     1      -2.498   1.441  -8.822  1.00  0.00    -0.224 OA
ATOM     31  O   UNL     1      -4.716   0.589  -7.954  1.00  0.00    -0.224 OA
ENDBRANCH  27  28
ENDBRANCH  20  22
ENDBRANCH  13  14
ENDBRANCH   8  13
ENDBRANCH   4   7
ENDBRANCH   2   3
ENDBRANCH   1   2
BRANCH   1  32
ATOM     32  C   UNL     1      -7.343  -2.128  -8.763  1.00  0.00     0.002 C 
BRANCH  32  33
ATOM     33  C   UNL     1      -7.618  -3.276  -9.735  1.00  0.00     0.002 C 
BRANCH  33  34
ATOM     34  C   UNL     1      -8.139  -4.575  -9.124  1.00  0.00     0.021 C 
BRANCH  34  35
ATOM     35  C   UNL     1      -9.384  -4.449  -8.259  1.00  0.00     0.116 C 
BRANCH  35  36
ATOM     36  N   UNL     1     -10.566  -4.029  -8.995  1.00  0.00    -0.352 N 
ATOM     37  C   UNL     1     -11.830  -4.576  -8.997  1.00  0.00     0.251 C 
ATOM     38  H   UNL     1     -10.446  -3.241  -9.574  1.00  0.00     0.163 HD
ATOM     39  O   UNL     1     -12.687  -4.161  -9.771  1.00  0.00    -0.269 OA
BRANCH  37  40
ATOM     40  C   UNL     1     -12.143  -5.701  -8.086  1.00  0.00     0.039 A 
ATOM     41  C   UNL     1     -11.722  -5.676  -6.756  1.00  0.00     0.014 A 
ATOM     42  C   UNL     1     -12.829  -6.815  -8.579  1.00  0.00     0.014 A 
ATOM     43  C   UNL     1     -11.808  -6.829  -5.985  1.00  0.00     0.010 A 
ATOM     44  C   UNL     1     -13.010  -7.939  -7.764  1.00  0.00     0.010 A 
ATOM     45  C   UNL     1     -12.451  -7.978  -6.477  1.00  0.00    -0.014 A 
BRANCH  45  46
ATOM     46  C   UNL     1     -12.507  -9.199  -5.627  1.00  0.00     0.031 A 
ATOM     47  C   UNL     1     -11.835 -10.478  -6.061  1.00  0.00     0.074 A 
ATOM     48  C   UNL     1     -13.097  -9.131  -4.417  1.00  0.00     0.049 A 
ATOM     49  N   UNL     1     -11.755 -11.624  -5.430  1.00  0.00    -0.248 NA
ATOM     50  C   UNL     1     -11.167 -10.473  -7.372  1.00  0.00     0.031 C 
ATOM     51  C   UNL     1     -13.768  -7.949  -3.869  1.00  0.00     0.029 A 
ATOM     52  N   UNL     1     -13.204 -10.063  -3.415  1.00  0.00    -0.354 N 
ATOM     53  C   UNL     1     -11.034 -12.471  -6.264  1.00  0.00     0.074 A 
ATOM     54  C   UNL     1     -10.740 -11.724  -7.467  1.00  0.00     0.031 C 
ATOM     55  C   UNL     1     -14.162  -8.207  -2.614  1.00  0.00     0.029 A 
ATOM     56  C   UNL     1     -13.843  -9.593  -2.293  1.00  0.00     0.049 A 
ATOM     57  H   UNL     1     -12.856 -10.980  -3.493  1.00  0.00     0.167 HD
ATOM     58  C   UNL     1     -10.632 -13.747  -6.041  1.00  0.00     0.037 A 
ATOM     59  C   UNL     1     -14.159 -10.214  -1.142  1.00  0.00     0.037 A 
ATOM     60  C   UNL     1     -10.925 -14.495  -4.844  1.00  0.00     0.049 A 
ATOM     61  C   UNL     1     -13.784 -11.660  -0.968  1.00  0.00     0.074 A 
ATOM     62  C   UNL     1     -10.575 -15.798  -4.532  1.00  0.00     0.029 A 
ATOM     63  N   UNL     1     -11.639 -14.005  -3.761  1.00  0.00    -0.354 N 
ATOM     64  N   UNL     1     -13.094 -12.441  -1.762  1.00  0.00    -0.248 NA
ATOM     65  C   UNL     1     -14.243 -12.312   0.267  1.00  0.00     0.031 C 
ATOM     66  C   UNL     1     -11.116 -16.110  -3.280  1.00  0.00     0.029 A 
ATOM     67  C   UNL     1     -11.755 -14.985  -2.788  1.00  0.00     0.049 A 
ATOM     68  H   UNL     1     -12.009 -13.095  -3.693  1.00  0.00     0.167 HD
ATOM     69  C   UNL     1     -13.011 -13.664  -1.111  1.00  0.00     0.074 A 
ATOM     70  C   UNL     1     -13.695 -13.512   0.155  1.00  0.00     0.031 C 
ATOM     71  C   UNL     1     -12.427 -14.815  -1.526  1.00  0.00     0.037 A 
BRANCH  58  72
ATOM     72  C   UNL     1      -9.833 -14.423  -7.120  1.00  0.00     0.057 A 
ATOM     73  C   UNL     1     -10.372 -15.486  -7.856  1.00  0.00     0.134 A 
ATOM     74  C   UNL     1      -8.512 -14.050  -7.401  1.00  0.00     0.134 A 
ATOM     75  F   UNL     1     -11.627 -15.903  -7.633  1.00  0.00    -0.206 F 
ATOM     76  C   UNL     1      -9.626 -16.155  -8.829  1.00  0.00     0.040 A 
ATOM     77  C   UNL     1      -7.764 -14.693  -8.390  1.00  0.00     0.040 A 
ATOM     78  F   UNL     1      -7.937 -13.034  -6.740  1.00  0.00    -0.206 F 
ATOM     79  C   UNL     1      -8.320 -15.754  -9.103  1.00  0.00     0.006 A 
ENDBRANCH  58  72
BRANCH  59  80
ATOM     80  C   UNL     1     -14.900  -9.499  -0.070  1.00  0.00     0.057 A 
ATOM     81  C   UNL     1     -16.223  -9.078  -0.255  1.00  0.00     0.134 A 
ATOM     82  C   UNL     1     -14.328  -9.287   1.190  1.00  0.00     0.134 A 
ATOM     83  F   UNL     1     -16.829  -9.245  -1.439  1.00  0.00    -0.206 F 
ATOM     84  C   UNL     1     -16.951  -8.481   0.774  1.00  0.00     0.040 A 
ATOM     85  C   UNL     1     -15.056  -8.725   2.239  1.00  0.00     0.040 A 
ATOM     86  F   UNL     1     -13.070  -9.685   1.437  1.00  0.00    -0.206 F 
ATOM     87  C   UNL     1     -16.373  -8.320   2.031  1.00  0.00     0.006 A 
ENDBRANCH  59  80
BRANCH  71  88
ATOM     88  C   UNL     1     -12.464 -15.977  -0.575  1.00  0.00     0.057 A 
ATOM     89  C   UNL     1     -11.293 -16.419   0.055  1.00  0.00     0.134 A 
ATOM     90  C   UNL     1     -13.653 -16.657  -0.278  1.00  0.00     0.134 A 
ATOM     91  F   UNL     1     -10.119 -15.818  -0.190  1.00  0.00    -0.206 F 
ATOM     92  C   UNL     1     -11.305 -17.490   0.949  1.00  0.00     0.040 A 
ATOM     93  C   UNL     1     -13.682 -17.708   0.640  1.00  0.00     0.040 A 
ATOM     94  F   UNL     1     -14.813 -16.273  -0.833  1.00  0.00    -0.206 F 
ATOM     95  C   UNL     1     -12.504 -18.130   1.252  1.00  0.00     0.006 A 
ENDBRANCH  71  88
ENDBRANCH  45  46
ENDBRANCH  37  40
ENDBRANCH  35  36
ENDBRANCH  34  35
ENDBRANCH  33  34
ENDBRANCH  32  33
ENDBRANCH   1  32
TORSDOF 17
