REMARK SMILES CCOc1cc(OCC)cc(-c2ccc([C@@H](C)C(=O)NCCCCCCNC(=O)c3ccc(-c4c5nc(c(-c6c(F)cccc6F)c6ccc([nH]6)c(-c6c(F)cccc6F)c6nc(c(-c7c(F)cccc7F)c7ccc4[nH]7)C=C6)C=C5)cc3)cc2)c1
REMARK SMILES IDX 22 1 21 2 20 3 18 4 19 5 16 7 17 8 15 9 12 10 13 11 85 12
REMARK SMILES IDX 14 13 84 14 11 15 4 16 5 17 86 18 6 19 10 20 3 21 2 22 1 23
REMARK SMILES IDX 7 24 8 25 9 26 23 27 24 28 25 29 26 30 27 31 28 32 29 34
REMARK SMILES IDX 30 35 31 36 83 37 32 38 82 39 33 40 34 41 35 42 76 43 36 44
REMARK SMILES IDX 81 45 75 46 77 47 37 48 80 49 74 50 73 51 38 53 64 54 47 55
REMARK SMILES IDX 63 56 48 57 51 58 62 59 78 60 49 61 50 62 61 64 79 65 52 66
REMARK SMILES IDX 39 67 40 68 45 69 41 70 42 71 44 72 46 73 43 74 65 75 66 76
REMARK SMILES IDX 71 77 67 78 68 79 70 80 72 81 69 82 53 83 54 84 59 85 55 86
REMARK SMILES IDX 56 87 58 88 60 89 57 90
REMARK H PARENT 20 6 27 33 77 52 51 63
REMARK Flexibility Score: inf
ROOT
ATOM      1  C   UNL     1       8.497  -1.535   1.321  1.00  0.00     0.021 C 
ENDROOT
BRANCH   1   2
ATOM      2  C   UNL     1       9.339  -2.344   0.331  1.00  0.00     0.116 C 
BRANCH   2   3
ATOM      3  N   UNL     1       8.623  -3.502  -0.162  1.00  0.00    -0.356 N 
ATOM      4  C   UNL     1       7.991  -3.746  -1.341  1.00  0.00     0.227 C 
ATOM      5  O   UNL     1       7.386  -4.822  -1.424  1.00  0.00    -0.274 OA
ATOM      6  H   UNL     1       8.588  -4.251   0.475  1.00  0.00     0.163 HD
BRANCH   4   7
ATOM      7  C   UNL     1       8.003  -2.784  -2.539  1.00  0.00     0.105 C 
ATOM      8  C   UNL     1       9.396  -2.477  -3.087  1.00  0.00     0.023 C 
BRANCH   7   9
ATOM      9  C   UNL     1       7.096  -1.580  -2.353  1.00  0.00    -0.036 A 
ATOM     10  C   UNL     1       5.299   0.581  -1.885  1.00  0.00    -0.018 A 
ATOM     11  C   UNL     1       6.640   0.634  -1.475  1.00  0.00     0.009 A 
ATOM     12  C   UNL     1       4.881  -0.572  -2.561  1.00  0.00     0.009 A 
ATOM     13  C   UNL     1       7.530  -0.403  -1.744  1.00  0.00     0.005 A 
ATOM     14  C   UNL     1       5.758  -1.644  -2.772  1.00  0.00     0.005 A 
BRANCH  10  15
ATOM     15  C   UNL     1       4.393   1.707  -1.587  1.00  0.00    -0.011 A 
ATOM     16  C   UNL     1       2.242   2.587  -0.872  1.00  0.00     0.123 A 
ATOM     17  C   UNL     1       2.762   3.882  -0.851  1.00  0.00     0.092 A 
ATOM     18  C   UNL     1       3.048   1.514  -1.252  1.00  0.00     0.055 A 
ATOM     19  C   UNL     1       4.090   4.111  -1.211  1.00  0.00     0.123 A 
ATOM     20  C   UNL     1       4.880   3.027  -1.591  1.00  0.00     0.055 A 
BRANCH  16  21
ATOM     21  O   UNL     1       0.904   2.421  -0.642  1.00  0.00    -0.494 OA
BRANCH  21  22
ATOM     22  C   UNL     1       0.593   1.646   0.523  1.00  0.00     0.226 C 
ATOM     23  C   UNL     1       0.500   0.155   0.231  1.00  0.00     0.049 C 
ENDBRANCH  21  22
ENDBRANCH  16  21
BRANCH  19  24
ATOM     24  O   UNL     1       4.528   5.406  -1.133  1.00  0.00    -0.494 OA
BRANCH  24  25
ATOM     25  C   UNL     1       5.793   5.725  -1.726  1.00  0.00     0.226 C 
ATOM     26  C   UNL     1       6.949   5.501  -0.759  1.00  0.00     0.049 C 
ENDBRANCH  24  25
ENDBRANCH  19  24
ENDBRANCH  10  15
ENDBRANCH   7   9
ENDBRANCH   4   7
ENDBRANCH   2   3
ENDBRANCH   1   2
BRANCH   1  27
ATOM     27  C   UNL     1       8.638  -2.002   2.774  1.00  0.00     0.002 C 
BRANCH  27  28
ATOM     28  C   UNL     1      10.050  -1.875   3.362  1.00  0.00     0.002 C 
BRANCH  28  29
ATOM     29  C   UNL     1      10.664  -0.474   3.290  1.00  0.00     0.021 C 
BRANCH  29  30
ATOM     30  C   UNL     1       9.882   0.596   4.045  1.00  0.00     0.116 C 
BRANCH  30  31
ATOM     31  N   UNL     1       9.835   0.318   5.473  1.00  0.00    -0.352 N 
ATOM     32  C   UNL     1      10.312   1.061   6.523  1.00  0.00     0.251 C 
ATOM     33  H   UNL     1       9.396  -0.527   5.722  1.00  0.00     0.163 HD
ATOM     34  O   UNL     1      10.409   0.565   7.639  1.00  0.00    -0.269 OA
BRANCH  32  35
ATOM     35  C   UNL     1      10.712   2.467   6.305  1.00  0.00     0.039 A 
ATOM     36  C   UNL     1      11.889   2.939   6.891  1.00  0.00     0.014 A 
ATOM     37  C   UNL     1       9.907   3.323   5.548  1.00  0.00     0.014 A 
ATOM     38  C   UNL     1      12.285   4.261   6.677  1.00  0.00     0.010 A 
ATOM     39  C   UNL     1      10.339   4.617   5.277  1.00  0.00     0.010 A 
ATOM     40  C   UNL     1      11.526   5.102   5.848  1.00  0.00    -0.014 A 
BRANCH  40  41
ATOM     41  C   UNL     1      11.932   6.505   5.583  1.00  0.00     0.031 A 
ATOM     42  C   UNL     1      11.057   7.636   6.049  1.00  0.00     0.074 A 
ATOM     43  C   UNL     1      13.041   6.758   4.864  1.00  0.00     0.049 A 
ATOM     44  N   UNL     1      11.175   8.920   5.826  1.00  0.00    -0.248 NA
ATOM     45  C   UNL     1       9.877   7.270   6.848  1.00  0.00     0.031 C 
ATOM     46  C   UNL     1      13.953   5.745   4.329  1.00  0.00     0.029 A 
ATOM     47  N   UNL     1      13.582   7.947   4.446  1.00  0.00    -0.354 N 
ATOM     48  C   UNL     1      10.076   9.510   6.439  1.00  0.00     0.074 A 
ATOM     49  C   UNL     1       9.276   8.441   6.996  1.00  0.00     0.031 C 
ATOM     50  C   UNL     1      14.949   6.358   3.668  1.00  0.00     0.029 A 
ATOM     51  C   UNL     1      14.724   7.800   3.697  1.00  0.00     0.049 A 
ATOM     52  H   UNL     1      13.188   8.823   4.661  1.00  0.00     0.167 HD
ATOM     53  C   UNL     1       9.773  10.826   6.547  1.00  0.00     0.037 A 
ATOM     54  C   UNL     1      15.495   8.724   3.094  1.00  0.00     0.037 A 
ATOM     55  C   UNL     1      10.585  11.887   6.011  1.00  0.00     0.049 A 
ATOM     56  C   UNL     1      15.130  10.178   3.214  1.00  0.00     0.074 A 
ATOM     57  C   UNL     1      10.392  13.253   6.109  1.00  0.00     0.029 A 
ATOM     58  N   UNL     1      11.745  11.697   5.276  1.00  0.00    -0.354 N 
ATOM     59  N   UNL     1      14.117  10.726   3.841  1.00  0.00    -0.248 NA
ATOM     60  C   UNL     1      16.017  11.141   2.547  1.00  0.00     0.031 C 
ATOM     61  C   UNL     1      11.412  13.890   5.394  1.00  0.00     0.029 A 
ATOM     62  C   UNL     1      12.269  12.921   4.897  1.00  0.00     0.049 A 
ATOM     63  H   UNL     1      12.138  10.821   5.056  1.00  0.00     0.167 HD
ATOM     64  C   UNL     1      14.265  12.098   3.675  1.00  0.00     0.074 A 
ATOM     65  C   UNL     1      15.468  12.297   2.893  1.00  0.00     0.031 C 
ATOM     66  C   UNL     1      13.477  13.102   4.132  1.00  0.00     0.037 A 
BRANCH  53  67
ATOM     67  C   UNL     1       8.509  11.186   7.273  1.00  0.00     0.057 A 
ATOM     68  C   UNL     1       8.372  11.006   8.656  1.00  0.00     0.134 A 
ATOM     69  C   UNL     1       7.421  11.738   6.585  1.00  0.00     0.134 A 
ATOM     70  F   UNL     1       9.371  10.471   9.374  1.00  0.00    -0.206 F 
ATOM     71  C   UNL     1       7.189  11.332   9.323  1.00  0.00     0.040 A 
ATOM     72  C   UNL     1       6.244  12.095   7.245  1.00  0.00     0.040 A 
ATOM     73  F   UNL     1       7.485  11.943   5.260  1.00  0.00    -0.206 F 
ATOM     74  C   UNL     1       6.123  11.884   8.617  1.00  0.00     0.006 A 
ENDBRANCH  53  67
BRANCH  54  75
ATOM     75  C   UNL     1      16.705   8.305   2.341  1.00  0.00     0.057 A 
ATOM     76  C   UNL     1      17.987   8.590   2.823  1.00  0.00     0.134 A 
ATOM     77  C   UNL     1      16.611   7.617   1.125  1.00  0.00     0.134 A 
ATOM     78  F   UNL     1      18.141   9.262   3.974  1.00  0.00    -0.206 F 
ATOM     79  C   UNL     1      19.134   8.225   2.116  1.00  0.00     0.040 A 
ATOM     80  C   UNL     1      17.749   7.223   0.419  1.00  0.00     0.040 A 
ATOM     81  F   UNL     1      15.412   7.305   0.613  1.00  0.00    -0.206 F 
ATOM     82  C   UNL     1      19.016   7.535   0.911  1.00  0.00     0.006 A 
ENDBRANCH  54  75
BRANCH  66  83
ATOM     83  C   UNL     1      13.916  14.508   3.843  1.00  0.00     0.057 A 
ATOM     84  C   UNL     1      13.831  15.065   2.562  1.00  0.00     0.134 A 
ATOM     85  C   UNL     1      14.385  15.329   4.877  1.00  0.00     0.134 A 
ATOM     86  F   UNL     1      13.402  14.327   1.526  1.00  0.00    -0.206 F 
ATOM     87  C   UNL     1      14.215  16.384   2.314  1.00  0.00     0.040 A 
ATOM     88  C   UNL     1      14.746  16.657   4.647  1.00  0.00     0.040 A 
ATOM     89  F   UNL     1      14.482  14.860   6.130  1.00  0.00    -0.206 F 
ATOM     90  C   UNL     1      14.666  17.186   3.361  1.00  0.00     0.006 A 
ENDBRANCH  66  83
ENDBRANCH  40  41
ENDBRANCH  32  35
ENDBRANCH  30  31
ENDBRANCH  29  30
ENDBRANCH  28  29
ENDBRANCH  27  28
ENDBRANCH   1  27
TORSDOF 19
