REMARK SMILES C[N@H+]1[C@H]2CC[C@@H]1CN(c1nc3c(cc1C(=O)NCCCCCCNC(=O)c1ccc(-c4c5nc(c(-c6c(F)cccc6F)c6ccc([nH]6)c(-c6c(F)cccc6F)c6nc(c(-c7c(F)cccc7F)c7ccc4[nH]7)C=C6)C=C5)cc1)CCC3)CC2
REMARK SMILES IDX 20 1 19 2 18 3 17 4 15 5 16 6 14 8 9 9 10 10 11 11 13 12
REMARK SMILES IDX 12 13 83 14 81 15 82 16 8 17 7 18 6 19 1 20 2 21 3 22 4 24
REMARK SMILES IDX 5 26 84 27 85 28 21 30 22 31 23 32 24 33 25 34 26 36 27 37
REMARK SMILES IDX 28 38 80 39 29 40 79 41 30 42 31 43 32 44 73 45 33 46 78 47
REMARK SMILES IDX 72 48 74 49 34 50 77 51 71 52 70 53 35 55 61 56 44 57 60 58
REMARK SMILES IDX 45 59 48 60 59 61 75 62 46 63 47 64 58 66 76 67 49 68 36 69
REMARK SMILES IDX 37 70 42 71 38 72 39 73 41 74 43 75 40 76 62 77 63 78 68 79
REMARK SMILES IDX 64 80 65 81 67 82 69 83 66 84 50 85 51 86 56 87 52 88 53 89
REMARK SMILES IDX 55 90 57 91 54 92
REMARK H PARENT 17 7 2 23 24 35 74 54 48 65
REMARK Flexibility Score: 90.00
ROOT
ATOM      1  C   UNL     1       2.363   0.148   0.019  1.00  0.00     0.002 C 
ENDROOT
BRANCH   1   2
ATOM      2  C   UNL     1       1.507   0.736   1.515  1.00  0.00     0.021 C 
BRANCH   2   3
ATOM      3  C   UNL     1       1.329  -0.186   3.502  1.00  0.00     0.116 C 
BRANCH   3   4
ATOM      4  N   UNL     1       2.382  -1.069   4.341  1.00  0.00    -0.352 N 
ATOM      5  C   UNL     1       2.168  -1.712   5.523  1.00  0.00     0.255 C 
ATOM      6  O   UNL     1       3.066  -2.400   6.002  1.00  0.00    -0.269 OA
ATOM      7  H   UNL     1       3.284  -1.155   3.957  1.00  0.00     0.163 HD
BRANCH   5   8
ATOM      8  C   UNL     1       0.922  -1.482   6.255  1.00  0.00     0.082 A 
ATOM      9  C   UNL     1      -0.394  -1.481   5.727  1.00  0.00     0.141 A 
ATOM     10  N   UNL     1      -1.439  -1.152   6.533  1.00  0.00    -0.235 NA
ATOM     11  C   UNL     1      -1.163  -0.809   7.803  1.00  0.00     0.046 A 
ATOM     12  C   UNL     1       1.170  -1.085   7.578  1.00  0.00     0.023 A 
ATOM     13  C   UNL     1       0.102  -0.723   8.348  1.00  0.00    -0.025 A 
ATOM     14  C   UNL     1      -2.200  -0.565   8.856  1.00  0.00     0.057 C 
ATOM     15  C   UNL     1       0.086  -0.282   9.766  1.00  0.00     0.038 C 
ATOM     16  C   UNL     1      -1.375   0.159   9.931  1.00  0.00     0.011 C 
BRANCH   9  17
ATOM     17  N   UNL     1      -0.735  -1.650   4.387  1.00  0.00    -0.350 N 
BRANCH  17  18
ATOM     18  C   UNL     1      -1.353  -0.365   3.756  1.00  0.00     0.183 C 
BRANCH  18  19
ATOM     19  C   UNL     1      -0.382   0.657   2.756  1.00  0.00     0.203 C 
ATOM     20  C   UNL     1      -0.538  -0.178   0.318  1.00  0.00     0.333 C 
ATOM     21  N   UNL     1       0.041  -0.701   1.604  1.00  0.00    -0.331 N 
ATOM     22  C   UNL     1       1.851  -1.164   1.946  1.00  0.00     0.186 CG0
ATOM     23  H   UNL     1      -0.336  -1.647   1.655  1.00  0.00     0.348 HD
ATOM     24  C   UNL     1       2.875   0.487   2.764  1.00  0.00     0.071 C 
ATOM     25  G   UNL     1       1.291  -2.648   2.705  1.00  0.00     0.000 G0
ATOM     26  C   UNL     1       1.271   1.722   3.236  1.00  0.00     0.073 C 
ENDBRANCH  18  19
ENDBRANCH  17  18
BRANCH  17  27
ATOM     27  C   UNL     1      -0.155  -2.776   3.514  1.00  0.00     0.124 C 
BRANCH  27  28
ATOM     28  C   UNL     1       1.291  -2.648   2.705  1.00  0.00     0.086 CG0
ATOM     29  G   UNL     1       1.851  -1.164   1.946  1.00  0.00     0.000 G0
ENDBRANCH  27  28
ENDBRANCH  17  27
ENDBRANCH   9  17
ENDBRANCH   5   8
ENDBRANCH   3   4
ENDBRANCH   2   3
ENDBRANCH   1   2
BRANCH   1  30
ATOM     30  C   UNL     1       2.280  -1.185  -0.884  1.00  0.00     0.002 C 
BRANCH  30  31
ATOM     31  C   UNL     1       1.112  -2.204  -1.073  1.00  0.00     0.021 C 
BRANCH  31  32
ATOM     32  C   UNL     1       0.061  -1.954  -2.163  1.00  0.00     0.116 C 
BRANCH  32  33
ATOM     33  N   UNL     1       0.614  -1.380  -3.366  1.00  0.00    -0.352 N 
ATOM     34  C   UNL     1      -0.036  -1.158  -4.544  1.00  0.00     0.251 C 
ATOM     35  H   UNL     1       1.563  -1.120  -3.333  1.00  0.00     0.163 HD
ATOM     36  O   UNL     1       0.556  -0.780  -5.545  1.00  0.00    -0.269 OA
BRANCH  34  37
ATOM     37  C   UNL     1      -1.478  -1.412  -4.576  1.00  0.00     0.039 A 
ATOM     38  C   UNL     1      -1.934  -2.561  -5.220  1.00  0.00     0.014 A 
ATOM     39  C   UNL     1      -2.350  -0.532  -3.929  1.00  0.00     0.014 A 
ATOM     40  C   UNL     1      -3.297  -2.823  -5.238  1.00  0.00     0.010 A 
ATOM     41  C   UNL     1      -3.708  -0.820  -3.911  1.00  0.00     0.010 A 
ATOM     42  C   UNL     1      -4.188  -1.950  -4.593  1.00  0.00    -0.014 A 
BRANCH  42  43
ATOM     43  C   UNL     1      -5.642  -2.166  -4.731  1.00  0.00     0.031 A 
ATOM     44  C   UNL     1      -6.433  -1.244  -5.611  1.00  0.00     0.074 A 
ATOM     45  C   UNL     1      -6.228  -3.200  -4.104  1.00  0.00     0.049 A 
ATOM     46  N   UNL     1      -7.706  -1.272  -5.904  1.00  0.00    -0.248 NA
ATOM     47  C   UNL     1      -5.693  -0.136  -6.236  1.00  0.00     0.031 C 
ATOM     48  C   UNL     1      -5.546  -4.154  -3.229  1.00  0.00     0.029 A 
ATOM     49  N   UNL     1      -7.529  -3.623  -4.118  1.00  0.00    -0.354 N 
ATOM     50  C   UNL     1      -7.914  -0.199  -6.758  1.00  0.00     0.074 A 
ATOM     51  C   UNL     1      -6.658   0.507  -6.872  1.00  0.00     0.031 C 
ATOM     52  C   UNL     1      -6.435  -5.067  -2.806  1.00  0.00     0.029 A 
ATOM     53  C   UNL     1      -7.750  -4.739  -3.350  1.00  0.00     0.049 A 
ATOM     54  H   UNL     1      -8.239  -3.171  -4.629  1.00  0.00     0.167 HD
ATOM     55  C   UNL     1      -9.046   0.148  -7.415  1.00  0.00     0.037 A 
ATOM     56  C   UNL     1      -8.893  -5.407  -3.110  1.00  0.00     0.037 A 
ATOM     57  C   UNL     1     -10.296  -0.546  -7.272  1.00  0.00     0.049 A 
ATOM     58  C   UNL     1     -10.161  -4.934  -3.771  1.00  0.00     0.074 A 
ATOM     59  C   UNL     1     -11.506  -0.280  -7.887  1.00  0.00     0.029 A 
ATOM     60  N   UNL     1     -10.499  -1.637  -6.440  1.00  0.00    -0.354 N 
ATOM     61  N   UNL     1     -10.341  -3.947  -4.616  1.00  0.00    -0.248 NA
ATOM     62  C   UNL     1     -11.386  -5.676  -3.447  1.00  0.00     0.031 C 
ATOM     63  C   UNL     1     -12.459  -1.163  -7.369  1.00  0.00     0.029 A 
ATOM     64  C   UNL     1     -11.825  -2.033  -6.497  1.00  0.00     0.049 A 
ATOM     65  H   UNL     1      -9.804  -2.066  -5.890  1.00  0.00     0.167 HD
ATOM     66  C   UNL     1     -11.690  -3.970  -4.949  1.00  0.00     0.074 A 
ATOM     67  C   UNL     1     -12.273  -5.086  -4.234  1.00  0.00     0.031 C 
ATOM     68  C   UNL     1     -12.387  -3.146  -5.772  1.00  0.00     0.037 A 
BRANCH  55  69
ATOM     69  C   UNL     1      -8.972   1.345  -8.318  1.00  0.00     0.057 A 
ATOM     70  C   UNL     1      -9.680   2.514  -8.016  1.00  0.00     0.134 A 
ATOM     71  C   UNL     1      -8.191   1.348  -9.483  1.00  0.00     0.134 A 
ATOM     72  F   UNL     1     -10.453   2.581  -6.921  1.00  0.00    -0.206 F 
ATOM     73  C   UNL     1      -9.608   3.643  -8.833  1.00  0.00     0.040 A 
ATOM     74  C   UNL     1      -8.080   2.483 -10.287  1.00  0.00     0.040 A 
ATOM     75  F   UNL     1      -7.478   0.264  -9.827  1.00  0.00    -0.206 F 
ATOM     76  C   UNL     1      -8.795   3.634  -9.964  1.00  0.00     0.006 A 
ENDBRANCH  55  69
BRANCH  56  77
ATOM     77  C   UNL     1      -8.904  -6.580  -2.198  1.00  0.00     0.057 A 
ATOM     78  C   UNL     1      -8.644  -6.439  -0.829  1.00  0.00     0.134 A 
ATOM     79  C   UNL     1      -9.232  -7.859  -2.662  1.00  0.00     0.134 A 
ATOM     80  F   UNL     1      -8.313  -5.243  -0.320  1.00  0.00    -0.206 F 
ATOM     81  C   UNL     1      -8.721  -7.524   0.046  1.00  0.00     0.040 A 
ATOM     82  C   UNL     1      -9.348  -8.945  -1.793  1.00  0.00     0.040 A 
ATOM     83  F   UNL     1      -9.503  -8.058  -3.960  1.00  0.00    -0.206 F 
ATOM     84  C   UNL     1      -9.091  -8.778  -0.433  1.00  0.00     0.006 A 
ENDBRANCH  56  77
BRANCH  68  85
ATOM     85  C   UNL     1     -13.845  -3.450  -5.970  1.00  0.00     0.057 A 
ATOM     86  C   UNL     1     -14.318  -3.875  -7.219  1.00  0.00     0.134 A 
ATOM     87  C   UNL     1     -14.785  -3.311  -4.940  1.00  0.00     0.134 A 
ATOM     88  F   UNL     1     -13.479  -4.012  -8.257  1.00  0.00    -0.206 F 
ATOM     89  C   UNL     1     -15.667  -4.158  -7.433  1.00  0.00     0.040 A 
ATOM     90  C   UNL     1     -16.130  -3.631  -5.130  1.00  0.00     0.040 A 
ATOM     91  F   UNL     1     -14.400  -2.911  -3.718  1.00  0.00    -0.206 F 
ATOM     92  C   UNL     1     -16.575  -4.052  -6.382  1.00  0.00     0.006 A 
ENDBRANCH  68  85
ENDBRANCH  42  43
ENDBRANCH  34  37
ENDBRANCH  32  33
ENDBRANCH  31  32
ENDBRANCH  30  31
ENDBRANCH   1  30
TORSDOF 14
