REMARK SMILES COc1ccc(CCN2/C(=[NH+]/C(=O)CCC(=O)NCCCCCCNC(=O)c3ccc(-c4c5nc(c(-c6c(F)cccc6F)c6ccc([nH]6)c(-c6c(F)cccc6F)c6nc(c(-c7c(F)cccc7F)c7ccc4[nH]7)C=C6)C=C5)cc3)S[C@@H]3CS(=O)(=O)C[C@@H]32)cc1
REMARK SMILES IDX 19 1 18 2 16 3 17 4 15 6 14 7 12 8 9 9 10 10 89 11 11 12
REMARK SMILES IDX 82 13 83 14 88 15 84 17 85 18 13 19 86 20 87 21 8 22 7 23
REMARK SMILES IDX 6 24 3 25 4 26 91 27 5 28 90 29 2 30 1 31 20 32 21 33 22 34
REMARK SMILES IDX 23 35 24 36 25 37 26 38 27 40 28 41 29 42 81 43 30 44 80 45
REMARK SMILES IDX 31 46 32 47 33 48 74 49 34 50 79 51 73 52 75 53 35 54 78 55
REMARK SMILES IDX 72 56 71 57 36 59 62 60 45 61 61 62 46 63 49 64 60 65 76 66
REMARK SMILES IDX 47 67 48 68 59 70 77 71 50 72 37 73 38 74 43 75 39 76 40 77
REMARK SMILES IDX 42 78 44 79 41 80 63 81 64 82 69 83 65 84 66 85 68 86 70 87
REMARK SMILES IDX 67 88 51 89 52 90 57 91 53 92 54 93 56 94 58 95 55 96
REMARK H PARENT 18 5 11 16 25 39 75 58 49 69
REMARK Flexibility Score: inf
ROOT
ATOM      1  C   UNL     1      -0.541   7.979   7.903  1.00  0.00     0.116 C 
ENDROOT
BRANCH   1   2
ATOM      2  N   UNL     1       0.709   8.701   8.052  1.00  0.00    -0.356 N 
ATOM      3  C   UNL     1       1.066   9.932   7.597  1.00  0.00     0.220 C 
ATOM      4  O   UNL     1       2.185  10.365   7.878  1.00  0.00    -0.275 OA
ATOM      5  H   UNL     1       1.406   8.227   8.561  1.00  0.00     0.163 HD
BRANCH   3   6
ATOM      6  C   UNL     1       0.104  10.748   6.769  1.00  0.00     0.112 C 
BRANCH   6   7
ATOM      7  C   UNL     1       0.696  11.024   5.382  1.00  0.00     0.138 C 
BRANCH   7   8
ATOM      8  C   UNL     1       0.086  10.096   4.356  1.00  0.00     0.308 C 
ATOM      9  N   UNL     1       0.957   6.768   2.971  1.00  0.00    -0.251 N 
ATOM     10  C   UNL     1       0.435   8.116   3.116  1.00  0.00     0.314 C 
ATOM     11  C   UNL     1      -0.027   5.803   2.352  1.00  0.00     0.206 C 
ATOM     12  N   UNL     1       0.860   8.993   3.984  1.00  0.00    -0.205 N 
ATOM     13  S   UNL     1      -1.018   8.479   2.086  1.00  0.00    -0.030 SA
ATOM     14  C   UNL     1      -1.672   6.815   2.023  1.00  0.00     0.120 C 
ATOM     15  C   UNL     1      -0.456   3.989   3.198  1.00  0.00     0.187 C 
ATOM     16  H   UNL     1       1.750   8.874   4.388  1.00  0.00     0.316 HD
ATOM     17  C   UNL     1      -3.249   6.068   2.963  1.00  0.00     0.156 C 
ATOM     18  S   UNL     1      -2.712   3.990   3.838  1.00  0.00     0.155 S 
ATOM     19  O   UNL     1      -1.105  10.294   4.102  1.00  0.00    -0.247 OA
ATOM     20  O   UNL     1      -2.841   3.975   5.286  1.00  0.00    -0.229 OA
ATOM     21  O   UNL     1      -3.479   2.968   3.144  1.00  0.00    -0.229 OA
BRANCH   9  22
ATOM     22  C   UNL     1       2.414   6.547   2.571  1.00  0.00     0.242 C 
BRANCH  22  23
ATOM     23  C   UNL     1       3.237   5.251   3.050  1.00  0.00     0.081 C 
BRANCH  23  24
ATOM     24  C   UNL     1       3.230   3.852   2.390  1.00  0.00    -0.044 A 
ATOM     25  C   UNL     1       2.756   1.122   1.563  1.00  0.00     0.118 A 
ATOM     26  C   UNL     1       1.792   2.079   1.389  1.00  0.00     0.046 A 
ATOM     27  C   UNL     1       3.987   1.529   2.075  1.00  0.00     0.046 A 
ATOM     28  C   UNL     1       2.086   3.390   1.790  1.00  0.00     0.007 A 
ATOM     29  C   UNL     1       4.226   2.879   2.481  1.00  0.00     0.007 A 
BRANCH  25  30
ATOM     30  O   UNL     1       2.471  -0.209   1.454  1.00  0.00    -0.497 OA
ATOM     31  C   UNL     1       2.175  -0.637   0.125  1.00  0.00     0.278 C 
ENDBRANCH  25  30
ENDBRANCH  23  24
ENDBRANCH  22  23
ENDBRANCH   9  22
ENDBRANCH   7   8
ENDBRANCH   6   7
ENDBRANCH   3   6
ENDBRANCH   1   2
BRANCH   1  32
ATOM     32  C   UNL     1      -0.787   7.458   6.492  1.00  0.00     0.021 C 
BRANCH  32  33
ATOM     33  C   UNL     1       0.290   6.494   6.048  1.00  0.00     0.002 C 
BRANCH  33  34
ATOM     34  C   UNL     1      -0.152   5.386   5.085  1.00  0.00     0.002 C 
BRANCH  34  35
ATOM     35  C   UNL     1      -1.344   5.712   3.832  1.00  0.00     0.021 C 
BRANCH  35  36
ATOM     36  C   UNL     1      -1.793   4.772   1.931  1.00  0.00     0.116 C 
BRANCH  36  37
ATOM     37  N   UNL     1      -0.818   4.480   0.669  1.00  0.00    -0.352 N 
ATOM     38  C   UNL     1      -0.878   3.821  -0.505  1.00  0.00     0.251 C 
ATOM     39  H   UNL     1       0.063   4.901   0.795  1.00  0.00     0.163 HD
ATOM     40  O   UNL     1       0.143   3.492  -1.090  1.00  0.00    -0.269 OA
BRANCH  38  41
ATOM     41  C   UNL     1      -2.159   3.516  -1.005  1.00  0.00     0.039 A 
ATOM     42  C   UNL     1      -2.535   2.180  -1.093  1.00  0.00     0.014 A 
ATOM     43  C   UNL     1      -2.943   4.627  -1.278  1.00  0.00     0.014 A 
ATOM     44  C   UNL     1      -3.815   1.939  -1.498  1.00  0.00     0.010 A 
ATOM     45  C   UNL     1      -4.238   4.386  -1.587  1.00  0.00     0.010 A 
ATOM     46  C   UNL     1      -4.640   3.047  -1.733  1.00  0.00    -0.014 A 
BRANCH  46  47
ATOM     47  C   UNL     1      -5.970   2.866  -2.262  1.00  0.00     0.031 A 
ATOM     48  C   UNL     1      -6.191   3.345  -3.652  1.00  0.00     0.074 A 
ATOM     49  C   UNL     1      -6.901   2.460  -1.393  1.00  0.00     0.049 A 
ATOM     50  N   UNL     1      -7.315   3.571  -4.260  1.00  0.00    -0.248 NA
ATOM     51  C   UNL     1      -4.989   3.714  -4.433  1.00  0.00     0.031 C 
ATOM     52  C   UNL     1      -6.660   2.070   0.003  1.00  0.00     0.029 A 
ATOM     53  N   UNL     1      -8.242   2.352  -1.552  1.00  0.00    -0.354 N 
ATOM     54  C   UNL     1      -6.959   4.139  -5.472  1.00  0.00     0.074 A 
ATOM     55  C   UNL     1      -5.527   4.295  -5.492  1.00  0.00     0.031 C 
ATOM     56  C   UNL     1      -7.833   1.751   0.571  1.00  0.00     0.029 A 
ATOM     57  C   UNL     1      -8.887   1.963  -0.409  1.00  0.00     0.049 A 
ATOM     58  H   UNL     1      -8.705   2.534  -2.402  1.00  0.00     0.167 HD
ATOM     59  C   UNL     1      -7.791   4.468  -6.480  1.00  0.00     0.037 A 
ATOM     60  C   UNL     1     -10.204   1.823  -0.213  1.00  0.00     0.037 A 
ATOM     61  C   UNL     1      -9.203   4.227  -6.396  1.00  0.00     0.049 A 
ATOM     62  C   UNL     1     -11.092   2.120  -1.387  1.00  0.00     0.074 A 
ATOM     63  C   UNL     1     -10.172   4.411  -7.358  1.00  0.00     0.029 A 
ATOM     64  N   UNL     1      -9.837   3.723  -5.263  1.00  0.00    -0.354 N 
ATOM     65  N   UNL     1     -10.764   2.586  -2.573  1.00  0.00    -0.248 NA
ATOM     66  C   UNL     1     -12.520   1.860  -1.210  1.00  0.00     0.031 C 
ATOM     67  C   UNL     1     -11.400   4.047  -6.795  1.00  0.00     0.029 A 
ATOM     68  C   UNL     1     -11.189   3.593  -5.499  1.00  0.00     0.049 A 
ATOM     69  H   UNL     1      -9.386   3.493  -4.419  1.00  0.00     0.167 HD
ATOM     70  C   UNL     1     -11.942   2.648  -3.297  1.00  0.00     0.074 A 
ATOM     71  C   UNL     1     -12.985   2.152  -2.416  1.00  0.00     0.031 C 
ATOM     72  C   UNL     1     -12.160   3.076  -4.566  1.00  0.00     0.037 A 
BRANCH  59  73
ATOM     73  C   UNL     1      -7.196   5.076  -7.711  1.00  0.00     0.057 A 
ATOM     74  C   UNL     1      -6.347   4.354  -8.561  1.00  0.00     0.134 A 
ATOM     75  C   UNL     1      -7.483   6.400  -8.060  1.00  0.00     0.134 A 
ATOM     76  F   UNL     1      -6.004   3.090  -8.268  1.00  0.00    -0.206 F 
ATOM     77  C   UNL     1      -5.797   4.928  -9.708  1.00  0.00     0.040 A 
ATOM     78  C   UNL     1      -6.962   6.978  -9.220  1.00  0.00     0.040 A 
ATOM     79  F   UNL     1      -8.271   7.156  -7.281  1.00  0.00    -0.206 F 
ATOM     80  C   UNL     1      -6.114   6.242 -10.046  1.00  0.00     0.006 A 
ENDBRANCH  59  73
BRANCH  60  81
ATOM     81  C   UNL     1     -10.718   1.348   1.089  1.00  0.00     0.057 A 
ATOM     82  C   UNL     1     -11.287   0.076   1.211  1.00  0.00     0.134 A 
ATOM     83  C   UNL     1     -10.627   2.128   2.248  1.00  0.00     0.134 A 
ATOM     84  F   UNL     1     -11.386  -0.724   0.139  1.00  0.00    -0.206 F 
ATOM     85  C   UNL     1     -11.787  -0.388   2.428  1.00  0.00     0.040 A 
ATOM     86  C   UNL     1     -11.099   1.667   3.477  1.00  0.00     0.040 A 
ATOM     87  F   UNL     1     -10.059   3.343   2.205  1.00  0.00    -0.206 F 
ATOM     88  C   UNL     1     -11.694   0.410   3.566  1.00  0.00     0.006 A 
ENDBRANCH  60  81
BRANCH  72  89
ATOM     89  C   UNL     1     -13.569   2.980  -5.057  1.00  0.00     0.057 A 
ATOM     90  C   UNL     1     -14.562   3.855  -4.605  1.00  0.00     0.134 A 
ATOM     91  C   UNL     1     -13.914   2.033  -6.028  1.00  0.00     0.134 A 
ATOM     92  F   UNL     1     -14.286   4.772  -3.666  1.00  0.00    -0.206 F 
ATOM     93  C   UNL     1     -15.867   3.772  -5.085  1.00  0.00     0.040 A 
ATOM     94  C   UNL     1     -15.206   1.964  -6.540  1.00  0.00     0.040 A 
ATOM     95  F   UNL     1     -12.996   1.180  -6.508  1.00  0.00    -0.206 F 
ATOM     96  C   UNL     1     -16.188   2.830  -6.062  1.00  0.00     0.006 A 
ENDBRANCH  72  89
ENDBRANCH  46  47
ENDBRANCH  38  41
ENDBRANCH  36  37
ENDBRANCH  35  36
ENDBRANCH  34  35
ENDBRANCH  33  34
ENDBRANCH  32  33
ENDBRANCH   1  32
TORSDOF 19
