REMARK SMILES COc1ccc(F)c(NC(=O)N2CCCC[C@@H]2C(=O)NCCCCCCNC(=O)c2ccc(-c3c4nc(c(-c5c(F)cccc5F)c5ccc([nH]5)c(-c5c(F)cccc5F)c5nc(c(-c6c(F)cccc6F)c6ccc3[nH]6)C=C5)C=C4)cc2)c1
REMARK SMILES IDX 23 1 22 2 21 3 20 4 18 5 19 6 17 8 12 9 13 10 14 11 16 12
REMARK SMILES IDX 15 13 10 14 9 15 11 17 8 18 3 19 4 20 84 21 5 22 6 23 7 24
REMARK SMILES IDX 2 25 1 26 24 27 25 28 26 29 27 30 28 31 29 33 30 34 31 35
REMARK SMILES IDX 83 36 32 37 82 38 33 39 34 40 35 41 76 42 36 43 81 44 75 45
REMARK SMILES IDX 77 46 37 47 80 48 74 49 73 50 38 52 64 53 47 54 63 55 48 56
REMARK SMILES IDX 51 57 62 58 78 59 49 60 50 61 61 63 79 64 52 65 39 66 40 67
REMARK SMILES IDX 45 68 41 69 42 70 44 71 46 72 43 73 65 74 66 75 71 76 67 77
REMARK SMILES IDX 68 78 70 79 72 80 69 81 53 82 54 83 59 84 55 85 56 86 58 87
REMARK SMILES IDX 60 88 57 89
REMARK H PARENT 20 7 9 16 27 32 77 51 51 62
REMARK Flexibility Score: inf
ROOT
ATOM      1  C   UNL     1      -3.366   6.677   0.388  1.00  0.00     0.002 C 
ENDROOT
BRANCH   1   2
ATOM      2  C   UNL     1      -3.965   5.425  -0.267  1.00  0.00     0.021 C 
BRANCH   2   3
ATOM      3  C   UNL     1      -3.233   5.010  -1.544  1.00  0.00     0.116 C 
BRANCH   3   4
ATOM      4  N   UNL     1      -1.906   4.554  -1.189  1.00  0.00    -0.354 N 
ATOM      5  C   UNL     1      -1.452   3.274  -1.111  1.00  0.00     0.242 C 
ATOM      6  O   UNL     1      -0.538   3.041  -0.314  1.00  0.00    -0.273 OA
ATOM      7  H   UNL     1      -1.251   5.258  -0.977  1.00  0.00     0.163 HD
BRANCH   5   8
ATOM      8  C   UNL     1      -2.137   2.136  -1.897  1.00  0.00     0.176 C 
ATOM      9  N   UNL     1      -2.475   2.459  -3.314  1.00  0.00    -0.313 N 
ATOM     10  C   UNL     1      -3.399   1.556  -3.993  1.00  0.00     0.122 C 
ATOM     11  C   UNL     1      -4.623   1.203  -3.168  1.00  0.00     0.022 C 
ATOM     12  C   UNL     1      -3.360   1.667  -1.074  1.00  0.00     0.035 C 
ATOM     13  C   UNL     1      -4.207   0.644  -1.817  1.00  0.00     0.004 C 
BRANCH   9  14
ATOM     14  C   UNL     1      -1.826   3.349  -4.145  1.00  0.00     0.322 C 
ATOM     15  N   UNL     1      -0.529   3.698  -3.980  1.00  0.00    -0.305 N 
ATOM     16  H   UNL     1      -0.326   4.606  -4.302  1.00  0.00     0.171 HD
ATOM     17  O   UNL     1      -2.446   3.928  -5.045  1.00  0.00    -0.248 OA
BRANCH  15  18
ATOM     18  C   UNL     1       0.588   3.035  -3.446  1.00  0.00     0.082 A 
ATOM     19  C   UNL     1       1.640   1.151  -2.391  1.00  0.00     0.121 A 
ATOM     20  C   UNL     1       2.753   1.922  -2.059  1.00  0.00     0.049 A 
ATOM     21  C   UNL     1       0.615   1.673  -3.177  1.00  0.00     0.075 A 
ATOM     22  C   UNL     1       2.811   3.249  -2.478  1.00  0.00     0.045 A 
ATOM     23  C   UNL     1       1.724   3.799  -3.152  1.00  0.00     0.147 A 
ATOM     24  F   UNL     1       1.755   5.100  -3.482  1.00  0.00    -0.205 F 
BRANCH  19  25
ATOM     25  O   UNL     1       1.486  -0.128  -1.926  1.00  0.00    -0.497 OA
ATOM     26  C   UNL     1       1.332  -0.120  -0.501  1.00  0.00     0.278 C 
ENDBRANCH  19  25
ENDBRANCH  15  18
ENDBRANCH   9  14
ENDBRANCH   5   8
ENDBRANCH   3   4
ENDBRANCH   2   3
ENDBRANCH   1   2
BRANCH   1  27
ATOM     27  C   UNL     1      -3.336   7.907  -0.525  1.00  0.00     0.002 C 
BRANCH  27  28
ATOM     28  C   UNL     1      -4.693   8.270  -1.129  1.00  0.00     0.021 C 
BRANCH  28  29
ATOM     29  C   UNL     1      -5.784   8.504  -0.092  1.00  0.00     0.116 C 
BRANCH  29  30
ATOM     30  N   UNL     1      -5.461   9.620   0.783  1.00  0.00    -0.352 N 
ATOM     31  C   UNL     1      -6.221  10.721   1.084  1.00  0.00     0.251 C 
ATOM     32  H   UNL     1      -4.579   9.579   1.217  1.00  0.00     0.163 HD
ATOM     33  O   UNL     1      -5.727  11.683   1.658  1.00  0.00    -0.269 OA
BRANCH  31  34
ATOM     34  C   UNL     1      -7.643  10.737   0.692  1.00  0.00     0.039 A 
ATOM     35  C   UNL     1      -8.160  11.874   0.069  1.00  0.00     0.014 A 
ATOM     36  C   UNL     1      -8.456   9.624   0.930  1.00  0.00     0.014 A 
ATOM     37  C   UNL     1      -9.486  11.875  -0.362  1.00  0.00     0.010 A 
ATOM     38  C   UNL     1      -9.752   9.598   0.430  1.00  0.00     0.010 A 
ATOM     39  C   UNL     1     -10.282  10.726  -0.213  1.00  0.00    -0.014 A 
BRANCH  39  40
ATOM     40  C   UNL     1     -11.674  10.688  -0.722  1.00  0.00     0.031 A 
ATOM     41  C   UNL     1     -12.822  10.526   0.234  1.00  0.00     0.074 A 
ATOM     42  C   UNL     1     -11.899  10.749  -2.048  1.00  0.00     0.049 A 
ATOM     43  N   UNL     1     -14.100  10.417  -0.024  1.00  0.00    -0.248 NA
ATOM     44  C   UNL     1     -12.491  10.453   1.667  1.00  0.00     0.031 C 
ATOM     45  C   UNL     1     -10.862  10.867  -3.075  1.00  0.00     0.029 A 
ATOM     46  N   UNL     1     -13.071  10.717  -2.761  1.00  0.00    -0.354 N 
ATOM     47  C   UNL     1     -14.721  10.256   1.208  1.00  0.00     0.074 A 
ATOM     48  C   UNL     1     -13.678  10.221   2.208  1.00  0.00     0.031 C 
ATOM     49  C   UNL     1     -11.445  10.931  -4.282  1.00  0.00     0.029 A 
ATOM     50  C   UNL     1     -12.892  10.815  -4.119  1.00  0.00     0.049 A 
ATOM     51  H   UNL     1     -13.956  10.632  -2.338  1.00  0.00     0.167 HD
ATOM     52  C   UNL     1     -16.044  10.172   1.481  1.00  0.00     0.037 A 
ATOM     53  C   UNL     1     -13.791  10.806  -5.122  1.00  0.00     0.037 A 
ATOM     54  C   UNL     1     -17.078  10.232   0.482  1.00  0.00     0.049 A 
ATOM     55  C   UNL     1     -15.253  10.690  -4.795  1.00  0.00     0.074 A 
ATOM     56  C   UNL     1     -18.449  10.209   0.664  1.00  0.00     0.029 A 
ATOM     57  N   UNL     1     -16.856  10.325  -0.884  1.00  0.00    -0.354 N 
ATOM     58  N   UNL     1     -15.830  10.592  -3.622  1.00  0.00    -0.248 NA
ATOM     59  C   UNL     1     -16.190  10.684  -5.927  1.00  0.00     0.031 C 
ATOM     60  C   UNL     1     -19.056  10.233  -0.593  1.00  0.00     0.029 A 
ATOM     61  C   UNL     1     -18.066  10.333  -1.557  1.00  0.00     0.049 A 
ATOM     62  H   UNL     1     -15.970  10.378  -1.310  1.00  0.00     0.167 HD
ATOM     63  C   UNL     1     -17.195  10.538  -3.871  1.00  0.00     0.074 A 
ATOM     64  C   UNL     1     -17.361  10.626  -5.307  1.00  0.00     0.031 C 
ATOM     65  C   UNL     1     -18.217  10.426  -2.988  1.00  0.00     0.037 A 
BRANCH  52  66
ATOM     66  C   UNL     1     -16.455  10.023   2.917  1.00  0.00     0.057 A 
ATOM     67  C   UNL     1     -17.057   8.842   3.369  1.00  0.00     0.134 A 
ATOM     68  C   UNL     1     -16.321  11.072   3.835  1.00  0.00     0.134 A 
ATOM     69  F   UNL     1     -17.222   7.799   2.541  1.00  0.00    -0.206 F 
ATOM     70  C   UNL     1     -17.524   8.716   4.679  1.00  0.00     0.040 A 
ATOM     71  C   UNL     1     -16.757  10.948   5.155  1.00  0.00     0.040 A 
ATOM     72  F   UNL     1     -15.742  12.226   3.470  1.00  0.00    -0.206 F 
ATOM     73  C   UNL     1     -17.371   9.770   5.577  1.00  0.00     0.006 A 
ENDBRANCH  52  66
BRANCH  53  74
ATOM     74  C   UNL     1     -13.325  10.946  -6.525  1.00  0.00     0.057 A 
ATOM     75  C   UNL     1     -12.597   9.933  -7.161  1.00  0.00     0.134 A 
ATOM     76  C   UNL     1     -13.568  12.118  -7.250  1.00  0.00     0.134 A 
ATOM     77  F   UNL     1     -12.324   8.789  -6.517  1.00  0.00    -0.206 F 
ATOM     78  C   UNL     1     -12.109  10.088  -8.459  1.00  0.00     0.040 A 
ATOM     79  C   UNL     1     -13.108  12.277  -8.558  1.00  0.00     0.040 A 
ATOM     80  F   UNL     1     -14.273  13.118  -6.701  1.00  0.00    -0.206 F 
ATOM     81  C   UNL     1     -12.368  11.263  -9.163  1.00  0.00     0.006 A 
ENDBRANCH  53  74
BRANCH  65  82
ATOM     82  C   UNL     1     -19.615  10.414  -3.534  1.00  0.00     0.057 A 
ATOM     83  C   UNL     1     -20.482  11.489  -3.296  1.00  0.00     0.134 A 
ATOM     84  C   UNL     1     -20.131   9.304  -4.214  1.00  0.00     0.134 A 
ATOM     85  F   UNL     1     -20.054  12.578  -2.640  1.00  0.00    -0.206 F 
ATOM     86  C   UNL     1     -21.818  11.451  -3.697  1.00  0.00     0.040 A 
ATOM     87  C   UNL     1     -21.458   9.267  -4.645  1.00  0.00     0.040 A 
ATOM     88  F   UNL     1     -19.350   8.246  -4.482  1.00  0.00    -0.206 F 
ATOM     89  C   UNL     1     -22.308  10.338  -4.375  1.00  0.00     0.006 A 
ENDBRANCH  65  82
ENDBRANCH  39  40
ENDBRANCH  31  34
ENDBRANCH  29  30
ENDBRANCH  28  29
ENDBRANCH  27  28
ENDBRANCH   1  27
TORSDOF 16
