REMARK SMILES CC[N@@H+](C[C@H]1CCCO1)[C@@H](C)c1ccc(C(=O)NCCCCCCNC(=O)c2ccc(-c3c4nc(c(-c5c(F)cccc5F)c5ccc([nH]5)c(-c5c(F)cccc5F)c5nc(c(-c6c(F)cccc6F)c6ccc3[nH]6)C=C5)C=C4)cc2)o1
REMARK SMILES IDX 20 1 19 2 18 3 16 4 17 5 15 7 12 8 13 9 82 10 14 11 10 12
REMARK SMILES IDX 11 13 3 14 2 16 1 17 4 18 5 19 6 20 9 21 7 22 8 23 21 24
REMARK SMILES IDX 22 25 23 26 24 27 25 28 26 29 27 31 28 32 29 33 81 34 30 35
REMARK SMILES IDX 80 36 31 37 32 38 33 39 74 40 34 41 79 42 73 43 75 44 35 45
REMARK SMILES IDX 78 46 72 47 71 48 36 50 62 51 45 52 61 53 46 54 49 55 60 56
REMARK SMILES IDX 76 57 47 58 48 59 59 61 77 62 50 63 37 64 38 65 43 66 39 67
REMARK SMILES IDX 40 68 42 69 44 70 41 71 63 72 64 73 69 74 65 75 66 76 68 77
REMARK SMILES IDX 70 78 67 79 51 80 52 81 57 82 53 83 54 84 56 85 58 86 55 87
REMARK H PARENT 18 6 3 15 25 30 75 49 49 60
REMARK Flexibility Score: inf
ROOT
ATOM      1  C   UNL     1      -5.968  -3.626   9.885  1.00  0.00     0.021 C 
ENDROOT
BRANCH   1   2
ATOM      2  C   UNL     1      -4.498  -3.297  10.125  1.00  0.00     0.116 C 
BRANCH   2   3
ATOM      3  N   UNL     1      -3.697  -3.870   9.076  1.00  0.00    -0.349 N 
ATOM      4  C   UNL     1      -3.172  -3.324   7.935  1.00  0.00     0.287 C 
ATOM      5  O   UNL     1      -2.674  -4.144   7.157  1.00  0.00    -0.266 OA
ATOM      6  H   UNL     1      -3.489  -4.824   9.202  1.00  0.00     0.163 HD
BRANCH   4   7
ATOM      7  C   UNL     1      -3.141  -1.892   7.697  1.00  0.00     0.191 A 
ATOM      8  C   UNL     1      -2.221  -0.168   6.649  1.00  0.00     0.161 A 
ATOM      9  C   UNL     1      -3.027   0.367   7.625  1.00  0.00     0.053 A 
ATOM     10  O   UNL     1      -2.356  -1.518   6.638  1.00  0.00    -0.450 OA
ATOM     11  C   UNL     1      -3.645  -0.736   8.271  1.00  0.00     0.057 A 
BRANCH   8  12
ATOM     12  C   UNL     1      -1.306   0.412   5.615  1.00  0.00     0.248 C 
ATOM     13  C   UNL     1      -1.666  -0.181   4.248  1.00  0.00     0.084 C 
BRANCH  12  14
ATOM     14  N   UNL     1       0.118   0.423   6.035  1.00  0.00    -0.324 N 
ATOM     15  H   UNL     1       0.036   0.856   6.955  1.00  0.00     0.348 HD
BRANCH  14  16
ATOM     16  C   UNL     1       0.770  -0.851   6.355  1.00  0.00     0.259 C 
ATOM     17  C   UNL     1       0.412  -1.516   7.682  1.00  0.00     0.071 C 
ENDBRANCH  14  16
BRANCH  14  18
ATOM     18  C   UNL     1       0.967   1.267   5.162  1.00  0.00     0.295 C 
BRANCH  18  19
ATOM     19  C   UNL     1       1.557   0.776   3.797  1.00  0.00     0.173 C 
ATOM     20  C   UNL     1       3.062   0.527   3.790  1.00  0.00     0.040 C 
ATOM     21  O   UNL     1       0.957  -0.428   3.301  1.00  0.00    -0.372 OA
ATOM     22  C   UNL     1       3.187  -0.974   3.846  1.00  0.00     0.031 C 
ATOM     23  C   UNL     1       1.952  -1.435   3.113  1.00  0.00     0.161 C 
ENDBRANCH  18  19
ENDBRANCH  14  18
ENDBRANCH  12  14
ENDBRANCH   8  12
ENDBRANCH   4   7
ENDBRANCH   2   3
ENDBRANCH   1   2
BRANCH   1  24
ATOM     24  C   UNL     1      -6.348  -5.023  10.392  1.00  0.00     0.002 C 
BRANCH  24  25
ATOM     25  C   UNL     1      -6.111  -5.243  11.892  1.00  0.00     0.002 C 
BRANCH  25  26
ATOM     26  C   UNL     1      -6.688  -4.151  12.797  1.00  0.00     0.021 C 
BRANCH  26  27
ATOM     27  C   UNL     1      -8.193  -3.963  12.654  1.00  0.00     0.116 C 
BRANCH  27  28
ATOM     28  N   UNL     1      -8.917  -5.156  13.059  1.00  0.00    -0.352 N 
ATOM     29  C   UNL     1      -9.887  -5.293  14.018  1.00  0.00     0.251 C 
ATOM     30  H   UNL     1      -8.678  -5.981  12.578  1.00  0.00     0.163 HD
ATOM     31  O   UNL     1     -10.222  -6.406  14.407  1.00  0.00    -0.269 OA
BRANCH  29  32
ATOM     32  C   UNL     1     -10.524  -4.088  14.586  1.00  0.00     0.039 A 
ATOM     33  C   UNL     1     -10.724  -4.016  15.966  1.00  0.00     0.014 A 
ATOM     34  C   UNL     1     -10.938  -3.043  13.755  1.00  0.00     0.014 A 
ATOM     35  C   UNL     1     -11.303  -2.873  16.519  1.00  0.00     0.010 A 
ATOM     36  C   UNL     1     -11.448  -1.877  14.313  1.00  0.00     0.010 A 
ATOM     37  C   UNL     1     -11.648  -1.786  15.699  1.00  0.00    -0.014 A 
BRANCH  37  38
ATOM     38  C   UNL     1     -12.239  -0.551  16.269  1.00  0.00     0.031 A 
ATOM     39  C   UNL     1     -13.642  -0.153  15.904  1.00  0.00     0.074 A 
ATOM     40  C   UNL     1     -11.493   0.240  17.063  1.00  0.00     0.049 A 
ATOM     41  N   UNL     1     -14.308   0.924  16.233  1.00  0.00    -0.248 NA
ATOM     42  C   UNL     1     -14.384  -1.075  15.029  1.00  0.00     0.031 C 
ATOM     43  C   UNL     1     -10.107  -0.019  17.455  1.00  0.00     0.029 A 
ATOM     44  N   UNL     1     -11.795   1.431  17.674  1.00  0.00    -0.354 N 
ATOM     45  C   UNL     1     -15.537   0.817  15.595  1.00  0.00     0.074 A 
ATOM     46  C   UNL     1     -15.506  -0.403  14.818  1.00  0.00     0.031 C 
ATOM     47  C   UNL     1      -9.685   0.973  18.256  1.00  0.00     0.029 A 
ATOM     48  C   UNL     1     -10.755   1.955  18.402  1.00  0.00     0.049 A 
ATOM     49  H   UNL     1     -12.673   1.869  17.597  1.00  0.00     0.167 HD
ATOM     50  C   UNL     1     -16.604   1.647  15.670  1.00  0.00     0.037 A 
ATOM     51  C   UNL     1     -10.672   3.102  19.101  1.00  0.00     0.037 A 
ATOM     52  C   UNL     1     -16.639   2.846  16.465  1.00  0.00     0.049 A 
ATOM     53  C   UNL     1     -11.868   4.012  19.161  1.00  0.00     0.074 A 
ATOM     54  C   UNL     1     -17.692   3.725  16.655  1.00  0.00     0.029 A 
ATOM     55  N   UNL     1     -15.571   3.335  17.203  1.00  0.00    -0.354 N 
ATOM     56  N   UNL     1     -13.046   3.867  18.605  1.00  0.00    -0.248 NA
ATOM     57  C   UNL     1     -11.724   5.243  19.950  1.00  0.00     0.031 C 
ATOM     58  C   UNL     1     -17.246   4.769  17.471  1.00  0.00     0.029 A 
ATOM     59  C   UNL     1     -15.932   4.516  17.831  1.00  0.00     0.049 A 
ATOM     60  H   UNL     1     -14.687   2.907  17.270  1.00  0.00     0.167 HD
ATOM     61  C   UNL     1     -13.792   4.970  18.999  1.00  0.00     0.074 A 
ATOM     62  C   UNL     1     -12.936   5.769  19.852  1.00  0.00     0.031 C 
ATOM     63  C   UNL     1     -15.069   5.294  18.683  1.00  0.00     0.037 A 
BRANCH  50  64
ATOM     64  C   UNL     1     -17.822   1.284  14.870  1.00  0.00     0.057 A 
ATOM     65  C   UNL     1     -18.627   0.187  15.206  1.00  0.00     0.134 A 
ATOM     66  C   UNL     1     -18.211   2.056  13.768  1.00  0.00     0.134 A 
ATOM     67  F   UNL     1     -18.303  -0.602  16.242  1.00  0.00    -0.206 F 
ATOM     68  C   UNL     1     -19.759  -0.145  14.460  1.00  0.00     0.040 A 
ATOM     69  C   UNL     1     -19.357   1.751  13.031  1.00  0.00     0.040 A 
ATOM     70  F   UNL     1     -17.489   3.123  13.395  1.00  0.00    -0.206 F 
ATOM     71  C   UNL     1     -20.130   0.643  13.372  1.00  0.00     0.006 A 
ENDBRANCH  50  64
BRANCH  51  72
ATOM     72  C   UNL     1      -9.419   3.448  19.817  1.00  0.00     0.057 A 
ATOM     73  C   UNL     1      -9.360   3.434  21.215  1.00  0.00     0.134 A 
ATOM     74  C   UNL     1      -8.255   3.807  19.126  1.00  0.00     0.134 A 
ATOM     75  F   UNL     1     -10.447   3.115  21.933  1.00  0.00    -0.206 F 
ATOM     76  C   UNL     1      -8.197   3.784  21.902  1.00  0.00     0.040 A 
ATOM     77  C   UNL     1      -7.078   4.135  19.799  1.00  0.00     0.040 A 
ATOM     78  F   UNL     1      -8.244   3.831  17.785  1.00  0.00    -0.206 F 
ATOM     79  C   UNL     1      -7.049   4.132  21.192  1.00  0.00     0.006 A 
ENDBRANCH  51  72
BRANCH  63  80
ATOM     80  C   UNL     1     -15.630   6.546  19.290  1.00  0.00     0.057 A 
ATOM     81  C   UNL     1     -15.226   7.819  18.868  1.00  0.00     0.134 A 
ATOM     82  C   UNL     1     -16.616   6.476  20.283  1.00  0.00     0.134 A 
ATOM     83  F   UNL     1     -14.276   7.954  17.930  1.00  0.00    -0.206 F 
ATOM     84  C   UNL     1     -15.765   8.977  19.429  1.00  0.00     0.040 A 
ATOM     85  C   UNL     1     -17.182   7.627  20.831  1.00  0.00     0.040 A 
ATOM     86  F   UNL     1     -17.054   5.287  20.726  1.00  0.00    -0.206 F 
ATOM     87  C   UNL     1     -16.752   8.883  20.409  1.00  0.00     0.006 A 
ENDBRANCH  63  80
ENDBRANCH  37  38
ENDBRANCH  29  32
ENDBRANCH  27  28
ENDBRANCH  26  27
ENDBRANCH  25  26
ENDBRANCH  24  25
ENDBRANCH   1  24
TORSDOF 18
