REMARK SMILES Cc1cccc(N2C(=O)/C(=C/c3ccc(C(=O)NCCCCCCNC(=O)c4ccc(-c5c6nc(c(-c7c(F)cccc7F)c7ccc([nH]7)c(-c7c(F)cccc7F)c7nc(c(-c8c(F)cccc8F)c8ccc5[nH]8)C=C7)C=C6)cc4)cc3)c3ccccc3C2=O)c1
REMARK SMILES IDX 21 1 20 2 19 3 18 4 16 5 17 6 15 8 12 9 13 10 83 11 14 12
REMARK SMILES IDX 82 13 11 14 7 15 8 16 90 17 9 18 10 19 89 20 91 21 84 22
REMARK SMILES IDX 88 23 85 24 87 25 86 26 6 27 1 28 2 29 3 30 92 31 4 32 5 33
REMARK SMILES IDX 22 34 23 35 24 36 25 37 26 38 27 40 28 41 29 42 81 43 30 44
REMARK SMILES IDX 80 45 31 46 32 47 33 48 74 49 34 50 79 51 73 52 75 53 35 54
REMARK SMILES IDX 78 55 72 56 71 57 36 59 62 60 45 61 61 62 46 63 49 64 60 65
REMARK SMILES IDX 76 66 47 67 48 68 59 70 77 71 50 72 37 73 38 74 43 75 39 76
REMARK SMILES IDX 40 77 42 78 44 79 41 80 63 81 64 82 69 83 65 84 66 85 68 86
REMARK SMILES IDX 70 87 67 88 51 89 52 90 57 91 53 92 54 93 56 94 58 95 55 96
REMARK H PARENT 18 7 25 39 75 58 49 69
REMARK Flexibility Score: inf
ROOT
ATOM      1  C   UNL     1      -6.934  12.352   2.115  1.00  0.00     0.002 C 
ENDROOT
BRANCH   1   2
ATOM      2  C   UNL     1      -5.975  11.155   2.121  1.00  0.00     0.021 C 
BRANCH   2   3
ATOM      3  C   UNL     1      -5.662  10.503   0.774  1.00  0.00     0.116 C 
BRANCH   3   4
ATOM      4  N   UNL     1      -5.073  11.407  -0.197  1.00  0.00    -0.352 N 
ATOM      5  C   UNL     1      -4.099  11.162  -1.137  1.00  0.00     0.251 C 
ATOM      6  O   UNL     1      -3.696  12.073  -1.854  1.00  0.00    -0.269 OA
ATOM      7  H   UNL     1      -5.420  12.328  -0.180  1.00  0.00     0.163 HD
BRANCH   5   8
ATOM      8  C   UNL     1      -3.485   9.819  -1.249  1.00  0.00     0.039 A 
ATOM      9  C   UNL     1      -2.243   7.311  -1.171  1.00  0.00    -0.025 A 
ATOM     10  C   UNL     1      -1.471   8.478  -1.204  1.00  0.00     0.009 A 
ATOM     11  C   UNL     1      -3.635   7.407  -1.314  1.00  0.00     0.009 A 
ATOM     12  C   UNL     1      -2.090   9.729  -1.244  1.00  0.00     0.014 A 
ATOM     13  C   UNL     1      -4.256   8.658  -1.350  1.00  0.00     0.014 A 
BRANCH   9  14
ATOM     14  C   UNL     1      -1.573   6.020  -0.966  1.00  0.00     0.022 C 
ATOM     15  N   UNL     1      -1.732   2.655   0.312  1.00  0.00    -0.242 N 
ATOM     16  C   UNL     1      -1.054   3.813  -0.123  1.00  0.00     0.265 C 
ATOM     17  C   UNL     1      -3.065   2.719   0.773  1.00  0.00     0.265 C 
ATOM     18  O   UNL     1       0.060   3.861  -0.646  1.00  0.00    -0.268 OA
ATOM     19  C   UNL     1      -1.835   5.098  -0.010  1.00  0.00     0.049 C 
ATOM     20  C   UNL     1      -3.520   4.005   1.354  1.00  0.00     0.048 A 
ATOM     21  O   UNL     1      -3.902   1.819   0.779  1.00  0.00    -0.268 OA
ATOM     22  C   UNL     1      -2.862   5.185   1.030  1.00  0.00    -0.000 A 
ATOM     23  C   UNL     1      -4.600   4.015   2.252  1.00  0.00     0.014 A 
ATOM     24  C   UNL     1      -3.217   6.362   1.707  1.00  0.00     0.010 A 
ATOM     25  C   UNL     1      -4.990   5.203   2.867  1.00  0.00     0.001 A 
ATOM     26  C   UNL     1      -4.285   6.374   2.609  1.00  0.00     0.001 A 
BRANCH  15  27
ATOM     27  C   UNL     1      -1.072   1.354   0.178  1.00  0.00     0.053 A 
ATOM     28  C   UNL     1       2.493  -0.079   0.014  1.00  0.00     0.044 C 
ATOM     29  C   UNL     1       0.994  -0.001   0.040  1.00  0.00    -0.049 A 
ATOM     30  C   UNL     1       0.240  -1.167  -0.061  1.00  0.00     0.003 A 
ATOM     31  C   UNL     1       0.335   1.237   0.178  1.00  0.00     0.030 A 
ATOM     32  C   UNL     1      -1.145  -1.093  -0.038  1.00  0.00     0.002 A 
ATOM     33  C   UNL     1      -1.786   0.148   0.075  1.00  0.00     0.027 A 
ENDBRANCH  15  27
ENDBRANCH   9  14
ENDBRANCH   5   8
ENDBRANCH   3   4
ENDBRANCH   2   3
ENDBRANCH   1   2
BRANCH   1  34
ATOM     34  C   UNL     1      -8.268  12.190   1.372  1.00  0.00     0.002 C 
BRANCH  34  35
ATOM     35  C   UNL     1      -9.093  10.946   1.697  1.00  0.00     0.021 C 
BRANCH  35  36
ATOM     36  C   UNL     1      -9.591  10.849   3.132  1.00  0.00     0.116 C 
BRANCH  36  37
ATOM     37  N   UNL     1     -10.877  11.486   3.385  1.00  0.00    -0.352 N 
ATOM     38  C   UNL     1     -11.580  11.625   4.574  1.00  0.00     0.251 C 
ATOM     39  H   UNL     1     -11.313  11.876   2.593  1.00  0.00     0.163 HD
ATOM     40  O   UNL     1     -12.679  12.150   4.573  1.00  0.00    -0.269 OA
BRANCH  38  41
ATOM     41  C   UNL     1     -10.929  11.273   5.867  1.00  0.00     0.039 A 
ATOM     42  C   UNL     1     -11.088  12.160   6.940  1.00  0.00     0.014 A 
ATOM     43  C   UNL     1     -10.007  10.237   5.962  1.00  0.00     0.014 A 
ATOM     44  C   UNL     1     -10.136  12.184   7.958  1.00  0.00     0.010 A 
ATOM     45  C   UNL     1      -8.999  10.331   6.898  1.00  0.00     0.010 A 
ATOM     46  C   UNL     1      -9.024  11.353   7.850  1.00  0.00    -0.014 A 
BRANCH  46  47
ATOM     47  C   UNL     1      -7.781  11.564   8.583  1.00  0.00     0.031 A 
ATOM     48  C   UNL     1      -7.349  10.625   9.635  1.00  0.00     0.074 A 
ATOM     49  C   UNL     1      -6.942  12.547   8.185  1.00  0.00     0.049 A 
ATOM     50  N   UNL     1      -6.465  10.909  10.530  1.00  0.00    -0.248 NA
ATOM     51  C   UNL     1      -7.899   9.283   9.775  1.00  0.00     0.031 C 
ATOM     52  C   UNL     1      -5.534  12.709   8.537  1.00  0.00     0.029 A 
ATOM     53  N   UNL     1      -7.271  13.736   7.520  1.00  0.00    -0.354 N 
ATOM     54  C   UNL     1      -6.129   9.743  11.175  1.00  0.00     0.074 A 
ATOM     55  C   UNL     1      -7.090   8.770  10.707  1.00  0.00     0.031 C 
ATOM     56  C   UNL     1      -5.189  13.993   8.363  1.00  0.00     0.029 A 
ATOM     57  C   UNL     1      -6.400  14.724   8.038  1.00  0.00     0.049 A 
ATOM     58  H   UNL     1      -7.965  13.858   6.833  1.00  0.00     0.167 HD
ATOM     59  C   UNL     1      -5.000   9.706  11.941  1.00  0.00     0.037 A 
ATOM     60  C   UNL     1      -6.889  15.789   8.739  1.00  0.00     0.037 A 
ATOM     61  C   UNL     1      -4.338  11.009  11.994  1.00  0.00     0.049 A 
ATOM     62  C   UNL     1      -6.411  15.882  10.174  1.00  0.00     0.074 A 
ATOM     63  C   UNL     1      -3.245  11.571  11.354  1.00  0.00     0.029 A 
ATOM     64  N   UNL     1      -4.988  12.056  12.618  1.00  0.00    -0.354 N 
ATOM     65  N   UNL     1      -5.650  14.997  10.755  1.00  0.00    -0.248 NA
ATOM     66  C   UNL     1      -6.837  16.935  11.099  1.00  0.00     0.031 C 
ATOM     67  C   UNL     1      -3.242  12.969  11.619  1.00  0.00     0.029 A 
ATOM     68  C   UNL     1      -4.335  13.254  12.416  1.00  0.00     0.049 A 
ATOM     69  H   UNL     1      -5.815  11.959  13.143  1.00  0.00     0.167 HD
ATOM     70  C   UNL     1      -5.551  15.287  12.090  1.00  0.00     0.074 A 
ATOM     71  C   UNL     1      -6.295  16.520  12.257  1.00  0.00     0.031 C 
ATOM     72  C   UNL     1      -4.912  14.465  12.971  1.00  0.00     0.037 A 
BRANCH  59  73
ATOM     73  C   UNL     1      -4.371   8.435  12.458  1.00  0.00     0.057 A 
ATOM     74  C   UNL     1      -2.980   8.349  12.665  1.00  0.00     0.134 A 
ATOM     75  C   UNL     1      -5.071   7.251  12.743  1.00  0.00     0.134 A 
ATOM     76  F   UNL     1      -2.181   9.418  12.557  1.00  0.00    -0.206 F 
ATOM     77  C   UNL     1      -2.330   7.154  12.998  1.00  0.00     0.040 A 
ATOM     78  C   UNL     1      -4.431   6.034  13.020  1.00  0.00     0.040 A 
ATOM     79  F   UNL     1      -6.408   7.229  12.825  1.00  0.00    -0.206 F 
ATOM     80  C   UNL     1      -3.051   5.979  13.133  1.00  0.00     0.006 A 
ENDBRANCH  59  73
BRANCH  60  81
ATOM     81  C   UNL     1      -8.228  16.218   8.256  1.00  0.00     0.057 A 
ATOM     82  C   UNL     1      -8.342  16.712   6.945  1.00  0.00     0.134 A 
ATOM     83  C   UNL     1      -9.400  15.784   8.880  1.00  0.00     0.134 A 
ATOM     84  F   UNL     1      -7.251  17.140   6.288  1.00  0.00    -0.206 F 
ATOM     85  C   UNL     1      -9.546  16.660   6.240  1.00  0.00     0.040 A 
ATOM     86  C   UNL     1     -10.616  15.742   8.189  1.00  0.00     0.040 A 
ATOM     87  F   UNL     1      -9.366  15.276  10.121  1.00  0.00    -0.206 F 
ATOM     88  C   UNL     1     -10.681  16.139   6.854  1.00  0.00     0.006 A 
ENDBRANCH  60  81
BRANCH  72  89
ATOM     89  C   UNL     1      -4.790  14.734  14.442  1.00  0.00     0.057 A 
ATOM     90  C   UNL     1      -4.391  15.976  14.952  1.00  0.00     0.134 A 
ATOM     91  C   UNL     1      -4.937  13.702  15.391  1.00  0.00     0.134 A 
ATOM     92  F   UNL     1      -4.172  17.018  14.137  1.00  0.00    -0.206 F 
ATOM     93  C   UNL     1      -4.175  16.183  16.321  1.00  0.00     0.040 A 
ATOM     94  C   UNL     1      -4.677  13.883  16.751  1.00  0.00     0.040 A 
ATOM     95  F   UNL     1      -5.359  12.478  15.040  1.00  0.00    -0.206 F 
ATOM     96  C   UNL     1      -4.302  15.132  17.223  1.00  0.00     0.006 A 
ENDBRANCH  72  89
ENDBRANCH  46  47
ENDBRANCH  38  41
ENDBRANCH  36  37
ENDBRANCH  35  36
ENDBRANCH  34  35
ENDBRANCH   1  34
TORSDOF 15
