REMARK SMILES O=C(NCCCCCCNC(=O)c1cccc2nc(Cl)c(Cl)nc12)c1ccc(-c2c3nc(c(-c4c(F)cccc4F)c4ccc([nH]4)c(-c4c(F)cccc4F)c4nc(c(-c5c(F)cccc5F)c5ccc2[nH]5)C=C4)C=C3)cc1
REMARK SMILES IDX 5 1 4 2 3 3 1 4 2 5 25 7 26 8 78 9 27 10 77 11 28 12 29 13
REMARK SMILES IDX 30 14 71 15 31 16 76 17 70 18 72 19 32 20 75 21 69 22 68 23
REMARK SMILES IDX 33 25 59 26 42 27 58 28 43 29 46 30 57 31 73 32 44 33 45 34
REMARK SMILES IDX 56 36 74 37 47 38 34 39 35 40 40 41 36 42 37 43 39 44 41 45
REMARK SMILES IDX 38 46 60 47 61 48 66 49 62 50 63 51 65 52 67 53 64 54 48 55
REMARK SMILES IDX 49 56 54 57 50 58 51 59 53 60 55 61 52 62 6 63 7 64 8 65
REMARK SMILES IDX 9 66 10 67 11 68 12 70 13 71 14 72 24 73 15 74 17 75 23 76
REMARK SMILES IDX 16 77 18 78 21 79 19 80 22 81 20 82
REMARK H PARENT 3 6 72 24 46 35 10 69
REMARK Flexibility Score: inf
ROOT
ATOM      1  C   UNL     1       4.856  -2.623   0.730  1.00  0.00     0.021 C 
ENDROOT
BRANCH   1   2
ATOM      2  C   UNL     1       4.607  -1.311  -0.009  1.00  0.00     0.116 C 
BRANCH   2   3
ATOM      3  N   UNL     1       3.198  -1.056  -0.242  1.00  0.00    -0.352 N 
ATOM      4  O   UNL     1       1.233   0.026  -0.161  1.00  0.00    -0.269 OA
ATOM      5  C   UNL     1       2.454   0.070  -0.010  1.00  0.00     0.251 C 
ATOM      6  H   UNL     1       2.698  -1.812  -0.628  1.00  0.00     0.163 HD
BRANCH   5   7
ATOM      7  C   UNL     1       3.082   1.340   0.426  1.00  0.00     0.039 A 
ATOM      8  C   UNL     1       2.398   2.132   1.356  1.00  0.00     0.014 A 
ATOM      9  C   UNL     1       4.279   1.806  -0.129  1.00  0.00     0.014 A 
ATOM     10  C   UNL     1       2.913   3.374   1.738  1.00  0.00     0.010 A 
ATOM     11  C   UNL     1       4.822   3.020   0.295  1.00  0.00     0.010 A 
ATOM     12  C   UNL     1       4.130   3.828   1.210  1.00  0.00    -0.014 A 
BRANCH  12  13
ATOM     13  C   UNL     1       4.635   5.189   1.523  1.00  0.00     0.031 A 
ATOM     14  C   UNL     1       4.644   6.242   0.446  1.00  0.00     0.074 A 
ATOM     15  C   UNL     1       5.095   5.484   2.753  1.00  0.00     0.049 A 
ATOM     16  N   UNL     1       5.105   7.467   0.487  1.00  0.00    -0.248 NA
ATOM     17  C   UNL     1       4.076   5.857  -0.856  1.00  0.00     0.031 C 
ATOM     18  C   UNL     1       5.152   4.557   3.883  1.00  0.00     0.029 A 
ATOM     19  N   UNL     1       5.606   6.654   3.255  1.00  0.00    -0.354 N 
ATOM     20  C   UNL     1       4.900   7.989  -0.784  1.00  0.00     0.074 A 
ATOM     21  C   UNL     1       4.311   6.938  -1.585  1.00  0.00     0.031 C 
ATOM     22  C   UNL     1       5.651   5.200   4.952  1.00  0.00     0.029 A 
ATOM     23  C   UNL     1       5.974   6.574   4.576  1.00  0.00     0.049 A 
ATOM     24  H   UNL     1       5.700   7.475   2.719  1.00  0.00     0.167 HD
ATOM     25  C   UNL     1       5.156   9.238  -1.241  1.00  0.00     0.037 A 
ATOM     26  C   UNL     1       6.511   7.504   5.387  1.00  0.00     0.037 A 
ATOM     27  C   UNL     1       5.704  10.301  -0.443  1.00  0.00     0.049 A 
ATOM     28  C   UNL     1       6.785   8.884   4.856  1.00  0.00     0.074 A 
ATOM     29  C   UNL     1       5.975  11.607  -0.810  1.00  0.00     0.029 A 
ATOM     30  N   UNL     1       6.050  10.180   0.894  1.00  0.00    -0.354 N 
ATOM     31  N   UNL     1       6.573   9.366   3.656  1.00  0.00    -0.248 NA
ATOM     32  C   UNL     1       7.372   9.850   5.797  1.00  0.00     0.031 C 
ATOM     33  C   UNL     1       6.501  12.274   0.302  1.00  0.00     0.029 A 
ATOM     34  C   UNL     1       6.534  11.388   1.366  1.00  0.00     0.049 A 
ATOM     35  H   UNL     1       5.964   9.357   1.428  1.00  0.00     0.167 HD
ATOM     36  C   UNL     1       6.979  10.693   3.703  1.00  0.00     0.074 A 
ATOM     37  C   UNL     1       7.438  10.945   5.053  1.00  0.00     0.031 C 
ATOM     38  C   UNL     1       6.974  11.621   2.716  1.00  0.00     0.037 A 
BRANCH  25  39
ATOM     39  C   UNL     1       4.833   9.518  -2.677  1.00  0.00     0.057 A 
ATOM     40  C   UNL     1       5.851   9.642  -3.630  1.00  0.00     0.134 A 
ATOM     41  C   UNL     1       3.512   9.677  -3.114  1.00  0.00     0.134 A 
ATOM     42  F   UNL     1       7.137   9.502  -3.276  1.00  0.00    -0.206 F 
ATOM     43  C   UNL     1       5.565   9.910  -4.970  1.00  0.00     0.040 A 
ATOM     44  C   UNL     1       3.212   9.925  -4.454  1.00  0.00     0.040 A 
ATOM     45  F   UNL     1       2.492   9.553  -2.251  1.00  0.00    -0.206 F 
ATOM     46  C   UNL     1       4.242  10.046  -5.386  1.00  0.00     0.006 A 
ENDBRANCH  25  39
BRANCH  26  47
ATOM     47  C   UNL     1       6.815   7.176   6.801  1.00  0.00     0.057 A 
ATOM     48  C   UNL     1       7.907   6.373   7.146  1.00  0.00     0.134 A 
ATOM     49  C   UNL     1       6.035   7.694   7.841  1.00  0.00     0.134 A 
ATOM     50  F   UNL     1       8.691   5.848   6.193  1.00  0.00    -0.206 F 
ATOM     51  C   UNL     1       8.215   6.097   8.479  1.00  0.00     0.040 A 
ATOM     52  C   UNL     1       6.342   7.441   9.179  1.00  0.00     0.040 A 
ATOM     53  F   UNL     1       4.990   8.489   7.570  1.00  0.00    -0.206 F 
ATOM     54  C   UNL     1       7.435   6.638   9.500  1.00  0.00     0.006 A 
ENDBRANCH  26  47
BRANCH  38  55
ATOM     55  C   UNL     1       7.452  12.995   3.071  1.00  0.00     0.057 A 
ATOM     56  C   UNL     1       6.542  14.044   3.246  1.00  0.00     0.134 A 
ATOM     57  C   UNL     1       8.815  13.284   3.216  1.00  0.00     0.134 A 
ATOM     58  F   UNL     1       5.224  13.831   3.117  1.00  0.00    -0.206 F 
ATOM     59  C   UNL     1       6.971  15.336   3.552  1.00  0.00     0.040 A 
ATOM     60  C   UNL     1       9.255  14.568   3.540  1.00  0.00     0.040 A 
ATOM     61  F   UNL     1       9.733  12.316   3.075  1.00  0.00    -0.206 F 
ATOM     62  C   UNL     1       8.332  15.599   3.704  1.00  0.00     0.006 A 
ENDBRANCH  38  55
ENDBRANCH  12  13
ENDBRANCH   5   7
ENDBRANCH   2   3
ENDBRANCH   1   2
BRANCH   1  63
ATOM     63  C   UNL     1       4.385  -3.893   0.018  1.00  0.00     0.002 C 
BRANCH  63  64
ATOM     64  C   UNL     1       4.909  -4.104  -1.405  1.00  0.00     0.002 C 
BRANCH  64  65
ATOM     65  C   UNL     1       6.431  -4.050  -1.584  1.00  0.00     0.021 C 
BRANCH  65  66
ATOM     66  C   UNL     1       7.244  -4.973  -0.679  1.00  0.00     0.116 C 
BRANCH  66  67
ATOM     67  N   UNL     1       6.901  -6.377  -0.854  1.00  0.00    -0.352 N 
ATOM     68  C   UNL     1       7.727  -7.454  -1.004  1.00  0.00     0.253 C 
ATOM     69  H   UNL     1       5.938  -6.578  -0.864  1.00  0.00     0.163 HD
ATOM     70  O   UNL     1       7.258  -8.590  -1.097  1.00  0.00    -0.269 OA
BRANCH  68  71
ATOM     71  C   UNL     1       9.187  -7.275  -0.976  1.00  0.00     0.067 A 
ATOM     72  C   UNL     1       9.776  -6.867   0.232  1.00  0.00     0.016 A 
ATOM     73  C   UNL     1       9.945  -7.582  -2.114  1.00  0.00     0.103 A 
ATOM     74  C   UNL     1      11.152  -6.735   0.307  1.00  0.00     0.003 A 
ATOM     75  C   UNL     1      11.356  -7.461  -2.006  1.00  0.00     0.091 A 
ATOM     76  N   UNL     1       9.384  -7.970  -3.288  1.00  0.00    -0.230 NA
ATOM     77  C   UNL     1      11.926  -7.035  -0.813  1.00  0.00     0.031 A 
ATOM     78  N   UNL     1      12.178  -7.747  -3.031  1.00  0.00    -0.231 NA
ATOM     79  C   UNL     1      10.223  -8.273  -4.306  1.00  0.00     0.167 A 
ATOM     80  C   UNL     1      11.595  -8.166  -4.178  1.00  0.00     0.167 A 
ATOM     81  Cl  UNL     1       9.424  -8.778  -5.737  1.00  0.00    -0.059 Cl
ATOM     82  Cl  UNL     1      12.713  -8.533  -5.427  1.00  0.00    -0.059 Cl
ENDBRANCH  68  71
ENDBRANCH  66  67
ENDBRANCH  65  66
ENDBRANCH  64  65
ENDBRANCH  63  64
ENDBRANCH   1  63
TORSDOF 13
