REMARK SMILES Nc1c(CC(=O)NCCCCCCNC(=O)c2ccc(-c3c4nc(c(-c5c(F)cccc5F)c5ccc([nH]5)c(-c5c(F)cccc5F)c5nc(c(-c6c(F)cccc6F)c6ccc3[nH]6)C=C5)C=C4)cc2)cccc1C(=O)c1ccc(Br)cc1
REMARK SMILES IDX 10 1 9 2 8 3 7 4 5 5 6 6 4 8 3 9 2 10 74 11 71 12 73 13
REMARK SMILES IDX 72 14 1 15 75 18 76 19 77 20 78 21 83 22 79 23 82 24 80 25
REMARK SMILES IDX 81 26 11 27 12 28 13 29 14 30 15 31 16 33 17 34 18 35 70 36
REMARK SMILES IDX 19 37 69 38 20 39 21 40 22 41 63 42 23 43 68 44 62 45 64 46
REMARK SMILES IDX 24 47 67 48 61 49 60 50 25 52 51 53 34 54 50 55 35 56 38 57
REMARK SMILES IDX 49 58 65 59 36 60 37 61 48 63 66 64 39 65 26 66 27 67 32 68
REMARK SMILES IDX 28 69 29 70 31 71 33 72 30 73 52 74 53 75 58 76 54 77 55 78
REMARK SMILES IDX 57 79 59 80 56 81 40 82 41 83 46 84 42 85 43 86 45 87 47 88
REMARK SMILES IDX 44 89
REMARK H PARENT 7 7 1 16 1 17 14 32 64 51 38 62
REMARK Flexibility Score: inf
ROOT
ATOM      1  C   UNL     1       0.249  -1.365   4.929  1.00  0.00     0.002 C 
ENDROOT
BRANCH   1   2
ATOM      2  C   UNL     1       0.606  -0.915   3.507  1.00  0.00     0.021 C 
BRANCH   2   3
ATOM      3  C   UNL     1       1.568  -1.870   2.799  1.00  0.00     0.116 C 
BRANCH   3   4
ATOM      4  N   UNL     1       0.891  -3.082   2.386  1.00  0.00    -0.356 N 
ATOM      5  C   UNL     1       0.445  -3.437   1.147  1.00  0.00     0.224 C 
ATOM      6  O   UNL     1      -0.223  -4.469   1.043  1.00  0.00    -0.275 OA
ATOM      7  H   UNL     1       0.731  -3.741   3.099  1.00  0.00     0.163 HD
BRANCH   5   8
ATOM      8  C   UNL     1       0.835  -2.629  -0.081  1.00  0.00     0.137 C 
BRANCH   8   9
ATOM      9  C   UNL     1       0.228  -1.238  -0.160  1.00  0.00    -0.015 A 
ATOM     10  C   UNL     1       1.017  -0.053  -0.176  1.00  0.00     0.046 A 
ATOM     11  C   UNL     1       0.360   1.206  -0.169  1.00  0.00     0.046 A 
ATOM     12  C   UNL     1      -1.176  -1.149  -0.174  1.00  0.00     0.006 A 
ATOM     13  C   UNL     1      -1.049   1.249  -0.170  1.00  0.00     0.014 A 
ATOM     14  C   UNL     1      -1.810   0.085  -0.178  1.00  0.00     0.001 A 
BRANCH  10  15
ATOM     15  N   UNL     1       2.401  -0.181  -0.151  1.00  0.00    -0.398 N 
ATOM     16  H   UNL     1       2.812  -1.076  -0.158  1.00  0.00     0.156 HD
ATOM     17  H   UNL     1       2.970   0.622  -0.128  1.00  0.00     0.156 HD
ENDBRANCH  10  15
BRANCH  11  18
ATOM     18  C   UNL     1       1.024   2.554  -0.109  1.00  0.00     0.195 C 
ATOM     19  O   UNL     1       0.365   3.557   0.167  1.00  0.00    -0.289 OA
BRANCH  18  20
ATOM     20  C   UNL     1       2.474   2.759  -0.284  1.00  0.00     0.023 A 
ATOM     21  C   UNL     1       3.183   3.338   0.776  1.00  0.00     0.013 A 
ATOM     22  C   UNL     1       3.140   2.355  -1.445  1.00  0.00     0.013 A 
ATOM     23  C   UNL     1       4.573   3.442   0.708  1.00  0.00     0.016 A 
ATOM     24  C   UNL     1       4.534   2.448  -1.505  1.00  0.00     0.016 A 
ATOM     25  C   UNL     1       5.243   2.977  -0.424  1.00  0.00     0.018 A 
ATOM     26  Br  UNL     1       7.131   3.044  -0.484  1.00  0.00    -0.051 Br
ENDBRANCH  18  20
ENDBRANCH  11  18
ENDBRANCH   8   9
ENDBRANCH   5   8
ENDBRANCH   3   4
ENDBRANCH   2   3
ENDBRANCH   1   2
BRANCH   1  27
ATOM     27  C   UNL     1       1.443  -1.488   5.883  1.00  0.00     0.002 C 
BRANCH  27  28
ATOM     28  C   UNL     1       2.274  -0.212   6.042  1.00  0.00     0.021 C 
BRANCH  28  29
ATOM     29  C   UNL     1       1.501   0.974   6.610  1.00  0.00     0.116 C 
BRANCH  29  30
ATOM     30  N   UNL     1       1.022   0.711   7.959  1.00  0.00    -0.352 N 
ATOM     31  C   UNL     1       1.226   1.425   9.109  1.00  0.00     0.251 C 
ATOM     32  H   UNL     1       0.470  -0.098   8.058  1.00  0.00     0.163 HD
ATOM     33  O   UNL     1       0.926   0.938  10.200  1.00  0.00    -0.269 OA
BRANCH  31  34
ATOM     34  C   UNL     1       1.821   2.775   9.047  1.00  0.00     0.039 A 
ATOM     35  C   UNL     1       2.807   3.125   9.972  1.00  0.00     0.014 A 
ATOM     36  C   UNL     1       1.394   3.699   8.089  1.00  0.00     0.014 A 
ATOM     37  C   UNL     1       3.406   4.384   9.901  1.00  0.00     0.010 A 
ATOM     38  C   UNL     1       2.041   4.926   7.974  1.00  0.00     0.010 A 
ATOM     39  C   UNL     1       3.049   5.282   8.882  1.00  0.00    -0.014 A 
BRANCH  39  40
ATOM     40  C   UNL     1       3.714   6.603   8.754  1.00  0.00     0.031 A 
ATOM     41  C   UNL     1       2.923   7.868   8.936  1.00  0.00     0.074 A 
ATOM     42  C   UNL     1       5.016   6.662   8.413  1.00  0.00     0.049 A 
ATOM     43  N   UNL     1       3.308   9.111   8.796  1.00  0.00    -0.248 NA
ATOM     44  C   UNL     1       1.504   7.715   9.298  1.00  0.00     0.031 C 
ATOM     45  C   UNL     1       5.880   5.506   8.168  1.00  0.00     0.029 A 
ATOM     46  N   UNL     1       5.836   7.742   8.201  1.00  0.00    -0.354 N 
ATOM     47  C   UNL     1       2.179   9.885   9.039  1.00  0.00     0.074 A 
ATOM     48  C   UNL     1       1.084   8.972   9.281  1.00  0.00     0.031 C 
ATOM     49  C   UNL     1       7.114   5.939   7.862  1.00  0.00     0.029 A 
ATOM     50  C   UNL     1       7.119   7.398   7.850  1.00  0.00     0.049 A 
ATOM     51  H   UNL     1       5.534   8.674   8.293  1.00  0.00     0.167 HD
ATOM     52  C   UNL     1       2.071  11.235   9.079  1.00  0.00     0.037 A 
ATOM     53  C   UNL     1       8.177   8.172   7.545  1.00  0.00     0.037 A 
ATOM     54  C   UNL     1       3.167  12.141   8.857  1.00  0.00     0.049 A 
ATOM     55  C   UNL     1       8.027   9.668   7.582  1.00  0.00     0.074 A 
ATOM     56  C   UNL     1       3.172  13.523   8.931  1.00  0.00     0.029 A 
ATOM     57  N   UNL     1       4.454  11.754   8.514  1.00  0.00    -0.354 N 
ATOM     58  N   UNL     1       6.971  10.386   7.878  1.00  0.00    -0.248 NA
ATOM     59  C   UNL     1       9.218  10.461   7.248  1.00  0.00     0.031 C 
ATOM     60  C   UNL     1       4.451  13.974   8.587  1.00  0.00     0.029 A 
ATOM     61  C   UNL     1       5.256  12.871   8.351  1.00  0.00     0.049 A 
ATOM     62  H   UNL     1       4.754  10.822   8.404  1.00  0.00     0.167 HD
ATOM     63  C   UNL     1       7.376  11.712   7.794  1.00  0.00     0.074 A 
ATOM     64  C   UNL     1       8.779  11.698   7.434  1.00  0.00     0.031 C 
ATOM     65  C   UNL     1       6.653  12.840   7.998  1.00  0.00     0.037 A 
BRANCH  52  66
ATOM     66  C   UNL     1       0.717  11.811   9.377  1.00  0.00     0.057 A 
ATOM     67  C   UNL     1       0.129  11.702  10.644  1.00  0.00     0.134 A 
ATOM     68  C   UNL     1       0.004  12.509   8.394  1.00  0.00     0.134 A 
ATOM     69  F   UNL     1       0.753  11.036  11.628  1.00  0.00    -0.206 F 
ATOM     70  C   UNL     1      -1.129  12.241  10.916  1.00  0.00     0.040 A 
ATOM     71  C   UNL     1      -1.243  13.078   8.661  1.00  0.00     0.040 A 
ATOM     72  F   UNL     1       0.510  12.658   7.160  1.00  0.00    -0.206 F 
ATOM     73  C   UNL     1      -1.816  12.937   9.924  1.00  0.00     0.006 A 
ENDBRANCH  52  66
BRANCH  53  74
ATOM     74  C   UNL     1       9.479   7.550   7.198  1.00  0.00     0.057 A 
ATOM     75  C   UNL     1      10.576   7.645   8.061  1.00  0.00     0.134 A 
ATOM     76  C   UNL     1       9.662   6.855   5.997  1.00  0.00     0.134 A 
ATOM     77  F   UNL     1      10.468   8.314   9.219  1.00  0.00    -0.206 F 
ATOM     78  C   UNL     1      11.815   7.091   7.734  1.00  0.00     0.040 A 
ATOM     79  C   UNL     1      10.888   6.274   5.668  1.00  0.00     0.040 A 
ATOM     80  F   UNL     1       8.647   6.719   5.130  1.00  0.00    -0.206 F 
ATOM     81  C   UNL     1      11.972   6.399   6.536  1.00  0.00     0.006 A 
ENDBRANCH  53  74
BRANCH  65  82
ATOM     82  C   UNL     1       7.373  14.151   7.872  1.00  0.00     0.057 A 
ATOM     83  C   UNL     1       7.780  14.656   6.631  1.00  0.00     0.134 A 
ATOM     84  C   UNL     1       7.629  14.934   9.005  1.00  0.00     0.134 A 
ATOM     85  F   UNL     1       7.577  13.949   5.509  1.00  0.00    -0.206 F 
ATOM     86  C   UNL     1       8.436  15.884   6.524  1.00  0.00     0.040 A 
ATOM     87  C   UNL     1       8.259  16.175   8.908  1.00  0.00     0.040 A 
ATOM     88  F   UNL     1       7.258  14.512  10.224  1.00  0.00    -0.206 F 
ATOM     89  C   UNL     1       8.671  16.650   7.665  1.00  0.00     0.006 A 
ENDBRANCH  65  82
ENDBRANCH  39  40
ENDBRANCH  31  34
ENDBRANCH  29  30
ENDBRANCH  28  29
ENDBRANCH  27  28
ENDBRANCH   1  27
TORSDOF 17
