REMARK SMILES C[C@H]1[C@H](C(=O)NCCCCCCNC(=O)c2ccc(-c3c4nc(c(-c5c(F)cccc5F)c5ccc([nH]5)c(-c5c(F)cccc5F)c5nc(c(-c6c(F)cccc6F)c6ccc3[nH]6)C=C5)C=C4)cc2)CCN1C(=O)[C@H]1CC=CCC1
REMARK SMILES IDX 9 1 8 2 7 3 6 4 4 5 5 6 3 8 1 9 2 10 72 11 70 12 71 13 73 14
REMARK SMILES IDX 74 15 75 16 76 17 80 18 77 19 79 20 78 21 10 22 11 23 12 24
REMARK SMILES IDX 13 25 14 26 15 28 16 29 17 30 69 31 18 32 68 33 19 34 20 35
REMARK SMILES IDX 21 36 62 37 22 38 67 39 61 40 63 41 23 42 66 43 60 44 59 45
REMARK SMILES IDX 24 47 50 48 33 49 49 50 34 51 37 52 48 53 64 54 35 55 36 56
REMARK SMILES IDX 47 58 65 59 38 60 25 61 26 62 31 63 27 64 28 65 30 66 32 67
REMARK SMILES IDX 29 68 51 69 52 70 57 71 53 72 54 73 56 74 58 75 55 76 39 77
REMARK SMILES IDX 40 78 45 79 41 80 42 81 44 82 46 83 43 84
REMARK H PARENT 6 7 13 27 63 46 37 57
REMARK Flexibility Score: inf
ROOT
ATOM      1  C   UNL     1      -0.608   1.323   5.444  1.00  0.00     0.002 C 
ENDROOT
BRANCH   1   2
ATOM      2  C   UNL     1      -0.215   0.472   4.237  1.00  0.00     0.021 C 
BRANCH   2   3
ATOM      3  C   UNL     1      -0.977   0.754   2.944  1.00  0.00     0.116 C 
BRANCH   3   4
ATOM      4  N   UNL     1      -0.524   1.981   2.321  1.00  0.00    -0.356 N 
ATOM      5  C   UNL     1      -0.234   2.286   1.031  1.00  0.00     0.225 C 
ATOM      6  O   UNL     1       0.169   3.433   0.811  1.00  0.00    -0.275 OA
ATOM      7  H   UNL     1      -0.405   2.731   2.948  1.00  0.00     0.163 HD
BRANCH   5   8
ATOM      8  C   UNL     1      -0.358   1.304  -0.126  1.00  0.00     0.102 C 
ATOM      9  C   UNL     1       1.482   0.256  -1.457  1.00  0.00     0.032 C 
ATOM     10  C   UNL     1       0.719   0.200  -0.128  1.00  0.00     0.094 C 
ATOM     11  N   UNL     1      -0.022  -1.054   0.019  1.00  0.00    -0.339 N 
ATOM     12  C   UNL     1      -1.708   0.602  -0.256  1.00  0.00     0.037 C 
ATOM     13  C   UNL     1      -1.382  -0.869  -0.464  1.00  0.00     0.120 C 
BRANCH  11  14
ATOM     14  C   UNL     1       0.353  -2.296   0.480  1.00  0.00     0.226 C 
ATOM     15  O   UNL     1      -0.486  -3.211   0.470  1.00  0.00    -0.275 OA
BRANCH  14  16
ATOM     16  C   UNL     1       1.731  -2.638   1.078  1.00  0.00     0.083 C 
ATOM     17  C   UNL     1       2.953  -2.504   0.169  1.00  0.00     0.040 C 
ATOM     18  C   UNL     1       1.961  -2.155   2.513  1.00  0.00     0.018 C 
ATOM     19  C   UNL     1       3.864  -1.356   0.484  1.00  0.00    -0.030 C 
ATOM     20  C   UNL     1       2.733  -0.846   2.646  1.00  0.00     0.028 C 
ATOM     21  C   UNL     1       3.768  -0.617   1.595  1.00  0.00    -0.031 C 
ENDBRANCH  14  16
ENDBRANCH  11  14
ENDBRANCH   5   8
ENDBRANCH   3   4
ENDBRANCH   2   3
ENDBRANCH   1   2
BRANCH   1  22
ATOM     22  C   UNL     1      -2.024   1.103   5.973  1.00  0.00     0.002 C 
BRANCH  22  23
ATOM     23  C   UNL     1      -2.411  -0.352   6.241  1.00  0.00     0.021 C 
BRANCH  23  24
ATOM     24  C   UNL     1      -1.432  -1.144   7.104  1.00  0.00     0.116 C 
BRANCH  24  25
ATOM     25  N   UNL     1      -1.261  -0.569   8.428  1.00  0.00    -0.352 N 
ATOM     26  C   UNL     1      -1.520  -1.116   9.657  1.00  0.00     0.251 C 
ATOM     27  H   UNL     1      -0.906   0.350   8.444  1.00  0.00     0.163 HD
ATOM     28  O   UNL     1      -1.477  -0.415  10.668  1.00  0.00    -0.269 OA
BRANCH  26  29
ATOM     29  C   UNL     1      -1.877  -2.545   9.771  1.00  0.00     0.039 A 
ATOM     30  C   UNL     1      -2.968  -2.906  10.565  1.00  0.00     0.014 A 
ATOM     31  C   UNL     1      -1.139  -3.526   9.103  1.00  0.00     0.014 A 
ATOM     32  C   UNL     1      -3.357  -4.244  10.639  1.00  0.00     0.010 A 
ATOM     33  C   UNL     1      -1.572  -4.849   9.118  1.00  0.00     0.010 A 
ATOM     34  C   UNL     1      -2.684  -5.222   9.888  1.00  0.00    -0.014 A 
BRANCH  34  35
ATOM     35  C   UNL     1      -3.135  -6.638   9.896  1.00  0.00     0.031 A 
ATOM     36  C   UNL     1      -2.243  -7.715  10.446  1.00  0.00     0.074 A 
ATOM     37  C   UNL     1      -4.327  -6.959   9.357  1.00  0.00     0.049 A 
ATOM     38  N   UNL     1      -2.441  -9.009  10.493  1.00  0.00    -0.248 NA
ATOM     39  C   UNL     1      -0.946  -7.287  10.993  1.00  0.00     0.031 C 
ATOM     40  C   UNL     1      -5.265  -6.012   8.750  1.00  0.00     0.029 A 
ATOM     41  N   UNL     1      -4.950  -8.175   9.224  1.00  0.00    -0.354 N 
ATOM     42  C   UNL     1      -1.294  -9.546  11.064  1.00  0.00     0.074 A 
ATOM     43  C   UNL     1      -0.382  -8.447  11.294  1.00  0.00     0.031 C 
ATOM     44  C   UNL     1      -6.354  -6.678   8.334  1.00  0.00     0.029 A 
ATOM     45  C   UNL     1      -6.175  -8.101   8.606  1.00  0.00     0.049 A 
ATOM     46  H   UNL     1      -4.557  -9.020   9.541  1.00  0.00     0.167 HD
ATOM     47  C   UNL     1      -1.033 -10.835  11.389  1.00  0.00     0.037 A 
ATOM     48  C   UNL     1      -7.053  -9.071   8.287  1.00  0.00     0.037 A 
ATOM     49  C   UNL     1      -1.949 -11.925  11.172  1.00  0.00     0.049 A 
ATOM     50  C   UNL     1      -6.730 -10.497   8.638  1.00  0.00     0.074 A 
ATOM     51  C   UNL     1      -1.801 -13.257  11.519  1.00  0.00     0.029 A 
ATOM     52  N   UNL     1      -3.181 -11.809  10.546  1.00  0.00    -0.354 N 
ATOM     53  N   UNL     1      -5.673 -10.982   9.243  1.00  0.00    -0.248 NA
ATOM     54  C   UNL     1      -7.726 -11.512   8.265  1.00  0.00     0.031 C 
ATOM     55  C   UNL     1      -2.921 -13.956  11.057  1.00  0.00     0.029 A 
ATOM     56  C   UNL     1      -3.792 -13.051  10.472  1.00  0.00     0.049 A 
ATOM     57  H   UNL     1      -3.565 -10.970  10.205  1.00  0.00     0.167 HD
ATOM     58  C   UNL     1      -5.888 -12.350   9.348  1.00  0.00     0.074 A 
ATOM     59  C   UNL     1      -7.184 -12.616   8.759  1.00  0.00     0.031 C 
ATOM     60  C   UNL     1      -5.084 -13.301   9.884  1.00  0.00     0.037 A 
BRANCH  47  61
ATOM     61  C   UNL     1       0.299 -11.135  12.014  1.00  0.00     0.057 A 
ATOM     62  C   UNL     1       0.620 -10.711  13.311  1.00  0.00     0.134 A 
ATOM     63  C   UNL     1       1.262 -11.883  11.325  1.00  0.00     0.134 A 
ATOM     64  F   UNL     1      -0.253  -9.982  14.024  1.00  0.00    -0.206 F 
ATOM     65  C   UNL     1       1.860 -10.993  13.887  1.00  0.00     0.040 A 
ATOM     66  C   UNL     1       2.494 -12.197  11.902  1.00  0.00     0.040 A 
ATOM     67  F   UNL     1       1.019 -12.328  10.083  1.00  0.00    -0.206 F 
ATOM     68  C   UNL     1       2.799 -11.744  13.184  1.00  0.00     0.006 A 
ENDBRANCH  47  61
BRANCH  48  69
ATOM     69  C   UNL     1      -8.330  -8.726   7.613  1.00  0.00     0.057 A 
ATOM     70  C   UNL     1      -9.555  -8.851   8.280  1.00  0.00     0.134 A 
ATOM     71  C   UNL     1      -8.362  -8.275   6.288  1.00  0.00     0.134 A 
ATOM     72  F   UNL     1      -9.591  -9.296   9.545  1.00  0.00    -0.206 F 
ATOM     73  C   UNL     1     -10.765  -8.557   7.650  1.00  0.00     0.040 A 
ATOM     74  C   UNL     1      -9.562  -7.952   5.654  1.00  0.00     0.040 A 
ATOM     75  F   UNL     1      -7.223  -8.127   5.596  1.00  0.00    -0.206 F 
ATOM     76  C   UNL     1     -10.770  -8.101   6.333  1.00  0.00     0.006 A 
ENDBRANCH  48  69
BRANCH  60  77
ATOM     77  C   UNL     1      -5.596 -14.712   9.887  1.00  0.00     0.057 A 
ATOM     78  C   UNL     1      -5.692 -15.468   8.712  1.00  0.00     0.134 A 
ATOM     79  C   UNL     1      -5.962 -15.335  11.088  1.00  0.00     0.134 A 
ATOM     80  F   UNL     1      -5.370 -14.927   7.527  1.00  0.00    -0.206 F 
ATOM     81  C   UNL     1      -6.157 -16.784   8.727  1.00  0.00     0.040 A 
ATOM     82  C   UNL     1      -6.401 -16.659  11.119  1.00  0.00     0.040 A 
ATOM     83  F   UNL     1      -5.886 -14.671  12.251  1.00  0.00    -0.206 F 
ATOM     84  C   UNL     1      -6.505 -17.386   9.935  1.00  0.00     0.006 A 
ENDBRANCH  60  77
ENDBRANCH  34  35
ENDBRANCH  26  29
ENDBRANCH  24  25
ENDBRANCH  23  24
ENDBRANCH  22  23
ENDBRANCH   1  22
TORSDOF 15
