REMARK SMILES Cc1ccccc1C(=O)Nc1ccc(OCC(=O)NCCCCCCNC(=O)c2ccc(-c3c4nc(c(-c5c(F)cccc5F)c5ccc([nH]5)c(-c5c(F)cccc5F)c5nc(c(-c6c(F)cccc6F)c6ccc3[nH]6)C=C5)C=C4)cc2)c(-c2nc3ccccc3s2)c1
REMARK SMILES IDX 21 1 20 2 19 3 17 4 18 5 16 7 15 8 14 9 11 10 12 11 93 12
REMARK SMILES IDX 13 13 83 14 10 15 8 16 9 17 7 19 1 20 2 21 3 22 4 23 6 24
REMARK SMILES IDX 5 25 84 26 85 27 92 28 86 29 91 30 87 31 90 32 88 33 89 34
REMARK SMILES IDX 22 35 23 36 24 37 25 38 26 39 27 40 28 42 29 43 30 44 82 45
REMARK SMILES IDX 31 46 81 47 32 48 33 49 34 50 75 51 35 52 80 53 74 54 76 55
REMARK SMILES IDX 36 56 79 57 73 58 72 59 37 61 63 62 46 63 62 64 47 65 50 66
REMARK SMILES IDX 61 67 77 68 48 69 49 70 60 72 78 73 51 74 38 75 39 76 44 77
REMARK SMILES IDX 40 78 41 79 43 80 45 81 42 82 64 83 65 84 70 85 66 86 67 87
REMARK SMILES IDX 69 88 71 89 68 90 52 91 53 92 58 93 54 94 55 95 57 96 59 97
REMARK SMILES IDX 56 98
REMARK H PARENT 19 6 10 18 26 41 76 60 50 71
REMARK Flexibility Score: inf
ROOT
ATOM      1  C   UNL     1       4.000  -3.512   3.311  1.00  0.00     0.021 C 
ENDROOT
BRANCH   1   2
ATOM      2  C   UNL     1       4.619  -4.196   2.095  1.00  0.00     0.116 C 
BRANCH   2   3
ATOM      3  N   UNL     1       3.743  -4.123   0.952  1.00  0.00    -0.353 N 
ATOM      4  C   UNL     1       3.967  -3.691  -0.316  1.00  0.00     0.257 C 
ATOM      5  O   UNL     1       2.986  -3.691  -1.060  1.00  0.00    -0.271 OA
ATOM      6  H   UNL     1       2.826  -4.441   1.119  1.00  0.00     0.163 HD
BRANCH   4   7
ATOM      7  C   UNL     1       5.394  -3.295  -0.783  1.00  0.00     0.329 C 
BRANCH   7   8
ATOM      8  O   UNL     1       5.699  -2.136  -1.555  1.00  0.00    -0.483 OA
BRANCH   8   9
ATOM      9  C   UNL     1       4.921  -1.049  -1.273  1.00  0.00     0.130 A 
ATOM     10  C   UNL     1       3.388   1.153  -0.503  1.00  0.00     0.042 A 
ATOM     11  C   UNL     1       4.624   0.927   0.101  1.00  0.00     0.030 A 
ATOM     12  C   UNL     1       2.996   0.362  -1.586  1.00  0.00     0.041 A 
ATOM     13  C   UNL     1       5.369  -0.196  -0.254  1.00  0.00     0.049 A 
ATOM     14  C   UNL     1       3.779  -0.728  -2.032  1.00  0.00     0.055 A 
BRANCH  10  15
ATOM     15  N   UNL     1       2.577   2.154   0.047  1.00  0.00    -0.322 N 
ATOM     16  C   UNL     1       1.208   2.215   0.209  1.00  0.00     0.255 C 
ATOM     17  O   UNL     1       0.704   3.295   0.526  1.00  0.00    -0.269 OA
ATOM     18  H   UNL     1       3.064   2.945   0.372  1.00  0.00     0.170 HD
BRANCH  16  19
ATOM     19  C   UNL     1       0.318   1.019   0.109  1.00  0.00     0.043 A 
ATOM     20  C   UNL     1       1.786  -0.592   1.495  1.00  0.00     0.045 C 
ATOM     21  C   UNL     1       0.586  -0.252   0.658  1.00  0.00    -0.038 A 
ATOM     22  C   UNL     1      -0.345  -1.290   0.455  1.00  0.00     0.004 A 
ATOM     23  C   UNL     1      -1.570  -1.050  -0.163  1.00  0.00     0.000 A 
ATOM     24  C   UNL     1      -0.940   1.253  -0.479  1.00  0.00     0.014 A 
ATOM     25  C   UNL     1      -1.882   0.230  -0.602  1.00  0.00     0.001 A 
ENDBRANCH  16  19
ENDBRANCH  10  15
BRANCH  14  26
ATOM     26  C   UNL     1       3.285  -1.475  -3.215  1.00  0.00     0.128 A 
ATOM     27  N   UNL     1       2.207  -1.124  -3.896  1.00  0.00    -0.236 NA
ATOM     28  S   UNL     1       4.043  -2.889  -3.851  1.00  0.00    -0.114 S 
ATOM     29  C   UNL     1       1.765  -2.190  -4.658  1.00  0.00     0.082 A 
ATOM     30  C   UNL     1       2.580  -3.318  -4.627  1.00  0.00     0.055 A 
ATOM     31  C   UNL     1       0.567  -2.245  -5.393  1.00  0.00     0.030 A 
ATOM     32  C   UNL     1       2.191  -4.543  -5.187  1.00  0.00     0.021 A 
ATOM     33  C   UNL     1       0.174  -3.453  -5.978  1.00  0.00     0.002 A 
ATOM     34  C   UNL     1       0.961  -4.595  -5.844  1.00  0.00     0.002 A 
ENDBRANCH  14  26
ENDBRANCH   8   9
ENDBRANCH   7   8
ENDBRANCH   4   7
ENDBRANCH   2   3
ENDBRANCH   1   2
BRANCH   1  35
ATOM     35  C   UNL     1       2.614  -4.013   3.742  1.00  0.00     0.002 C 
BRANCH  35  36
ATOM     36  C   UNL     1       2.429  -5.528   3.922  1.00  0.00     0.002 C 
BRANCH  36  37
ATOM     37  C   UNL     1       3.511  -6.271   4.705  1.00  0.00     0.021 C 
BRANCH  37  38
ATOM     38  C   UNL     1       3.730  -5.777   6.124  1.00  0.00     0.116 C 
BRANCH  38  39
ATOM     39  N   UNL     1       3.007  -6.511   7.149  1.00  0.00    -0.352 N 
ATOM     40  C   UNL     1       2.915  -6.256   8.511  1.00  0.00     0.251 C 
ATOM     41  H   UNL     1       2.512  -7.301   6.833  1.00  0.00     0.163 HD
ATOM     42  O   UNL     1       2.303  -7.018   9.234  1.00  0.00    -0.269 OA
BRANCH  40  43
ATOM     43  C   UNL     1       3.434  -4.968   9.051  1.00  0.00     0.039 A 
ATOM     44  C   UNL     1       2.611  -4.267   9.940  1.00  0.00     0.014 A 
ATOM     45  C   UNL     1       4.563  -4.353   8.520  1.00  0.00     0.014 A 
ATOM     46  C   UNL     1       2.756  -2.887  10.061  1.00  0.00     0.010 A 
ATOM     47  C   UNL     1       4.644  -2.977   8.547  1.00  0.00     0.010 A 
ATOM     48  C   UNL     1       3.695  -2.242   9.259  1.00  0.00    -0.014 A 
BRANCH  48  49
ATOM     49  C   UNL     1       3.689  -0.806   9.024  1.00  0.00     0.031 A 
ATOM     50  C   UNL     1       4.661   0.063   9.708  1.00  0.00     0.074 A 
ATOM     51  C   UNL     1       2.822  -0.277   8.132  1.00  0.00     0.049 A 
ATOM     52  N   UNL     1       4.431   1.294  10.011  1.00  0.00    -0.248 NA
ATOM     53  C   UNL     1       5.977  -0.405  10.132  1.00  0.00     0.031 C 
ATOM     54  C   UNL     1       2.819   1.084   7.603  1.00  0.00     0.029 A 
ATOM     55  N   UNL     1       1.622  -0.833   7.670  1.00  0.00    -0.354 N 
ATOM     56  C   UNL     1       5.623   1.849  10.405  1.00  0.00     0.074 A 
ATOM     57  C   UNL     1       6.541   0.739  10.530  1.00  0.00     0.031 C 
ATOM     58  C   UNL     1       1.590   1.367   7.141  1.00  0.00     0.029 A 
ATOM     59  C   UNL     1       0.732   0.245   7.479  1.00  0.00     0.049 A 
ATOM     60  H   UNL     1       1.437  -1.787   7.512  1.00  0.00     0.167 HD
ATOM     61  C   UNL     1       5.761   3.204  10.443  1.00  0.00     0.037 A 
ATOM     62  C   UNL     1      -0.433   0.337   8.181  1.00  0.00     0.037 A 
ATOM     63  C   UNL     1       4.536   3.880  10.036  1.00  0.00     0.049 A 
ATOM     64  C   UNL     1      -0.531   1.575   9.039  1.00  0.00     0.074 A 
ATOM     65  C   UNL     1       4.122   4.394   8.817  1.00  0.00     0.029 A 
ATOM     66  N   UNL     1       3.401   3.799  10.835  1.00  0.00    -0.354 N 
ATOM     67  N   UNL     1       0.497   2.291   9.400  1.00  0.00    -0.248 NA
ATOM     68  C   UNL     1      -1.787   2.095   9.574  1.00  0.00     0.031 C 
ATOM     69  C   UNL     1       2.721   4.581   8.869  1.00  0.00     0.029 A 
ATOM     70  C   UNL     1       2.285   4.200  10.125  1.00  0.00     0.049 A 
ATOM     71  H   UNL     1       3.393   3.499  11.772  1.00  0.00     0.167 HD
ATOM     72  C   UNL     1       0.080   3.325  10.200  1.00  0.00     0.074 A 
ATOM     73  C   UNL     1      -1.360   3.169  10.264  1.00  0.00     0.031 C 
ATOM     74  C   UNL     1       0.966   4.216  10.739  1.00  0.00     0.037 A 
BRANCH  61  75
ATOM     75  C   UNL     1       7.112   3.860  10.537  1.00  0.00     0.057 A 
ATOM     76  C   UNL     1       7.438   4.985   9.759  1.00  0.00     0.134 A 
ATOM     77  C   UNL     1       8.153   3.379  11.348  1.00  0.00     0.134 A 
ATOM     78  F   UNL     1       6.529   5.606   8.998  1.00  0.00    -0.206 F 
ATOM     79  C   UNL     1       8.730   5.521   9.707  1.00  0.00     0.040 A 
ATOM     80  C   UNL     1       9.463   3.874  11.271  1.00  0.00     0.040 A 
ATOM     81  F   UNL     1       7.935   2.414  12.254  1.00  0.00    -0.206 F 
ATOM     82  C   UNL     1       9.758   4.943  10.435  1.00  0.00     0.006 A 
ENDBRANCH  61  75
BRANCH  62  83
ATOM     83  C   UNL     1      -1.023  -0.988   8.504  1.00  0.00     0.057 A 
ATOM     84  C   UNL     1      -1.518  -1.770   7.447  1.00  0.00     0.134 A 
ATOM     85  C   UNL     1      -0.732  -1.645   9.703  1.00  0.00     0.134 A 
ATOM     86  F   UNL     1      -1.818  -1.198   6.269  1.00  0.00    -0.206 F 
ATOM     87  C   UNL     1      -1.599  -3.162   7.533  1.00  0.00     0.040 A 
ATOM     88  C   UNL     1      -0.820  -3.039   9.803  1.00  0.00     0.040 A 
ATOM     89  F   UNL     1      -0.238  -0.970  10.750  1.00  0.00    -0.206 F 
ATOM     90  C   UNL     1      -1.211  -3.804   8.704  1.00  0.00     0.006 A 
ENDBRANCH  62  83
BRANCH  74  91
ATOM     91  C   UNL     1       0.678   5.252  11.803  1.00  0.00     0.057 A 
ATOM     92  C   UNL     1      -0.350   5.156  12.750  1.00  0.00     0.134 A 
ATOM     93  C   UNL     1       1.560   6.345  11.994  1.00  0.00     0.134 A 
ATOM     94  F   UNL     1      -1.197   4.119  12.767  1.00  0.00    -0.206 F 
ATOM     95  C   UNL     1      -0.522   6.099  13.774  1.00  0.00     0.040 A 
ATOM     96  C   UNL     1       1.431   7.258  13.044  1.00  0.00     0.040 A 
ATOM     97  F   UNL     1       2.606   6.561  11.184  1.00  0.00    -0.206 F 
ATOM     98  C   UNL     1       0.376   7.147  13.933  1.00  0.00     0.006 A 
ENDBRANCH  74  91
ENDBRANCH  48  49
ENDBRANCH  40  43
ENDBRANCH  38  39
ENDBRANCH  37  38
ENDBRANCH  36  37
ENDBRANCH  35  36
ENDBRANCH   1  35
TORSDOF 18
