REMARK SMILES CC1=C(C)C[C@@H](C(=O)NCc2cccnc2)[C@H](C(=O)NCCCCCCNC(=O)c2ccc(-c3c4nc(c(-c5c(F)cccc5F)c5ccc([nH]5)c(-c5c(F)cccc5F)c5nc(c(-c6c(F)cccc6F)c6ccc3[nH]6)C=C5)C=C4)cc2)C1
REMARK SMILES IDX 23 1 22 2 21 3 20 4 18 5 19 6 17 8 1 9 2 10 3 11 84 12 4 13
REMARK SMILES IDX 5 14 6 15 7 16 8 17 9 18 10 20 11 21 12 22 16 23 13 24 15 25
REMARK SMILES IDX 14 26 24 27 25 28 26 29 27 30 28 31 29 33 30 34 31 35 83 36
REMARK SMILES IDX 32 37 82 38 33 39 34 40 35 41 76 42 36 43 81 44 75 45 77 46
REMARK SMILES IDX 37 47 80 48 74 49 73 50 38 52 64 53 47 54 63 55 48 56 51 57
REMARK SMILES IDX 62 58 78 59 49 60 50 61 61 63 79 64 52 65 39 66 40 67 45 68
REMARK SMILES IDX 41 69 42 70 44 71 46 72 43 73 65 74 66 75 71 76 67 77 68 78
REMARK SMILES IDX 70 79 72 80 69 81 53 82 54 83 59 84 55 85 56 86 58 87 60 88
REMARK SMILES IDX 57 89
REMARK H PARENT 20 7 9 19 27 32 77 51 51 62
REMARK Flexibility Score: inf
ROOT
ATOM      1  C   UNL     1       4.931  -0.920  -5.170  1.00  0.00     0.002 C 
ENDROOT
BRANCH   1   2
ATOM      2  C   UNL     1       3.648  -1.519  -4.596  1.00  0.00     0.021 C 
BRANCH   2   3
ATOM      3  C   UNL     1       2.791  -0.526  -3.830  1.00  0.00     0.116 C 
BRANCH   3   4
ATOM      4  N   UNL     1       2.022   0.328  -4.700  1.00  0.00    -0.356 N 
ATOM      5  C   UNL     1       0.719   0.700  -4.598  1.00  0.00     0.224 C 
ATOM      6  O   UNL     1       0.287   1.503  -5.428  1.00  0.00    -0.275 OA
ATOM      7  H   UNL     1       2.507   0.692  -5.475  1.00  0.00     0.163 HD
BRANCH   5   8
ATOM      8  C   UNL     1      -0.196   0.152  -3.499  1.00  0.00     0.095 C 
ATOM      9  C   UNL     1       1.127   0.020   0.209  1.00  0.00     0.039 C 
ATOM     10  C   UNL     1       0.626  -0.520  -1.109  1.00  0.00    -0.074 C 
ATOM     11  C   UNL     1       0.492  -1.835  -1.381  1.00  0.00    -0.074 C 
ATOM     12  C   UNL     1       0.286   0.567  -2.103  1.00  0.00     0.045 C 
ATOM     13  C   UNL     1       0.922  -2.945  -0.452  1.00  0.00     0.039 C 
ATOM     14  C   UNL     1      -0.070  -2.350  -2.689  1.00  0.00     0.045 C 
ATOM     15  C   UNL     1      -0.543  -1.327  -3.728  1.00  0.00     0.095 C 
BRANCH  15  16
ATOM     16  C   UNL     1      -2.029  -1.501  -4.056  1.00  0.00     0.224 C 
ATOM     17  O   UNL     1      -2.369  -1.907  -5.171  1.00  0.00    -0.275 OA
ATOM     18  N   UNL     1      -3.019  -1.215  -3.171  1.00  0.00    -0.352 N 
ATOM     19  H   UNL     1      -3.922  -1.177  -3.563  1.00  0.00     0.163 HD
BRANCH  18  20
ATOM     20  C   UNL     1      -2.969  -0.958  -1.751  1.00  0.00     0.153 C 
BRANCH  20  21
ATOM     21  C   UNL     1      -3.749   0.253  -1.332  1.00  0.00    -0.010 A 
ATOM     22  C   UNL     1      -4.751   0.169  -0.361  1.00  0.00     0.009 A 
ATOM     23  C   UNL     1      -3.444   1.523  -1.812  1.00  0.00     0.116 A 
ATOM     24  C   UNL     1      -5.378   1.328   0.091  1.00  0.00     0.020 A 
ATOM     25  N   UNL     1      -4.026   2.665  -1.383  1.00  0.00    -0.264 NA
ATOM     26  C   UNL     1      -4.978   2.542  -0.438  1.00  0.00     0.111 A 
ENDBRANCH  20  21
ENDBRANCH  18  20
ENDBRANCH  15  16
ENDBRANCH   5   8
ENDBRANCH   3   4
ENDBRANCH   2   3
ENDBRANCH   1   2
BRANCH   1  27
ATOM     27  C   UNL     1       5.835  -0.221  -4.149  1.00  0.00     0.002 C 
BRANCH  27  28
ATOM     28  C   UNL     1       6.173  -1.037  -2.897  1.00  0.00     0.021 C 
BRANCH  28  29
ATOM     29  C   UNL     1       6.779  -2.410  -3.167  1.00  0.00     0.116 C 
BRANCH  29  30
ATOM     30  N   UNL     1       7.976  -2.331  -3.985  1.00  0.00    -0.352 N 
ATOM     31  C   UNL     1       9.201  -2.913  -3.800  1.00  0.00     0.251 C 
ATOM     32  H   UNL     1       7.894  -1.776  -4.794  1.00  0.00     0.163 HD
ATOM     33  O   UNL     1      10.148  -2.587  -4.507  1.00  0.00    -0.269 OA
BRANCH  31  34
ATOM     34  C   UNL     1       9.389  -3.924  -2.739  1.00  0.00     0.039 A 
ATOM     35  C   UNL     1      10.550  -3.867  -1.964  1.00  0.00     0.014 A 
ATOM     36  C   UNL     1       8.453  -4.942  -2.531  1.00  0.00     0.014 A 
ATOM     37  C   UNL     1      10.756  -4.811  -0.958  1.00  0.00     0.010 A 
ATOM     38  C   UNL     1       8.627  -5.841  -1.481  1.00  0.00     0.010 A 
ATOM     39  C   UNL     1       9.787  -5.793  -0.696  1.00  0.00    -0.014 A 
BRANCH  39  40
ATOM     40  C   UNL     1       9.992  -6.784   0.388  1.00  0.00     0.031 A 
ATOM     41  C   UNL     1      10.161  -8.242   0.061  1.00  0.00     0.074 A 
ATOM     42  C   UNL     1       9.997  -6.372   1.670  1.00  0.00     0.049 A 
ATOM     43  N   UNL     1      10.343  -9.255   0.870  1.00  0.00    -0.248 NA
ATOM     44  C   UNL     1      10.090  -8.615  -1.361  1.00  0.00     0.031 C 
ATOM     45  C   UNL     1       9.787  -4.993   2.116  1.00  0.00     0.029 A 
ATOM     46  N   UNL     1      10.184  -7.074   2.833  1.00  0.00    -0.354 N 
ATOM     47  C   UNL     1      10.404 -10.381   0.059  1.00  0.00     0.074 A 
ATOM     48  C   UNL     1      10.177  -9.936  -1.299  1.00  0.00     0.031 C 
ATOM     49  C   UNL     1       9.884  -4.946   3.454  1.00  0.00     0.029 A 
ATOM     50  C   UNL     1      10.137  -6.291   3.960  1.00  0.00     0.049 A 
ATOM     51  H   UNL     1      10.338  -8.046   2.858  1.00  0.00     0.167 HD
ATOM     52  C   UNL     1      10.654 -11.665   0.409  1.00  0.00     0.037 A 
ATOM     53  C   UNL     1      10.287  -6.621   5.256  1.00  0.00     0.037 A 
ATOM     54  C   UNL     1      10.895 -12.102   1.759  1.00  0.00     0.049 A 
ATOM     55  C   UNL     1      10.588  -8.049   5.617  1.00  0.00     0.074 A 
ATOM     56  C   UNL     1      11.189 -13.375   2.217  1.00  0.00     0.029 A 
ATOM     57  N   UNL     1      10.875 -11.273   2.871  1.00  0.00    -0.354 N 
ATOM     58  N   UNL     1      10.698  -9.094   4.833  1.00  0.00    -0.248 NA
ATOM     59  C   UNL     1      10.804  -8.338   7.041  1.00  0.00     0.031 C 
ATOM     60  C   UNL     1      11.315 -13.321   3.610  1.00  0.00     0.029 A 
ATOM     61  C   UNL     1      11.145 -12.007   4.014  1.00  0.00     0.049 A 
ATOM     62  H   UNL     1      10.695 -10.305   2.851  1.00  0.00     0.167 HD
ATOM     63  C   UNL     1      11.024 -10.158   5.664  1.00  0.00     0.074 A 
ATOM     64  C   UNL     1      11.112  -9.626   7.008  1.00  0.00     0.031 C 
ATOM     65  C   UNL     1      11.232 -11.459   5.344  1.00  0.00     0.037 A 
BRANCH  52  66
ATOM     66  C   UNL     1      10.691 -12.685  -0.693  1.00  0.00     0.057 A 
ATOM     67  C   UNL     1      11.729 -12.713  -1.634  1.00  0.00     0.134 A 
ATOM     68  C   UNL     1       9.694 -13.662  -0.803  1.00  0.00     0.134 A 
ATOM     69  F   UNL     1      12.708 -11.796  -1.595  1.00  0.00    -0.206 F 
ATOM     70  C   UNL     1      11.760 -13.659  -2.660  1.00  0.00     0.040 A 
ATOM     71  C   UNL     1       9.730 -14.631  -1.808  1.00  0.00     0.040 A 
ATOM     72  F   UNL     1       8.674 -13.697   0.067  1.00  0.00    -0.206 F 
ATOM     73  C   UNL     1      10.761 -14.626  -2.745  1.00  0.00     0.006 A 
ENDBRANCH  52  66
BRANCH  53  74
ATOM     74  C   UNL     1      10.194  -5.574   6.304  1.00  0.00     0.057 A 
ATOM     75  C   UNL     1      11.328  -5.152   7.008  1.00  0.00     0.134 A 
ATOM     76  C   UNL     1       8.972  -4.975   6.629  1.00  0.00     0.134 A 
ATOM     77  F   UNL     1      12.524  -5.701   6.751  1.00  0.00    -0.206 F 
ATOM     78  C   UNL     1      11.247  -4.189   8.015  1.00  0.00     0.040 A 
ATOM     79  C   UNL     1       8.880  -3.993   7.616  1.00  0.00     0.040 A 
ATOM     80  F   UNL     1       7.851  -5.327   5.982  1.00  0.00    -0.206 F 
ATOM     81  C   UNL     1      10.019  -3.603   8.318  1.00  0.00     0.006 A 
ENDBRANCH  53  74
BRANCH  65  82
ATOM     82  C   UNL     1      11.611 -12.382   6.465  1.00  0.00     0.057 A 
ATOM     83  C   UNL     1      10.692 -12.772   7.447  1.00  0.00     0.134 A 
ATOM     84  C   UNL     1      12.912 -12.895   6.554  1.00  0.00     0.134 A 
ATOM     85  F   UNL     1       9.434 -12.306   7.425  1.00  0.00    -0.206 F 
ATOM     86  C   UNL     1      11.063 -13.611   8.500  1.00  0.00     0.040 A 
ATOM     87  C   UNL     1      13.287 -13.756   7.586  1.00  0.00     0.040 A 
ATOM     88  F   UNL     1      13.838 -12.569   5.640  1.00  0.00    -0.206 F 
ATOM     89  C   UNL     1      12.363 -14.108   8.568  1.00  0.00     0.006 A 
ENDBRANCH  65  82
ENDBRANCH  39  40
ENDBRANCH  31  34
ENDBRANCH  29  30
ENDBRANCH  28  29
ENDBRANCH  27  28
ENDBRANCH   1  27
TORSDOF 16
