REMARK SMILES O=C(NCCCCCCNC(=O)c1ccccc1/C=N\NC(=S)NCc1ccccc1)c1ccc(-c2c3nc(c(-c4c(F)cccc4F)c4ccc([nH]4)c(-c4c(F)cccc4F)c4nc(c(-c5c(F)cccc5F)c5ccc2[nH]5)C=C4)C=C3)cc1
REMARK SMILES IDX 8 1 7 2 6 3 5 4 4 5 3 6 1 7 2 8 32 10 33 11 85 12 34 13
REMARK SMILES IDX 84 14 35 15 36 16 37 17 78 18 38 19 83 20 77 21 79 22 39 23
REMARK SMILES IDX 82 24 76 25 75 26 40 28 66 29 49 30 65 31 50 32 53 33 64 34
REMARK SMILES IDX 80 35 51 36 52 37 63 39 81 40 54 41 41 42 42 43 47 44 43 45
REMARK SMILES IDX 44 46 46 47 48 48 45 49 67 50 68 51 73 52 69 53 70 54 72 55
REMARK SMILES IDX 74 56 71 57 55 58 56 59 61 60 57 61 58 62 60 63 62 64 59 65
REMARK SMILES IDX 9 66 10 67 11 68 12 70 13 71 14 72 18 73 15 74 17 75 16 76
REMARK SMILES IDX 19 77 20 78 21 79 22 81 23 82 24 83 25 85 26 86 27 87 31 88
REMARK SMILES IDX 28 89 30 90 29 91
REMARK H PARENT 3 9 79 27 53 38 10 69 21 80 24 84
REMARK Flexibility Score: inf
ROOT
ATOM      1  C   UNL     1       5.932   4.179   2.397  1.00  0.00     0.021 C 
ENDROOT
BRANCH   1   2
ATOM      2  C   UNL     1       4.427   3.905   2.379  1.00  0.00     0.002 C 
BRANCH   2   3
ATOM      3  C   UNL     1       3.807   3.696   0.991  1.00  0.00     0.002 C 
BRANCH   3   4
ATOM      4  C   UNL     1       4.489   2.639   0.114  1.00  0.00     0.021 C 
BRANCH   4   5
ATOM      5  C   UNL     1       4.377   1.217   0.646  1.00  0.00     0.116 C 
BRANCH   5   6
ATOM      6  N   UNL     1       2.991   0.779   0.699  1.00  0.00    -0.352 N 
ATOM      7  O   UNL     1       1.135  -0.259  -0.044  1.00  0.00    -0.269 OA
ATOM      8  C   UNL     1       2.361  -0.208  -0.013  1.00  0.00     0.251 C 
ATOM      9  H   UNL     1       2.422   1.263   1.340  1.00  0.00     0.163 HD
BRANCH   8  10
ATOM     10  C   UNL     1       3.159  -1.226  -0.729  1.00  0.00     0.039 A 
ATOM     11  C   UNL     1       4.279  -1.798  -0.122  1.00  0.00     0.014 A 
ATOM     12  C   UNL     1       2.735  -1.671  -1.985  1.00  0.00     0.014 A 
ATOM     13  C   UNL     1       5.027  -2.750  -0.802  1.00  0.00     0.010 A 
ATOM     14  C   UNL     1       3.441  -2.686  -2.636  1.00  0.00     0.010 A 
ATOM     15  C   UNL     1       4.591  -3.233  -2.046  1.00  0.00    -0.014 A 
BRANCH  15  16
ATOM     16  C   UNL     1       5.270  -4.412  -2.635  1.00  0.00     0.031 A 
ATOM     17  C   UNL     1       6.036  -4.315  -3.920  1.00  0.00     0.074 A 
ATOM     18  C   UNL     1       5.177  -5.585  -1.978  1.00  0.00     0.049 A 
ATOM     19  N   UNL     1       6.677  -5.257  -4.563  1.00  0.00    -0.248 NA
ATOM     20  C   UNL     1       6.089  -2.998  -4.574  1.00  0.00     0.031 C 
ATOM     21  C   UNL     1       4.432  -5.793  -0.731  1.00  0.00     0.029 A 
ATOM     22  N   UNL     1       5.707  -6.817  -2.253  1.00  0.00    -0.354 N 
ATOM     23  C   UNL     1       7.195  -4.656  -5.703  1.00  0.00     0.074 A 
ATOM     24  C   UNL     1       6.782  -3.269  -5.673  1.00  0.00     0.031 C 
ATOM     25  C   UNL     1       4.578  -7.065  -0.336  1.00  0.00     0.029 A 
ATOM     26  C   UNL     1       5.368  -7.778  -1.332  1.00  0.00     0.049 A 
ATOM     27  H   UNL     1       6.277  -6.997  -3.036  1.00  0.00     0.167 HD
ATOM     28  C   UNL     1       7.947  -5.220  -6.678  1.00  0.00     0.037 A 
ATOM     29  C   UNL     1       5.633  -9.097  -1.307  1.00  0.00     0.037 A 
ATOM     30  C   UNL     1       8.363  -6.599  -6.685  1.00  0.00     0.049 A 
ATOM     31  C   UNL     1       6.443  -9.691  -2.421  1.00  0.00     0.074 A 
ATOM     32  C   UNL     1       9.185  -7.245  -7.593  1.00  0.00     0.029 A 
ATOM     33  N   UNL     1       7.979  -7.548  -5.749  1.00  0.00    -0.354 N 
ATOM     34  N   UNL     1       6.986  -9.094  -3.454  1.00  0.00    -0.248 NA
ATOM     35  C   UNL     1       6.670 -11.140  -2.372  1.00  0.00     0.031 C 
ATOM     36  C   UNL     1       9.253  -8.595  -7.239  1.00  0.00     0.029 A 
ATOM     37  C   UNL     1       8.515  -8.782  -6.082  1.00  0.00     0.049 A 
ATOM     38  H   UNL     1       7.411  -7.371  -4.965  1.00  0.00     0.167 HD
ATOM     39  C   UNL     1       7.625 -10.093  -4.174  1.00  0.00     0.074 A 
ATOM     40  C   UNL     1       7.431 -11.327  -3.441  1.00  0.00     0.031 C 
ATOM     41  C   UNL     1       8.304 -10.000  -5.342  1.00  0.00     0.037 A 
BRANCH  28  42
ATOM     42  C   UNL     1       8.365  -4.362  -7.836  1.00  0.00     0.057 A 
ATOM     43  C   UNL     1       9.375  -3.399  -7.718  1.00  0.00     0.134 A 
ATOM     44  C   UNL     1       7.820  -4.575  -9.109  1.00  0.00     0.134 A 
ATOM     45  F   UNL     1       9.933  -3.142  -6.526  1.00  0.00    -0.206 F 
ATOM     46  C   UNL     1       9.826  -2.678  -8.825  1.00  0.00     0.040 A 
ATOM     47  C   UNL     1       8.277  -3.875 -10.226  1.00  0.00     0.040 A 
ATOM     48  F   UNL     1       6.854  -5.488  -9.291  1.00  0.00    -0.206 F 
ATOM     49  C   UNL     1       9.284  -2.923 -10.086  1.00  0.00     0.006 A 
ENDBRANCH  28  42
BRANCH  29  50
ATOM     50  C   UNL     1       5.091  -9.946  -0.216  1.00  0.00     0.057 A 
ATOM     51  C   UNL     1       5.935 -10.563   0.713  1.00  0.00     0.134 A 
ATOM     52  C   UNL     1       3.715 -10.177  -0.092  1.00  0.00     0.134 A 
ATOM     53  F   UNL     1       7.263 -10.394   0.637  1.00  0.00    -0.206 F 
ATOM     54  C   UNL     1       5.433 -11.400   1.712  1.00  0.00     0.040 A 
ATOM     55  C   UNL     1       3.197 -10.985   0.920  1.00  0.00     0.040 A 
ATOM     56  F   UNL     1       2.852  -9.608  -0.946  1.00  0.00    -0.206 F 
ATOM     57  C   UNL     1       4.059 -11.608   1.819  1.00  0.00     0.006 A 
ENDBRANCH  29  50
BRANCH  41  58
ATOM     58  C   UNL     1       8.890 -11.268  -5.887  1.00  0.00     0.057 A 
ATOM     59  C   UNL     1       8.084 -12.268  -6.444  1.00  0.00     0.134 A 
ATOM     60  C   UNL     1      10.274 -11.481  -5.874  1.00  0.00     0.134 A 
ATOM     61  F   UNL     1       6.750 -12.131  -6.469  1.00  0.00    -0.206 F 
ATOM     62  C   UNL     1       8.633 -13.448  -6.947  1.00  0.00     0.040 A 
ATOM     63  C   UNL     1      10.836 -12.644  -6.400  1.00  0.00     0.040 A 
ATOM     64  F   UNL     1      11.101 -10.558  -5.360  1.00  0.00    -0.206 F 
ATOM     65  C   UNL     1      10.014 -13.635  -6.932  1.00  0.00     0.006 A 
ENDBRANCH  41  58
ENDBRANCH  15  16
ENDBRANCH   8  10
ENDBRANCH   5   6
ENDBRANCH   4   5
ENDBRANCH   3   4
ENDBRANCH   2   3
ENDBRANCH   1   2
BRANCH   1  66
ATOM     66  C   UNL     1       6.408   5.226   1.389  1.00  0.00     0.116 C 
BRANCH  66  67
ATOM     67  N   UNL     1       6.427   6.601   1.862  1.00  0.00    -0.352 N 
ATOM     68  C   UNL     1       7.437   7.540   1.938  1.00  0.00     0.251 C 
ATOM     69  H   UNL     1       5.556   6.922   2.191  1.00  0.00     0.163 HD
ATOM     70  O   UNL     1       7.178   8.684   2.300  1.00  0.00    -0.269 OA
BRANCH  68  71
ATOM     71  C   UNL     1       8.857   7.145   1.815  1.00  0.00     0.048 A 
ATOM     72  C   UNL     1       9.829   7.449   3.320  1.00  0.00     0.014 A 
ATOM     73  C   UNL     1       9.377   5.848   0.675  1.00  0.00     0.007 A 
ATOM     74  C   UNL     1      11.317   6.471   3.664  1.00  0.00     0.001 A 
ATOM     75  C   UNL     1      10.884   4.857   1.006  1.00  0.00     0.010 A 
ATOM     76  C   UNL     1      11.855   5.199   2.491  1.00  0.00     0.001 A 
BRANCH  73  77
ATOM     77  C   UNL     1       9.077   6.052  -0.710  1.00  0.00     0.142 C 
ATOM     78  N   UNL     1      10.000   6.548  -1.451  1.00  0.00    -0.181 NA
BRANCH  78  79
ATOM     79  N   UNL     1      11.141   6.999  -0.826  1.00  0.00    -0.254 N 
ATOM     80  H   UNL     1      11.900   7.129  -1.440  1.00  0.00     0.193 HD
BRANCH  79  81
ATOM     81  C   UNL     1      11.434   7.301   0.472  1.00  0.00     0.187 C 
ATOM     82  S   UNL     1      12.670   8.434   0.682  1.00  0.00    -0.039 S 
BRANCH  81  83
ATOM     83  N   UNL     1      10.866   6.773   1.661  1.00  0.00    -0.357 N 
ATOM     84  H   UNL     1      11.178   7.390   2.362  1.00  0.00     0.163 HD
BRANCH  83  85
ATOM     85  C   UNL     1       9.723   5.386   2.705  1.00  0.00     0.151 C 
BRANCH  85  86
ATOM     86  C   UNL     1       9.944   4.309   3.957  1.00  0.00    -0.029 A 
ATOM     87  C   UNL     1       9.526   4.670   5.258  1.00  0.00     0.005 A 
ATOM     88  C   UNL     1      10.054   2.938   3.640  1.00  0.00     0.005 A 
ATOM     89  C   UNL     1       9.201   3.688   6.194  1.00  0.00     0.000 A 
ATOM     90  C   UNL     1       9.714   1.966   4.581  1.00  0.00     0.000 A 
ATOM     91  C   UNL     1       9.273   2.341   5.848  1.00  0.00     0.000 A 
ENDBRANCH  85  86
ENDBRANCH  83  85
ENDBRANCH  81  83
ENDBRANCH  79  81
ENDBRANCH  78  79
ENDBRANCH  73  77
ENDBRANCH  68  71
ENDBRANCH  66  67
ENDBRANCH   1  66
TORSDOF 19
