REMARK SMILES O=C(CCN1C(=O)/C(=C/c2c3ccccc3cc3ccccc23)SC1=S)NCCCCCCNC(=O)c1ccc(-c2c3nc(c(-c4c(F)cccc4F)c4ccc([nH]4)c(-c4c(F)cccc4F)c4nc(c(-c5c(F)cccc5F)c5ccc2[nH]5)C=C4)C=C3)cc1
REMARK SMILES IDX 30 1 29 2 28 3 27 4 1 5 2 6 3 8 4 9 5 10 6 11 25 12 7 13
REMARK SMILES IDX 8 14 24 15 26 16 9 17 10 18 11 19 23 20 12 21 16 22 18 23
REMARK SMILES IDX 22 24 13 25 15 26 17 27 19 28 21 29 14 30 20 31 31 32 32 33
REMARK SMILES IDX 33 34 34 35 35 36 36 38 37 39 38 40 90 41 39 42 89 43 40 44
REMARK SMILES IDX 41 45 42 46 83 47 43 48 88 49 82 50 84 51 44 52 87 53 81 54
REMARK SMILES IDX 80 55 45 57 71 58 54 59 70 60 55 61 58 62 69 63 85 64 56 65
REMARK SMILES IDX 57 66 68 68 86 69 59 70 46 71 47 72 52 73 48 74 49 75 51 76
REMARK SMILES IDX 53 77 50 78 72 79 73 80 78 81 74 82 75 83 77 84 79 85 76 86
REMARK SMILES IDX 60 87 61 88 66 89 62 90 63 91 65 92 67 93 64 94
REMARK H PARENT 27 7 34 37 84 56 58 67
REMARK Flexibility Score: inf
ROOT
ATOM      1  C   UNL     1       3.310   3.304  -2.253  1.00  0.00     0.002 C 
ENDROOT
BRANCH   1   2
ATOM      2  C   UNL     1       1.851   2.894  -2.032  1.00  0.00     0.021 C 
BRANCH   2   3
ATOM      3  C   UNL     1       1.608   1.394  -1.861  1.00  0.00     0.116 C 
BRANCH   3   4
ATOM      4  N   UNL     1       2.303   0.830  -0.722  1.00  0.00    -0.356 N 
ATOM      5  O   UNL     1       1.054  -1.091  -0.630  1.00  0.00    -0.275 OA
ATOM      6  C   UNL     1       1.967  -0.395  -0.199  1.00  0.00     0.221 C 
ATOM      7  H   UNL     1       3.037   1.340  -0.310  1.00  0.00     0.163 HD
BRANCH   6   8
ATOM      8  C   UNL     1       2.845  -0.851   0.945  1.00  0.00     0.122 C 
BRANCH   8   9
ATOM      9  C   UNL     1       3.891  -1.864   0.478  1.00  0.00     0.137 C 
BRANCH   9  10
ATOM     10  N   UNL     1       5.004  -1.426  -0.389  1.00  0.00    -0.292 N 
ATOM     11  C   UNL     1       5.401  -0.107  -0.485  1.00  0.00     0.266 C 
ATOM     12  C   UNL     1       5.793  -2.330  -1.089  1.00  0.00     0.148 C 
ATOM     13  O   UNL     1       4.949   0.847   0.135  1.00  0.00    -0.268 OA
ATOM     14  C   UNL     1       6.459   0.047  -1.521  1.00  0.00     0.081 C 
ATOM     15  S   UNL     1       7.053  -1.481  -1.986  1.00  0.00    -0.054 SA
ATOM     16  S   UNL     1       5.660  -3.994  -1.136  1.00  0.00    -0.052 S 
ATOM     17  C   UNL     1       6.728   1.265  -2.007  1.00  0.00     0.030 C 
BRANCH  17  18
ATOM     18  C   UNL     1       7.583   1.716  -3.137  1.00  0.00    -0.009 A 
ATOM     19  C   UNL     1       7.323   1.291  -4.487  1.00  0.00    -0.010 A 
ATOM     20  C   UNL     1       8.521   2.767  -2.868  1.00  0.00    -0.010 A 
ATOM     21  C   UNL     1       6.322   0.363  -4.882  1.00  0.00     0.009 A 
ATOM     22  C   UNL     1       8.071   1.879  -5.533  1.00  0.00    -0.017 A 
ATOM     23  C   UNL     1       9.224   3.342  -3.950  1.00  0.00    -0.017 A 
ATOM     24  C   UNL     1       8.773   3.313  -1.581  1.00  0.00     0.009 A 
ATOM     25  C   UNL     1       6.104   0.008  -6.217  1.00  0.00     0.001 A 
ATOM     26  C   UNL     1       7.849   1.512  -6.872  1.00  0.00     0.009 A 
ATOM     27  C   UNL     1       9.010   2.875  -5.249  1.00  0.00     0.017 A 
ATOM     28  C   UNL     1      10.113   4.410  -3.738  1.00  0.00     0.009 A 
ATOM     29  C   UNL     1       9.648   4.385  -1.384  1.00  0.00     0.001 A 
ATOM     30  C   UNL     1       6.875   0.580  -7.214  1.00  0.00     0.001 A 
ATOM     31  C   UNL     1      10.318   4.935  -2.465  1.00  0.00     0.001 A 
ENDBRANCH  17  18
ENDBRANCH   9  10
ENDBRANCH   8   9
ENDBRANCH   6   8
ENDBRANCH   3   4
ENDBRANCH   2   3
ENDBRANCH   1   2
BRANCH   1  32
ATOM     32  C   UNL     1       3.998   2.663  -3.457  1.00  0.00     0.002 C 
BRANCH  32  33
ATOM     33  C   UNL     1       3.496   3.093  -4.830  1.00  0.00     0.021 C 
BRANCH  33  34
ATOM     34  C   UNL     1       3.831   4.537  -5.189  1.00  0.00     0.116 C 
BRANCH  34  35
ATOM     35  N   UNL     1       5.260   4.793  -5.342  1.00  0.00    -0.352 N 
ATOM     36  C   UNL     1       5.901   5.593  -6.264  1.00  0.00     0.251 C 
ATOM     37  H   UNL     1       5.846   4.332  -4.699  1.00  0.00     0.163 HD
ATOM     38  O   UNL     1       7.120   5.654  -6.312  1.00  0.00    -0.269 OA
BRANCH  36  39
ATOM     39  C   UNL     1       5.090   6.343  -7.249  1.00  0.00     0.039 A 
ATOM     40  C   UNL     1       5.429   6.248  -8.601  1.00  0.00     0.014 A 
ATOM     41  C   UNL     1       3.969   7.074  -6.851  1.00  0.00     0.014 A 
ATOM     42  C   UNL     1       4.582   6.800  -9.564  1.00  0.00     0.010 A 
ATOM     43  C   UNL     1       3.086   7.553  -7.813  1.00  0.00     0.010 A 
ATOM     44  C   UNL     1       3.376   7.406  -9.179  1.00  0.00    -0.014 A 
BRANCH  44  45
ATOM     45  C   UNL     1       2.383   7.859 -10.183  1.00  0.00     0.031 A 
ATOM     46  C   UNL     1       2.007   9.310 -10.272  1.00  0.00     0.074 A 
ATOM     47  C   UNL     1       1.744   6.949 -10.944  1.00  0.00     0.049 A 
ATOM     48  N   UNL     1       1.079   9.881 -10.997  1.00  0.00    -0.248 NA
ATOM     49  C   UNL     1       2.750  10.237  -9.404  1.00  0.00     0.031 C 
ATOM     50  C   UNL     1       1.970   5.502 -10.905  1.00  0.00     0.029 A 
ATOM     51  N   UNL     1       0.756   7.104 -11.884  1.00  0.00    -0.354 N 
ATOM     52  C   UNL     1       1.111  11.226 -10.656  1.00  0.00     0.074 A 
ATOM     53  C   UNL     1       2.116  11.379  -9.626  1.00  0.00     0.031 C 
ATOM     54  C   UNL     1       1.154   4.905 -11.788  1.00  0.00     0.029 A 
ATOM     55  C   UNL     1       0.324   5.920 -12.429  1.00  0.00     0.049 A 
ATOM     56  H   UNL     1       0.392   7.981 -12.143  1.00  0.00     0.167 HD
ATOM     57  C   UNL     1       0.382  12.246 -11.169  1.00  0.00     0.037 A 
ATOM     58  C   UNL     1      -0.641   5.676 -13.335  1.00  0.00     0.037 A 
ATOM     59  C   UNL     1      -0.593  12.098 -12.217  1.00  0.00     0.049 A 
ATOM     60  C   UNL     1      -1.419   6.826 -13.909  1.00  0.00     0.074 A 
ATOM     61  C   UNL     1      -1.325  13.081 -12.859  1.00  0.00     0.029 A 
ATOM     62  N   UNL     1      -0.971  10.886 -12.775  1.00  0.00    -0.354 N 
ATOM     63  N   UNL     1      -1.329   8.103 -13.630  1.00  0.00    -0.248 NA
ATOM     64  C   UNL     1      -2.429   6.501 -14.927  1.00  0.00     0.031 C 
ATOM     65  C   UNL     1      -2.171  12.460 -13.785  1.00  0.00     0.029 A 
ATOM     66  C   UNL     1      -1.940  11.095 -13.743  1.00  0.00     0.049 A 
ATOM     67  H   UNL     1      -0.605  10.008 -12.522  1.00  0.00     0.167 HD
ATOM     68  C   UNL     1      -2.257   8.737 -14.444  1.00  0.00     0.074 A 
ATOM     69  C   UNL     1      -2.889   7.705 -15.241  1.00  0.00     0.031 C 
ATOM     70  C   UNL     1      -2.560  10.055 -14.523  1.00  0.00     0.037 A 
BRANCH  57  71
ATOM     71  C   UNL     1       0.625  13.613 -10.602  1.00  0.00     0.057 A 
ATOM     72  C   UNL     1       1.808  14.318 -10.859  1.00  0.00     0.134 A 
ATOM     73  C   UNL     1      -0.338  14.236  -9.799  1.00  0.00     0.134 A 
ATOM     74  F   UNL     1       2.776  13.771 -11.609  1.00  0.00    -0.206 F 
ATOM     75  C   UNL     1       2.039  15.581 -10.311  1.00  0.00     0.040 A 
ATOM     76  C   UNL     1      -0.130  15.509  -9.266  1.00  0.00     0.040 A 
ATOM     77  F   UNL     1      -1.495  13.618  -9.518  1.00  0.00    -0.206 F 
ATOM     78  C   UNL     1       1.065  16.182  -9.515  1.00  0.00     0.006 A 
ENDBRANCH  57  71
BRANCH  58  79
ATOM     79  C   UNL     1      -0.913   4.283 -13.765  1.00  0.00     0.057 A 
ATOM     80  C   UNL     1      -0.522   3.830 -15.030  1.00  0.00     0.134 A 
ATOM     81  C   UNL     1      -1.553   3.370 -12.919  1.00  0.00     0.134 A 
ATOM     82  F   UNL     1       0.080   4.665 -15.889  1.00  0.00    -0.206 F 
ATOM     83  C   UNL     1      -0.768   2.520 -15.444  1.00  0.00     0.040 A 
ATOM     84  C   UNL     1      -1.788   2.051 -13.313  1.00  0.00     0.040 A 
ATOM     85  F   UNL     1      -1.944   3.743 -11.692  1.00  0.00    -0.206 F 
ATOM     86  C   UNL     1      -1.398   1.625 -14.582  1.00  0.00     0.006 A 
ENDBRANCH  58  79
BRANCH  70  87
ATOM     87  C   UNL     1      -3.611  10.456 -15.514  1.00  0.00     0.057 A 
ATOM     88  C   UNL     1      -4.971  10.225 -15.276  1.00  0.00     0.134 A 
ATOM     89  C   UNL     1      -3.262  11.118 -16.698  1.00  0.00     0.134 A 
ATOM     90  F   UNL     1      -5.367   9.582 -14.166  1.00  0.00    -0.206 F 
ATOM     91  C   UNL     1      -5.948  10.625 -16.188  1.00  0.00     0.040 A 
ATOM     92  C   UNL     1      -4.231  11.542 -17.607  1.00  0.00     0.040 A 
ATOM     93  F   UNL     1      -1.976  11.374 -16.981  1.00  0.00    -0.206 F 
ATOM     94  C   UNL     1      -5.578  11.293 -17.355  1.00  0.00     0.006 A 
ENDBRANCH  70  87
ENDBRANCH  44  45
ENDBRANCH  36  39
ENDBRANCH  34  35
ENDBRANCH  33  34
ENDBRANCH  32  33
ENDBRANCH   1  32
TORSDOF 16
