REMARK SMILES C[C@@H](Oc1ccc(/C=C2\C(=O)[NH+]=C(NCCCCCCNC(=O)c3ccc(-c4c5nc(c(-c6c(F)cccc6F)c6ccc([nH]6)c(-c6c(F)cccc6F)c6nc(c(-c7c(F)cccc7F)c7ccc4[nH]7)C=C6)C=C5)cc3)N(c3ccc4c(c3)OCO4)C2=O)cc1)C(=O)[O-]
REMARK SMILES IDX 17 1 16 2 15 3 14 4 8 5 9 6 10 7 88 8 11 9 12 10 78 11 89 12
REMARK SMILES IDX 13 13 7 16 4 17 5 18 91 19 6 20 90 21 3 22 2 23 1 24 92 25
REMARK SMILES IDX 93 26 94 27 79 28 80 29 84 30 81 31 83 32 82 33 85 34 87 35
REMARK SMILES IDX 86 36 18 37 19 38 20 39 21 40 22 41 23 43 24 44 25 45 77 46
REMARK SMILES IDX 26 47 76 48 27 49 28 50 29 51 70 52 30 53 75 54 69 55 71 56
REMARK SMILES IDX 31 57 74 58 68 59 67 60 32 62 58 63 41 64 57 65 42 66 45 67
REMARK SMILES IDX 56 68 72 69 43 70 44 71 55 73 73 74 46 75 33 76 34 77 39 78
REMARK SMILES IDX 35 79 36 80 38 81 40 82 37 83 59 84 60 85 65 86 61 87 62 88
REMARK SMILES IDX 64 89 66 90 63 91 47 92 48 93 53 94 49 95 50 96 52 97 54 98
REMARK SMILES IDX 51 99
REMARK H PARENT 12 14 14 15 21 42 71 61 45 72
REMARK Flexibility Score: inf
ROOT
ATOM      1  C   UNL     1       9.226  -8.683  -6.093  1.00  0.00     0.003 C 
ENDROOT
BRANCH   1   2
ATOM      2  C   UNL     1       7.811  -8.118  -5.918  1.00  0.00     0.037 C 
BRANCH   2   3
ATOM      3  C   UNL     1       7.248  -8.292  -4.510  1.00  0.00     0.197 C 
BRANCH   3   4
ATOM      4  N   UNL     1       8.065  -7.558  -3.567  1.00  0.00    -0.277 N 
ATOM      5  C   UNL     1       6.226  -3.515  -0.735  1.00  0.00     0.031 C 
ATOM      6  C   UNL     1       6.875  -4.154  -1.724  1.00  0.00     0.138 C 
ATOM      7  C   UNL     1       6.309  -4.503  -3.038  1.00  0.00     0.321 C 
ATOM      8  C   UNL     1       8.262  -4.579  -1.473  1.00  0.00     0.328 C 
ATOM      9  O   UNL     1       5.580  -3.752  -3.661  1.00  0.00    -0.250 OA
ATOM     10  N   UNL     1       6.654  -5.749  -3.475  1.00  0.00    -0.210 N 
ATOM     11  N   UNL     1       8.649  -5.675  -2.238  1.00  0.00    -0.162 N 
ATOM     12  O   UNL     1       8.961  -4.014  -0.633  1.00  0.00    -0.249 OA
ATOM     13  C   UNL     1       7.768  -6.301  -3.111  1.00  0.00     0.366 C 
ATOM     14  H   UNL     1       6.046  -6.237  -4.077  1.00  0.00     0.270 HD
ATOM     15  H   UNL     1       8.884  -7.989  -3.233  1.00  0.00     0.260 HD
BRANCH   5  16
ATOM     16  C   UNL     1       4.818  -3.102  -0.704  1.00  0.00    -0.024 A 
ATOM     17  C   UNL     1       2.146  -2.271  -0.490  1.00  0.00     0.120 A 
ATOM     18  C   UNL     1       2.449  -3.492  -1.085  1.00  0.00     0.047 A 
ATOM     19  C   UNL     1       3.167  -1.491   0.045  1.00  0.00     0.047 A 
ATOM     20  C   UNL     1       3.778  -3.912  -1.180  1.00  0.00     0.012 A 
ATOM     21  C   UNL     1       4.497  -1.898  -0.071  1.00  0.00     0.012 A 
BRANCH  17  22
ATOM     22  O   UNL     1       0.827  -1.961  -0.320  1.00  0.00    -0.485 OA
BRANCH  22  23
ATOM     23  C   UNL     1       0.403  -0.757  -0.975  1.00  0.00     0.216 C 
ATOM     24  C   UNL     1       0.605   0.478  -0.102  1.00  0.00     0.059 C 
BRANCH  23  25
ATOM     25  C   UNL     1      -1.092  -0.879  -1.250  1.00  0.00     0.082 C 
ATOM     26  O   UNL     1      -1.665  -0.519  -2.268  1.00  0.00    -0.546 OA
ATOM     27  O   UNL     1      -1.806  -1.359  -0.209  1.00  0.00    -0.546 OA
ENDBRANCH  23  25
ENDBRANCH  22  23
ENDBRANCH  17  22
ENDBRANCH   5  16
BRANCH  11  28
ATOM     28  C   UNL     1       9.949  -6.188  -1.998  1.00  0.00     0.115 A 
ATOM     29  C   UNL     1      10.982  -5.940  -2.928  1.00  0.00     0.048 A 
ATOM     30  C   UNL     1      10.217  -6.803  -0.770  1.00  0.00     0.094 A 
ATOM     31  C   UNL     1      12.308  -6.249  -2.603  1.00  0.00     0.054 A 
ATOM     32  C   UNL     1      11.530  -7.075  -0.477  1.00  0.00     0.169 A 
ATOM     33  C   UNL     1      12.549  -6.788  -1.357  1.00  0.00     0.166 A 
ATOM     34  O   UNL     1      11.988  -7.572   0.704  1.00  0.00    -0.453 OA
ATOM     35  O   UNL     1      13.772  -7.048  -0.818  1.00  0.00    -0.454 OA
ATOM     36  C   UNL     1      13.397  -7.308   0.552  1.00  0.00     0.468 C 
ENDBRANCH  11  28
ENDBRANCH   3   4
ENDBRANCH   2   3
ENDBRANCH   1   2
BRANCH   1  37
ATOM     37  C   UNL     1       9.385 -10.162  -5.721  1.00  0.00     0.002 C 
BRANCH  37  38
ATOM     38  C   UNL     1       8.420 -11.111  -6.435  1.00  0.00     0.021 C 
BRANCH  38  39
ATOM     39  C   UNL     1       8.510 -11.073  -7.955  1.00  0.00     0.116 C 
BRANCH  39  40
ATOM     40  N   UNL     1       9.800 -11.537  -8.439  1.00  0.00    -0.352 N 
ATOM     41  C   UNL     1      10.078 -12.521  -9.355  1.00  0.00     0.251 C 
ATOM     42  H   UNL     1      10.585 -11.082  -8.056  1.00  0.00     0.163 HD
ATOM     43  O   UNL     1      11.228 -12.920  -9.508  1.00  0.00    -0.269 OA
BRANCH  41  44
ATOM     44  C   UNL     1       8.978 -13.118 -10.142  1.00  0.00     0.039 A 
ATOM     45  C   UNL     1       8.919 -14.507 -10.280  1.00  0.00     0.014 A 
ATOM     46  C   UNL     1       8.003 -12.310 -10.733  1.00  0.00     0.014 A 
ATOM     47  C   UNL     1       7.846 -15.089 -10.958  1.00  0.00     0.010 A 
ATOM     48  C   UNL     1       6.896 -12.895 -11.340  1.00  0.00     0.010 A 
ATOM     49  C   UNL     1       6.806 -14.290 -11.461  1.00  0.00    -0.014 A 
BRANCH  49  50
ATOM     50  C   UNL     1       5.617 -14.891 -12.119  1.00  0.00     0.031 A 
ATOM     51  C   UNL     1       5.320 -14.585 -13.562  1.00  0.00     0.074 A 
ATOM     52  C   UNL     1       4.767 -15.652 -11.400  1.00  0.00     0.049 A 
ATOM     53  N   UNL     1       4.285 -14.932 -14.285  1.00  0.00    -0.248 NA
ATOM     54  C   UNL     1       6.303 -13.759 -14.283  1.00  0.00     0.031 C 
ATOM     55  C   UNL     1       4.920 -15.989  -9.983  1.00  0.00     0.029 A 
ATOM     56  N   UNL     1       3.593 -16.267 -11.760  1.00  0.00    -0.354 N 
ATOM     57  C   UNL     1       4.482 -14.353 -15.532  1.00  0.00     0.074 A 
ATOM     58  C   UNL     1       5.712 -13.595 -15.458  1.00  0.00     0.031 C 
ATOM     59  C   UNL     1       3.889 -16.759  -9.599  1.00  0.00     0.029 A 
ATOM     60  C   UNL     1       2.978 -16.933 -10.726  1.00  0.00     0.049 A 
ATOM     61  H   UNL     1       3.225 -16.234 -12.673  1.00  0.00     0.167 HD
ATOM     62  C   UNL     1       3.717 -14.459 -16.643  1.00  0.00     0.037 A 
ATOM     63  C   UNL     1       1.804 -17.593 -10.685  1.00  0.00     0.037 A 
ATOM     64  C   UNL     1       2.512 -15.241 -16.723  1.00  0.00     0.049 A 
ATOM     65  C   UNL     1       0.968 -17.680 -11.935  1.00  0.00     0.074 A 
ATOM     66  C   UNL     1       1.707 -15.467 -17.827  1.00  0.00     0.029 A 
ATOM     67  N   UNL     1       1.937 -15.920 -15.661  1.00  0.00    -0.354 N 
ATOM     68  N   UNL     1       1.209 -17.192 -13.128  1.00  0.00    -0.248 NA
ATOM     69  C   UNL     1      -0.302 -18.413 -11.835  1.00  0.00     0.031 C 
ATOM     70  C   UNL     1       0.613 -16.235 -17.419  1.00  0.00     0.029 A 
ATOM     71  C   UNL     1       0.771 -16.541 -16.077  1.00  0.00     0.049 A 
ATOM     72  H   UNL     1       2.302 -15.955 -14.748  1.00  0.00     0.167 HD
ATOM     73  C   UNL     1       0.144 -17.594 -13.925  1.00  0.00     0.074 A 
ATOM     74  C   UNL     1      -0.737 -18.375 -13.085  1.00  0.00     0.031 C 
ATOM     75  C   UNL     1      -0.084 -17.338 -15.236  1.00  0.00     0.037 A 
BRANCH  62  76
ATOM     76  C   UNL     1       4.151 -13.717 -17.873  1.00  0.00     0.057 A 
ATOM     77  C   UNL     1       5.265 -14.116 -18.623  1.00  0.00     0.134 A 
ATOM     78  C   UNL     1       3.395 -12.643 -18.361  1.00  0.00     0.134 A 
ATOM     79  F   UNL     1       6.038 -15.131 -18.207  1.00  0.00    -0.206 F 
ATOM     80  C   UNL     1       5.617 -13.467 -19.808  1.00  0.00     0.040 A 
ATOM     81  C   UNL     1       3.720 -12.005 -19.558  1.00  0.00     0.040 A 
ATOM     82  F   UNL     1       2.312 -12.215 -17.695  1.00  0.00    -0.206 F 
ATOM     83  C   UNL     1       4.835 -12.416 -20.285  1.00  0.00     0.006 A 
ENDBRANCH  62  76
BRANCH  63  84
ATOM     84  C   UNL     1       1.332 -18.222  -9.424  1.00  0.00     0.057 A 
ATOM     85  C   UNL     1       1.200 -19.612  -9.311  1.00  0.00     0.134 A 
ATOM     86  C   UNL     1       0.946 -17.450  -8.321  1.00  0.00     0.134 A 
ATOM     87  F   UNL     1       1.535 -20.407 -10.338  1.00  0.00    -0.206 F 
ATOM     88  C   UNL     1       0.663 -20.207  -8.168  1.00  0.00     0.040 A 
ATOM     89  C   UNL     1       0.439 -18.034  -7.159  1.00  0.00     0.040 A 
ATOM     90  F   UNL     1       1.055 -16.114  -8.358  1.00  0.00    -0.206 F 
ATOM     91  C   UNL     1       0.282 -19.416  -7.087  1.00  0.00     0.006 A 
ENDBRANCH  63  84
BRANCH  75  92
ATOM     92  C   UNL     1      -1.300 -17.956 -15.863  1.00  0.00     0.057 A 
ATOM     93  C   UNL     1      -2.596 -17.518 -15.564  1.00  0.00     0.134 A 
ATOM     94  C   UNL     1      -1.165 -18.971 -16.820  1.00  0.00     0.134 A 
ATOM     95  F   UNL     1      -2.796 -16.558 -14.649  1.00  0.00    -0.206 F 
ATOM     96  C   UNL     1      -3.715 -18.084 -16.177  1.00  0.00     0.040 A 
ATOM     97  C   UNL     1      -2.274 -19.522 -17.462  1.00  0.00     0.040 A 
ATOM     98  F   UNL     1       0.049 -19.430 -17.161  1.00  0.00    -0.206 F 
ATOM     99  C   UNL     1      -3.555 -19.083 -17.136  1.00  0.00     0.006 A 
ENDBRANCH  75  92
ENDBRANCH  49  50
ENDBRANCH  41  44
ENDBRANCH  39  40
ENDBRANCH  38  39
ENDBRANCH  37  38
ENDBRANCH   1  37
TORSDOF 17
