REMARK SMILES C[C@@H](NC(=O)/C(=C/c1ccc(Cl)cc1)NC(=O)c1ccc(C(C)(C)C)cc1)C(=O)NCCCCCCNC(=O)c1ccc(-c2c3nc(c(-c4c(F)cccc4F)c4ccc([nH]4)c(-c4c(F)cccc4F)c4nc(c(-c5c(F)cccc5F)c5ccc2[nH]5)C=C4)C=C3)cc1
REMARK SMILES IDX 32 1 31 2 30 3 28 4 29 5 2 7 1 8 3 9 4 10 5 12 6 13 7 14
REMARK SMILES IDX 15 15 16 16 17 18 18 19 19 20 27 21 20 22 26 23 21 24 22 25
REMARK SMILES IDX 23 26 24 27 25 28 8 29 9 30 14 31 10 32 13 33 11 34 12 35
REMARK SMILES IDX 33 36 34 37 35 38 36 39 37 40 38 41 39 43 40 44 41 45 93 46
REMARK SMILES IDX 42 47 92 48 43 49 44 50 45 51 86 52 46 53 91 54 85 55 87 56
REMARK SMILES IDX 47 57 90 58 84 59 83 60 48 62 74 63 57 64 73 65 58 66 61 67
REMARK SMILES IDX 72 68 88 69 59 70 60 71 71 73 89 74 62 75 49 76 50 77 55 78
REMARK SMILES IDX 51 79 52 80 54 81 56 82 53 83 75 84 76 85 81 86 77 87 78 88
REMARK SMILES IDX 80 89 82 90 79 91 63 92 64 93 69 94 65 95 66 96 68 97 70 98
REMARK SMILES IDX 67 99
REMARK H PARENT 30 6 3 11 15 17 37 42 87 61 61 72
REMARK Flexibility Score: inf
ROOT
ATOM      1  C   UNL     1      -1.639   0.264   2.923  1.00  0.00     0.021 C 
ENDROOT
BRANCH   1   2
ATOM      2  C   UNL     1      -1.045  -0.663   1.870  1.00  0.00     0.116 C 
BRANCH   2   3
ATOM      3  N   UNL     1      -1.388  -0.196   0.546  1.00  0.00    -0.354 N 
ATOM      4  C   UNL     1      -0.760  -0.425  -0.635  1.00  0.00     0.242 C 
ATOM      5  O   UNL     1      -1.176   0.170  -1.633  1.00  0.00    -0.273 OA
ATOM      6  H   UNL     1      -2.193   0.368   0.492  1.00  0.00     0.163 HD
BRANCH   4   7
ATOM      7  C   UNL     1       0.506  -1.295  -0.719  1.00  0.00     0.168 C 
ATOM      8  C   UNL     1       1.692  -0.416  -0.303  1.00  0.00     0.041 C 
BRANCH   7   9
ATOM      9  N   UNL     1       0.526  -2.583   0.000  1.00  0.00    -0.339 N 
ATOM     10  C   UNL     1      -0.202  -3.699  -0.365  1.00  0.00     0.268 C 
ATOM     11  H   UNL     1       1.100  -2.653   0.797  1.00  0.00     0.164 HD
ATOM     12  O   UNL     1       0.385  -4.719  -0.713  1.00  0.00    -0.268 OA
BRANCH  10  13
ATOM     13  C   UNL     1      -1.689  -3.692  -0.133  1.00  0.00     0.107 C 
ATOM     14  C   UNL     1      -2.417  -2.897  -0.941  1.00  0.00     0.040 C 
BRANCH  13  15
ATOM     15  N   UNL     1      -2.292  -4.524   0.790  1.00  0.00    -0.317 N 
ATOM     16  C   UNL     1      -1.855  -5.416   1.738  1.00  0.00     0.255 C 
ATOM     17  H   UNL     1      -3.275  -4.463   0.761  1.00  0.00     0.170 HD
ATOM     18  O   UNL     1      -2.685  -6.073   2.367  1.00  0.00    -0.269 OA
BRANCH  16  19
ATOM     19  C   UNL     1      -0.437  -5.634   2.031  1.00  0.00     0.040 A 
ATOM     20  C   UNL     1       0.104  -6.887   1.752  1.00  0.00     0.014 A 
ATOM     21  C   UNL     1       0.342  -4.643   2.623  1.00  0.00     0.014 A 
ATOM     22  C   UNL     1       1.464  -7.110   1.960  1.00  0.00     0.005 A 
ATOM     23  C   UNL     1       1.707  -4.872   2.822  1.00  0.00     0.005 A 
ATOM     24  C   UNL     1       2.305  -6.091   2.451  1.00  0.00    -0.043 A 
BRANCH  24  25
ATOM     25  C   UNL     1       3.822  -6.335   2.540  1.00  0.00    -0.013 C 
ATOM     26  C   UNL     1       4.111  -7.387   3.627  1.00  0.00     0.016 C 
ATOM     27  C   UNL     1       4.352  -6.847   1.180  1.00  0.00     0.016 C 
ATOM     28  C   UNL     1       4.630  -5.063   2.880  1.00  0.00     0.016 C 
ENDBRANCH  24  25
ENDBRANCH  16  19
ENDBRANCH  13  15
BRANCH  14  29
ATOM     29  C   UNL     1      -3.836  -2.481  -0.855  1.00  0.00    -0.023 A 
ATOM     30  C   UNL     1      -4.575  -2.474   0.339  1.00  0.00     0.010 A 
ATOM     31  C   UNL     1      -4.425  -1.901  -1.988  1.00  0.00     0.010 A 
ATOM     32  C   UNL     1      -5.875  -1.960   0.390  1.00  0.00     0.021 A 
ATOM     33  C   UNL     1      -5.718  -1.367  -1.939  1.00  0.00     0.021 A 
ATOM     34  C   UNL     1      -6.441  -1.406  -0.751  1.00  0.00     0.041 A 
ATOM     35  Cl  UNL     1      -8.024  -0.741  -0.683  1.00  0.00    -0.084 Cl
ENDBRANCH  14  29
ENDBRANCH  10  13
ENDBRANCH   7   9
ENDBRANCH   4   7
ENDBRANCH   2   3
ENDBRANCH   1   2
BRANCH   1  36
ATOM     36  C   UNL     1      -3.143   0.051   3.127  1.00  0.00     0.002 C 
BRANCH  36  37
ATOM     37  C   UNL     1      -3.509  -1.283   3.786  1.00  0.00     0.002 C 
BRANCH  37  38
ATOM     38  C   UNL     1      -2.836  -1.553   5.130  1.00  0.00     0.021 C 
BRANCH  38  39
ATOM     39  C   UNL     1      -2.960  -0.421   6.139  1.00  0.00     0.116 C 
BRANCH  39  40
ATOM     40  N   UNL     1      -4.342  -0.115   6.464  1.00  0.00    -0.352 N 
ATOM     41  C   UNL     1      -4.905   0.089   7.702  1.00  0.00     0.251 C 
ATOM     42  H   UNL     1      -4.956  -0.044   5.698  1.00  0.00     0.163 HD
ATOM     43  O   UNL     1      -6.113   0.190   7.833  1.00  0.00    -0.269 OA
BRANCH  41  44
ATOM     44  C   UNL     1      -4.016   0.156   8.880  1.00  0.00     0.039 A 
ATOM     45  C   UNL     1      -4.317  -0.625   9.997  1.00  0.00     0.014 A 
ATOM     46  C   UNL     1      -2.868   0.954   8.857  1.00  0.00     0.014 A 
ATOM     47  C   UNL     1      -3.432  -0.648  11.075  1.00  0.00     0.010 A 
ATOM     48  C   UNL     1      -1.949   0.865   9.896  1.00  0.00     0.010 A 
ATOM     49  C   UNL     1      -2.226   0.069  11.018  1.00  0.00    -0.014 A 
BRANCH  49  50
ATOM     50  C   UNL     1      -1.244   0.010  12.128  1.00  0.00     0.031 A 
ATOM     51  C   UNL     1      -0.914   1.253  12.905  1.00  0.00     0.074 A 
ATOM     52  C   UNL     1      -0.608  -1.147  12.395  1.00  0.00     0.049 A 
ATOM     53  N   UNL     1      -0.044   1.420  13.869  1.00  0.00    -0.248 NA
ATOM     54  C   UNL     1      -1.636   2.479  12.530  1.00  0.00     0.031 C 
ATOM     55  C   UNL     1      -0.807  -2.409  11.680  1.00  0.00     0.029 A 
ATOM     56  N   UNL     1       0.343  -1.446  13.338  1.00  0.00    -0.354 N 
ATOM     57  C   UNL     1      -0.106   2.767  14.203  1.00  0.00     0.074 A 
ATOM     58  C   UNL     1      -1.052   3.385  13.299  1.00  0.00     0.031 C 
ATOM     59  C   UNL     1      -0.027  -3.353  12.230  1.00  0.00     0.029 A 
ATOM     60  C   UNL     1       0.756  -2.756  13.307  1.00  0.00     0.049 A 
ATOM     61  H   UNL     1       0.695  -0.785  13.977  1.00  0.00     0.167 HD
ATOM     62  C   UNL     1       0.545   3.424  15.191  1.00  0.00     0.037 A 
ATOM     63  C   UNL     1       1.666  -3.400  14.061  1.00  0.00     0.037 A 
ATOM     64  C   UNL     1       1.467   2.800  16.102  1.00  0.00     0.049 A 
ATOM     65  C   UNL     1       2.388  -2.644  15.143  1.00  0.00     0.074 A 
ATOM     66  C   UNL     1       2.134   3.364  17.175  1.00  0.00     0.029 A 
ATOM     67  N   UNL     1       1.854   1.469  16.044  1.00  0.00    -0.354 N 
ATOM     68  N   UNL     1       2.268  -1.387  15.495  1.00  0.00    -0.248 NA
ATOM     69  C   UNL     1       3.369  -3.399  15.935  1.00  0.00     0.031 C 
ATOM     70  C   UNL     1       2.963   2.386  17.736  1.00  0.00     0.029 A 
ATOM     71  C   UNL     1       2.771   1.200  17.047  1.00  0.00     0.049 A 
ATOM     72  H   UNL     1       1.526   0.813  15.388  1.00  0.00     0.167 HD
ATOM     73  C   UNL     1       3.131  -1.208  16.568  1.00  0.00     0.074 A 
ATOM     74  C   UNL     1       3.760  -2.489  16.816  1.00  0.00     0.031 C 
ATOM     75  C   UNL     1       3.381  -0.084  17.285  1.00  0.00     0.037 A 
BRANCH  62  76
ATOM     76  C   UNL     1       0.280   4.895  15.333  1.00  0.00     0.057 A 
ATOM     77  C   UNL     1      -0.958   5.385  15.772  1.00  0.00     0.134 A 
ATOM     78  C   UNL     1       1.280   5.834  15.049  1.00  0.00     0.134 A 
ATOM     79  F   UNL     1      -1.964   4.542  16.049  1.00  0.00    -0.206 F 
ATOM     80  C   UNL     1      -1.202   6.755  15.891  1.00  0.00     0.040 A 
ATOM     81  C   UNL     1       1.057   7.205  15.194  1.00  0.00     0.040 A 
ATOM     82  F   UNL     1       2.490   5.435  14.629  1.00  0.00    -0.206 F 
ATOM     83  C   UNL     1      -0.189   7.668  15.608  1.00  0.00     0.006 A 
ENDBRANCH  62  76
BRANCH  63  84
ATOM     84  C   UNL     1       1.929  -4.845  13.841  1.00  0.00     0.057 A 
ATOM     85  C   UNL     1       1.543  -5.800  14.790  1.00  0.00     0.134 A 
ATOM     86  C   UNL     1       2.578  -5.306  12.690  1.00  0.00     0.134 A 
ATOM     87  F   UNL     1       0.933  -5.417  15.922  1.00  0.00    -0.206 F 
ATOM     88  C   UNL     1       1.811  -7.158  14.613  1.00  0.00     0.040 A 
ATOM     89  C   UNL     1       2.830  -6.664  12.488  1.00  0.00     0.040 A 
ATOM     90  F   UNL     1       2.967  -4.444  11.740  1.00  0.00    -0.206 F 
ATOM     91  C   UNL     1       2.453  -7.594  13.456  1.00  0.00     0.006 A 
ENDBRANCH  63  84
BRANCH  75  92
ATOM     92  C   UNL     1       4.346  -0.200  18.429  1.00  0.00     0.057 A 
ATOM     93  C   UNL     1       5.722  -0.361  18.225  1.00  0.00     0.134 A 
ATOM     94  C   UNL     1       3.893  -0.111  19.752  1.00  0.00     0.134 A 
ATOM     95  F   UNL     1       6.218  -0.466  16.983  1.00  0.00    -0.206 F 
ATOM     96  C   UNL     1       6.611  -0.453  19.297  1.00  0.00     0.040 A 
ATOM     97  C   UNL     1       4.776  -0.172  20.831  1.00  0.00     0.040 A 
ATOM     98  F   UNL     1       2.588   0.053  20.016  1.00  0.00    -0.206 F 
ATOM     99  C   UNL     1       6.139  -0.350  20.604  1.00  0.00     0.006 A 
ENDBRANCH  75  92
ENDBRANCH  49  50
ENDBRANCH  41  44
ENDBRANCH  39  40
ENDBRANCH  38  39
ENDBRANCH  37  38
ENDBRANCH  36  37
ENDBRANCH   1  36
TORSDOF 19
