REMARK SMILES CS(=O)(=O)c1ccc(C2=NN(c3ccc(C(=O)NCCCCCCNC(=O)c4ccc(-c5c6nc(c(-c7c(F)cccc7F)c7ccc([nH]7)c(-c7c(F)cccc7F)c7nc(c(-c8c(F)cccc8F)c8ccc5[nH]8)C=C7)C=C6)cc4)cc3)[C@H](c3ccc(F)cc3)C2)cc1
REMARK SMILES IDX 21 1 20 2 19 3 18 4 16 5 17 6 15 8 12 9 13 10 83 11 14 12
REMARK SMILES IDX 82 13 11 14 9 15 10 16 92 17 84 18 8 19 5 20 6 21 94 22 7 23
REMARK SMILES IDX 93 24 2 25 1 26 3 27 4 28 85 29 86 30 91 31 87 32 90 33
REMARK SMILES IDX 88 34 89 35 22 36 23 37 24 38 25 39 26 40 27 42 28 43 29 44
REMARK SMILES IDX 81 45 30 46 80 47 31 48 32 49 33 50 74 51 34 52 79 53 73 54
REMARK SMILES IDX 75 55 35 56 78 57 72 58 71 59 36 61 62 62 45 63 61 64 46 65
REMARK SMILES IDX 49 66 60 67 76 68 47 69 48 70 59 72 77 73 50 74 37 75 38 76
REMARK SMILES IDX 43 77 39 78 40 79 42 80 44 81 41 82 63 83 64 84 69 85 65 86
REMARK SMILES IDX 66 87 68 88 70 89 67 90 51 91 52 92 57 93 53 94 54 95 56 96
REMARK SMILES IDX 58 97 55 98
REMARK H PARENT 18 7 25 41 75 60 49 71
REMARK Flexibility Score: inf
ROOT
ATOM      1  C   UNL     1       4.463  -3.412 -16.248  1.00  0.00     0.002 C 
ENDROOT
BRANCH   1   2
ATOM      2  C   UNL     1       4.418  -2.868 -14.815  1.00  0.00     0.021 C 
BRANCH   2   3
ATOM      3  C   UNL     1       3.935  -1.419 -14.729  1.00  0.00     0.116 C 
BRANCH   3   4
ATOM      4  N   UNL     1       2.494  -1.359 -14.892  1.00  0.00    -0.352 N 
ATOM      5  C   UNL     1       1.492  -1.117 -13.986  1.00  0.00     0.251 C 
ATOM      6  O   UNL     1       0.332  -1.065 -14.388  1.00  0.00    -0.269 OA
ATOM      7  H   UNL     1       2.181  -1.519 -15.812  1.00  0.00     0.163 HD
BRANCH   5   8
ATOM      8  C   UNL     1       1.784  -0.839 -12.559  1.00  0.00     0.039 A 
ATOM      9  C   UNL     1       2.362  -0.084  -9.912  1.00  0.00     0.060 A 
ATOM     10  C   UNL     1       1.331   0.544 -10.618  1.00  0.00     0.029 A 
ATOM     11  C   UNL     1       3.038  -1.148 -10.516  1.00  0.00     0.029 A 
ATOM     12  C   UNL     1       1.038   0.166 -11.931  1.00  0.00     0.016 A 
ATOM     13  C   UNL     1       2.745  -1.536 -11.824  1.00  0.00     0.016 A 
BRANCH   9  14
ATOM     14  N   UNL     1       2.735   0.332  -8.648  1.00  0.00    -0.257 N 
ATOM     15  C   UNL     1       2.409   0.510  -6.564  1.00  0.00     0.071 C 
ATOM     16  N   UNL     1       2.220  -0.289  -7.566  1.00  0.00    -0.176 NA
ATOM     17  C   UNL     1       3.058   1.829  -6.896  1.00  0.00     0.091 C 
ATOM     18  C   UNL     1       3.449   1.574  -8.364  1.00  0.00     0.144 C 
BRANCH  15  19
ATOM     19  C   UNL     1       1.974   0.154  -5.203  1.00  0.00    -0.002 A 
ATOM     20  C   UNL     1       0.999  -0.656  -2.728  1.00  0.00     0.067 A 
ATOM     21  C   UNL     1       1.573  -1.599  -3.582  1.00  0.00     0.021 A 
ATOM     22  C   UNL     1       0.910   0.691  -3.102  1.00  0.00     0.021 A 
ATOM     23  C   UNL     1       2.050  -1.192  -4.826  1.00  0.00     0.011 A 
ATOM     24  C   UNL     1       1.413   1.101  -4.341  1.00  0.00     0.011 A 
BRANCH  20  25
ATOM     25  S   UNL     1       0.329  -1.191  -1.169  1.00  0.00     0.175 S 
ATOM     26  C   UNL     1       1.066  -0.117   0.032  1.00  0.00     0.163 C 
ATOM     27  O   UNL     1       0.837  -2.527  -0.914  1.00  0.00    -0.224 OA
ATOM     28  O   UNL     1      -1.093  -0.922  -1.213  1.00  0.00    -0.224 OA
ENDBRANCH  20  25
ENDBRANCH  15  19
BRANCH  18  29
ATOM     29  C   UNL     1       4.931   1.393  -8.694  1.00  0.00    -0.023 A 
ATOM     30  C   UNL     1       5.912   1.064  -7.744  1.00  0.00     0.009 A 
ATOM     31  C   UNL     1       5.327   1.480 -10.048  1.00  0.00     0.009 A 
ATOM     32  C   UNL     1       7.240   0.848  -8.132  1.00  0.00     0.039 A 
ATOM     33  C   UNL     1       6.646   1.240 -10.436  1.00  0.00     0.039 A 
ATOM     34  C   UNL     1       7.593   0.930  -9.473  1.00  0.00     0.123 A 
ATOM     35  F   UNL     1       8.859   0.697  -9.841  1.00  0.00    -0.207 F 
ENDBRANCH  18  29
ENDBRANCH   9  14
ENDBRANCH   5   8
ENDBRANCH   3   4
ENDBRANCH   2   3
ENDBRANCH   1   2
BRANCH   1  36
ATOM     36  C   UNL     1       5.468  -2.711 -17.171  1.00  0.00     0.002 C 
BRANCH  36  37
ATOM     37  C   UNL     1       6.912  -2.693 -16.662  1.00  0.00     0.021 C 
BRANCH  37  38
ATOM     38  C   UNL     1       7.522  -4.074 -16.444  1.00  0.00     0.116 C 
BRANCH  38  39
ATOM     39  N   UNL     1       7.656  -4.809 -17.692  1.00  0.00    -0.352 N 
ATOM     40  C   UNL     1       8.773  -5.378 -18.250  1.00  0.00     0.251 C 
ATOM     41  H   UNL     1       6.826  -4.913 -18.212  1.00  0.00     0.163 HD
ATOM     42  O   UNL     1       8.752  -5.771 -19.412  1.00  0.00    -0.269 OA
BRANCH  40  43
ATOM     43  C   UNL     1      10.011  -5.506 -17.452  1.00  0.00     0.039 A 
ATOM     44  C   UNL     1      11.233  -5.174 -18.042  1.00  0.00     0.014 A 
ATOM     45  C   UNL     1       9.968  -5.971 -16.134  1.00  0.00     0.014 A 
ATOM     46  C   UNL     1      12.408  -5.256 -17.291  1.00  0.00     0.010 A 
ATOM     47  C   UNL     1      11.130  -5.988 -15.368  1.00  0.00     0.010 A 
ATOM     48  C   UNL     1      12.361  -5.636 -15.940  1.00  0.00    -0.014 A 
BRANCH  48  49
ATOM     49  C   UNL     1      13.591  -5.674 -15.110  1.00  0.00     0.031 A 
ATOM     50  C   UNL     1      14.090  -6.980 -14.557  1.00  0.00     0.074 A 
ATOM     51  C   UNL     1      14.223  -4.525 -14.804  1.00  0.00     0.049 A 
ATOM     52  N   UNL     1      15.102  -7.207 -13.758  1.00  0.00    -0.248 NA
ATOM     53  C   UNL     1      13.338  -8.188 -14.931  1.00  0.00     0.031 C 
ATOM     54  C   UNL     1      13.814  -3.190 -15.244  1.00  0.00     0.029 A 
ATOM     55  N   UNL     1      15.341  -4.295 -14.041  1.00  0.00    -0.354 N 
ATOM     56  C   UNL     1      15.098  -8.576 -13.523  1.00  0.00     0.074 A 
ATOM     57  C   UNL     1      13.956  -9.122 -14.223  1.00  0.00     0.031 C 
ATOM     58  C   UNL     1      14.680  -2.284 -14.763  1.00  0.00     0.029 A 
ATOM     59  C   UNL     1      15.683  -2.967 -13.952  1.00  0.00     0.049 A 
ATOM     60  H   UNL     1      15.849  -5.013 -13.600  1.00  0.00     0.167 HD
ATOM     61  C   UNL     1      15.979  -9.314 -12.808  1.00  0.00     0.037 A 
ATOM     62  C   UNL     1      16.688  -2.368 -13.286  1.00  0.00     0.037 A 
ATOM     63  C   UNL     1      17.130  -8.772 -12.133  1.00  0.00     0.049 A 
ATOM     64  C   UNL     1      17.648  -3.210 -12.493  1.00  0.00     0.074 A 
ATOM     65  C   UNL     1      18.113  -9.445 -11.430  1.00  0.00     0.029 A 
ATOM     66  N   UNL     1      17.450  -7.424 -12.078  1.00  0.00    -0.354 N 
ATOM     67  N   UNL     1      17.668  -4.511 -12.330  1.00  0.00    -0.248 NA
ATOM     68  C   UNL     1      18.730  -2.501 -11.795  1.00  0.00     0.031 C 
ATOM     69  C   UNL     1      19.006  -8.501 -10.914  1.00  0.00     0.029 A 
ATOM     70  C   UNL     1      18.605  -7.243 -11.336  1.00  0.00     0.049 A 
ATOM     71  H   UNL     1      16.932  -6.703 -12.504  1.00  0.00     0.167 HD
ATOM     72  C   UNL     1      18.777  -4.778 -11.538  1.00  0.00     0.074 A 
ATOM     73  C   UNL     1      19.411  -3.505 -11.263  1.00  0.00     0.031 C 
ATOM     74  C   UNL     1      19.229  -5.971 -11.079  1.00  0.00     0.037 A 
BRANCH  61  75
ATOM     75  C   UNL     1      15.736 -10.793 -12.723  1.00  0.00     0.057 A 
ATOM     76  C   UNL     1      15.916 -11.636 -13.828  1.00  0.00     0.134 A 
ATOM     77  C   UNL     1      15.354 -11.388 -11.513  1.00  0.00     0.134 A 
ATOM     78  F   UNL     1      16.270 -11.129 -15.018  1.00  0.00    -0.206 F 
ATOM     79  C   UNL     1      15.702 -13.012 -13.739  1.00  0.00     0.040 A 
ATOM     80  C   UNL     1      15.163 -12.766 -11.406  1.00  0.00     0.040 A 
ATOM     81  F   UNL     1      15.170 -10.640 -10.414  1.00  0.00    -0.206 F 
ATOM     82  C   UNL     1      15.331 -13.582 -12.523  1.00  0.00     0.006 A 
ENDBRANCH  61  75
BRANCH  62  83
ATOM     83  C   UNL     1      16.855  -0.895 -13.359  1.00  0.00     0.057 A 
ATOM     84  C   UNL     1      17.927  -0.326 -14.056  1.00  0.00     0.134 A 
ATOM     85  C   UNL     1      15.957  -0.023 -12.732  1.00  0.00     0.134 A 
ATOM     86  F   UNL     1      18.830  -1.111 -14.661  1.00  0.00    -0.206 F 
ATOM     87  C   UNL     1      18.113   1.056 -14.110  1.00  0.00     0.040 A 
ATOM     88  C   UNL     1      16.117   1.362 -12.799  1.00  0.00     0.040 A 
ATOM     89  F   UNL     1      14.905  -0.506 -12.055  1.00  0.00    -0.206 F 
ATOM     90  C   UNL     1      17.202   1.904 -13.484  1.00  0.00     0.006 A 
ENDBRANCH  62  83
BRANCH  74  91
ATOM     91  C   UNL     1      20.489  -5.959 -10.265  1.00  0.00     0.057 A 
ATOM     92  C   UNL     1      20.517  -5.477  -8.951  1.00  0.00     0.134 A 
ATOM     93  C   UNL     1      21.681  -6.474 -10.792  1.00  0.00     0.134 A 
ATOM     94  F   UNL     1      19.413  -4.958  -8.394  1.00  0.00    -0.206 F 
ATOM     95  C   UNL     1      21.692  -5.487  -8.197  1.00  0.00     0.040 A 
ATOM     96  C   UNL     1      22.854  -6.514 -10.039  1.00  0.00     0.040 A 
ATOM     97  F   UNL     1      21.720  -6.960 -12.042  1.00  0.00    -0.206 F 
ATOM     98  C   UNL     1      22.863  -6.013  -8.739  1.00  0.00     0.006 A 
ENDBRANCH  74  91
ENDBRANCH  48  49
ENDBRANCH  40  43
ENDBRANCH  38  39
ENDBRANCH  37  38
ENDBRANCH  36  37
ENDBRANCH   1  36
TORSDOF 17
