REMARK SMILES NC(=O)COc1ccc(/C=C2\SC(=S)N(CCC(=O)NCCCCCCNC(=O)c3ccc(-c4c5nc(c(-c6c(F)cccc6F)c6ccc([nH]6)c(-c6c(F)cccc6F)c6nc(c(-c7c(F)cccc7F)c7ccc4[nH]7)C=C6)C=C5)cc3)C2=O)cc1
REMARK SMILES IDX 21 1 20 2 18 3 19 4 17 6 16 7 15 8 10 9 11 10 12 11 84 12
REMARK SMILES IDX 13 13 85 14 14 15 9 16 6 17 7 18 87 19 8 20 86 21 5 22 4 23
REMARK SMILES IDX 2 24 1 25 3 28 22 29 23 30 24 31 25 32 26 33 27 34 28 35
REMARK SMILES IDX 29 37 30 38 31 39 83 40 32 41 82 42 33 43 34 44 35 45 76 46
REMARK SMILES IDX 36 47 81 48 75 49 77 50 37 51 80 52 74 53 73 54 38 56 64 57
REMARK SMILES IDX 47 58 63 59 48 60 51 61 62 62 78 63 49 64 50 65 61 67 79 68
REMARK SMILES IDX 52 69 39 70 40 71 45 72 41 73 42 74 44 75 46 76 43 77 65 78
REMARK SMILES IDX 66 79 71 80 67 81 68 82 70 83 72 84 69 85 53 86 54 87 59 88
REMARK SMILES IDX 55 89 56 90 58 91 60 92 57 93
REMARK H PARENT 20 5 1 26 1 27 27 36 77 55 51 66
REMARK Flexibility Score: inf
ROOT
ATOM      1  C   UNL     1       0.475 -10.027  -2.117  1.00  0.00     0.116 C 
ENDROOT
BRANCH   1   2
ATOM      2  N   UNL     1      -0.709 -10.889  -2.085  1.00  0.00    -0.356 N 
ATOM      3  C   UNL     1      -1.711 -11.091  -2.991  1.00  0.00     0.221 C 
ATOM      4  O   UNL     1      -2.667 -11.795  -2.661  1.00  0.00    -0.275 OA
ATOM      5  H   UNL     1      -0.799 -11.419  -1.260  1.00  0.00     0.163 HD
BRANCH   3   6
ATOM      6  C   UNL     1      -1.647 -10.504  -4.382  1.00  0.00     0.122 C 
BRANCH   6   7
ATOM      7  C   UNL     1      -2.784  -9.511  -4.649  1.00  0.00     0.137 C 
BRANCH   7   8
ATOM      8  N   UNL     1      -2.485  -8.193  -4.105  1.00  0.00    -0.292 N 
ATOM      9  C   UNL     1      -2.016  -6.555  -1.033  1.00  0.00     0.029 C 
ATOM     10  C   UNL     1      -2.266  -6.646  -2.359  1.00  0.00     0.081 C 
ATOM     11  S   UNL     1      -1.477  -5.906  -3.701  1.00  0.00    -0.054 SA
ATOM     12  C   UNL     1      -3.041  -7.803  -2.887  1.00  0.00     0.266 C 
ATOM     13  C   UNL     1      -1.618  -7.308  -4.708  1.00  0.00     0.148 C 
ATOM     14  O   UNL     1      -3.945  -8.349  -2.277  1.00  0.00    -0.268 OA
ATOM     15  S   UNL     1      -0.753  -7.460  -6.125  1.00  0.00    -0.052 S 
BRANCH   9  16
ATOM     16  C   UNL     1      -0.880  -5.835  -0.413  1.00  0.00    -0.024 A 
ATOM     17  C   UNL     1       1.481  -3.424   0.999  1.00  0.00     0.120 A 
ATOM     18  C   UNL     1       0.975  -4.867   1.993  1.00  0.00     0.047 A 
ATOM     19  C   UNL     1       0.956  -3.315  -0.677  1.00  0.00     0.047 A 
ATOM     20  C   UNL     1      -0.285  -6.055   1.320  1.00  0.00     0.012 A 
ATOM     21  C   UNL     1      -0.258  -4.415  -1.335  1.00  0.00     0.012 A 
BRANCH  17  22
ATOM     22  O   UNL     1       1.830  -1.970   1.504  1.00  0.00    -0.484 OA
BRANCH  22  23
ATOM     23  C   UNL     1       1.234  -0.320   2.503  1.00  0.00     0.329 C 
BRANCH  23  24
ATOM     24  C   UNL     1      -0.212   0.655   2.426  1.00  0.00     0.255 C 
ATOM     25  N   UNL     1      -0.520   1.394   1.314  1.00  0.00    -0.367 N 
ATOM     26  H   UNL     1      -1.342   1.936   1.296  1.00  0.00     0.159 HD
ATOM     27  H   UNL     1       0.080   1.383   0.534  1.00  0.00     0.159 HD
ATOM     28  O   UNL     1      -0.995   0.705   3.376  1.00  0.00    -0.271 OA
ENDBRANCH  23  24
ENDBRANCH  22  23
ENDBRANCH  17  22
ENDBRANCH   9  16
ENDBRANCH   7   8
ENDBRANCH   6   7
ENDBRANCH   3   6
ENDBRANCH   1   2
BRANCH   1  29
ATOM     29  C   UNL     1       0.191  -8.662  -1.483  1.00  0.00     0.021 C 
BRANCH  29  30
ATOM     30  C   UNL     1       0.657  -8.425  -0.038  1.00  0.00     0.002 C 
BRANCH  30  31
ATOM     31  C   UNL     1       1.537  -7.147   0.241  1.00  0.00     0.002 C 
BRANCH  31  32
ATOM     32  C   UNL     1       1.109  -5.399   0.008  1.00  0.00     0.021 C 
BRANCH  32  33
ATOM     33  C   UNL     1      -0.539  -4.151   0.759  1.00  0.00     0.116 C 
BRANCH  33  34
ATOM     34  N   UNL     1      -1.113  -3.916   2.302  1.00  0.00    -0.352 N 
ATOM     35  C   UNL     1      -0.618  -3.107   3.294  1.00  0.00     0.251 C 
ATOM     36  H   UNL     1      -1.920  -4.429   2.536  1.00  0.00     0.163 HD
ATOM     37  O   UNL     1      -0.885  -3.205   4.479  1.00  0.00    -0.269 OA
BRANCH  35  38
ATOM     38  C   UNL     1       0.380  -2.189   2.797  1.00  0.00     0.039 A 
ATOM     39  C   UNL     1       2.085  -2.132   3.424  1.00  0.00     0.014 A 
ATOM     40  C   UNL     1      -0.023  -1.377   1.222  1.00  0.00     0.014 A 
ATOM     41  C   UNL     1       3.318  -1.185   2.505  1.00  0.00     0.010 A 
ATOM     42  C   UNL     1       1.257  -0.501   0.315  1.00  0.00     0.010 A 
ATOM     43  C   UNL     1       2.905  -0.368   0.955  1.00  0.00    -0.014 A 
BRANCH  43  44
ATOM     44  C   UNL     1       3.742   0.724   0.319  1.00  0.00     0.031 A 
ATOM     45  C   UNL     1       3.209   2.149   0.159  1.00  0.00     0.074 A 
ATOM     46  C   UNL     1       4.944   0.468  -0.215  1.00  0.00     0.049 A 
ATOM     47  N   UNL     1       3.442   3.058  -0.762  1.00  0.00    -0.248 NA
ATOM     48  C   UNL     1       2.227   2.603   1.139  1.00  0.00     0.031 C 
ATOM     49  C   UNL     1       5.645  -0.807  -0.163  1.00  0.00     0.029 A 
ATOM     50  N   UNL     1       5.779   1.293  -0.930  1.00  0.00    -0.354 N 
ATOM     51  C   UNL     1       2.507   4.080  -0.547  1.00  0.00     0.074 A 
ATOM     52  C   UNL     1       1.676   3.648   0.544  1.00  0.00     0.031 C 
ATOM     53  C   UNL     1       6.819  -0.680  -0.806  1.00  0.00     0.029 A 
ATOM     54  C   UNL     1       6.925   0.673  -1.357  1.00  0.00     0.049 A 
ATOM     55  H   UNL     1       5.574   2.237  -1.118  1.00  0.00     0.167 HD
ATOM     56  C   UNL     1       2.396   5.309  -1.114  1.00  0.00     0.037 A 
ATOM     57  C   UNL     1       7.932   1.145  -2.116  1.00  0.00     0.037 A 
ATOM     58  C   UNL     1       3.436   5.890  -1.920  1.00  0.00     0.049 A 
ATOM     59  C   UNL     1       7.886   2.563  -2.629  1.00  0.00     0.074 A 
ATOM     60  C   UNL     1       3.521   7.173  -2.433  1.00  0.00     0.029 A 
ATOM     61  N   UNL     1       4.626   5.253  -2.230  1.00  0.00    -0.354 N 
ATOM     62  N   UNL     1       6.931   3.457  -2.521  1.00  0.00    -0.248 NA
ATOM     63  C   UNL     1       9.069   3.040  -3.361  1.00  0.00     0.031 C 
ATOM     64  C   UNL     1       4.768   7.312  -3.052  1.00  0.00     0.029 A 
ATOM     65  C   UNL     1       5.466   6.125  -2.897  1.00  0.00     0.049 A 
ATOM     66  H   UNL     1       4.841   4.318  -2.009  1.00  0.00     0.167 HD
ATOM     67  C   UNL     1       7.411   4.607  -3.141  1.00  0.00     0.074 A 
ATOM     68  C   UNL     1       8.747   4.301  -3.609  1.00  0.00     0.031 C 
ATOM     69  C   UNL     1       6.804   5.807  -3.317  1.00  0.00     0.037 A 
BRANCH  56  70
ATOM     70  C   UNL     1       1.158   6.143  -0.849  1.00  0.00     0.057 A 
ATOM     71  C   UNL     1       0.820   6.657   0.411  1.00  0.00     0.134 A 
ATOM     72  C   UNL     1       0.301   6.476  -1.912  1.00  0.00     0.134 A 
ATOM     73  F   UNL     1       1.596   6.413   1.477  1.00  0.00    -0.206 F 
ATOM     74  C   UNL     1      -0.350   7.397   0.619  1.00  0.00     0.040 A 
ATOM     75  C   UNL     1      -0.843   7.260  -1.727  1.00  0.00     0.040 A 
ATOM     76  F   UNL     1       0.569   6.059  -3.159  1.00  0.00    -0.206 F 
ATOM     77  C   UNL     1      -1.182   7.707  -0.453  1.00  0.00     0.006 A 
ENDBRANCH  56  70
BRANCH  57  78
ATOM     78  C   UNL     1       9.103   0.275  -2.385  1.00  0.00     0.057 A 
ATOM     79  C   UNL     1      10.334   0.522  -1.764  1.00  0.00     0.134 A 
ATOM     80  C   UNL     1       9.017  -0.838  -3.228  1.00  0.00     0.134 A 
ATOM     81  F   UNL     1      10.480   1.584  -0.958  1.00  0.00    -0.206 F 
ATOM     82  C   UNL     1      11.440  -0.298  -1.981  1.00  0.00     0.040 A 
ATOM     83  C   UNL     1      10.108  -1.684  -3.432  1.00  0.00     0.040 A 
ATOM     84  F   UNL     1       7.862  -1.135  -3.841  1.00  0.00    -0.206 F 
ATOM     85  C   UNL     1      11.326  -1.412  -2.810  1.00  0.00     0.006 A 
ENDBRANCH  57  78
BRANCH  69  86
ATOM     86  C   UNL     1       7.593   6.894  -3.985  1.00  0.00     0.057 A 
ATOM     87  C   UNL     1       7.848   6.879  -5.361  1.00  0.00     0.134 A 
ATOM     88  C   UNL     1       8.052   7.995  -3.251  1.00  0.00     0.134 A 
ATOM     89  F   UNL     1       7.437   5.851  -6.118  1.00  0.00    -0.206 F 
ATOM     90  C   UNL     1       8.557   7.910  -5.980  1.00  0.00     0.040 A 
ATOM     91  C   UNL     1       8.739   9.044  -3.863  1.00  0.00     0.040 A 
ATOM     92  F   UNL     1       7.824   8.078  -1.931  1.00  0.00    -0.206 F 
ATOM     93  C   UNL     1       8.999   8.999  -5.231  1.00  0.00     0.006 A 
ENDBRANCH  69  86
ENDBRANCH  43  44
ENDBRANCH  35  38
ENDBRANCH  33  34
ENDBRANCH  32  33
ENDBRANCH  31  32
ENDBRANCH  30  31
ENDBRANCH  29  30
ENDBRANCH   1  29
TORSDOF 19
