REMARK SMILES Cc1cc2c(=O)cc(-c3ccc(F)cc3)oc2c(C(=O)NCCCCCCNC(=O)c2ccc(-c3c4nc(c(-c5c(F)cccc5F)c5ccc([nH]5)c(-c5c(F)cccc5F)c5nc(c(-c6c(F)cccc6F)c6ccc3[nH]6)C=C5)C=C4)cc2)c1C
REMARK SMILES IDX 25 1 24 2 23 3 22 4 21 5 19 6 20 7 18 9 1 10 2 11 3 12 85 13
REMARK SMILES IDX 4 14 86 15 5 16 17 17 6 18 7 19 16 20 8 21 9 22 10 23 15 24
REMARK SMILES IDX 11 25 14 26 12 27 13 28 26 29 27 30 28 31 29 32 30 34 31 35
REMARK SMILES IDX 32 36 84 37 33 38 83 39 34 40 35 41 36 42 77 43 37 44 82 45
REMARK SMILES IDX 76 46 78 47 38 48 81 49 75 50 74 51 39 53 65 54 48 55 64 56
REMARK SMILES IDX 49 57 52 58 63 59 79 60 50 61 51 62 62 64 80 65 53 66 40 67
REMARK SMILES IDX 41 68 46 69 42 70 43 71 45 72 47 73 44 74 66 75 67 76 72 77
REMARK SMILES IDX 68 78 69 79 71 80 73 81 70 82 54 83 55 84 60 85 56 86 57 87
REMARK SMILES IDX 59 88 61 89 58 90
REMARK H PARENT 21 8 28 33 78 52 52 63
REMARK Flexibility Score: inf
ROOT
ATOM      1  C   UNL     1      -1.072   6.114   3.487  1.00  0.00     0.002 C 
ENDROOT
BRANCH   1   2
ATOM      2  C   UNL     1      -2.299   5.208   3.643  1.00  0.00     0.002 C 
BRANCH   2   3
ATOM      3  C   UNL     1      -2.368   3.897   2.848  1.00  0.00     0.021 C 
BRANCH   3   4
ATOM      4  C   UNL     1      -1.166   2.955   2.874  1.00  0.00     0.116 C 
BRANCH   4   5
ATOM      5  N   UNL     1      -0.930   2.224   4.101  1.00  0.00    -0.352 N 
ATOM      6  C   UNL     1      -0.295   1.020   4.357  1.00  0.00     0.255 C 
ATOM      7  O   UNL     1      -0.037   0.799   5.543  1.00  0.00    -0.269 OA
ATOM      8  H   UNL     1      -1.288   2.666   4.904  1.00  0.00     0.163 HD
BRANCH   6   9
ATOM      9  C   UNL     1       0.050  -0.036   3.328  1.00  0.00     0.086 A 
ATOM     10  C   UNL     1       1.244  -0.622  -0.307  1.00  0.00     0.044 C 
ATOM     11  C   UNL     1       0.800  -0.846   1.117  1.00  0.00    -0.046 A 
ATOM     12  C   UNL     1       0.634  -2.164   1.538  1.00  0.00     0.019 A 
ATOM     13  C   UNL     1       0.623   0.219   2.046  1.00  0.00    -0.032 A 
ATOM     14  C   UNL     1       0.238  -2.431   2.843  1.00  0.00     0.066 A 
ATOM     15  C   UNL     1       1.177   1.558   1.632  1.00  0.00     0.045 C 
ATOM     16  C   UNL     1       0.223  -3.832   3.290  1.00  0.00     0.193 A 
ATOM     17  C   UNL     1      -0.099  -1.398   3.726  1.00  0.00     0.151 A 
ATOM     18  O   UNL     1       0.518  -4.765   2.554  1.00  0.00    -0.289 OA
ATOM     19  C   UNL     1      -0.125  -4.067   4.688  1.00  0.00     0.100 A 
ATOM     20  O   UNL     1      -0.561  -1.708   4.997  1.00  0.00    -0.455 OA
ATOM     21  C   UNL     1      -0.478  -3.021   5.444  1.00  0.00     0.138 A 
BRANCH  21  22
ATOM     22  C   UNL     1      -0.873  -3.259   6.844  1.00  0.00     0.018 A 
ATOM     23  C   UNL     1      -2.127  -2.832   7.304  1.00  0.00     0.015 A 
ATOM     24  C   UNL     1      -0.037  -3.978   7.718  1.00  0.00     0.015 A 
ATOM     25  C   UNL     1      -2.547  -3.144   8.600  1.00  0.00     0.040 A 
ATOM     26  C   UNL     1      -0.457  -4.287   9.013  1.00  0.00     0.040 A 
ATOM     27  C   UNL     1      -1.712  -3.873   9.440  1.00  0.00     0.123 A 
ATOM     28  F   UNL     1      -2.125  -4.185  10.675  1.00  0.00    -0.207 F 
ENDBRANCH  21  22
ENDBRANCH   6   9
ENDBRANCH   4   5
ENDBRANCH   3   4
ENDBRANCH   2   3
ENDBRANCH   1   2
BRANCH   1  29
ATOM     29  C   UNL     1      -0.586   6.434   2.073  1.00  0.00     0.021 C 
BRANCH  29  30
ATOM     30  C   UNL     1      -1.612   6.999   1.097  1.00  0.00     0.116 C 
BRANCH  30  31
ATOM     31  N   UNL     1      -2.180   8.271   1.508  1.00  0.00    -0.352 N 
ATOM     32  C   UNL     1      -2.273   9.466   0.824  1.00  0.00     0.251 C 
ATOM     33  H   UNL     1      -2.557   8.283   2.417  1.00  0.00     0.163 HD
ATOM     34  O   UNL     1      -2.713  10.459   1.381  1.00  0.00    -0.269 OA
BRANCH  32  35
ATOM     35  C   UNL     1      -1.798   9.560  -0.578  1.00  0.00     0.039 A 
ATOM     36  C   UNL     1      -2.119   8.582  -1.519  1.00  0.00     0.014 A 
ATOM     37  C   UNL     1      -1.006  10.652  -0.951  1.00  0.00     0.014 A 
ATOM     38  C   UNL     1      -1.505   8.597  -2.769  1.00  0.00     0.010 A 
ATOM     39  C   UNL     1      -0.457  10.709  -2.236  1.00  0.00     0.010 A 
ATOM     40  C   UNL     1      -0.655   9.653  -3.138  1.00  0.00    -0.014 A 
BRANCH  40  41
ATOM     41  C   UNL     1       0.035   9.614  -4.455  1.00  0.00     0.031 A 
ATOM     42  C   UNL     1       1.535   9.499  -4.533  1.00  0.00     0.074 A 
ATOM     43  C   UNL     1      -0.695   9.621  -5.588  1.00  0.00     0.049 A 
ATOM     44  N   UNL     1       2.306   9.426  -5.590  1.00  0.00    -0.248 NA
ATOM     45  C   UNL     1       2.268   9.464  -3.258  1.00  0.00     0.031 C 
ATOM     46  C   UNL     1      -2.155   9.718  -5.649  1.00  0.00     0.029 A 
ATOM     47  N   UNL     1      -0.312   9.524  -6.901  1.00  0.00    -0.354 N 
ATOM     48  C   UNL     1       3.608   9.353  -5.110  1.00  0.00     0.074 A 
ATOM     49  C   UNL     1       3.528   9.423  -3.667  1.00  0.00     0.031 C 
ATOM     50  C   UNL     1      -2.547   9.627  -6.929  1.00  0.00     0.029 A 
ATOM     51  C   UNL     1      -1.367   9.526  -7.781  1.00  0.00     0.049 A 
ATOM     52  H   UNL     1       0.628   9.459  -7.186  1.00  0.00     0.167 HD
ATOM     53  C   UNL     1       4.766   9.225  -5.805  1.00  0.00     0.037 A 
ATOM     54  C   UNL     1      -1.383   9.467  -9.126  1.00  0.00     0.037 A 
ATOM     55  C   UNL     1       4.848   9.142  -7.240  1.00  0.00     0.049 A 
ATOM     56  C   UNL     1      -0.083   9.382  -9.872  1.00  0.00     0.074 A 
ATOM     57  C   UNL     1       5.971   8.991  -8.035  1.00  0.00     0.029 A 
ATOM     58  N   UNL     1       3.760   9.207  -8.098  1.00  0.00    -0.354 N 
ATOM     59  N   UNL     1       1.138   9.297  -9.402  1.00  0.00    -0.248 NA
ATOM     60  C   UNL     1      -0.164   9.395 -11.339  1.00  0.00     0.031 C 
ATOM     61  C   UNL     1       5.567   9.006  -9.375  1.00  0.00     0.029 A 
ATOM     62  C   UNL     1       4.187   9.122  -9.414  1.00  0.00     0.049 A 
ATOM     63  H   UNL     1       2.822   9.300  -7.814  1.00  0.00     0.167 HD
ATOM     64  C   UNL     1       1.968   9.232 -10.513  1.00  0.00     0.074 A 
ATOM     65  C   UNL     1       1.110   9.262 -11.679  1.00  0.00     0.031 C 
ATOM     66  C   UNL     1       3.321   9.158 -10.563  1.00  0.00     0.037 A 
BRANCH  53  67
ATOM     67  C   UNL     1       6.044   9.185  -5.016  1.00  0.00     0.057 A 
ATOM     68  C   UNL     1       6.939  10.262  -5.051  1.00  0.00     0.134 A 
ATOM     69  C   UNL     1       6.403   8.073  -4.242  1.00  0.00     0.134 A 
ATOM     70  F   UNL     1       6.661  11.355  -5.777  1.00  0.00    -0.206 F 
ATOM     71  C   UNL     1       8.142  10.236  -4.344  1.00  0.00     0.040 A 
ATOM     72  C   UNL     1       7.592   8.046  -3.511  1.00  0.00     0.040 A 
ATOM     73  F   UNL     1       5.585   7.013  -4.154  1.00  0.00    -0.206 F 
ATOM     74  C   UNL     1       8.469   9.128  -3.565  1.00  0.00     0.006 A 
ENDBRANCH  53  67
BRANCH  54  75
ATOM     75  C   UNL     1      -2.674   9.503  -9.857  1.00  0.00     0.057 A 
ATOM     76  C   UNL     1      -3.462  10.659  -9.889  1.00  0.00     0.134 A 
ATOM     77  C   UNL     1      -3.139   8.384 -10.558  1.00  0.00     0.134 A 
ATOM     78  F   UNL     1      -3.072  11.763  -9.235  1.00  0.00    -0.206 F 
ATOM     79  C   UNL     1      -4.671  10.701 -10.583  1.00  0.00     0.040 A 
ATOM     80  C   UNL     1      -4.334   8.420 -11.279  1.00  0.00     0.040 A 
ATOM     81  F   UNL     1      -2.418   7.254 -10.582  1.00  0.00    -0.206 F 
ATOM     82  C   UNL     1      -5.106   9.580 -11.288  1.00  0.00     0.006 A 
ENDBRANCH  54  75
BRANCH  66  83
ATOM     83  C   UNL     1       3.944   9.083 -11.926  1.00  0.00     0.057 A 
ATOM     84  C   UNL     1       4.512   7.889 -12.387  1.00  0.00     0.134 A 
ATOM     85  C   UNL     1       3.986  10.193 -12.780  1.00  0.00     0.134 A 
ATOM     86  F   UNL     1       4.510   6.791 -11.616  1.00  0.00    -0.206 F 
ATOM     87  C   UNL     1       5.097   7.800 -13.651  1.00  0.00     0.040 A 
ATOM     88  C   UNL     1       4.545  10.109 -14.056  1.00  0.00     0.040 A 
ATOM     89  F   UNL     1       3.443  11.361 -12.404  1.00  0.00    -0.206 F 
ATOM     90  C   UNL     1       5.106   8.911 -14.493  1.00  0.00     0.006 A 
ENDBRANCH  66  83
ENDBRANCH  40  41
ENDBRANCH  32  35
ENDBRANCH  30  31
ENDBRANCH  29  30
ENDBRANCH   1  29
TORSDOF 14
