REMARK SMILES CCCCCNC(=O)Oc1cccc(-c2ccc([C@@H](C)C(=O)NCCCCCCNC(=O)c3ccc(-c4c5nc(c(-c6c(F)cccc6F)c6ccc([nH]6)c(-c6c(F)cccc6F)c6nc(c(-c7c(F)cccc7F)c7ccc4[nH]7)C=C6)C=C5)cc3)cc2F)c1
REMARK SMILES IDX 21 1 22 2 23 3 19 5 20 6 18 7 15 8 16 9 88 10 17 11 87 12
REMARK SMILES IDX 89 13 14 14 10 15 11 16 90 17 12 18 13 19 9 20 7 21 6 22
REMARK SMILES IDX 8 24 5 25 4 26 3 27 2 28 1 29 24 30 25 31 26 32 27 33 28 34
REMARK SMILES IDX 29 35 30 36 31 37 32 39 33 40 34 41 86 42 35 43 85 44 36 45
REMARK SMILES IDX 37 46 38 47 79 48 39 49 84 50 78 51 80 52 40 53 83 54 77 55
REMARK SMILES IDX 76 56 41 58 67 59 50 60 66 61 51 62 54 63 65 64 81 65 52 66
REMARK SMILES IDX 53 67 64 69 82 70 55 71 42 72 43 73 48 74 44 75 45 76 47 77
REMARK SMILES IDX 49 78 46 79 68 80 69 81 74 82 70 83 71 84 73 85 75 86 72 87
REMARK SMILES IDX 56 88 57 89 62 90 58 91 59 92 61 93 63 94 60 95
REMARK H PARENT 23 4 6 23 30 38 80 57 54 68
REMARK Flexibility Score: inf
ROOT
ATOM      1  C   UNL     1      -2.380  -8.314 -10.771  1.00  0.00     0.227 C 
ATOM      2  O   UNL     1      -1.302  -7.855 -11.168  1.00  0.00    -0.274 OA
ATOM      3  N   UNL     1      -3.506  -7.750 -11.288  1.00  0.00    -0.356 N 
ATOM      4  H   UNL     1      -3.337  -7.079 -11.987  1.00  0.00     0.163 HD
ENDROOT
BRANCH   1   5
ATOM      5  C   UNL     1      -2.394  -9.468  -9.756  1.00  0.00     0.105 C 
ATOM      6  C   UNL     1      -3.065 -10.740 -10.274  1.00  0.00     0.023 C 
BRANCH   5   7
ATOM      7  C   UNL     1      -2.774  -9.031  -8.350  1.00  0.00    -0.033 A 
ATOM      8  C   UNL     1      -3.418  -7.964  -5.775  1.00  0.00     0.018 A 
ATOM      9  C   UNL     1      -4.406  -8.490  -6.622  1.00  0.00     0.012 A 
ATOM     10  C   UNL     1      -2.094  -8.049  -6.228  1.00  0.00     0.131 A 
ATOM     11  C   UNL     1      -4.087  -9.041  -7.870  1.00  0.00     0.005 A 
ATOM     12  C   UNL     1      -1.775  -8.550  -7.493  1.00  0.00     0.044 A 
ATOM     13  F   UNL     1      -1.079  -7.635  -5.453  1.00  0.00    -0.206 F 
BRANCH   8  14
ATOM     14  C   UNL     1      -3.785  -7.308  -4.501  1.00  0.00    -0.012 A 
ATOM     15  C   UNL     1      -3.513  -5.493  -2.900  1.00  0.00     0.133 A 
ATOM     16  C   UNL     1      -4.552  -5.981  -2.116  1.00  0.00     0.047 A 
ATOM     17  C   UNL     1      -3.121  -6.147  -4.069  1.00  0.00     0.056 A 
ATOM     18  C   UNL     1      -5.221  -7.132  -2.520  1.00  0.00     0.004 A 
ATOM     19  C   UNL     1      -4.837  -7.789  -3.695  1.00  0.00     0.009 A 
BRANCH  15  20
ATOM     20  O   UNL     1      -2.797  -4.392  -2.407  1.00  0.00    -0.410 OA
BRANCH  20  21
ATOM     21  C   UNL     1      -2.591  -3.316  -3.257  1.00  0.00     0.412 C 
ATOM     22  N   UNL     1      -1.754  -2.372  -2.728  1.00  0.00    -0.321 N 
ATOM     23  H   UNL     1      -1.575  -1.578  -3.283  1.00  0.00     0.167 HD
ATOM     24  O   UNL     1      -3.086  -3.167  -4.368  1.00  0.00    -0.224 OA
BRANCH  22  25
ATOM     25  C   UNL     1      -1.103  -2.421  -1.435  1.00  0.00     0.119 C 
BRANCH  25  26
ATOM     26  C   UNL     1       0.420  -2.375  -1.555  1.00  0.00     0.021 C 
BRANCH  26  27
ATOM     27  C   UNL     1       0.985  -1.080  -2.151  1.00  0.00     0.002 C 
BRANCH  27  28
ATOM     28  C   UNL     1       0.577   0.211  -1.438  1.00  0.00    -0.003 C 
ATOM     29  C   UNL     1       0.988   0.255   0.026  1.00  0.00     0.004 C 
ENDBRANCH  27  28
ENDBRANCH  26  27
ENDBRANCH  25  26
ENDBRANCH  22  25
ENDBRANCH  20  21
ENDBRANCH  15  20
ENDBRANCH   8  14
ENDBRANCH   5   7
ENDBRANCH   1   5
BRANCH   3  30
ATOM     30  C   UNL     1      -4.906  -7.961 -10.994  1.00  0.00     0.116 C 
BRANCH  30  31
ATOM     31  C   UNL     1      -5.481  -6.836 -10.131  1.00  0.00     0.021 C 
BRANCH  31  32
ATOM     32  C   UNL     1      -6.023  -5.652 -10.940  1.00  0.00     0.002 C 
BRANCH  32  33
ATOM     33  C   UNL     1      -7.197  -5.984 -11.871  1.00  0.00     0.002 C 
BRANCH  33  34
ATOM     34  C   UNL     1      -8.397  -6.660 -11.201  1.00  0.00     0.021 C 
BRANCH  34  35
ATOM     35  C   UNL     1      -9.050  -5.842 -10.090  1.00  0.00     0.116 C 
BRANCH  35  36
ATOM     36  N   UNL     1      -9.599  -4.593 -10.592  1.00  0.00    -0.352 N 
ATOM     37  C   UNL     1     -10.883  -4.116 -10.540  1.00  0.00     0.251 C 
ATOM     38  H   UNL     1      -8.951  -4.000 -11.037  1.00  0.00     0.163 HD
ATOM     39  O   UNL     1     -11.207  -3.149 -11.224  1.00  0.00    -0.269 OA
BRANCH  37  40
ATOM     40  C   UNL     1     -11.884  -4.761  -9.664  1.00  0.00     0.039 A 
ATOM     41  C   UNL     1     -13.190  -4.923 -10.136  1.00  0.00     0.014 A 
ATOM     42  C   UNL     1     -11.555  -5.156  -8.364  1.00  0.00     0.014 A 
ATOM     43  C   UNL     1     -14.155  -5.512  -9.318  1.00  0.00     0.010 A 
ATOM     44  C   UNL     1     -12.499  -5.808  -7.576  1.00  0.00     0.010 A 
ATOM     45  C   UNL     1     -13.813  -5.974  -8.037  1.00  0.00    -0.014 A 
BRANCH  45  46
ATOM     46  C   UNL     1     -14.828  -6.598  -7.152  1.00  0.00     0.031 A 
ATOM     47  C   UNL     1     -15.223  -5.924  -5.867  1.00  0.00     0.074 A 
ATOM     48  C   UNL     1     -15.356  -7.792  -7.479  1.00  0.00     0.049 A 
ATOM     49  N   UNL     1     -16.049  -6.333  -4.938  1.00  0.00    -0.248 NA
ATOM     50  C   UNL     1     -14.579  -4.634  -5.573  1.00  0.00     0.031 C 
ATOM     51  C   UNL     1     -15.015  -8.570  -8.671  1.00  0.00     0.029 A 
ATOM     52  N   UNL     1     -16.285  -8.565  -6.829  1.00  0.00    -0.354 N 
ATOM     53  C   UNL     1     -16.016  -5.358  -3.949  1.00  0.00     0.074 A 
ATOM     54  C   UNL     1     -15.041  -4.371  -4.361  1.00  0.00     0.031 C 
ATOM     55  C   UNL     1     -15.736  -9.703  -8.675  1.00  0.00     0.029 A 
ATOM     56  C   UNL     1     -16.567  -9.744  -7.475  1.00  0.00     0.049 A 
ATOM     57  H   UNL     1     -16.708  -8.300  -5.981  1.00  0.00     0.167 HD
ATOM     58  C   UNL     1     -16.751  -5.275  -2.814  1.00  0.00     0.037 A 
ATOM     59  C   UNL     1     -17.399 -10.745  -7.136  1.00  0.00     0.037 A 
ATOM     60  C   UNL     1     -17.733  -6.249  -2.415  1.00  0.00     0.049 A 
ATOM     61  C   UNL     1     -18.216 -10.628  -5.880  1.00  0.00     0.074 A 
ATOM     62  C   UNL     1     -18.561  -6.239  -1.306  1.00  0.00     0.029 A 
ATOM     63  N   UNL     1     -18.018  -7.412  -3.116  1.00  0.00    -0.354 N 
ATOM     64  N   UNL     1     -18.220  -9.671  -4.983  1.00  0.00    -0.248 NA
ATOM     65  C   UNL     1     -19.155 -11.722  -5.596  1.00  0.00     0.031 C 
ATOM     66  C   UNL     1     -19.321  -7.413  -1.317  1.00  0.00     0.029 A 
ATOM     67  C   UNL     1     -19.000  -8.133  -2.457  1.00  0.00     0.049 A 
ATOM     68  H   UNL     1     -17.585  -7.685  -3.957  1.00  0.00     0.167 HD
ATOM     69  C   UNL     1     -19.176 -10.033  -4.043  1.00  0.00     0.074 A 
ATOM     70  C   UNL     1     -19.742 -11.291  -4.488  1.00  0.00     0.031 C 
ATOM     71  C   UNL     1     -19.553  -9.383  -2.915  1.00  0.00     0.037 A 
BRANCH  58  72
ATOM     72  C   UNL     1     -16.517  -4.082  -1.931  1.00  0.00     0.057 A 
ATOM     73  C   UNL     1     -16.891  -2.789  -2.324  1.00  0.00     0.134 A 
ATOM     74  C   UNL     1     -15.913  -4.223  -0.676  1.00  0.00     0.134 A 
ATOM     75  F   UNL     1     -17.463  -2.580  -3.521  1.00  0.00    -0.206 F 
ATOM     76  C   UNL     1     -16.639  -1.677  -1.519  1.00  0.00     0.040 A 
ATOM     77  C   UNL     1     -15.683  -3.122   0.152  1.00  0.00     0.040 A 
ATOM     78  F   UNL     1     -15.535  -5.432  -0.233  1.00  0.00    -0.206 F 
ATOM     79  C   UNL     1     -16.037  -1.843  -0.274  1.00  0.00     0.006 A 
ENDBRANCH  58  72
BRANCH  59  80
ATOM     80  C   UNL     1     -17.521 -11.931  -8.020  1.00  0.00     0.057 A 
ATOM     81  C   UNL     1     -18.671 -12.146  -8.788  1.00  0.00     0.134 A 
ATOM     82  C   UNL     1     -16.485 -12.866  -8.132  1.00  0.00     0.134 A 
ATOM     83  F   UNL     1     -19.703 -11.293  -8.711  1.00  0.00    -0.206 F 
ATOM     84  C   UNL     1     -18.793 -13.255  -9.626  1.00  0.00     0.040 A 
ATOM     85  C   UNL     1     -16.584 -13.967  -8.984  1.00  0.00     0.040 A 
ATOM     86  F   UNL     1     -15.353 -12.709  -7.430  1.00  0.00    -0.206 F 
ATOM     87  C   UNL     1     -17.744 -14.167  -9.730  1.00  0.00     0.006 A 
ENDBRANCH  59  80
BRANCH  71  88
ATOM     88  C   UNL     1     -20.650 -10.004  -2.100  1.00  0.00     0.057 A 
ATOM     89  C   UNL     1     -20.442 -11.161  -1.339  1.00  0.00     0.134 A 
ATOM     90  C   UNL     1     -21.920  -9.416  -2.052  1.00  0.00     0.134 A 
ATOM     91  F   UNL     1     -19.252 -11.780  -1.353  1.00  0.00    -0.206 F 
ATOM     92  C   UNL     1     -21.467 -11.726  -0.578  1.00  0.00     0.040 A 
ATOM     93  C   UNL     1     -22.945  -9.957  -1.274  1.00  0.00     0.040 A 
ATOM     94  F   UNL     1     -22.183  -8.302  -2.751  1.00  0.00    -0.206 F 
ATOM     95  C   UNL     1     -22.721 -11.119  -0.539  1.00  0.00     0.006 A 
ENDBRANCH  71  88
ENDBRANCH  45  46
ENDBRANCH  37  40
ENDBRANCH  35  36
ENDBRANCH  34  35
ENDBRANCH  33  34
ENDBRANCH  32  33
ENDBRANCH  31  32
ENDBRANCH  30  31
ENDBRANCH   3  30
TORSDOF 21
