REMARK SMILES CS(=O)(=O)c1ccc(C2=NN(c3ccc(C(=O)NCCCCCCNC(=O)c4ccc(-c5c6nc(c(-c7c(F)cccc7F)c7ccc([nH]7)c(-c7c(F)cccc7F)c7nc(c(-c8c(F)cccc8F)c8ccc5[nH]8)C=C7)C=C6)cc4)cc3)[C@H](c3cccs3)C2)cc1
REMARK SMILES IDX 21 1 20 2 19 3 18 4 16 5 17 6 15 8 12 9 13 10 83 11 14 12
REMARK SMILES IDX 82 13 11 14 9 15 10 16 90 17 84 18 8 19 5 20 6 21 92 22 7 23
REMARK SMILES IDX 91 24 2 25 1 26 3 27 4 28 85 29 86 30 89 31 87 32 88 33
REMARK SMILES IDX 22 34 23 35 24 36 25 37 26 38 27 40 28 41 29 42 81 43 30 44
REMARK SMILES IDX 80 45 31 46 32 47 33 48 74 49 34 50 79 51 73 52 75 53 35 54
REMARK SMILES IDX 78 55 72 56 71 57 36 59 62 60 45 61 61 62 46 63 49 64 60 65
REMARK SMILES IDX 76 66 47 67 48 68 59 70 77 71 50 72 37 73 38 74 43 75 39 76
REMARK SMILES IDX 40 77 42 78 44 79 41 80 63 81 64 82 69 83 65 84 66 85 68 86
REMARK SMILES IDX 70 87 67 88 51 89 52 90 57 91 53 92 54 93 56 94 58 95 55 96
REMARK H PARENT 18 7 25 39 75 58 49 69
REMARK Flexibility Score: inf
ROOT
ATOM      1  C   UNL     1       6.104 -12.913   8.352  1.00  0.00     0.002 C 
ENDROOT
BRANCH   1   2
ATOM      2  C   UNL     1       5.207 -11.691   8.116  1.00  0.00     0.021 C 
BRANCH   2   3
ATOM      3  C   UNL     1       5.487 -10.531   9.074  1.00  0.00     0.116 C 
BRANCH   3   4
ATOM      4  N   UNL     1       6.698  -9.832   8.685  1.00  0.00    -0.352 N 
ATOM      5  C   UNL     1       6.894  -8.614   8.084  1.00  0.00     0.251 C 
ATOM      6  O   UNL     1       8.050  -8.225   7.922  1.00  0.00    -0.269 OA
ATOM      7  H   UNL     1       7.528 -10.319   8.890  1.00  0.00     0.163 HD
BRANCH   5   8
ATOM      8  C   UNL     1       5.767  -7.732   7.683  1.00  0.00     0.039 A 
ATOM      9  C   UNL     1       3.690  -5.940   7.032  1.00  0.00     0.060 A 
ATOM     10  C   UNL     1       4.927  -5.461   7.471  1.00  0.00     0.029 A 
ATOM     11  C   UNL     1       3.525  -7.318   6.868  1.00  0.00     0.029 A 
ATOM     12  C   UNL     1       5.956  -6.349   7.801  1.00  0.00     0.016 A 
ATOM     13  C   UNL     1       4.562  -8.207   7.162  1.00  0.00     0.016 A 
BRANCH   9  14
ATOM     14  N   UNL     1       2.632  -5.087   6.763  1.00  0.00    -0.257 N 
ATOM     15  C   UNL     1       1.793  -3.360   5.870  1.00  0.00     0.071 C 
ATOM     16  N   UNL     1       2.660  -4.301   5.664  1.00  0.00    -0.176 NA
ATOM     17  C   UNL     1       1.138  -3.344   7.224  1.00  0.00     0.091 C 
ATOM     18  C   UNL     1       1.712  -4.641   7.813  1.00  0.00     0.154 C 
BRANCH  15  19
ATOM     19  C   UNL     1       1.448  -2.380   4.835  1.00  0.00    -0.002 A 
ATOM     20  C   UNL     1       0.783  -0.603   2.809  1.00  0.00     0.067 A 
ATOM     21  C   UNL     1       0.772  -1.975   2.549  1.00  0.00     0.021 A 
ATOM     22  C   UNL     1       1.128  -0.115   4.077  1.00  0.00     0.021 A 
ATOM     23  C   UNL     1       1.123  -2.864   3.563  1.00  0.00     0.011 A 
ATOM     24  C   UNL     1       1.450  -1.010   5.101  1.00  0.00     0.011 A 
BRANCH  20  25
ATOM     25  S   UNL     1       0.348   0.547   1.524  1.00  0.00     0.175 S 
ATOM     26  C   UNL     1       1.188  -0.022   0.069  1.00  0.00     0.163 C 
ATOM     27  O   UNL     1       0.927   1.827   1.879  1.00  0.00    -0.224 OA
ATOM     28  O   UNL     1      -1.081   0.401   1.312  1.00  0.00    -0.224 OA
ENDBRANCH  20  25
ENDBRANCH  15  19
BRANCH  18  29
ATOM     29  C   UNL     1       0.703  -5.695   8.234  1.00  0.00     0.030 A 
ATOM     30  C   UNL     1       0.876  -6.640   9.233  1.00  0.00     0.017 A 
ATOM     31  S   UNL     1      -0.788  -5.940   7.421  1.00  0.00    -0.147 S 
ATOM     32  C   UNL     1      -0.219  -7.543   9.339  1.00  0.00     0.012 A 
ATOM     33  C   UNL     1      -1.206  -7.258   8.424  1.00  0.00     0.065 A 
ENDBRANCH  18  29
ENDBRANCH   9  14
ENDBRANCH   5   8
ENDBRANCH   3   4
ENDBRANCH   2   3
ENDBRANCH   1   2
BRANCH   1  34
ATOM     34  C   UNL     1       5.907 -13.608   9.704  1.00  0.00     0.002 C 
BRANCH  34  35
ATOM     35  C   UNL     1       4.473 -14.053  10.006  1.00  0.00     0.021 C 
BRANCH  35  36
ATOM     36  C   UNL     1       3.891 -15.046   9.004  1.00  0.00     0.116 C 
BRANCH  36  37
ATOM     37  N   UNL     1       4.593 -16.320   9.032  1.00  0.00    -0.352 N 
ATOM     38  C   UNL     1       4.091 -17.585   9.204  1.00  0.00     0.251 C 
ATOM     39  H   UNL     1       5.568 -16.266   8.909  1.00  0.00     0.163 HD
ATOM     40  O   UNL     1       4.850 -18.528   9.405  1.00  0.00    -0.269 OA
BRANCH  38  41
ATOM     41  C   UNL     1       2.631 -17.814   9.162  1.00  0.00     0.039 A 
ATOM     42  C   UNL     1       2.048 -18.634  10.131  1.00  0.00     0.014 A 
ATOM     43  C   UNL     1       1.845 -17.246   8.155  1.00  0.00     0.014 A 
ATOM     44  C   UNL     1       0.667 -18.842  10.124  1.00  0.00     0.010 A 
ATOM     45  C   UNL     1       0.462 -17.406   8.184  1.00  0.00     0.010 A 
ATOM     46  C   UNL     1      -0.140 -18.208   9.165  1.00  0.00    -0.014 A 
BRANCH  46  47
ATOM     47  C   UNL     1      -1.614 -18.378   9.169  1.00  0.00     0.031 A 
ATOM     48  C   UNL     1      -2.294 -19.087   8.031  1.00  0.00     0.074 A 
ATOM     49  C   UNL     1      -2.345 -17.840  10.164  1.00  0.00     0.049 A 
ATOM     50  N   UNL     1      -3.573 -19.261   7.812  1.00  0.00    -0.248 NA
ATOM     51  C   UNL     1      -1.423 -19.655   6.991  1.00  0.00     0.031 C 
ATOM     52  C   UNL     1      -1.806 -17.091  11.300  1.00  0.00     0.029 A 
ATOM     53  N   UNL     1      -3.701 -17.827  10.370  1.00  0.00    -0.354 N 
ATOM     54  C   UNL     1      -3.659 -19.945   6.606  1.00  0.00     0.074 A 
ATOM     55  C   UNL     1      -2.308 -20.113   6.117  1.00  0.00     0.031 C 
ATOM     56  C   UNL     1      -2.821 -16.701  12.089  1.00  0.00     0.029 A 
ATOM     57  C   UNL     1      -4.080 -17.144  11.499  1.00  0.00     0.049 A 
ATOM     58  H   UNL     1      -4.342 -18.266   9.765  1.00  0.00     0.167 HD
ATOM     59  C   UNL     1      -4.763 -20.412   5.975  1.00  0.00     0.037 A 
ATOM     60  C   UNL     1      -5.306 -16.895  11.998  1.00  0.00     0.037 A 
ATOM     61  C   UNL     1      -6.105 -20.264   6.473  1.00  0.00     0.049 A 
ATOM     62  C   UNL     1      -6.514 -17.430  11.282  1.00  0.00     0.074 A 
ATOM     63  C   UNL     1      -7.286 -20.737   5.926  1.00  0.00     0.029 A 
ATOM     64  N   UNL     1      -6.444 -19.597   7.639  1.00  0.00    -0.354 N 
ATOM     65  N   UNL     1      -6.577 -18.117  10.168  1.00  0.00    -0.248 NA
ATOM     66  C   UNL     1      -7.822 -17.160  11.897  1.00  0.00     0.031 C 
ATOM     67  C   UNL     1      -8.343 -20.330   6.747  1.00  0.00     0.029 A 
ATOM     68  C   UNL     1      -7.816 -19.637   7.824  1.00  0.00     0.049 A 
ATOM     69  H   UNL     1      -5.805 -19.159   8.246  1.00  0.00     0.167 HD
ATOM     70  C   UNL     1      -7.924 -18.383   9.961  1.00  0.00     0.074 A 
ATOM     71  C   UNL     1      -8.643 -17.796  11.072  1.00  0.00     0.031 C 
ATOM     72  C   UNL     1      -8.514 -19.053   8.941  1.00  0.00     0.037 A 
BRANCH  59  73
ATOM     73  C   UNL     1      -4.561 -21.137   4.678  1.00  0.00     0.057 A 
ATOM     74  C   UNL     1      -4.004 -22.422   4.635  1.00  0.00     0.134 A 
ATOM     75  C   UNL     1      -4.959 -20.564   3.464  1.00  0.00     0.134 A 
ATOM     76  F   UNL     1      -3.591 -23.021   5.762  1.00  0.00    -0.206 F 
ATOM     77  C   UNL     1      -3.829 -23.102   3.429  1.00  0.00     0.040 A 
ATOM     78  C   UNL     1      -4.812 -21.244   2.253  1.00  0.00     0.040 A 
ATOM     79  F   UNL     1      -5.505 -19.339   3.435  1.00  0.00    -0.206 F 
ATOM     80  C   UNL     1      -4.241 -22.515   2.233  1.00  0.00     0.006 A 
ENDBRANCH  59  73
BRANCH  60  81
ATOM     81  C   UNL     1      -5.452 -16.114  13.251  1.00  0.00     0.057 A 
ATOM     82  C   UNL     1      -5.854 -16.729  14.442  1.00  0.00     0.134 A 
ATOM     83  C   UNL     1      -5.203 -14.737  13.286  1.00  0.00     0.134 A 
ATOM     84  F   UNL     1      -6.125 -18.042  14.465  1.00  0.00    -0.206 F 
ATOM     85  C   UNL     1      -6.024 -16.000  15.620  1.00  0.00     0.040 A 
ATOM     86  C   UNL     1      -5.346 -14.000  14.463  1.00  0.00     0.040 A 
ATOM     87  F   UNL     1      -4.806 -14.092  12.180  1.00  0.00    -0.206 F 
ATOM     88  C   UNL     1      -5.765 -14.630  15.632  1.00  0.00     0.006 A 
ENDBRANCH  60  81
BRANCH  72  89
ATOM     89  C   UNL     1     -10.003 -19.212   8.997  1.00  0.00     0.057 A 
ATOM     90  C   UNL     1     -10.869 -18.144   8.729  1.00  0.00     0.134 A 
ATOM     91  C   UNL     1     -10.577 -20.456   9.285  1.00  0.00     0.134 A 
ATOM     92  F   UNL     1     -10.380 -16.924   8.460  1.00  0.00    -0.206 F 
ATOM     93  C   UNL     1     -12.255 -18.304   8.766  1.00  0.00     0.040 A 
ATOM     94  C   UNL     1     -11.961 -20.634   9.302  1.00  0.00     0.040 A 
ATOM     95  F   UNL     1      -9.802 -21.520   9.544  1.00  0.00    -0.206 F 
ATOM     96  C   UNL     1     -12.804 -19.554   9.047  1.00  0.00     0.006 A 
ENDBRANCH  72  89
ENDBRANCH  46  47
ENDBRANCH  38  41
ENDBRANCH  36  37
ENDBRANCH  35  36
ENDBRANCH  34  35
ENDBRANCH   1  34
TORSDOF 17
