REMARK SMILES CCCCCCNC(=O)Oc1cccc(-c2ccc([C@@H](C)C(=O)NCCCCCCNC(=O)c3ccc(-c4c5nc(c(-c6c(F)cccc6F)c6ccc([nH]6)c(-c6c(F)cccc6F)c6nc(c(-c7c(F)cccc7F)c7ccc4[nH]7)C=C6)C=C5)cc3)cc2C)c1
REMARK SMILES IDX 22 1 23 2 24 3 20 5 21 6 19 7 16 8 17 9 89 10 18 11 88 12
REMARK SMILES IDX 90 13 15 14 11 15 12 16 91 17 13 18 14 19 10 20 8 21 7 22
REMARK SMILES IDX 9 24 6 25 5 26 4 27 3 28 2 29 1 30 25 31 26 32 27 33 28 34
REMARK SMILES IDX 29 35 30 36 31 37 32 38 33 40 34 41 35 42 87 43 36 44 86 45
REMARK SMILES IDX 37 46 38 47 39 48 80 49 40 50 85 51 79 52 81 53 41 54 84 55
REMARK SMILES IDX 78 56 77 57 42 59 68 60 51 61 67 62 52 63 55 64 66 65 82 66
REMARK SMILES IDX 53 67 54 68 65 70 83 71 56 72 43 73 44 74 49 75 45 76 46 77
REMARK SMILES IDX 48 78 50 79 47 80 69 81 70 82 75 83 71 84 72 85 74 86 76 87
REMARK SMILES IDX 73 88 57 89 58 90 63 91 59 92 60 93 62 94 64 95 61 96
REMARK H PARENT 24 4 7 23 31 39 81 58 55 69
REMARK Flexibility Score: inf
ROOT
ATOM      1  C   UNL     1      -3.614   7.268 -12.341  1.00  0.00     0.227 C 
ATOM      2  O   UNL     1      -2.735   6.523 -12.793  1.00  0.00    -0.274 OA
ATOM      3  N   UNL     1      -3.304   8.592 -12.281  1.00  0.00    -0.356 N 
ATOM      4  H   UNL     1      -2.435   8.820 -12.682  1.00  0.00     0.163 HD
ENDROOT
BRANCH   1   5
ATOM      5  C   UNL     1      -4.968   6.682 -11.915  1.00  0.00     0.105 C 
ATOM      6  C   UNL     1      -6.167   7.249 -12.675  1.00  0.00     0.023 C 
BRANCH   5   7
ATOM      7  C   UNL     1      -5.146   6.556 -10.410  1.00  0.00    -0.036 A 
ATOM      8  C   UNL     1      -5.287   6.274  -7.563  1.00  0.00    -0.015 A 
ATOM      9  C   UNL     1      -5.631   7.472  -8.215  1.00  0.00     0.009 A 
ATOM     10  C   UNL     1      -4.951   5.171  -8.378  1.00  0.00    -0.043 A 
ATOM     11  C   UNL     1      -5.606   7.596  -9.607  1.00  0.00     0.005 A 
ATOM     12  C   UNL     1      -4.834   5.344  -9.776  1.00  0.00     0.008 A 
ATOM     13  C   UNL     1      -4.726   3.777  -7.853  1.00  0.00     0.045 C 
BRANCH   8  14
ATOM     14  C   UNL     1      -5.297   6.246  -6.083  1.00  0.00    -0.014 A 
ATOM     15  C   UNL     1      -4.254   5.710  -3.954  1.00  0.00     0.133 A 
ATOM     16  C   UNL     1      -5.342   6.221  -3.254  1.00  0.00     0.047 A 
ATOM     17  C   UNL     1      -4.214   5.731  -5.349  1.00  0.00     0.056 A 
ATOM     18  C   UNL     1      -6.407   6.767  -3.960  1.00  0.00     0.004 A 
ATOM     19  C   UNL     1      -6.388   6.767  -5.359  1.00  0.00     0.009 A 
BRANCH  15  20
ATOM     20  O   UNL     1      -3.284   5.032  -3.195  1.00  0.00    -0.410 OA
BRANCH  20  21
ATOM     21  C   UNL     1      -1.939   5.296  -3.403  1.00  0.00     0.412 C 
ATOM     22  N   UNL     1      -1.120   4.463  -2.689  1.00  0.00    -0.321 N 
ATOM     23  H   UNL     1      -0.151   4.615  -2.778  1.00  0.00     0.167 HD
ATOM     24  O   UNL     1      -1.480   6.171  -4.124  1.00  0.00    -0.224 OA
BRANCH  22  25
ATOM     25  C   UNL     1      -1.531   3.381  -1.815  1.00  0.00     0.119 C 
BRANCH  25  26
ATOM     26  C   UNL     1      -0.936   2.040  -2.243  1.00  0.00     0.021 C 
BRANCH  26  27
ATOM     27  C   UNL     1       0.593   1.954  -2.155  1.00  0.00     0.002 C 
BRANCH  27  28
ATOM     28  C   UNL     1       1.190   2.213  -0.767  1.00  0.00    -0.000 C 
BRANCH  28  29
ATOM     29  C   UNL     1       0.700   1.282   0.345  1.00  0.00    -0.003 C 
ATOM     30  C   UNL     1       1.060  -0.177   0.111  1.00  0.00     0.004 C 
ENDBRANCH  28  29
ENDBRANCH  27  28
ENDBRANCH  26  27
ENDBRANCH  25  26
ENDBRANCH  22  25
ENDBRANCH  20  21
ENDBRANCH  15  20
ENDBRANCH   8  14
ENDBRANCH   5   7
ENDBRANCH   1   5
BRANCH   3  31
ATOM     31  C   UNL     1      -4.020   9.725 -11.736  1.00  0.00     0.116 C 
BRANCH  31  32
ATOM     32  C   UNL     1      -3.480  10.125 -10.361  1.00  0.00     0.021 C 
BRANCH  32  33
ATOM     33  C   UNL     1      -2.351  11.159 -10.414  1.00  0.00     0.002 C 
BRANCH  33  34
ATOM     34  C   UNL     1      -2.747  12.525 -10.988  1.00  0.00     0.002 C 
BRANCH  34  35
ATOM     35  C   UNL     1      -3.941  13.206 -10.309  1.00  0.00     0.021 C 
BRANCH  35  36
ATOM     36  C   UNL     1      -3.759  13.482  -8.819  1.00  0.00     0.116 C 
BRANCH  36  37
ATOM     37  N   UNL     1      -2.657  14.399  -8.570  1.00  0.00    -0.352 N 
ATOM     38  C   UNL     1      -2.657  15.632  -7.970  1.00  0.00     0.251 C 
ATOM     39  H   UNL     1      -1.777  14.086  -8.879  1.00  0.00     0.163 HD
ATOM     40  O   UNL     1      -1.670  16.357  -8.057  1.00  0.00    -0.269 OA
BRANCH  38  41
ATOM     41  C   UNL     1      -3.844  16.100  -7.221  1.00  0.00     0.039 A 
ATOM     42  C   UNL     1      -4.255  17.428  -7.372  1.00  0.00     0.014 A 
ATOM     43  C   UNL     1      -4.521  15.252  -6.340  1.00  0.00     0.014 A 
ATOM     44  C   UNL     1      -5.375  17.890  -6.678  1.00  0.00     0.010 A 
ATOM     45  C   UNL     1      -5.675  15.696  -5.698  1.00  0.00     0.010 A 
ATOM     46  C   UNL     1      -6.110  17.020  -5.856  1.00  0.00    -0.014 A 
BRANCH  46  47
ATOM     47  C   UNL     1      -7.333  17.483  -5.154  1.00  0.00     0.031 A 
ATOM     48  C   UNL     1      -7.368  17.549  -3.652  1.00  0.00     0.074 A 
ATOM     49  C   UNL     1      -8.433  17.789  -5.868  1.00  0.00     0.049 A 
ATOM     50  N   UNL     1      -8.359  17.876  -2.862  1.00  0.00    -0.248 NA
ATOM     51  C   UNL     1      -6.134  17.174  -2.944  1.00  0.00     0.031 C 
ATOM     52  C   UNL     1      -8.541  17.720  -7.326  1.00  0.00     0.029 A 
ATOM     53  N   UNL     1      -9.674  18.211  -5.463  1.00  0.00    -0.354 N 
ATOM     54  C   UNL     1      -7.874  17.733  -1.568  1.00  0.00     0.074 A 
ATOM     55  C   UNL     1      -6.517  17.243  -1.678  1.00  0.00     0.031 C 
ATOM     56  C   UNL     1      -9.772  18.108  -7.694  1.00  0.00     0.029 A 
ATOM     57  C   UNL     1     -10.550  18.421  -6.500  1.00  0.00     0.049 A 
ATOM     58  H   UNL     1      -9.914  18.351  -4.518  1.00  0.00     0.167 HD
ATOM     59  C   UNL     1      -8.495  18.006  -0.396  1.00  0.00     0.037 A 
ATOM     60  C   UNL     1     -11.836  18.818  -6.488  1.00  0.00     0.037 A 
ATOM     61  C   UNL     1      -9.837  18.517  -0.289  1.00  0.00     0.049 A 
ATOM     62  C   UNL     1     -12.501  19.118  -5.175  1.00  0.00     0.074 A 
ATOM     63  C   UNL     1     -10.533  18.882   0.850  1.00  0.00     0.029 A 
ATOM     64  N   UNL     1     -10.686  18.733  -1.364  1.00  0.00    -0.354 N 
ATOM     65  N   UNL     1     -12.009  19.041  -3.962  1.00  0.00    -0.248 NA
ATOM     66  C   UNL     1     -13.900  19.567  -5.229  1.00  0.00     0.031 C 
ATOM     67  C   UNL     1     -11.818  19.283   0.468  1.00  0.00     0.029 A 
ATOM     68  C   UNL     1     -11.907  19.208  -0.913  1.00  0.00     0.049 A 
ATOM     69  H   UNL     1     -10.456  18.572  -2.307  1.00  0.00     0.167 HD
ATOM     70  C   UNL     1     -13.026  19.455  -3.112  1.00  0.00     0.074 A 
ATOM     71  C   UNL     1     -14.158  19.796  -3.949  1.00  0.00     0.031 C 
ATOM     72  C   UNL     1     -13.023  19.545  -1.760  1.00  0.00     0.037 A 
BRANCH  59  73
ATOM     73  C   UNL     1      -7.724  17.759   0.868  1.00  0.00     0.057 A 
ATOM     74  C   UNL     1      -6.643  18.569   1.243  1.00  0.00     0.134 A 
ATOM     75  C   UNL     1      -8.082  16.719   1.735  1.00  0.00     0.134 A 
ATOM     76  F   UNL     1      -6.242  19.576   0.452  1.00  0.00    -0.206 F 
ATOM     77  C   UNL     1      -5.930  18.337   2.421  1.00  0.00     0.040 A 
ATOM     78  C   UNL     1      -7.392  16.493   2.928  1.00  0.00     0.040 A 
ATOM     79  F   UNL     1      -9.110  15.910   1.441  1.00  0.00    -0.206 F 
ATOM     80  C   UNL     1      -6.308  17.299   3.270  1.00  0.00     0.006 A 
ENDBRANCH  59  73
BRANCH  60  81
ATOM     81  C   UNL     1     -12.571  18.983  -7.766  1.00  0.00     0.057 A 
ATOM     82  C   UNL     1     -12.905  20.254  -8.246  1.00  0.00     0.134 A 
ATOM     83  C   UNL     1     -12.957  17.880  -8.537  1.00  0.00     0.134 A 
ATOM     84  F   UNL     1     -12.578  21.348  -7.542  1.00  0.00    -0.206 F 
ATOM     85  C   UNL     1     -13.610  20.424  -9.438  1.00  0.00     0.040 A 
ATOM     86  C   UNL     1     -13.642  18.035  -9.743  1.00  0.00     0.040 A 
ATOM     87  F   UNL     1     -12.659  16.635  -8.135  1.00  0.00    -0.206 F 
ATOM     88  C   UNL     1     -13.977  19.311 -10.193  1.00  0.00     0.006 A 
ENDBRANCH  60  81
BRANCH  72  89
ATOM     89  C   UNL     1     -14.273  20.056  -1.106  1.00  0.00     0.057 A 
ATOM     90  C   UNL     1     -15.434  19.278  -1.023  1.00  0.00     0.134 A 
ATOM     91  C   UNL     1     -14.304  21.331  -0.528  1.00  0.00     0.134 A 
ATOM     92  F   UNL     1     -15.473  18.054  -1.570  1.00  0.00    -0.206 F 
ATOM     93  C   UNL     1     -16.590  19.759  -0.407  1.00  0.00     0.040 A 
ATOM     94  C   UNL     1     -15.446  21.814   0.113  1.00  0.00     0.040 A 
ATOM     95  F   UNL     1     -13.222  22.124  -0.567  1.00  0.00    -0.206 F 
ATOM     96  C   UNL     1     -16.596  21.029   0.168  1.00  0.00     0.006 A 
ENDBRANCH  72  89
ENDBRANCH  46  47
ENDBRANCH  38  41
ENDBRANCH  36  37
ENDBRANCH  35  36
ENDBRANCH  34  35
ENDBRANCH  33  34
ENDBRANCH  32  33
ENDBRANCH  31  32
ENDBRANCH   3  31
TORSDOF 22
