REMARK SMILES O=C1O[C@@H](c2ccc(O)c(O)c2)[C@H](C(=O)NCCCCCCNC(=O)c2ccc(-c3c4nc(c(-c5c(F)cccc5F)c5ccc([nH]5)c(-c5c(F)cccc5F)c5nc(c(-c6c(F)cccc6F)c6ccc3[nH]6)C=C5)C=C4)cc2)/C1=C\c1ccc(O)c(O)c1
REMARK SMILES IDX 19 1 18 2 17 3 16 4 14 5 15 6 13 8 1 9 2 10 3 11 80 12 4 13
REMARK SMILES IDX 81 14 5 15 6 16 12 17 7 18 10 19 8 20 11 21 9 23 82 25 83 26
REMARK SMILES IDX 89 27 84 28 87 29 85 30 88 31 86 33 20 35 21 36 22 37 23 38
REMARK SMILES IDX 24 39 25 41 26 42 27 43 79 44 28 45 78 46 29 47 30 48 31 49
REMARK SMILES IDX 72 50 32 51 77 52 71 53 73 54 33 55 76 56 70 57 69 58 34 60
REMARK SMILES IDX 60 61 43 62 59 63 44 64 47 65 58 66 74 67 45 68 46 69 57 71
REMARK SMILES IDX 75 72 48 73 35 74 36 75 41 76 37 77 38 78 40 79 42 80 39 81
REMARK SMILES IDX 61 82 62 83 67 84 63 85 64 86 66 87 68 88 65 89 49 90 50 91
REMARK SMILES IDX 55 92 51 93 52 94 54 95 56 96 53 97
REMARK H PARENT 16 7 11 22 9 24 88 32 86 34 23 40 73 59 47 70
REMARK Flexibility Score: inf
ROOT
ATOM      1  C   UNL     1       5.685   1.831   3.099  1.00  0.00     0.002 C 
ENDROOT
BRANCH   1   2
ATOM      2  C   UNL     1       5.153   1.681   1.674  1.00  0.00     0.021 C 
BRANCH   2   3
ATOM      3  C   UNL     1       4.023   0.673   1.525  1.00  0.00     0.116 C 
BRANCH   3   4
ATOM      4  N   UNL     1       2.795   1.083   2.171  1.00  0.00    -0.355 N 
ATOM      5  C   UNL     1       1.513   1.127   1.699  1.00  0.00     0.231 C 
ATOM      6  O   UNL     1       0.633   1.379   2.523  1.00  0.00    -0.274 OA
ATOM      7  H   UNL     1       2.900   1.378   3.104  1.00  0.00     0.163 HD
BRANCH   5   8
ATOM      8  C   UNL     1       1.226   0.963   0.201  1.00  0.00     0.161 C 
ATOM      9  O   UNL     1      -1.853  -0.821  -0.130  1.00  0.00    -0.247 OA
ATOM     10  C   UNL     1      -0.700  -0.427  -0.138  1.00  0.00     0.335 C 
ATOM     11  O   UNL     1       0.396  -1.216  -0.242  1.00  0.00    -0.453 OA
ATOM     12  C   UNL     1      -0.244   0.972  -0.059  1.00  0.00     0.054 C 
ATOM     13  C   UNL     1       1.592  -0.421  -0.329  1.00  0.00     0.224 C 
ATOM     14  C   UNL     1      -1.117   1.975  -0.232  1.00  0.00     0.020 C 
BRANCH  13  15
ATOM     15  C   UNL     1       2.183  -0.440  -1.743  1.00  0.00    -0.002 A 
ATOM     16  C   UNL     1       3.222   0.443  -2.118  1.00  0.00     0.012 A 
ATOM     17  C   UNL     1       1.776  -1.402  -2.681  1.00  0.00     0.057 A 
ATOM     18  C   UNL     1       3.851   0.357  -3.365  1.00  0.00     0.050 A 
ATOM     19  C   UNL     1       2.390  -1.466  -3.928  1.00  0.00     0.157 A 
ATOM     20  C   UNL     1       3.427  -0.604  -4.266  1.00  0.00     0.157 A 
BRANCH  19  21
ATOM     21  O   UNL     1       1.970  -2.403  -4.828  1.00  0.00    -0.504 OA
ATOM     22  H   UNL     1       2.374  -2.458  -5.671  1.00  0.00     0.293 HD
ENDBRANCH  19  21
BRANCH  20  23
ATOM     23  O   UNL     1       4.004  -0.745  -5.497  1.00  0.00    -0.504 OA
ATOM     24  H   UNL     1       4.705  -0.179  -5.753  1.00  0.00     0.293 HD
ENDBRANCH  20  23
ENDBRANCH  13  15
BRANCH  14  25
ATOM     25  C   UNL     1      -0.764   3.392  -0.183  1.00  0.00    -0.021 A 
ATOM     26  C   UNL     1       0.098   3.956  -1.137  1.00  0.00     0.012 A 
ATOM     27  C   UNL     1      -1.326   4.203   0.808  1.00  0.00     0.058 A 
ATOM     28  C   UNL     1       0.422   5.315  -1.088  1.00  0.00     0.051 A 
ATOM     29  C   UNL     1      -1.006   5.553   0.844  1.00  0.00     0.157 A 
ATOM     30  C   UNL     1      -0.135   6.106  -0.091  1.00  0.00     0.157 A 
BRANCH  29  31
ATOM     31  O   UNL     1      -1.560   6.344   1.809  1.00  0.00    -0.504 OA
ATOM     32  H   UNL     1      -1.352   7.257   1.843  1.00  0.00     0.293 HD
ENDBRANCH  29  31
BRANCH  30  33
ATOM     33  O   UNL     1       0.140   7.441   0.008  1.00  0.00    -0.504 OA
ATOM     34  H   UNL     1       0.722   7.847  -0.605  1.00  0.00     0.293 HD
ENDBRANCH  30  33
ENDBRANCH  14  25
ENDBRANCH   5   8
ENDBRANCH   3   4
ENDBRANCH   2   3
ENDBRANCH   1   2
BRANCH   1  35
ATOM     35  C   UNL     1       6.104   0.524   3.780  1.00  0.00     0.002 C 
BRANCH  35  36
ATOM     36  C   UNL     1       7.106  -0.330   2.999  1.00  0.00     0.021 C 
BRANCH  36  37
ATOM     37  C   UNL     1       8.406   0.379   2.643  1.00  0.00     0.116 C 
BRANCH  37  38
ATOM     38  N   UNL     1       9.140   0.805   3.823  1.00  0.00    -0.352 N 
ATOM     39  C   UNL     1      10.445   0.557   4.168  1.00  0.00     0.251 C 
ATOM     40  H   UNL     1       8.629   1.348   4.466  1.00  0.00     0.163 HD
ATOM     41  O   UNL     1      10.851   0.829   5.293  1.00  0.00    -0.269 OA
BRANCH  39  42
ATOM     42  C   UNL     1      11.356  -0.056   3.180  1.00  0.00     0.039 A 
ATOM     43  C   UNL     1      12.191  -1.101   3.585  1.00  0.00     0.014 A 
ATOM     44  C   UNL     1      11.386   0.400   1.860  1.00  0.00     0.014 A 
ATOM     45  C   UNL     1      13.016  -1.726   2.648  1.00  0.00     0.010 A 
ATOM     46  C   UNL     1      12.148  -0.275   0.913  1.00  0.00     0.010 A 
ATOM     47  C   UNL     1      12.978  -1.339   1.299  1.00  0.00    -0.014 A 
BRANCH  47  48
ATOM     48  C   UNL     1      13.810  -2.020   0.275  1.00  0.00     0.031 A 
ATOM     49  C   UNL     1      14.865  -1.248  -0.469  1.00  0.00     0.074 A 
ATOM     50  C   UNL     1      13.572  -3.309  -0.033  1.00  0.00     0.049 A 
ATOM     51  N   UNL     1      15.629  -1.634  -1.459  1.00  0.00    -0.248 NA
ATOM     52  C   UNL     1      15.067   0.153  -0.066  1.00  0.00     0.031 C 
ATOM     53  C   UNL     1      12.552  -4.155   0.591  1.00  0.00     0.029 A 
ATOM     54  N   UNL     1      14.165  -4.132  -0.958  1.00  0.00    -0.354 N 
ATOM     55  C   UNL     1      16.390  -0.523  -1.803  1.00  0.00     0.074 A 
ATOM     56  C   UNL     1      15.952   0.567  -0.960  1.00  0.00     0.031 C 
ATOM     57  C   UNL     1      12.606  -5.381   0.046  1.00  0.00     0.029 A 
ATOM     58  C   UNL     1      13.630  -5.397  -0.993  1.00  0.00     0.049 A 
ATOM     59  H   UNL     1      14.904  -3.842  -1.541  1.00  0.00     0.167 HD
ATOM     60  C   UNL     1      17.380  -0.427  -2.722  1.00  0.00     0.037 A 
ATOM     61  C   UNL     1      13.925  -6.447  -1.784  1.00  0.00     0.037 A 
ATOM     62  C   UNL     1      17.826  -1.520  -3.544  1.00  0.00     0.049 A 
ATOM     63  C   UNL     1      15.012  -6.307  -2.814  1.00  0.00     0.074 A 
ATOM     64  C   UNL     1      18.855  -1.538  -4.470  1.00  0.00     0.029 A 
ATOM     65  N   UNL     1      17.267  -2.790  -3.542  1.00  0.00    -0.354 N 
ATOM     66  N   UNL     1      15.763  -5.268  -3.089  1.00  0.00    -0.248 NA
ATOM     67  C   UNL     1      15.297  -7.489  -3.640  1.00  0.00     0.031 C 
ATOM     68  C   UNL     1      18.884  -2.803  -5.066  1.00  0.00     0.029 A 
ATOM     69  C   UNL     1      17.914  -3.592  -4.468  1.00  0.00     0.049 A 
ATOM     70  H   UNL     1      16.522  -3.079  -2.967  1.00  0.00     0.167 HD
ATOM     71  C   UNL     1      16.632  -5.681  -4.091  1.00  0.00     0.074 A 
ATOM     72  C   UNL     1      16.321  -7.067  -4.369  1.00  0.00     0.031 C 
ATOM     73  C   UNL     1      17.603  -4.976  -4.723  1.00  0.00     0.037 A 
BRANCH  60  74
ATOM     74  C   UNL     1      18.047   0.909  -2.885  1.00  0.00     0.057 A 
ATOM     75  C   UNL     1      18.866   1.456  -1.887  1.00  0.00     0.134 A 
ATOM     76  C   UNL     1      17.895   1.645  -4.067  1.00  0.00     0.134 A 
ATOM     77  F   UNL     1      19.045   0.810  -0.725  1.00  0.00    -0.206 F 
ATOM     78  C   UNL     1      19.484   2.697  -2.046  1.00  0.00     0.040 A 
ATOM     79  C   UNL     1      18.534   2.873  -4.251  1.00  0.00     0.040 A 
ATOM     80  F   UNL     1      17.131   1.180  -5.066  1.00  0.00    -0.206 F 
ATOM     81  C   UNL     1      19.325   3.406  -3.235  1.00  0.00     0.006 A 
ENDBRANCH  60  74
BRANCH  61  82
ATOM     82  C   UNL     1      13.193  -7.730  -1.624  1.00  0.00     0.057 A 
ATOM     83  C   UNL     1      13.836  -8.873  -1.135  1.00  0.00     0.134 A 
ATOM     84  C   UNL     1      11.841  -7.850  -1.968  1.00  0.00     0.134 A 
ATOM     85  F   UNL     1      15.135  -8.826  -0.804  1.00  0.00    -0.206 F 
ATOM     86  C   UNL     1      13.171 -10.095  -1.019  1.00  0.00     0.040 A 
ATOM     87  C   UNL     1      11.156  -9.059  -1.830  1.00  0.00     0.040 A 
ATOM     88  F   UNL     1      11.163  -6.790  -2.434  1.00  0.00    -0.206 F 
ATOM     89  C   UNL     1      11.825 -10.188  -1.363  1.00  0.00     0.006 A 
ENDBRANCH  61  82
BRANCH  73  90
ATOM     90  C   UNL     1      18.435  -5.703  -5.740  1.00  0.00     0.057 A 
ATOM     91  C   UNL     1      17.921  -6.091  -6.983  1.00  0.00     0.134 A 
ATOM     92  C   UNL     1      19.786  -5.975  -5.485  1.00  0.00     0.134 A 
ATOM     93  F   UNL     1      16.633  -5.871  -7.286  1.00  0.00    -0.206 F 
ATOM     94  C   UNL     1      18.714  -6.746  -7.927  1.00  0.00     0.040 A 
ATOM     95  C   UNL     1      20.596  -6.601  -6.432  1.00  0.00     0.040 A 
ATOM     96  F   UNL     1      20.345  -5.621  -4.318  1.00  0.00    -0.206 F 
ATOM     97  C   UNL     1      20.059  -6.994  -7.656  1.00  0.00     0.006 A 
ENDBRANCH  73  90
ENDBRANCH  47  48
ENDBRANCH  39  42
ENDBRANCH  37  38
ENDBRANCH  36  37
ENDBRANCH  35  36
ENDBRANCH   1  35
TORSDOF 19
