REMARK SMILES CC(C)[C@H](NC(=O)c1cc2cc(Cl)ccc2n1C)C(=O)N[C@@H](C(=O)NCCCCCCNC(=O)c1ccc(-c2c3nc(c(-c4c(F)cccc4F)c4ccc([nH]4)c(-c4c(F)cccc4F)c4nc(c(-c5c(F)cccc5F)c5ccc2[nH]5)C=C4)C=C3)cc1)c1ccccc1
REMARK SMILES IDX 27 1 26 2 25 3 23 4 24 5 22 7 21 8 19 9 20 10 4 12 2 13 1 14
REMARK SMILES IDX 3 15 5 16 6 17 7 19 8 20 9 21 17 22 10 23 16 24 18 25 11 26
REMARK SMILES IDX 15 27 12 28 14 29 13 30 89 31 90 32 94 33 91 34 93 35 92 36
REMARK SMILES IDX 28 37 29 38 30 39 31 40 32 41 33 42 34 44 35 45 36 46 88 47
REMARK SMILES IDX 37 48 87 49 38 50 39 51 40 52 81 53 41 54 86 55 80 56 82 57
REMARK SMILES IDX 42 58 85 59 79 60 78 61 43 63 69 64 52 65 68 66 53 67 56 68
REMARK SMILES IDX 67 69 83 70 54 71 55 72 66 74 84 75 57 76 44 77 45 78 50 79
REMARK SMILES IDX 46 80 47 81 49 82 51 83 48 84 70 85 71 86 76 87 72 88 73 89
REMARK SMILES IDX 75 90 77 91 74 92 58 93 59 94 64 95 60 96 61 97 63 98 65 99
REMARK SMILES IDX 62 100
REMARK H PARENT 25 6 21 11 5 18 32 43 82 62 56 73
REMARK Flexibility Score: inf
ROOT
ATOM      1  C   UNL     1       1.599  -3.912   3.759  1.00  0.00     0.021 C 
ENDROOT
BRANCH   1   2
ATOM      2  C   UNL     1       1.410  -3.581   2.287  1.00  0.00     0.116 C 
BRANCH   2   3
ATOM      3  N   UNL     1       1.603  -4.711   1.413  1.00  0.00    -0.354 N 
ATOM      4  C   UNL     1       1.057  -4.990   0.196  1.00  0.00     0.247 C 
ATOM      5  O   UNL     1       1.753  -5.726  -0.516  1.00  0.00    -0.272 OA
ATOM      6  H   UNL     1       2.232  -5.390   1.748  1.00  0.00     0.163 HD
BRANCH   4   7
ATOM      7  C   UNL     1      -0.273  -4.335  -0.354  1.00  0.00     0.202 C 
BRANCH   7   8
ATOM      8  N   UNL     1      -1.256  -3.883   0.632  1.00  0.00    -0.339 N 
ATOM      9  C   UNL     1      -1.770  -2.678   0.986  1.00  0.00     0.243 C 
ATOM     10  O   UNL     1      -2.725  -2.719   1.774  1.00  0.00    -0.273 OA
ATOM     11  H   UNL     1      -1.631  -4.624   1.161  1.00  0.00     0.164 HD
BRANCH   9  12
ATOM     12  C   UNL     1      -1.271  -1.286   0.491  1.00  0.00     0.174 C 
BRANCH  12  13
ATOM     13  C   UNL     1      -1.793  -0.744  -0.860  1.00  0.00     0.015 C 
ATOM     14  C   UNL     1      -0.908  -1.025  -2.074  1.00  0.00     0.010 C 
ATOM     15  C   UNL     1      -3.249  -1.134  -1.117  1.00  0.00     0.010 C 
ENDBRANCH  12  13
BRANCH  12  16
ATOM     16  N   UNL     1       0.163  -1.113   0.661  1.00  0.00    -0.339 N 
ATOM     17  C   UNL     1       0.863  -0.212   1.434  1.00  0.00     0.268 C 
ATOM     18  H   UNL     1       0.721  -1.737   0.142  1.00  0.00     0.164 HD
ATOM     19  O   UNL     1       2.089  -0.267   1.384  1.00  0.00    -0.268 OA
BRANCH  17  20
ATOM     20  C   UNL     1       0.161   0.780   2.213  1.00  0.00     0.107 A 
ATOM     21  C   UNL     1       0.346   2.148   2.107  1.00  0.00     0.042 A 
ATOM     22  N   UNL     1      -0.697   0.590   3.275  1.00  0.00    -0.340 N 
ATOM     23  C   UNL     1      -0.513   2.802   3.027  1.00  0.00     0.002 A 
ATOM     24  C   UNL     1      -1.192   1.806   3.725  1.00  0.00     0.048 A 
ATOM     25  C   UNL     1      -0.995  -0.667   3.934  1.00  0.00     0.150 C 
ATOM     26  C   UNL     1      -0.769   4.153   3.329  1.00  0.00     0.030 A 
ATOM     27  C   UNL     1      -2.152   2.107   4.706  1.00  0.00     0.028 A 
ATOM     28  C   UNL     1      -1.723   4.460   4.302  1.00  0.00     0.041 A 
ATOM     29  C   UNL     1      -2.412   3.455   4.975  1.00  0.00     0.023 A 
ATOM     30  Cl  UNL     1      -2.054   6.109   4.672  1.00  0.00    -0.084 Cl
ENDBRANCH  17  20
ENDBRANCH  12  16
ENDBRANCH   9  12
ENDBRANCH   7   8
BRANCH   7  31
ATOM     31  C   UNL     1      -1.019  -5.282  -1.319  1.00  0.00    -0.016 A 
ATOM     32  C   UNL     1      -0.922  -6.684  -1.233  1.00  0.00     0.006 A 
ATOM     33  C   UNL     1      -1.883  -4.759  -2.296  1.00  0.00     0.006 A 
ATOM     34  C   UNL     1      -1.592  -7.515  -2.138  1.00  0.00     0.000 A 
ATOM     35  C   UNL     1      -2.564  -5.589  -3.192  1.00  0.00     0.000 A 
ATOM     36  C   UNL     1      -2.407  -6.967  -3.123  1.00  0.00     0.000 A 
ENDBRANCH   7  31
ENDBRANCH   4   7
ENDBRANCH   2   3
ENDBRANCH   1   2
BRANCH   1  37
ATOM     37  C   UNL     1       3.046  -4.141   4.194  1.00  0.00     0.002 C 
BRANCH  37  38
ATOM     38  C   UNL     1       3.999  -2.954   4.028  1.00  0.00     0.002 C 
BRANCH  38  39
ATOM     39  C   UNL     1       3.551  -1.613   4.623  1.00  0.00     0.021 C 
BRANCH  39  40
ATOM     40  C   UNL     1       3.025  -1.647   6.060  1.00  0.00     0.116 C 
BRANCH  40  41
ATOM     41  N   UNL     1       3.870  -2.355   6.997  1.00  0.00    -0.352 N 
ATOM     42  C   UNL     1       4.984  -2.047   7.724  1.00  0.00     0.251 C 
ATOM     43  H   UNL     1       3.569  -3.280   7.146  1.00  0.00     0.163 HD
ATOM     44  O   UNL     1       5.386  -2.929   8.489  1.00  0.00    -0.269 OA
BRANCH  42  45
ATOM     45  C   UNL     1       5.747  -0.769   7.640  1.00  0.00     0.039 A 
ATOM     46  C   UNL     1       5.398   0.342   6.873  1.00  0.00     0.014 A 
ATOM     47  C   UNL     1       6.938  -0.706   8.389  1.00  0.00     0.014 A 
ATOM     48  C   UNL     1       6.244   1.450   6.793  1.00  0.00     0.010 A 
ATOM     49  C   UNL     1       7.774   0.410   8.333  1.00  0.00     0.010 A 
ATOM     50  C   UNL     1       7.448   1.478   7.499  1.00  0.00    -0.014 A 
BRANCH  50  51
ATOM     51  C   UNL     1       8.326   2.635   7.298  1.00  0.00     0.031 A 
ATOM     52  C   UNL     1       7.840   3.987   7.705  1.00  0.00     0.074 A 
ATOM     53  C   UNL     1       9.598   2.543   6.861  1.00  0.00     0.049 A 
ATOM     54  N   UNL     1       7.754   5.063   6.985  1.00  0.00    -0.248 NA
ATOM     55  C   UNL     1       7.442   4.170   9.108  1.00  0.00     0.031 C 
ATOM     56  C   UNL     1      10.412   1.337   6.705  1.00  0.00     0.029 A 
ATOM     57  N   UNL     1      10.463   3.557   6.550  1.00  0.00    -0.354 N 
ATOM     58  C   UNL     1       7.441   6.096   7.865  1.00  0.00     0.074 A 
ATOM     59  C   UNL     1       7.211   5.484   9.152  1.00  0.00     0.031 C 
ATOM     60  C   UNL     1      11.701   1.699   6.527  1.00  0.00     0.029 A 
ATOM     61  C   UNL     1      11.775   3.148   6.419  1.00  0.00     0.049 A 
ATOM     62  H   UNL     1      10.176   4.491   6.430  1.00  0.00     0.167 HD
ATOM     63  C   UNL     1       7.523   7.413   7.532  1.00  0.00     0.037 A 
ATOM     64  C   UNL     1      12.869   3.928   6.275  1.00  0.00     0.037 A 
ATOM     65  C   UNL     1       7.569   7.641   6.117  1.00  0.00     0.049 A 
ATOM     66  C   UNL     1      12.460   5.266   5.798  1.00  0.00     0.074 A 
ATOM     67  C   UNL     1       6.734   7.389   5.048  1.00  0.00     0.029 A 
ATOM     68  N   UNL     1       8.748   8.074   5.568  1.00  0.00    -0.354 N 
ATOM     69  N   UNL     1      12.035   5.533   4.595  1.00  0.00    -0.248 NA
ATOM     70  C   UNL     1      12.290   6.337   6.770  1.00  0.00     0.031 C 
ATOM     71  C   UNL     1       7.587   7.271   3.912  1.00  0.00     0.029 A 
ATOM     72  C   UNL     1       8.895   7.417   4.374  1.00  0.00     0.049 A 
ATOM     73  H   UNL     1       9.370   8.730   5.957  1.00  0.00     0.167 HD
ATOM     74  C   UNL     1      11.210   6.635   4.748  1.00  0.00     0.074 A 
ATOM     75  C   UNL     1      11.537   7.176   6.057  1.00  0.00     0.031 C 
ATOM     76  C   UNL     1      10.137   6.830   3.929  1.00  0.00     0.037 A 
BRANCH  63  77
ATOM     77  C   UNL     1       7.808   8.516   8.514  1.00  0.00     0.057 A 
ATOM     78  C   UNL     1       8.638   8.340   9.637  1.00  0.00     0.134 A 
ATOM     79  C   UNL     1       7.476   9.847   8.207  1.00  0.00     0.134 A 
ATOM     80  F   UNL     1       9.122   7.134   9.967  1.00  0.00    -0.206 F 
ATOM     81  C   UNL     1       9.080   9.410  10.422  1.00  0.00     0.040 A 
ATOM     82  C   UNL     1       7.948  10.930   8.960  1.00  0.00     0.040 A 
ATOM     83  F   UNL     1       6.736  10.139   7.127  1.00  0.00    -0.206 F 
ATOM     84  C   UNL     1       8.749  10.712  10.075  1.00  0.00     0.006 A 
ENDBRANCH  63  77
BRANCH  64  85
ATOM     85  C   UNL     1      14.255   3.615   6.670  1.00  0.00     0.057 A 
ATOM     86  C   UNL     1      14.527   2.861   7.825  1.00  0.00     0.134 A 
ATOM     87  C   UNL     1      15.353   4.217   6.047  1.00  0.00     0.134 A 
ATOM     88  F   UNL     1      13.534   2.327   8.552  1.00  0.00    -0.206 F 
ATOM     89  C   UNL     1      15.822   2.689   8.318  1.00  0.00     0.040 A 
ATOM     90  C   UNL     1      16.656   4.064   6.537  1.00  0.00     0.040 A 
ATOM     91  F   UNL     1      15.184   5.002   4.974  1.00  0.00    -0.206 F 
ATOM     92  C   UNL     1      16.893   3.297   7.675  1.00  0.00     0.006 A 
ENDBRANCH  64  85
BRANCH  76  93
ATOM     93  C   UNL     1      10.108   6.071   2.639  1.00  0.00     0.057 A 
ATOM     94  C   UNL     1      10.114   6.773   1.429  1.00  0.00     0.134 A 
ATOM     95  C   UNL     1       9.945   4.681   2.575  1.00  0.00     0.134 A 
ATOM     96  F   UNL     1      10.203   8.113   1.423  1.00  0.00    -0.206 F 
ATOM     97  C   UNL     1       9.986   6.118   0.202  1.00  0.00     0.040 A 
ATOM     98  C   UNL     1       9.843   4.011   1.353  1.00  0.00     0.040 A 
ATOM     99  F   UNL     1       9.830   3.948   3.692  1.00  0.00    -0.206 F 
ATOM    100  C   UNL     1       9.861   4.731   0.161  1.00  0.00     0.006 A 
ENDBRANCH  76  93
ENDBRANCH  50  51
ENDBRANCH  42  45
ENDBRANCH  40  41
ENDBRANCH  39  40
ENDBRANCH  38  39
ENDBRANCH  37  38
ENDBRANCH   1  37
TORSDOF 19
