REMARK SMILES CCC[NH+]1CCC(NC(=O)NC2(CC(=O)NCCCCCCNC(=O)c3ccc(-c4c5nc(c(-c6c(F)cccc6F)c6ccc([nH]6)c(-c6c(F)cccc6F)c6nc(c(-c7c(F)cccc7F)c7ccc4[nH]7)C=C6)C=C5)cc3)CCC2)CC1
REMARK SMILES IDX 18 1 17 2 16 3 14 4 15 5 13 7 12 8 80 9 82 10 81 11 11 12
REMARK SMILES IDX 8 13 9 14 10 16 7 18 4 19 5 20 84 21 6 23 83 24 3 25 2 26
REMARK SMILES IDX 1 27 19 28 20 29 21 30 22 31 23 32 24 33 25 35 26 36 27 37
REMARK SMILES IDX 79 38 28 39 78 40 29 41 30 42 31 43 72 44 32 45 77 46 71 47
REMARK SMILES IDX 73 48 33 49 76 50 70 51 69 52 34 54 60 55 43 56 59 57 44 58
REMARK SMILES IDX 47 59 58 60 74 61 45 62 46 63 57 65 75 66 48 67 35 68 36 69
REMARK SMILES IDX 41 70 37 71 38 72 40 73 42 74 39 75 61 76 62 77 67 78 63 79
REMARK SMILES IDX 64 80 66 81 68 82 65 83 49 84 50 85 55 86 51 87 52 88 54 89
REMARK SMILES IDX 56 90 53 91
REMARK H PARENT 16 6 8 15 11 17 4 22 23 34 73 53 47 64
REMARK Flexibility Score: inf
ROOT
ATOM      1  C   UNL     1      -2.019  -7.524   1.517  1.00  0.00     0.021 C 
ENDROOT
BRANCH   1   2
ATOM      2  C   UNL     1      -3.410  -7.826   0.944  1.00  0.00     0.116 C 
BRANCH   2   3
ATOM      3  N   UNL     1      -4.420  -7.796   1.980  1.00  0.00    -0.356 N 
ATOM      4  C   UNL     1      -5.199  -6.780   2.432  1.00  0.00     0.222 C 
ATOM      5  O   UNL     1      -5.893  -6.990   3.430  1.00  0.00    -0.275 OA
ATOM      6  H   UNL     1      -4.566  -8.658   2.434  1.00  0.00     0.163 HD
BRANCH   4   7
ATOM      7  C   UNL     1      -5.232  -5.417   1.766  1.00  0.00     0.128 C 
BRANCH   7   8
ATOM      8  C   UNL     1      -4.060  -4.459   2.098  1.00  0.00     0.051 C 
ATOM      9  C   UNL     1      -4.332  -2.968   1.728  1.00  0.00     0.029 C 
ATOM     10  C   UNL     1      -3.049  -4.514   0.933  1.00  0.00     0.029 C 
ATOM     11  C   UNL     1      -3.574  -3.168   0.412  1.00  0.00     0.005 C 
BRANCH   8  12
ATOM     12  N   UNL     1      -3.675  -4.628   3.530  1.00  0.00    -0.332 N 
ATOM     13  N   UNL     1      -1.691  -3.484   4.248  1.00  0.00    -0.335 N 
ATOM     14  C   UNL     1      -2.794  -4.207   4.452  1.00  0.00     0.315 C 
ATOM     15  H   UNL     1      -1.255  -3.183   5.077  1.00  0.00     0.165 HD
ATOM     16  O   UNL     1      -3.031  -4.525   5.623  1.00  0.00    -0.249 OA
ATOM     17  H   UNL     1      -4.282  -5.281   3.946  1.00  0.00     0.165 HD
BRANCH  13  18
ATOM     18  C   UNL     1      -1.017  -3.060   3.054  1.00  0.00     0.095 C 
ATOM     19  N   UNL     1       0.857  -2.138   1.040  1.00  0.00    -0.335 N 
ATOM     20  C   UNL     1      -0.196  -1.278   1.604  1.00  0.00     0.264 C 
ATOM     21  C   UNL     1       0.678  -3.581   1.307  1.00  0.00     0.264 C 
ATOM     22  H   UNL     1       1.689  -1.816   1.534  1.00  0.00     0.348 HD
ATOM     23  C   UNL     1      -0.565  -1.615   3.052  1.00  0.00     0.086 C 
ATOM     24  C   UNL     1       0.183  -3.934   2.709  1.00  0.00     0.086 C 
BRANCH  19  25
ATOM     25  C   UNL     1       1.048  -1.961  -0.422  1.00  0.00     0.261 C 
BRANCH  25  26
ATOM     26  C   UNL     1       0.791  -0.582  -1.046  1.00  0.00     0.058 C 
ATOM     27  C   UNL     1       1.728   0.511  -0.570  1.00  0.00     0.010 C 
ENDBRANCH  25  26
ENDBRANCH  19  25
ENDBRANCH  13  18
ENDBRANCH   8  12
ENDBRANCH   7   8
ENDBRANCH   4   7
ENDBRANCH   2   3
ENDBRANCH   1   2
BRANCH   1  28
ATOM     28  C   UNL     1      -1.232  -8.787   1.880  1.00  0.00     0.002 C 
BRANCH  28  29
ATOM     29  C   UNL     1      -0.764  -9.599   0.665  1.00  0.00     0.002 C 
BRANCH  29  30
ATOM     30  C   UNL     1       0.240  -8.883  -0.243  1.00  0.00     0.021 C 
BRANCH  30  31
ATOM     31  C   UNL     1       1.563  -8.540   0.434  1.00  0.00     0.116 C 
BRANCH  31  32
ATOM     32  N   UNL     1       2.276  -9.739   0.853  1.00  0.00    -0.352 N 
ATOM     33  C   UNL     1       3.466 -10.246   0.391  1.00  0.00     0.251 C 
ATOM     34  H   UNL     1       1.844 -10.259   1.569  1.00  0.00     0.163 HD
ATOM     35  O   UNL     1       3.796 -11.397   0.648  1.00  0.00    -0.269 OA
BRANCH  33  36
ATOM     36  C   UNL     1       4.347  -9.386  -0.423  1.00  0.00     0.039 A 
ATOM     37  C   UNL     1       4.931  -9.899  -1.583  1.00  0.00     0.014 A 
ATOM     38  C   UNL     1       4.597  -8.070  -0.026  1.00  0.00     0.014 A 
ATOM     39  C   UNL     1       5.722  -9.069  -2.381  1.00  0.00     0.010 A 
ATOM     40  C   UNL     1       5.316  -7.225  -0.859  1.00  0.00     0.010 A 
ATOM     41  C   UNL     1       5.894  -7.718  -2.040  1.00  0.00    -0.014 A 
BRANCH  41  42
ATOM     42  C   UNL     1       6.701  -6.791  -2.872  1.00  0.00     0.031 A 
ATOM     43  C   UNL     1       7.934  -6.160  -2.287  1.00  0.00     0.074 A 
ATOM     44  C   UNL     1       6.275  -6.441  -4.100  1.00  0.00     0.049 A 
ATOM     45  N   UNL     1       8.682  -5.201  -2.769  1.00  0.00    -0.248 NA
ATOM     46  C   UNL     1       8.360  -6.651  -0.966  1.00  0.00     0.031 C 
ATOM     47  C   UNL     1       5.082  -6.966  -4.767  1.00  0.00     0.029 A 
ATOM     48  N   UNL     1       6.787  -5.539  -4.998  1.00  0.00    -0.354 N 
ATOM     49  C   UNL     1       9.648  -4.958  -1.801  1.00  0.00     0.074 A 
ATOM     50  C   UNL     1       9.361  -5.831  -0.684  1.00  0.00     0.031 C 
ATOM     51  C   UNL     1       4.959  -6.383  -5.970  1.00  0.00     0.029 A 
ATOM     52  C   UNL     1       6.033  -5.409  -6.140  1.00  0.00     0.049 A 
ATOM     53  H   UNL     1       7.616  -5.032  -4.840  1.00  0.00     0.167 HD
ATOM     54  C   UNL     1      10.692  -4.097  -1.847  1.00  0.00     0.037 A 
ATOM     55  C   UNL     1       6.180  -4.582  -7.192  1.00  0.00     0.037 A 
ATOM     56  C   UNL     1      10.985  -3.249  -2.971  1.00  0.00     0.049 A 
ATOM     57  C   UNL     1       7.334  -3.616  -7.211  1.00  0.00     0.074 A 
ATOM     58  C   UNL     1      12.045  -2.376  -3.139  1.00  0.00     0.029 A 
ATOM     59  N   UNL     1      10.212  -3.169  -4.120  1.00  0.00    -0.354 N 
ATOM     60  N   UNL     1       8.268  -3.427  -6.310  1.00  0.00    -0.248 NA
ATOM     61  C   UNL     1       7.457  -2.749  -8.392  1.00  0.00     0.031 C 
ATOM     62  C   UNL     1      11.887  -1.730  -4.368  1.00  0.00     0.029 A 
ATOM     63  C   UNL     1      10.762  -2.246  -4.994  1.00  0.00     0.049 A 
ATOM     64  H   UNL     1       9.394  -3.690  -4.290  1.00  0.00     0.167 HD
ATOM     65  C   UNL     1       9.112  -2.455  -6.834  1.00  0.00     0.074 A 
ATOM     66  C   UNL     1       8.578  -2.092  -8.130  1.00  0.00     0.031 C 
ATOM     67  C   UNL     1      10.232  -1.917  -6.293  1.00  0.00     0.037 A 
BRANCH  54  68
ATOM     68  C   UNL     1      11.588  -4.027  -0.644  1.00  0.00     0.057 A 
ATOM     69  C   UNL     1      12.432  -5.087  -0.286  1.00  0.00     0.134 A 
ATOM     70  C   UNL     1      11.630  -2.874   0.149  1.00  0.00     0.134 A 
ATOM     71  F   UNL     1      12.433  -6.226  -0.996  1.00  0.00    -0.206 F 
ATOM     72  C   UNL     1      13.261  -5.015   0.835  1.00  0.00     0.040 A 
ATOM     73  C   UNL     1      12.478  -2.777   1.254  1.00  0.00     0.040 A 
ATOM     74  F   UNL     1      10.855  -1.818  -0.141  1.00  0.00    -0.206 F 
ATOM     75  C   UNL     1      13.290  -3.854   1.604  1.00  0.00     0.006 A 
ENDBRANCH  54  68
BRANCH  55  76
ATOM     76  C   UNL     1       5.219  -4.637  -8.323  1.00  0.00     0.057 A 
ATOM     77  C   UNL     1       5.613  -5.112  -9.580  1.00  0.00     0.134 A 
ATOM     78  C   UNL     1       3.893  -4.210  -8.183  1.00  0.00     0.134 A 
ATOM     79  F   UNL     1       6.875  -5.519  -9.783  1.00  0.00    -0.206 F 
ATOM     80  C   UNL     1       4.731  -5.138 -10.662  1.00  0.00     0.040 A 
ATOM     81  C   UNL     1       2.993  -4.257  -9.249  1.00  0.00     0.040 A 
ATOM     82  F   UNL     1       3.449  -3.754  -7.003  1.00  0.00    -0.206 F 
ATOM     83  C   UNL     1       3.415  -4.714 -10.496  1.00  0.00     0.006 A 
ENDBRANCH  55  76
BRANCH  67  84
ATOM     84  C   UNL     1      11.002  -0.930  -7.120  1.00  0.00     0.057 A 
ATOM     85  C   UNL     1      10.544   0.374  -7.343  1.00  0.00     0.134 A 
ATOM     86  C   UNL     1      12.259  -1.272  -7.636  1.00  0.00     0.134 A 
ATOM     87  F   UNL     1       9.343   0.761  -6.886  1.00  0.00    -0.206 F 
ATOM     88  C   UNL     1      11.305   1.300  -8.059  1.00  0.00     0.040 A 
ATOM     89  C   UNL     1      13.040  -0.348  -8.329  1.00  0.00     0.040 A 
ATOM     90  F   UNL     1      12.759  -2.503  -7.450  1.00  0.00    -0.206 F 
ATOM     91  C   UNL     1      12.562   0.942  -8.545  1.00  0.00     0.006 A 
ENDBRANCH  67  84
ENDBRANCH  41  42
ENDBRANCH  33  36
ENDBRANCH  31  32
ENDBRANCH  30  31
ENDBRANCH  29  30
ENDBRANCH  28  29
ENDBRANCH   1  28
TORSDOF 18
