REMARK SMILES Cc1ccc(N2C(=O)/C(=C\c3ccccc3O[C@H](C)C(=O)NCCCCCCNC(=O)c3ccc(-c4c5nc(c(-c6c(F)cccc6F)c6ccc([nH]6)c(-c6c(F)cccc6F)c6nc(c(-c7c(F)cccc7F)c7ccc4[nH]7)C=C6)C=C5)cc3)SC2=S)c(C)c1
REMARK SMILES IDX 24 1 23 2 22 3 20 4 21 5 18 7 19 8 17 9 16 10 11 11 12 12
REMARK SMILES IDX 13 13 15 14 14 15 10 16 6 17 7 18 87 19 8 20 9 21 86 22
REMARK SMILES IDX 88 23 5 24 1 25 2 26 3 27 91 28 4 29 89 30 90 31 25 32 26 33
REMARK SMILES IDX 27 34 28 35 29 36 30 37 31 39 32 40 33 41 85 42 34 43 84 44
REMARK SMILES IDX 35 45 36 46 37 47 78 48 38 49 83 50 77 51 79 52 39 53 82 54
REMARK SMILES IDX 76 55 75 56 40 58 66 59 49 60 65 61 50 62 53 63 64 64 80 65
REMARK SMILES IDX 51 66 52 67 63 69 81 70 54 71 41 72 42 73 47 74 43 75 44 76
REMARK SMILES IDX 46 77 48 78 45 79 67 80 68 81 73 82 69 83 70 84 72 85 74 86
REMARK SMILES IDX 71 87 55 88 56 89 61 90 57 91 58 92 60 93 62 94 59 95
REMARK H PARENT 22 6 29 38 79 57 53 68
REMARK Flexibility Score: inf
ROOT
ATOM      1  C   UNL     1      -7.134  -2.191  -3.541  1.00  0.00     0.021 C 
ENDROOT
BRANCH   1   2
ATOM      2  C   UNL     1      -6.263  -2.267  -2.291  1.00  0.00     0.116 C 
BRANCH   2   3
ATOM      3  N   UNL     1      -5.796  -3.618  -2.024  1.00  0.00    -0.353 N 
ATOM      4  C   UNL     1      -4.516  -4.115  -2.050  1.00  0.00     0.260 C 
ATOM      5  O   UNL     1      -4.346  -5.294  -1.728  1.00  0.00    -0.271 OA
ATOM      6  H   UNL     1      -6.498  -4.269  -1.793  1.00  0.00     0.163 HD
BRANCH   4   7
ATOM      7  C   UNL     1      -3.346  -3.224  -2.506  1.00  0.00     0.258 C 
ATOM      8  C   UNL     1      -3.521  -2.925  -3.992  1.00  0.00     0.064 C 
BRANCH   7   9
ATOM      9  O   UNL     1      -3.423  -2.124  -1.605  1.00  0.00    -0.480 OA
BRANCH   9  10
ATOM     10  C   UNL     1      -2.607  -1.038  -1.612  1.00  0.00     0.127 A 
ATOM     11  C   UNL     1      -2.731  -0.208  -0.474  1.00  0.00     0.018 A 
ATOM     12  C   UNL     1      -2.061   1.019  -0.427  1.00  0.00     0.012 A 
ATOM     13  C   UNL     1      -1.232   1.399  -1.480  1.00  0.00     0.001 A 
ATOM     14  C   UNL     1      -1.733  -0.675  -2.630  1.00  0.00     0.047 A 
ATOM     15  C   UNL     1      -1.053   0.545  -2.567  1.00  0.00     0.004 A 
BRANCH  11  16
ATOM     16  C   UNL     1      -3.542  -0.613   0.688  1.00  0.00     0.033 C 
ATOM     17  N   UNL     1      -2.322  -3.705   2.238  1.00  0.00    -0.261 N 
ATOM     18  C   UNL     1      -2.175  -2.671   1.317  1.00  0.00     0.270 C 
ATOM     19  C   UNL     1      -3.407  -3.623   3.096  1.00  0.00     0.152 C 
ATOM     20  O   UNL     1      -1.270  -2.551   0.501  1.00  0.00    -0.268 OA
ATOM     21  C   UNL     1      -3.304  -1.697   1.446  1.00  0.00     0.081 C 
ATOM     22  S   UNL     1      -4.346  -2.174   2.732  1.00  0.00    -0.054 SA
ATOM     23  S   UNL     1      -3.826  -4.603   4.387  1.00  0.00    -0.051 S 
BRANCH  17  24
ATOM     24  C   UNL     1      -1.403  -4.799   2.207  1.00  0.00     0.054 A 
ATOM     25  C   UNL     1       1.276  -8.156   1.678  1.00  0.00     0.044 C 
ATOM     26  C   UNL     1       0.336  -7.007   1.887  1.00  0.00    -0.051 A 
ATOM     27  C   UNL     1      -1.046  -7.186   1.839  1.00  0.00     0.005 A 
ATOM     28  C   UNL     1       0.844  -5.723   2.116  1.00  0.00     0.009 A 
ATOM     29  C   UNL     1      -1.905  -6.095   1.992  1.00  0.00     0.027 A 
ATOM     30  C   UNL     1      -0.007  -4.615   2.295  1.00  0.00    -0.027 A 
ATOM     31  C   UNL     1       0.647  -3.287   2.571  1.00  0.00     0.046 C 
ENDBRANCH  17  24
ENDBRANCH  11  16
ENDBRANCH   9  10
ENDBRANCH   7   9
ENDBRANCH   4   7
ENDBRANCH   2   3
ENDBRANCH   1   2
BRANCH   1  32
ATOM     32  C   UNL     1      -8.522  -2.816  -3.387  1.00  0.00     0.002 C 
BRANCH  32  33
ATOM     33  C   UNL     1      -9.373  -2.256  -2.242  1.00  0.00     0.002 C 
BRANCH  33  34
ATOM     34  C   UNL     1      -9.524  -0.732  -2.211  1.00  0.00     0.021 C 
BRANCH  34  35
ATOM     35  C   UNL     1     -10.108  -0.112  -3.477  1.00  0.00     0.116 C 
BRANCH  35  36
ATOM     36  N   UNL     1     -11.463  -0.567  -3.742  1.00  0.00    -0.352 N 
ATOM     37  C   UNL     1     -12.598   0.163  -3.989  1.00  0.00     0.251 C 
ATOM     38  H   UNL     1     -11.584  -1.544  -3.744  1.00  0.00     0.163 HD
ATOM     39  O   UNL     1     -13.690  -0.394  -4.026  1.00  0.00    -0.269 OA
BRANCH  37  40
ATOM     40  C   UNL     1     -12.515   1.626  -4.193  1.00  0.00     0.039 A 
ATOM     41  C   UNL     1     -13.460   2.446  -3.568  1.00  0.00     0.014 A 
ATOM     42  C   UNL     1     -11.537   2.189  -5.019  1.00  0.00     0.014 A 
ATOM     43  C   UNL     1     -13.394   3.831  -3.730  1.00  0.00     0.010 A 
ATOM     44  C   UNL     1     -11.434   3.574  -5.129  1.00  0.00     0.010 A 
ATOM     45  C   UNL     1     -12.366   4.408  -4.492  1.00  0.00    -0.014 A 
BRANCH  45  46
ATOM     46  C   UNL     1     -12.260   5.881  -4.645  1.00  0.00     0.031 A 
ATOM     47  C   UNL     1     -12.461   6.518  -5.992  1.00  0.00     0.074 A 
ATOM     48  C   UNL     1     -11.930   6.641  -3.583  1.00  0.00     0.049 A 
ATOM     49  N   UNL     1     -12.351   7.776  -6.337  1.00  0.00    -0.248 NA
ATOM     50  C   UNL     1     -12.805   5.617  -7.104  1.00  0.00     0.031 C 
ATOM     51  C   UNL     1     -11.666   6.141  -2.233  1.00  0.00     0.029 A 
ATOM     52  N   UNL     1     -11.750   7.998  -3.477  1.00  0.00    -0.354 N 
ATOM     53  C   UNL     1     -12.596   7.815  -7.704  1.00  0.00     0.074 A 
ATOM     54  C   UNL     1     -12.813   6.450  -8.134  1.00  0.00     0.031 C 
ATOM     55  C   UNL     1     -11.377   7.178  -1.430  1.00  0.00     0.029 A 
ATOM     56  C   UNL     1     -11.405   8.410  -2.212  1.00  0.00     0.049 A 
ATOM     57  H   UNL     1     -11.858   8.617  -4.234  1.00  0.00     0.167 HD
ATOM     58  C   UNL     1     -12.656   8.892  -8.523  1.00  0.00     0.037 A 
ATOM     59  C   UNL     1     -11.139   9.642  -1.739  1.00  0.00     0.037 A 
ATOM     60  C   UNL     1     -12.473  10.252  -8.090  1.00  0.00     0.049 A 
ATOM     61  C   UNL     1     -11.221  10.822  -2.666  1.00  0.00     0.074 A 
ATOM     62  C   UNL     1     -12.579  11.415  -8.832  1.00  0.00     0.029 A 
ATOM     63  N   UNL     1     -12.147  10.630  -6.796  1.00  0.00    -0.354 N 
ATOM     64  N   UNL     1     -11.516  10.851  -3.943  1.00  0.00    -0.248 NA
ATOM     65  C   UNL     1     -10.938  12.142  -2.085  1.00  0.00     0.031 C 
ATOM     66  C   UNL     1     -12.283  12.496  -7.994  1.00  0.00     0.029 A 
ATOM     67  C   UNL     1     -12.031  12.008  -6.722  1.00  0.00     0.049 A 
ATOM     68  H   UNL     1     -12.018  10.010  -6.042  1.00  0.00     0.167 HD
ATOM     69  C   UNL     1     -11.480  12.189  -4.312  1.00  0.00     0.074 A 
ATOM     70  C   UNL     1     -11.146  12.943  -3.121  1.00  0.00     0.031 C 
ATOM     71  C   UNL     1     -11.705  12.743  -5.528  1.00  0.00     0.037 A 
BRANCH  58  72
ATOM     72  C   UNL     1     -12.939   8.640  -9.975  1.00  0.00     0.057 A 
ATOM     73  C   UNL     1     -14.205   8.237 -10.420  1.00  0.00     0.134 A 
ATOM     74  C   UNL     1     -11.945   8.831 -10.942  1.00  0.00     0.134 A 
ATOM     75  F   UNL     1     -15.198   8.024  -9.542  1.00  0.00    -0.206 F 
ATOM     76  C   UNL     1     -14.465   8.008 -11.772  1.00  0.00     0.040 A 
ATOM     77  C   UNL     1     -12.200   8.630 -12.300  1.00  0.00     0.040 A 
ATOM     78  F   UNL     1     -10.713   9.222 -10.585  1.00  0.00    -0.206 F 
ATOM     79  C   UNL     1     -13.462   8.210 -12.717  1.00  0.00     0.006 A 
ENDBRANCH  58  72
BRANCH  59  80
ATOM     80  C   UNL     1     -10.797   9.828  -0.307  1.00  0.00     0.057 A 
ATOM     81  C   UNL     1     -11.700  10.431   0.576  1.00  0.00     0.134 A 
ATOM     82  C   UNL     1      -9.564   9.414   0.210  1.00  0.00     0.134 A 
ATOM     83  F   UNL     1     -12.889  10.864   0.133  1.00  0.00    -0.206 F 
ATOM     84  C   UNL     1     -11.383  10.632   1.920  1.00  0.00     0.040 A 
ATOM     85  C   UNL     1      -9.243   9.589   1.557  1.00  0.00     0.040 A 
ATOM     86  F   UNL     1      -8.659   8.823  -0.584  1.00  0.00    -0.206 F 
ATOM     87  C   UNL     1     -10.153  10.205   2.415  1.00  0.00     0.006 A 
ENDBRANCH  59  80
BRANCH  71  88
ATOM     88  C   UNL     1     -11.625  14.237  -5.625  1.00  0.00     0.057 A 
ATOM     89  C   UNL     1     -10.399  14.913  -5.601  1.00  0.00     0.134 A 
ATOM     90  C   UNL     1     -12.787  15.003  -5.787  1.00  0.00     0.134 A 
ATOM     91  F   UNL     1      -9.253  14.237  -5.435  1.00  0.00    -0.206 F 
ATOM     92  C   UNL     1     -10.332  16.303  -5.717  1.00  0.00     0.040 A 
ATOM     93  C   UNL     1     -12.730  16.390  -5.927  1.00  0.00     0.040 A 
ATOM     94  F   UNL     1     -13.991  14.415  -5.826  1.00  0.00    -0.206 F 
ATOM     95  C   UNL     1     -11.500  17.044  -5.888  1.00  0.00     0.006 A 
ENDBRANCH  71  88
ENDBRANCH  45  46
ENDBRANCH  37  40
ENDBRANCH  35  36
ENDBRANCH  34  35
ENDBRANCH  33  34
ENDBRANCH  32  33
ENDBRANCH   1  32
TORSDOF 17
