REMARK SMILES C[C@H](O)[C@H](NC(=O)N1CC[N@@H+]2CCC[C@@H]2C1)C(=O)NCCCCCCNC(=O)c1ccc(-c2c3nc(c(-c4c(F)cccc4F)c4ccc([nH]4)c(-c4c(F)cccc4F)c4nc(c(-c5c(F)cccc5F)c5ccc2[nH]5)C=C4)C=C3)cc1
REMARK SMILES IDX 22 1 21 2 20 3 19 4 17 5 18 6 4 8 2 9 1 10 3 11 5 13 6 14
REMARK SMILES IDX 7 16 8 17 9 18 16 19 10 20 15 21 11 22 14 23 12 24 13 26
REMARK SMILES IDX 23 27 24 28 25 29 26 30 27 31 28 33 29 34 30 35 82 36 31 37
REMARK SMILES IDX 81 38 32 39 33 40 34 41 75 42 35 43 80 44 74 45 76 46 36 47
REMARK SMILES IDX 79 48 73 49 72 50 37 52 63 53 46 54 62 55 47 56 50 57 61 58
REMARK SMILES IDX 77 59 48 60 49 61 60 63 78 64 51 65 38 66 39 67 44 68 40 69
REMARK SMILES IDX 41 70 43 71 45 72 42 73 64 74 65 75 70 76 66 77 67 78 69 79
REMARK SMILES IDX 71 80 68 81 52 82 53 83 58 84 54 85 55 86 57 87 59 88 56 89
REMARK H PARENT 19 7 3 12 5 15 11 25 26 32 76 51 50 62
REMARK Flexibility Score: inf
ROOT
ATOM      1  C   UNL     1       0.430   4.837   4.038  1.00  0.00     0.002 C 
ENDROOT
BRANCH   1   2
ATOM      2  C   UNL     1       0.776   3.512   3.347  1.00  0.00     0.021 C 
BRANCH   2   3
ATOM      3  C   UNL     1      -0.464   2.743   2.898  1.00  0.00     0.116 C 
BRANCH   3   4
ATOM      4  N   UNL     1      -0.992   3.339   1.695  1.00  0.00    -0.354 N 
ATOM      5  C   UNL     1      -1.251   2.784   0.482  1.00  0.00     0.245 C 
ATOM      6  O   UNL     1      -1.517   3.558  -0.446  1.00  0.00    -0.273 OA
ATOM      7  H   UNL     1      -1.196   4.300   1.763  1.00  0.00     0.163 HD
BRANCH   5   8
ATOM      8  C   UNL     1      -1.239   1.254   0.247  1.00  0.00     0.201 C 
BRANCH   8   9
ATOM      9  C   UNL     1      -2.402   0.560   1.012  1.00  0.00     0.143 C 
ATOM     10  C   UNL     1      -3.196  -0.389   0.099  1.00  0.00     0.041 C 
BRANCH   9  11
ATOM     11  O   UNL     1      -3.364   1.508   1.504  1.00  0.00    -0.391 OA
ATOM     12  H   UNL     1      -3.775   1.969   0.755  1.00  0.00     0.211 HD
ENDBRANCH   9  11
ENDBRANCH   8   9
BRANCH   8  13
ATOM     13  N   UNL     1       0.134   0.673   0.238  1.00  0.00    -0.324 N 
ATOM     14  C   UNL     1       0.889   0.211   1.267  1.00  0.00     0.318 C 
ATOM     15  H   UNL     1       0.556   0.615  -0.649  1.00  0.00     0.166 HD
ATOM     16  O   UNL     1       1.927   0.814   1.538  1.00  0.00    -0.249 OA
BRANCH  14  17
ATOM     17  N   UNL     1       0.473  -0.896   1.956  1.00  0.00    -0.313 N 
ATOM     18  C   UNL     1      -0.213  -2.003   1.310  1.00  0.00     0.183 C 
ATOM     19  C   UNL     1       0.903  -1.089   3.335  1.00  0.00     0.186 C 
ATOM     20  C   UNL     1      -0.361  -3.316   2.099  1.00  0.00     0.284 C 
ATOM     21  C   UNL     1       1.415  -2.504   3.644  1.00  0.00     0.204 C 
ATOM     22  N   UNL     1       0.619  -3.630   3.130  1.00  0.00    -0.330 N 
ATOM     23  C   UNL     1       1.514  -2.740   5.158  1.00  0.00     0.073 C 
ATOM     24  C   UNL     1       0.032  -4.347   4.263  1.00  0.00     0.262 C 
ATOM     25  H   UNL     1       1.270  -4.229   2.622  1.00  0.00     0.348 HD
ATOM     26  C   UNL     1       1.072  -4.180   5.349  1.00  0.00     0.068 C 
ENDBRANCH  14  17
ENDBRANCH   8  13
ENDBRANCH   5   8
ENDBRANCH   3   4
ENDBRANCH   2   3
ENDBRANCH   1   2
BRANCH   1  27
ATOM     27  C   UNL     1      -0.361   4.678   5.341  1.00  0.00     0.002 C 
BRANCH  27  28
ATOM     28  C   UNL     1       0.311   3.789   6.390  1.00  0.00     0.021 C 
BRANCH  28  29
ATOM     29  C   UNL     1       1.714   4.238   6.787  1.00  0.00     0.116 C 
BRANCH  29  30
ATOM     30  N   UNL     1       1.714   5.582   7.340  1.00  0.00    -0.352 N 
ATOM     31  C   UNL     1       2.240   6.045   8.518  1.00  0.00     0.251 C 
ATOM     32  H   UNL     1       1.270   6.262   6.785  1.00  0.00     0.163 HD
ATOM     33  O   UNL     1       1.956   7.169   8.916  1.00  0.00    -0.269 OA
BRANCH  31  34
ATOM     34  C   UNL     1       3.133   5.183   9.320  1.00  0.00     0.039 A 
ATOM     35  C   UNL     1       2.976   5.171  10.708  1.00  0.00     0.014 A 
ATOM     36  C   UNL     1       4.133   4.412   8.719  1.00  0.00     0.014 A 
ATOM     37  C   UNL     1       3.787   4.346  11.487  1.00  0.00     0.010 A 
ATOM     38  C   UNL     1       4.891   3.534   9.490  1.00  0.00     0.010 A 
ATOM     39  C   UNL     1       4.729   3.496  10.882  1.00  0.00    -0.014 A 
BRANCH  39  40
ATOM     40  C   UNL     1       5.523   2.551  11.706  1.00  0.00     0.031 A 
ATOM     41  C   UNL     1       7.017   2.687  11.810  1.00  0.00     0.074 A 
ATOM     42  C   UNL     1       4.891   1.546  12.341  1.00  0.00     0.049 A 
ATOM     43  N   UNL     1       7.863   1.968  12.505  1.00  0.00    -0.248 NA
ATOM     44  C   UNL     1       7.646   3.751  11.014  1.00  0.00     0.031 C 
ATOM     45  C   UNL     1       3.454   1.271  12.267  1.00  0.00     0.029 A 
ATOM     46  N   UNL     1       5.372   0.571  13.178  1.00  0.00    -0.354 N 
ATOM     47  C   UNL     1       9.120   2.490  12.229  1.00  0.00     0.074 A 
ATOM     48  C   UNL     1       8.933   3.548  11.259  1.00  0.00     0.031 C 
ATOM     49  C   UNL     1       3.165   0.224  13.055  1.00  0.00     0.029 A 
ATOM     50  C   UNL     1       4.397  -0.267  13.662  1.00  0.00     0.049 A 
ATOM     51  H   UNL     1       6.324   0.480  13.408  1.00  0.00     0.167 HD
ATOM     52  C   UNL     1      10.318   2.136  12.753  1.00  0.00     0.037 A 
ATOM     53  C   UNL     1       4.486  -1.313  14.505  1.00  0.00     0.037 A 
ATOM     54  C   UNL     1      10.498   1.090  13.727  1.00  0.00     0.049 A 
ATOM     55  C   UNL     1       5.826  -1.680  15.078  1.00  0.00     0.074 A 
ATOM     56  C   UNL     1      11.662   0.697  14.365  1.00  0.00     0.029 A 
ATOM     57  N   UNL     1       9.488   0.266  14.199  1.00  0.00    -0.354 N 
ATOM     58  N   UNL     1       6.995  -1.122  14.872  1.00  0.00    -0.248 NA
ATOM     59  C   UNL     1       5.856  -2.815  16.009  1.00  0.00     0.031 C 
ATOM     60  C   UNL     1      11.365  -0.399  15.183  1.00  0.00     0.029 A 
ATOM     61  C   UNL     1      10.006  -0.653  15.099  1.00  0.00     0.049 A 
ATOM     62  H   UNL     1       8.541   0.324  13.933  1.00  0.00     0.167 HD
ATOM     63  C   UNL     1       7.894  -1.824  15.663  1.00  0.00     0.074 A 
ATOM     64  C   UNL     1       7.130  -2.829  16.373  1.00  0.00     0.031 C 
ATOM     65  C   UNL     1       9.234  -1.655  15.789  1.00  0.00     0.037 A 
BRANCH  52  66
ATOM     66  C   UNL     1      11.530   2.890  12.285  1.00  0.00     0.057 A 
ATOM     67  C   UNL     1      11.748   4.231  12.630  1.00  0.00     0.134 A 
ATOM     68  C   UNL     1      12.513   2.257  11.513  1.00  0.00     0.134 A 
ATOM     69  F   UNL     1      10.842   4.901  13.359  1.00  0.00    -0.206 F 
ATOM     70  C   UNL     1      12.884   4.921  12.204  1.00  0.00     0.040 A 
ATOM     71  C   UNL     1      13.667   2.928  11.105  1.00  0.00     0.040 A 
ATOM     72  F   UNL     1      12.373   0.973  11.151  1.00  0.00    -0.206 F 
ATOM     73  C   UNL     1      13.852   4.267  11.445  1.00  0.00     0.006 A 
ENDBRANCH  52  66
BRANCH  53  74
ATOM     74  C   UNL     1       3.265  -2.071  14.880  1.00  0.00     0.057 A 
ATOM     75  C   UNL     1       2.746  -2.011  16.179  1.00  0.00     0.134 A 
ATOM     76  C   UNL     1       2.595  -2.879  13.955  1.00  0.00     0.134 A 
ATOM     77  F   UNL     1       3.354  -1.267  17.115  1.00  0.00    -0.206 F 
ATOM     78  C   UNL     1       1.620  -2.746  16.551  1.00  0.00     0.040 A 
ATOM     79  C   UNL     1       1.451  -3.598  14.306  1.00  0.00     0.040 A 
ATOM     80  F   UNL     1       3.034  -2.971  12.691  1.00  0.00    -0.206 F 
ATOM     81  C   UNL     1       0.966  -3.539  15.611  1.00  0.00     0.006 A 
ENDBRANCH  53  74
BRANCH  65  82
ATOM     82  C   UNL     1       9.946  -2.569  16.745  1.00  0.00     0.057 A 
ATOM     83  C   UNL     1      10.111  -3.935  16.480  1.00  0.00     0.134 A 
ATOM     84  C   UNL     1      10.474  -2.077  17.945  1.00  0.00     0.134 A 
ATOM     85  F   UNL     1       9.617  -4.474  15.354  1.00  0.00    -0.206 F 
ATOM     86  C   UNL     1      10.739  -4.785  17.392  1.00  0.00     0.040 A 
ATOM     87  C   UNL     1      11.133  -2.911  18.850  1.00  0.00     0.040 A 
ATOM     88  F   UNL     1      10.362  -0.777  18.258  1.00  0.00    -0.206 F 
ATOM     89  C   UNL     1      11.256  -4.272  18.579  1.00  0.00     0.006 A 
ENDBRANCH  65  82
ENDBRANCH  39  40
ENDBRANCH  31  34
ENDBRANCH  29  30
ENDBRANCH  28  29
ENDBRANCH  27  28
ENDBRANCH   1  27
TORSDOF 17
