REMARK SMILES CCOc1cc(/C=C(/F)C(=O)NCCCCCCNC(=O)c2ccc(-c3c4nc(c(-c5c(F)cccc5F)c5ccc([nH]5)c(-c5c(F)cccc5F)c5nc(c(-c6c(F)cccc6F)c6ccc3[nH]6)C=C5)C=C4)cc2)ccc1O
REMARK SMILES IDX 15 1 14 2 13 3 12 4 10 5 11 6 8 8 7 9 9 10 6 11 4 12 5 13
REMARK SMILES IDX 78 14 77 15 76 16 3 17 2 18 1 19 79 20 16 22 17 23 18 24
REMARK SMILES IDX 19 25 20 26 21 28 22 29 23 30 75 31 24 32 74 33 25 34 26 35
REMARK SMILES IDX 27 36 68 37 28 38 73 39 67 40 69 41 29 42 72 43 66 44 65 45
REMARK SMILES IDX 30 47 56 48 39 49 55 50 40 51 43 52 54 53 70 54 41 55 42 56
REMARK SMILES IDX 53 58 71 59 44 60 31 61 32 62 37 63 33 64 34 65 36 66 38 67
REMARK SMILES IDX 35 68 57 69 58 70 63 71 59 72 60 73 62 74 64 75 61 76 45 77
REMARK SMILES IDX 46 78 51 79 47 80 48 81 50 82 52 83 49 84
REMARK H PARENT 12 7 79 21 19 27 69 46 43 57
REMARK Flexibility Score: inf
ROOT
ATOM      1  C   UNL     1       5.065   5.168  -5.290  1.00  0.00     0.002 C 
ENDROOT
BRANCH   1   2
ATOM      2  C   UNL     1       4.631   6.499  -4.663  1.00  0.00     0.021 C 
BRANCH   2   3
ATOM      3  C   UNL     1       3.130   6.792  -4.672  1.00  0.00     0.116 C 
BRANCH   3   4
ATOM      4  N   UNL     1       2.334   5.718  -4.105  1.00  0.00    -0.350 N 
ATOM      5  C   UNL     1       1.532   5.639  -3.006  1.00  0.00     0.280 C 
ATOM      6  O   UNL     1       0.915   4.588  -2.840  1.00  0.00    -0.267 OA
ATOM      7  H   UNL     1       2.384   4.879  -4.617  1.00  0.00     0.163 HD
BRANCH   5   8
ATOM      8  C   UNL     1       1.410   6.788  -2.063  1.00  0.00     0.188 C 
ATOM      9  C   UNL     1       0.988   6.771  -0.789  1.00  0.00     0.053 C 
ATOM     10  F   UNL     1       1.690   8.003  -2.584  1.00  0.00    -0.201 F 
BRANCH   9  11
ATOM     11  C   UNL     1       0.561   5.672   0.092  1.00  0.00    -0.019 A 
ATOM     12  C   UNL     1       0.726   3.416   1.007  1.00  0.00     0.161 A 
ATOM     13  C   UNL     1       1.149   4.399   0.103  1.00  0.00     0.058 A 
ATOM     14  C   UNL     1      -0.237   3.739   1.964  1.00  0.00     0.157 A 
ATOM     15  C   UNL     1      -0.832   4.995   1.973  1.00  0.00     0.051 A 
ATOM     16  C   UNL     1      -0.431   5.957   1.044  1.00  0.00     0.012 A 
BRANCH  12  17
ATOM     17  O   UNL     1       1.370   2.209   0.926  1.00  0.00    -0.490 OA
BRANCH  17  18
ATOM     18  C   UNL     1       0.518   1.058   0.962  1.00  0.00     0.226 C 
ATOM     19  C   UNL     1       1.054   0.020  -0.010  1.00  0.00     0.049 C 
ENDBRANCH  17  18
ENDBRANCH  12  17
BRANCH  14  20
ATOM     20  O   UNL     1      -0.589   2.890   2.973  1.00  0.00    -0.504 OA
ATOM     21  H   UNL     1      -0.217   2.031   3.014  1.00  0.00     0.293 HD
ENDBRANCH  14  20
ENDBRANCH   9  11
ENDBRANCH   5   8
ENDBRANCH   3   4
ENDBRANCH   2   3
ENDBRANCH   1   2
BRANCH   1  22
ATOM     22  C   UNL     1       4.511   4.848  -6.681  1.00  0.00     0.002 C 
BRANCH  22  23
ATOM     23  C   UNL     1       4.725   5.917  -7.753  1.00  0.00     0.021 C 
BRANCH  23  24
ATOM     24  C   UNL     1       6.176   6.303  -8.008  1.00  0.00     0.116 C 
BRANCH  24  25
ATOM     25  N   UNL     1       6.955   5.226  -8.596  1.00  0.00    -0.352 N 
ATOM     26  C   UNL     1       7.802   5.266  -9.682  1.00  0.00     0.251 C 
ATOM     27  H   UNL     1       6.865   4.348  -8.159  1.00  0.00     0.163 HD
ATOM     28  O   UNL     1       8.287   4.242 -10.134  1.00  0.00    -0.269 OA
BRANCH  26  29
ATOM     29  C   UNL     1       8.094   6.570 -10.321  1.00  0.00     0.039 A 
ATOM     30  C   UNL     1       7.974   6.685 -11.709  1.00  0.00     0.014 A 
ATOM     31  C   UNL     1       8.458   7.676  -9.550  1.00  0.00     0.014 A 
ATOM     32  C   UNL     1       8.146   7.932 -12.317  1.00  0.00     0.010 A 
ATOM     33  C   UNL     1       8.564   8.928 -10.148  1.00  0.00     0.010 A 
ATOM     34  C   UNL     1       8.405   9.069 -11.536  1.00  0.00    -0.014 A 
BRANCH  34  35
ATOM     35  C   UNL     1       8.517  10.422 -12.138  1.00  0.00     0.031 A 
ATOM     36  C   UNL     1       9.819  11.169 -12.058  1.00  0.00     0.074 A 
ATOM     37  C   UNL     1       7.430  11.016 -12.668  1.00  0.00     0.049 A 
ATOM     38  N   UNL     1      10.084  12.409 -12.382  1.00  0.00    -0.248 NA
ATOM     39  C   UNL     1      10.968  10.430 -11.512  1.00  0.00     0.031 C 
ATOM     40  C   UNL     1       6.101  10.412 -12.775  1.00  0.00     0.029 A 
ATOM     41  N   UNL     1       7.267  12.272 -13.197  1.00  0.00    -0.354 N 
ATOM     42  C   UNL     1      11.419  12.606 -12.054  1.00  0.00     0.074 A 
ATOM     43  C   UNL     1      11.899  11.372 -11.470  1.00  0.00     0.031 C 
ATOM     44  C   UNL     1       5.262  11.294 -13.342  1.00  0.00     0.029 A 
ATOM     45  C   UNL     1       5.981  12.538 -13.601  1.00  0.00     0.049 A 
ATOM     46  H   UNL     1       8.003  12.921 -13.279  1.00  0.00     0.167 HD
ATOM     47  C   UNL     1      12.181  13.710 -12.239  1.00  0.00     0.037 A 
ATOM     48  C   UNL     1       5.440  13.662 -14.107  1.00  0.00     0.037 A 
ATOM     49  C   UNL     1      11.712  14.925 -12.851  1.00  0.00     0.049 A 
ATOM     50  C   UNL     1       6.307  14.874 -14.305  1.00  0.00     0.074 A 
ATOM     51  C   UNL     1      12.422  16.079 -13.131  1.00  0.00     0.029 A 
ATOM     52  N   UNL     1      10.412  15.139 -13.282  1.00  0.00    -0.354 N 
ATOM     53  N   UNL     1       7.579  15.033 -14.032  1.00  0.00    -0.248 NA
ATOM     54  C   UNL     1       5.665  16.063 -14.885  1.00  0.00     0.031 C 
ATOM     55  C   UNL     1      11.543  17.005 -13.703  1.00  0.00     0.029 A 
ATOM     56  C   UNL     1      10.296  16.412 -13.816  1.00  0.00     0.049 A 
ATOM     57  H   UNL     1       9.680  14.484 -13.219  1.00  0.00     0.167 HD
ATOM     58  C   UNL     1       7.898  16.323 -14.437  1.00  0.00     0.074 A 
ATOM     59  C   UNL     1       6.686  16.903 -14.978  1.00  0.00     0.031 C 
ATOM     60  C   UNL     1       9.088  16.966 -14.370  1.00  0.00     0.037 A 
BRANCH  47  61
ATOM     61  C   UNL     1      13.606  13.651 -11.773  1.00  0.00     0.057 A 
ATOM     62  C   UNL     1      14.568  12.878 -12.435  1.00  0.00     0.134 A 
ATOM     63  C   UNL     1      14.028  14.400 -10.666  1.00  0.00     0.134 A 
ATOM     64  F   UNL     1      14.225  12.128 -13.493  1.00  0.00    -0.206 F 
ATOM     65  C   UNL     1      15.893  12.829 -11.998  1.00  0.00     0.040 A 
ATOM     66  C   UNL     1      15.355  14.380 -10.236  1.00  0.00     0.040 A 
ATOM     67  F   UNL     1      13.159  15.166  -9.990  1.00  0.00    -0.206 F 
ATOM     68  C   UNL     1      16.291  13.588 -10.899  1.00  0.00     0.006 A 
ENDBRANCH  47  61
BRANCH  48  69
ATOM     69  C   UNL     1       4.004  13.692 -14.480  1.00  0.00     0.057 A 
ATOM     70  C   UNL     1       3.611  13.726 -15.823  1.00  0.00     0.134 A 
ATOM     71  C   UNL     1       2.993  13.694 -13.512  1.00  0.00     0.134 A 
ATOM     72  F   UNL     1       4.535  13.745 -16.795  1.00  0.00    -0.206 F 
ATOM     73  C   UNL     1       2.266  13.778 -16.191  1.00  0.00     0.040 A 
ATOM     74  C   UNL     1       1.643  13.723 -13.865  1.00  0.00     0.040 A 
ATOM     75  F   UNL     1       3.304  13.656 -12.208  1.00  0.00    -0.206 F 
ATOM     76  C   UNL     1       1.277  13.772 -15.209  1.00  0.00     0.006 A 
ENDBRANCH  48  69
BRANCH  60  77
ATOM     77  C   UNL     1       9.156  18.351 -14.941  1.00  0.00     0.057 A 
ATOM     78  C   UNL     1       8.600  19.453 -14.280  1.00  0.00     0.134 A 
ATOM     79  C   UNL     1       9.836  18.589 -16.142  1.00  0.00     0.134 A 
ATOM     80  F   UNL     1       7.926  19.288 -13.132  1.00  0.00    -0.206 F 
ATOM     81  C   UNL     1       8.705  20.743 -14.802  1.00  0.00     0.040 A 
ATOM     82  C   UNL     1       9.967  19.877 -16.663  1.00  0.00     0.040 A 
ATOM     83  F   UNL     1      10.397  17.576 -16.820  1.00  0.00    -0.206 F 
ATOM     84  C   UNL     1       9.397  20.958 -15.993  1.00  0.00     0.006 A 
ENDBRANCH  60  77
ENDBRANCH  34  35
ENDBRANCH  26  29
ENDBRANCH  24  25
ENDBRANCH  23  24
ENDBRANCH  22  23
ENDBRANCH   1  22
TORSDOF 17
