REMARK SMILES Cc1c(NC(=O)c2ccc(Br)cc2N)cccc1C(=O)NCCCCCCNC(=O)c1ccc(-c2c3nc(c(-c4c(F)cccc4F)c4ccc([nH]4)c(-c4c(F)cccc4F)c4nc(c(-c5c(F)cccc5F)c5ccc2[nH]5)C=C4)C=C3)cc1
REMARK SMILES IDX 24 1 23 2 22 3 21 4 19 5 20 6 18 8 1 9 2 10 3 11 15 12 17 13
REMARK SMILES IDX 16 14 4 15 5 16 6 18 7 19 8 20 13 21 9 22 12 23 10 24 11 25
REMARK SMILES IDX 14 26 25 29 26 30 27 31 28 32 29 33 30 35 31 36 32 37 84 38
REMARK SMILES IDX 33 39 83 40 34 41 35 42 36 43 77 44 37 45 82 46 76 47 78 48
REMARK SMILES IDX 38 49 81 50 75 51 74 52 39 54 65 55 48 56 64 57 49 58 52 59
REMARK SMILES IDX 63 60 79 61 50 62 51 63 62 65 80 66 53 67 40 68 41 69 46 70
REMARK SMILES IDX 42 71 43 72 45 73 47 74 44 75 66 76 67 77 72 78 68 79 69 80
REMARK SMILES IDX 71 81 73 82 70 83 54 84 55 85 60 86 56 87 57 88 59 89 61 90
REMARK SMILES IDX 58 91
REMARK H PARENT 21 7 4 17 14 27 14 28 28 34 78 53 52 64
REMARK Flexibility Score: inf
ROOT
ATOM      1  C   UNL     1       5.409   2.896  -0.715  1.00  0.00     0.002 C 
ENDROOT
BRANCH   1   2
ATOM      2  C   UNL     1       4.302   1.843  -0.587  1.00  0.00     0.021 C 
BRANCH   2   3
ATOM      3  C   UNL     1       3.260   2.103   0.515  1.00  0.00     0.116 C 
BRANCH   3   4
ATOM      4  N   UNL     1       2.090   2.742  -0.053  1.00  0.00    -0.352 N 
ATOM      5  C   UNL     1       0.811   2.338  -0.323  1.00  0.00     0.251 C 
ATOM      6  O   UNL     1       0.081   3.174  -0.862  1.00  0.00    -0.269 OA
ATOM      7  H   UNL     1       2.252   3.681  -0.301  1.00  0.00     0.163 HD
BRANCH   5   8
ATOM      8  C   UNL     1       0.206   1.015   0.036  1.00  0.00     0.044 A 
ATOM      9  C   UNL     1       2.089  -0.497  -0.808  1.00  0.00     0.047 C 
ATOM     10  C   UNL     1       0.755  -0.272  -0.153  1.00  0.00    -0.015 A 
ATOM     11  C   UNL     1      -0.039  -1.414   0.151  1.00  0.00     0.045 A 
ATOM     12  C   UNL     1      -1.370  -1.280   0.551  1.00  0.00     0.026 A 
ATOM     13  C   UNL     1      -1.141   1.114   0.451  1.00  0.00     0.014 A 
ATOM     14  C   UNL     1      -1.924  -0.015   0.693  1.00  0.00     0.003 A 
BRANCH  11  15
ATOM     15  N   UNL     1       0.552  -2.687   0.042  1.00  0.00    -0.322 N 
ATOM     16  C   UNL     1       0.031  -3.900  -0.345  1.00  0.00     0.257 C 
ATOM     17  H   UNL     1       1.506  -2.713   0.285  1.00  0.00     0.170 HD
ATOM     18  O   UNL     1       0.641  -4.927  -0.043  1.00  0.00    -0.269 OA
BRANCH  16  19
ATOM     19  C   UNL     1      -1.185  -4.010  -1.198  1.00  0.00     0.063 A 
ATOM     20  C   UNL     1      -2.036  -5.092  -0.909  1.00  0.00     0.017 A 
ATOM     21  C   UNL     1      -1.460  -3.173  -2.303  1.00  0.00     0.045 A 
ATOM     22  C   UNL     1      -3.170  -5.333  -1.685  1.00  0.00     0.016 A 
ATOM     23  C   UNL     1      -2.611  -3.429  -3.064  1.00  0.00     0.042 A 
ATOM     24  C   UNL     1      -3.457  -4.493  -2.753  1.00  0.00     0.020 A 
ATOM     25  Br  UNL     1      -4.977  -4.821  -3.827  1.00  0.00    -0.051 Br
BRANCH  21  26
ATOM     26  N   UNL     1      -0.568  -2.228  -2.804  1.00  0.00    -0.398 N 
ATOM     27  H   UNL     1       0.254  -2.014  -2.306  1.00  0.00     0.156 HD
ATOM     28  H   UNL     1      -0.759  -1.774  -3.656  1.00  0.00     0.156 HD
ENDBRANCH  21  26
ENDBRANCH  16  19
ENDBRANCH  11  15
ENDBRANCH   5   8
ENDBRANCH   3   4
ENDBRANCH   2   3
ENDBRANCH   1   2
BRANCH   1  29
ATOM     29  C   UNL     1       6.332   3.062   0.500  1.00  0.00     0.002 C 
BRANCH  29  30
ATOM     30  C   UNL     1       6.876   1.767   1.109  1.00  0.00     0.021 C 
BRANCH  30  31
ATOM     31  C   UNL     1       7.882   1.036   0.225  1.00  0.00     0.116 C 
BRANCH  31  32
ATOM     32  N   UNL     1       9.270   1.383   0.508  1.00  0.00    -0.352 N 
ATOM     33  C   UNL     1      10.416   1.077  -0.195  1.00  0.00     0.251 C 
ATOM     34  H   UNL     1       9.409   1.917   1.324  1.00  0.00     0.163 HD
ATOM     35  O   UNL     1      11.510   1.448   0.231  1.00  0.00    -0.269 OA
BRANCH  33  36
ATOM     36  C   UNL     1      10.327   0.418  -1.519  1.00  0.00     0.039 A 
ATOM     37  C   UNL     1      11.117   0.922  -2.560  1.00  0.00     0.014 A 
ATOM     38  C   UNL     1       9.374  -0.564  -1.782  1.00  0.00     0.014 A 
ATOM     39  C   UNL     1      10.787   0.623  -3.880  1.00  0.00     0.010 A 
ATOM     40  C   UNL     1       8.994  -0.800  -3.090  1.00  0.00     0.010 A 
ATOM     41  C   UNL     1       9.655  -0.151  -4.136  1.00  0.00    -0.014 A 
BRANCH  41  42
ATOM     42  C   UNL     1       9.020  -0.220  -5.448  1.00  0.00     0.031 A 
ATOM     43  C   UNL     1       9.174  -1.407  -6.312  1.00  0.00     0.074 A 
ATOM     44  C   UNL     1       8.234   0.804  -5.849  1.00  0.00     0.049 A 
ATOM     45  N   UNL     1       8.997  -1.401  -7.591  1.00  0.00    -0.248 NA
ATOM     46  C   UNL     1       9.577  -2.707  -5.790  1.00  0.00     0.031 C 
ATOM     47  C   UNL     1       7.334   0.843  -6.997  1.00  0.00     0.029 A 
ATOM     48  N   UNL     1       8.288   2.133  -5.403  1.00  0.00    -0.354 N 
ATOM     49  C   UNL     1       9.036  -2.703  -8.031  1.00  0.00     0.074 A 
ATOM     50  C   UNL     1       9.431  -3.477  -6.874  1.00  0.00     0.031 C 
ATOM     51  C   UNL     1       7.165   2.123  -7.364  1.00  0.00     0.029 A 
ATOM     52  C   UNL     1       8.058   2.928  -6.549  1.00  0.00     0.049 A 
ATOM     53  H   UNL     1       8.452   2.446  -4.484  1.00  0.00     0.167 HD
ATOM     54  C   UNL     1       8.634  -3.002  -9.300  1.00  0.00     0.037 A 
ATOM     55  C   UNL     1       9.030   3.760  -7.024  1.00  0.00     0.037 A 
ATOM     56  C   UNL     1       8.293  -1.804 -10.059  1.00  0.00     0.049 A 
ATOM     57  C   UNL     1       9.498   3.450  -8.430  1.00  0.00     0.074 A 
ATOM     58  C   UNL     1       7.109  -1.136 -10.326  1.00  0.00     0.029 A 
ATOM     59  N   UNL     1       9.309  -0.946 -10.432  1.00  0.00    -0.354 N 
ATOM     60  N   UNL     1       9.115   2.414  -9.124  1.00  0.00    -0.248 NA
ATOM     61  C   UNL     1      10.519   4.239  -9.125  1.00  0.00     0.031 C 
ATOM     62  C   UNL     1       7.432   0.158 -10.822  1.00  0.00     0.029 A 
ATOM     63  C   UNL     1       8.810   0.268 -10.861  1.00  0.00     0.049 A 
ATOM     64  H   UNL     1      10.267  -1.171 -10.397  1.00  0.00     0.167 HD
ATOM     65  C   UNL     1       9.843   2.356 -10.280  1.00  0.00     0.074 A 
ATOM     66  C   UNL     1      10.702   3.523 -10.246  1.00  0.00     0.031 C 
ATOM     67  C   UNL     1       9.736   1.337 -11.175  1.00  0.00     0.037 A 
BRANCH  54  68
ATOM     68  C   UNL     1       8.346  -4.403  -9.774  1.00  0.00     0.057 A 
ATOM     69  C   UNL     1       7.312  -4.654 -10.696  1.00  0.00     0.134 A 
ATOM     70  C   UNL     1       9.025  -5.549  -9.329  1.00  0.00     0.134 A 
ATOM     71  F   UNL     1       6.635  -3.659 -11.284  1.00  0.00    -0.206 F 
ATOM     72  C   UNL     1       6.912  -5.947 -11.056  1.00  0.00     0.040 A 
ATOM     73  C   UNL     1       8.598  -6.850  -9.633  1.00  0.00     0.040 A 
ATOM     74  F   UNL     1      10.157  -5.457  -8.618  1.00  0.00    -0.206 F 
ATOM     75  C   UNL     1       7.527  -7.053 -10.490  1.00  0.00     0.006 A 
ENDBRANCH  54  68
BRANCH  55  76
ATOM     76  C   UNL     1       9.894   4.322  -5.952  1.00  0.00     0.057 A 
ATOM     77  C   UNL     1       9.304   5.112  -4.949  1.00  0.00     0.134 A 
ATOM     78  C   UNL     1      11.178   3.832  -5.705  1.00  0.00     0.134 A 
ATOM     79  F   UNL     1       8.070   5.614  -5.121  1.00  0.00    -0.206 F 
ATOM     80  C   UNL     1       9.916   5.307  -3.709  1.00  0.00     0.040 A 
ATOM     81  C   UNL     1      11.810   4.039  -4.475  1.00  0.00     0.040 A 
ATOM     82  F   UNL     1      11.799   3.055  -6.604  1.00  0.00    -0.206 F 
ATOM     83  C   UNL     1      11.163   4.743  -3.460  1.00  0.00     0.006 A 
ENDBRANCH  55  76
BRANCH  67  84
ATOM     84  C   UNL     1      10.523   1.298 -12.441  1.00  0.00     0.057 A 
ATOM     85  C   UNL     1      10.488   2.352 -13.362  1.00  0.00     0.134 A 
ATOM     86  C   UNL     1      11.235   0.150 -12.826  1.00  0.00     0.134 A 
ATOM     87  F   UNL     1       9.811   3.478 -13.089  1.00  0.00    -0.206 F 
ATOM     88  C   UNL     1      11.135   2.273 -14.598  1.00  0.00     0.040 A 
ATOM     89  C   UNL     1      11.855   0.044 -14.072  1.00  0.00     0.040 A 
ATOM     90  F   UNL     1      11.361  -0.900 -11.999  1.00  0.00    -0.206 F 
ATOM     91  C   UNL     1      11.809   1.111 -14.962  1.00  0.00     0.006 A 
ENDBRANCH  67  84
ENDBRANCH  41  42
ENDBRANCH  33  36
ENDBRANCH  31  32
ENDBRANCH  30  31
ENDBRANCH  29  30
ENDBRANCH   1  29
TORSDOF 16
