REMARK SMILES O=C(Cc1ccc(F)c(F)c1)NC1(C(=O)NCCCCCCNC(=O)c2ccc(-c3c4nc(c(-c5c(F)cccc5F)c5ccc([nH]5)c(-c5c(F)cccc5F)c5nc(c(-c6c(F)cccc6F)c6ccc3[nH]6)C=C5)C=C4)cc2)CCCC1
REMARK SMILES IDX 19 1 18 2 17 3 16 4 14 5 15 6 13 8 80 9 83 10 81 11 82 12
REMARK SMILES IDX 12 13 1 14 2 15 3 17 4 18 5 19 11 20 6 21 9 22 7 23 10 24
REMARK SMILES IDX 8 25 20 26 21 27 22 28 23 29 24 30 25 32 26 33 27 34 79 35
REMARK SMILES IDX 28 36 78 37 29 38 30 39 31 40 72 41 32 42 77 43 71 44 73 45
REMARK SMILES IDX 33 46 76 47 70 48 69 49 34 51 60 52 43 53 59 54 44 55 47 56
REMARK SMILES IDX 58 57 74 58 45 59 46 60 57 62 75 63 48 64 35 65 36 66 41 67
REMARK SMILES IDX 37 68 38 69 40 70 42 71 39 72 61 73 62 74 67 75 63 76 64 77
REMARK SMILES IDX 66 78 68 79 65 80 49 81 50 82 55 83 51 84 52 85 54 86 56 87
REMARK SMILES IDX 53 88
REMARK H PARENT 16 7 12 16 23 31 73 50 47 61
REMARK Flexibility Score: inf
ROOT
ATOM      1  C   UNL     1      -2.418   1.601  -5.003  1.00  0.00     0.002 C 
ENDROOT
BRANCH   1   2
ATOM      2  C   UNL     1      -0.908   1.389  -5.121  1.00  0.00     0.021 C 
BRANCH   2   3
ATOM      3  C   UNL     1      -0.054   2.248  -4.199  1.00  0.00     0.116 C 
BRANCH   3   4
ATOM      4  N   UNL     1      -0.178   1.922  -2.801  1.00  0.00    -0.354 N 
ATOM      5  C   UNL     1       0.767   1.806  -1.827  1.00  0.00     0.245 C 
ATOM      6  O   UNL     1       0.352   1.973  -0.670  1.00  0.00    -0.272 OA
ATOM      7  H   UNL     1      -1.100   1.755  -2.499  1.00  0.00     0.163 HD
BRANCH   5   8
ATOM      8  C   UNL     1       2.303   1.596  -2.107  1.00  0.00     0.119 C 
ATOM      9  C   UNL     1       2.993   2.953  -2.346  1.00  0.00     0.038 C 
ATOM     10  C   UNL     1       2.687   0.724  -3.316  1.00  0.00     0.038 C 
ATOM     11  C   UNL     1       3.273   3.055  -3.834  1.00  0.00     0.003 C 
ATOM     12  C   UNL     1       3.415   1.623  -4.322  1.00  0.00     0.003 C 
BRANCH   8  13
ATOM     13  N   UNL     1       2.870   1.006  -0.875  1.00  0.00    -0.341 N 
ATOM     14  O   UNL     1       1.585  -0.898  -0.918  1.00  0.00    -0.275 OA
ATOM     15  C   UNL     1       2.452  -0.213  -0.382  1.00  0.00     0.225 C 
ATOM     16  H   UNL     1       3.569   1.500  -0.389  1.00  0.00     0.164 HD
BRANCH  15  17
ATOM     17  C   UNL     1       3.225  -0.681   0.841  1.00  0.00     0.135 C 
BRANCH  17  18
ATOM     18  C   UNL     1       4.086  -1.866   0.475  1.00  0.00    -0.036 A 
ATOM     19  C   UNL     1       3.621  -3.171   0.700  1.00  0.00     0.007 A 
ATOM     20  C   UNL     1       5.294  -1.674  -0.212  1.00  0.00     0.046 A 
ATOM     21  C   UNL     1       4.344  -4.268   0.228  1.00  0.00     0.043 A 
ATOM     22  C   UNL     1       6.003  -2.773  -0.684  1.00  0.00     0.159 A 
ATOM     23  C   UNL     1       5.528  -4.061  -0.471  1.00  0.00     0.158 A 
ATOM     24  F   UNL     1       7.136  -2.574  -1.372  1.00  0.00    -0.204 F 
ATOM     25  F   UNL     1       6.200  -5.115  -0.952  1.00  0.00    -0.204 F 
ENDBRANCH  17  18
ENDBRANCH  15  17
ENDBRANCH   8  13
ENDBRANCH   5   8
ENDBRANCH   3   4
ENDBRANCH   2   3
ENDBRANCH   1   2
BRANCH   1  26
ATOM     26  C   UNL     1      -2.892   3.056  -5.073  1.00  0.00     0.002 C 
BRANCH  26  27
ATOM     27  C   UNL     1      -2.386   3.866  -6.269  1.00  0.00     0.021 C 
BRANCH  27  28
ATOM     28  C   UNL     1      -2.691   3.263  -7.634  1.00  0.00     0.116 C 
BRANCH  28  29
ATOM     29  N   UNL     1      -4.119   3.141  -7.878  1.00  0.00    -0.352 N 
ATOM     30  C   UNL     1      -4.858   3.616  -8.932  1.00  0.00     0.251 C 
ATOM     31  H   UNL     1      -4.626   2.650  -7.192  1.00  0.00     0.163 HD
ATOM     32  O   UNL     1      -6.084   3.585  -8.900  1.00  0.00    -0.269 OA
BRANCH  30  33
ATOM     33  C   UNL     1      -4.164   4.187 -10.104  1.00  0.00     0.039 A 
ATOM     34  C   UNL     1      -4.582   5.421 -10.608  1.00  0.00     0.014 A 
ATOM     35  C   UNL     1      -3.095   3.507 -10.695  1.00  0.00     0.014 A 
ATOM     36  C   UNL     1      -3.886   6.006 -11.668  1.00  0.00     0.010 A 
ATOM     37  C   UNL     1      -2.362   4.122 -11.704  1.00  0.00     0.010 A 
ATOM     38  C   UNL     1      -2.751   5.375 -12.202  1.00  0.00    -0.014 A 
BRANCH  38  39
ATOM     39  C   UNL     1      -1.952   5.996 -13.289  1.00  0.00     0.031 A 
ATOM     40  C   UNL     1      -1.852   5.311 -14.624  1.00  0.00     0.074 A 
ATOM     41  C   UNL     1      -1.244   7.117 -13.046  1.00  0.00     0.049 A 
ATOM     42  N   UNL     1      -1.096   5.605 -15.650  1.00  0.00    -0.248 NA
ATOM     43  C   UNL     1      -2.691   4.116 -14.820  1.00  0.00     0.031 C 
ATOM     44  C   UNL     1      -1.227   7.854 -11.780  1.00  0.00     0.029 A 
ATOM     45  N   UNL     1      -0.378   7.819 -13.848  1.00  0.00    -0.354 N 
ATOM     46  C   UNL     1      -1.343   4.618 -16.596  1.00  0.00     0.074 A 
ATOM     47  C   UNL     1      -2.293   3.697 -16.013  1.00  0.00     0.031 C 
ATOM     48  C   UNL     1      -0.397   8.904 -11.892  1.00  0.00     0.029 A 
ATOM     49  C   UNL     1       0.211   8.891 -13.219  1.00  0.00     0.049 A 
ATOM     50  H   UNL     1      -0.196   7.578 -14.785  1.00  0.00     0.167 HD
ATOM     51  C   UNL     1      -0.832   4.500 -17.844  1.00  0.00     0.037 A 
ATOM     52  C   UNL     1       1.153   9.749 -13.656  1.00  0.00     0.037 A 
ATOM     53  C   UNL     1       0.074   5.447 -18.438  1.00  0.00     0.049 A 
ATOM     54  C   UNL     1       1.697   9.594 -15.051  1.00  0.00     0.074 A 
ATOM     55  C   UNL     1       0.574   5.463 -19.728  1.00  0.00     0.029 A 
ATOM     56  N   UNL     1       0.613   6.542 -17.783  1.00  0.00    -0.354 N 
ATOM     57  N   UNL     1       1.393   8.703 -15.963  1.00  0.00    -0.248 NA
ATOM     58  C   UNL     1       2.715  10.565 -15.480  1.00  0.00     0.031 C 
ATOM     59  C   UNL     1       1.457   6.540 -19.839  1.00  0.00     0.029 A 
ATOM     60  C   UNL     1       1.464   7.225 -18.635  1.00  0.00     0.049 A 
ATOM     61  H   UNL     1       0.420   6.796 -16.852  1.00  0.00     0.167 HD
ATOM     62  C   UNL     1       2.150   9.029 -17.081  1.00  0.00     0.074 A 
ATOM     63  C   UNL     1       2.921  10.204 -16.738  1.00  0.00     0.031 C 
ATOM     64  C   UNL     1       2.201   8.411 -18.286  1.00  0.00     0.037 A 
BRANCH  51  65
ATOM     65  C   UNL     1      -1.236   3.310 -18.663  1.00  0.00     0.057 A 
ATOM     66  C   UNL     1      -2.518   3.188 -19.212  1.00  0.00     0.134 A 
ATOM     67  C   UNL     1      -0.301   2.313 -18.973  1.00  0.00     0.134 A 
ATOM     68  F   UNL     1      -3.461   4.104 -18.946  1.00  0.00    -0.206 F 
ATOM     69  C   UNL     1      -2.860   2.111 -20.032  1.00  0.00     0.040 A 
ATOM     70  C   UNL     1      -0.623   1.246 -19.812  1.00  0.00     0.040 A 
ATOM     71  F   UNL     1       0.947   2.374 -18.483  1.00  0.00    -0.206 F 
ATOM     72  C   UNL     1      -1.907   1.143 -20.343  1.00  0.00     0.006 A 
ENDBRANCH  51  65
BRANCH  52  73
ATOM     73  C   UNL     1       1.656  10.833 -12.772  1.00  0.00     0.057 A 
ATOM     74  C   UNL     1       1.401  12.179 -13.061  1.00  0.00     0.134 A 
ATOM     75  C   UNL     1       2.445  10.555 -11.649  1.00  0.00     0.134 A 
ATOM     76  F   UNL     1       0.668  12.512 -14.134  1.00  0.00    -0.206 F 
ATOM     77  C   UNL     1       1.941  13.210 -12.289  1.00  0.00     0.040 A 
ATOM     78  C   UNL     1       2.966  11.575 -10.851  1.00  0.00     0.040 A 
ATOM     79  F   UNL     1       2.720   9.287 -11.310  1.00  0.00    -0.206 F 
ATOM     80  C   UNL     1       2.726  12.908 -11.178  1.00  0.00     0.006 A 
ENDBRANCH  52  73
BRANCH  64  81
ATOM     81  C   UNL     1       3.073   9.021 -19.342  1.00  0.00     0.057 A 
ATOM     82  C   UNL     1       4.470   8.941 -19.290  1.00  0.00     0.134 A 
ATOM     83  C   UNL     1       2.501   9.643 -20.460  1.00  0.00     0.134 A 
ATOM     84  F   UNL     1       5.079   8.369 -18.240  1.00  0.00    -0.206 F 
ATOM     85  C   UNL     1       5.268   9.471 -20.305  1.00  0.00     0.040 A 
ATOM     86  C   UNL     1       3.287  10.151 -21.494  1.00  0.00     0.040 A 
ATOM     87  F   UNL     1       1.168   9.744 -20.576  1.00  0.00    -0.206 F 
ATOM     88  C   UNL     1       4.675  10.069 -21.416  1.00  0.00     0.006 A 
ENDBRANCH  64  81
ENDBRANCH  38  39
ENDBRANCH  30  33
ENDBRANCH  28  29
ENDBRANCH  27  28
ENDBRANCH  26  27
ENDBRANCH   1  26
TORSDOF 16
