REMARK SMILES O=C(NCCCCCCNC(=O)[C@H](c1c[nH]c2cc(F)ccc12)[NH+]1CC[NH+](CC(=O)N2CCOCC2)CC1)c1ccc(-c2c3nc(c(-c4c(F)cccc4F)c4ccc([nH]4)c(-c4c(F)cccc4F)c4nc(c(-c5c(F)cccc5F)c5ccc2[nH]5)C=C4)C=C3)cc1
REMARK SMILES IDX 7 1 6 2 5 3 4 4 3 5 1 6 2 7 39 9 40 10 92 11 41 12 91 13
REMARK SMILES IDX 42 14 43 15 44 16 85 17 45 18 90 19 84 20 86 21 46 22 89 23
REMARK SMILES IDX 83 24 82 25 47 27 73 28 56 29 72 30 57 31 60 32 71 33 87 34
REMARK SMILES IDX 58 35 59 36 70 38 88 39 61 40 48 41 49 42 54 43 50 44 51 45
REMARK SMILES IDX 53 46 55 47 52 48 74 49 75 50 80 51 76 52 77 53 79 54 81 55
REMARK SMILES IDX 78 56 62 57 63 58 68 59 64 60 65 61 67 62 69 63 66 64 8 65
REMARK SMILES IDX 9 66 10 67 11 68 12 70 13 71 24 72 25 73 38 74 26 76 37 77
REMARK SMILES IDX 27 78 28 80 29 81 30 82 31 83 32 84 36 85 33 86 35 87 34 88
REMARK SMILES IDX 14 89 15 90 23 91 16 92 17 93 22 94 18 96 21 97 19 98 20 99
REMARK H PARENT 3 8 86 26 60 37 10 69 24 75 27 79 16 95
REMARK Flexibility Score: inf
ROOT
ATOM      1  C   UNL     1      13.250  -3.011  -4.400  1.00  0.00     0.002 C 
ENDROOT
BRANCH   1   2
ATOM      2  C   UNL     1      13.514  -2.349  -3.046  1.00  0.00     0.002 C 
BRANCH   2   3
ATOM      3  C   UNL     1      14.427  -3.123  -2.095  1.00  0.00     0.021 C 
BRANCH   3   4
ATOM      4  C   UNL     1      15.803  -3.478  -2.649  1.00  0.00     0.116 C 
BRANCH   4   5
ATOM      5  N   UNL     1      16.608  -2.311  -2.983  1.00  0.00    -0.352 N 
ATOM      6  O   UNL     1      18.352  -0.880  -2.876  1.00  0.00    -0.269 OA
ATOM      7  C   UNL     1      17.881  -1.976  -2.584  1.00  0.00     0.251 C 
ATOM      8  H   UNL     1      16.176  -1.664  -3.586  1.00  0.00     0.163 HD
BRANCH   7   9
ATOM      9  C   UNL     1      18.675  -2.922  -1.770  1.00  0.00     0.039 A 
ATOM     10  C   UNL     1      18.716  -4.279  -2.092  1.00  0.00     0.014 A 
ATOM     11  C   UNL     1      19.379  -2.446  -0.659  1.00  0.00     0.014 A 
ATOM     12  C   UNL     1      19.301  -5.179  -1.208  1.00  0.00     0.010 A 
ATOM     13  C   UNL     1      20.049  -3.344   0.178  1.00  0.00     0.010 A 
ATOM     14  C   UNL     1      19.973  -4.725  -0.061  1.00  0.00    -0.014 A 
BRANCH  14  15
ATOM     15  C   UNL     1      20.595  -5.718   0.855  1.00  0.00     0.031 A 
ATOM     16  C   UNL     1      20.113  -5.881   2.272  1.00  0.00     0.074 A 
ATOM     17  C   UNL     1      21.570  -6.518   0.382  1.00  0.00     0.049 A 
ATOM     18  N   UNL     1      20.501  -6.742   3.180  1.00  0.00    -0.248 NA
ATOM     19  C   UNL     1      19.066  -4.957   2.735  1.00  0.00     0.031 C 
ATOM     20  C   UNL     1      22.134  -6.449  -0.969  1.00  0.00     0.029 A 
ATOM     21  N   UNL     1      22.241  -7.560   0.968  1.00  0.00    -0.354 N 
ATOM     22  C   UNL     1      19.768  -6.449   4.324  1.00  0.00     0.074 A 
ATOM     23  C   UNL     1      18.929  -5.314   4.004  1.00  0.00     0.031 C 
ATOM     24  C   UNL     1      23.019  -7.443  -1.127  1.00  0.00     0.029 A 
ATOM     25  C   UNL     1      23.131  -8.181   0.126  1.00  0.00     0.049 A 
ATOM     26  H   UNL     1      22.098  -7.837   1.902  1.00  0.00     0.167 HD
ATOM     27  C   UNL     1      19.786  -7.074   5.527  1.00  0.00     0.037 A 
ATOM     28  C   UNL     1      23.952  -9.226   0.338  1.00  0.00     0.037 A 
ATOM     29  C   UNL     1      20.605  -8.219   5.836  1.00  0.00     0.049 A 
ATOM     30  C   UNL     1      23.955  -9.894   1.682  1.00  0.00     0.074 A 
ATOM     31  C   UNL     1      20.661  -8.947   7.013  1.00  0.00     0.029 A 
ATOM     32  N   UNL     1      21.514  -8.800   4.965  1.00  0.00    -0.354 N 
ATOM     33  N   UNL     1      23.225  -9.631   2.738  1.00  0.00    -0.248 NA
ATOM     34  C   UNL     1      24.898 -11.006   1.862  1.00  0.00     0.031 C 
ATOM     35  C   UNL     1      21.637  -9.940   6.869  1.00  0.00     0.029 A 
ATOM     36  C   UNL     1      22.151  -9.864   5.585  1.00  0.00     0.049 A 
ATOM     37  H   UNL     1      21.683  -8.501   4.043  1.00  0.00     0.167 HD
ATOM     38  C   UNL     1      23.601 -10.559   3.699  1.00  0.00     0.074 A 
ATOM     39  C   UNL     1      24.612 -11.402   3.093  1.00  0.00     0.031 C 
ATOM     40  C   UNL     1      23.149 -10.700   4.969  1.00  0.00     0.037 A 
BRANCH  27  41
ATOM     41  C   UNL     1      18.906  -6.521   6.613  1.00  0.00     0.057 A 
ATOM     42  C   UNL     1      17.512  -6.657   6.583  1.00  0.00     0.134 A 
ATOM     43  C   UNL     1      19.467  -5.883   7.727  1.00  0.00     0.134 A 
ATOM     44  F   UNL     1      16.909  -7.250   5.541  1.00  0.00    -0.206 F 
ATOM     45  C   UNL     1      16.706  -6.158   7.609  1.00  0.00     0.040 A 
ATOM     46  C   UNL     1      18.674  -5.402   8.771  1.00  0.00     0.040 A 
ATOM     47  F   UNL     1      20.795  -5.727   7.825  1.00  0.00    -0.206 F 
ATOM     48  C   UNL     1      17.289  -5.534   8.711  1.00  0.00     0.006 A 
ENDBRANCH  27  41
BRANCH  28  49
ATOM     49  C   UNL     1      24.829  -9.711  -0.757  1.00  0.00     0.057 A 
ATOM     50  C   UNL     1      24.609 -10.952  -1.364  1.00  0.00     0.134 A 
ATOM     51  C   UNL     1      25.904  -8.944  -1.223  1.00  0.00     0.134 A 
ATOM     52  F   UNL     1      23.605 -11.739  -0.950  1.00  0.00    -0.206 F 
ATOM     53  C   UNL     1      25.437 -11.422  -2.385  1.00  0.00     0.040 A 
ATOM     54  C   UNL     1      26.722  -9.389  -2.261  1.00  0.00     0.040 A 
ATOM     55  F   UNL     1      26.161  -7.742  -0.687  1.00  0.00    -0.206 F 
ATOM     56  C   UNL     1      26.494 -10.636  -2.840  1.00  0.00     0.006 A 
ENDBRANCH  28  49
BRANCH  40  57
ATOM     57  C   UNL     1      23.716 -11.835   5.771  1.00  0.00     0.057 A 
ATOM     58  C   UNL     1      25.033 -11.823   6.247  1.00  0.00     0.134 A 
ATOM     59  C   UNL     1      22.926 -12.950   6.080  1.00  0.00     0.134 A 
ATOM     60  F   UNL     1      25.846 -10.792   5.973  1.00  0.00    -0.206 F 
ATOM     61  C   UNL     1      25.553 -12.894   6.976  1.00  0.00     0.040 A 
ATOM     62  C   UNL     1      23.426 -14.013   6.832  1.00  0.00     0.040 A 
ATOM     63  F   UNL     1      21.653 -13.021   5.661  1.00  0.00    -0.206 F 
ATOM     64  C   UNL     1      24.747 -13.991   7.274  1.00  0.00     0.006 A 
ENDBRANCH  40  57
ENDBRANCH  14  15
ENDBRANCH   7   9
ENDBRANCH   4   5
ENDBRANCH   3   4
ENDBRANCH   2   3
ENDBRANCH   1   2
BRANCH   1  65
ATOM     65  C   UNL     1      12.589  -4.389  -4.349  1.00  0.00     0.021 C 
BRANCH  65  66
ATOM     66  C   UNL     1      11.242  -4.461  -3.629  1.00  0.00     0.116 C 
BRANCH  66  67
ATOM     67  N   UNL     1      10.246  -3.530  -4.141  1.00  0.00    -0.351 N 
ATOM     68  C   UNL     1       8.911  -3.740  -4.436  1.00  0.00     0.283 C 
ATOM     69  H   UNL     1      10.571  -2.614  -4.300  1.00  0.00     0.163 HD
ATOM     70  O   UNL     1       8.238  -2.742  -4.704  1.00  0.00    -0.268 OA
BRANCH  68  71
ATOM     71  C   UNL     1       8.374  -5.192  -4.516  1.00  0.00     0.308 C 
BRANCH  71  72
ATOM     72  N   UNL     1       8.635  -5.922  -3.268  1.00  0.00    -0.312 N 
ATOM     73  C   UNL     1       7.993  -5.519  -2.017  1.00  0.00     0.325 C 
ATOM     74  C   UNL     1       8.830  -7.349  -3.424  1.00  0.00     0.325 C 
ATOM     75  H   UNL     1       9.551  -5.517  -3.074  1.00  0.00     0.349 HD
ATOM     76  C   UNL     1       7.014  -6.544  -1.370  1.00  0.00     0.325 C 
ATOM     77  C   UNL     1       7.690  -8.245  -2.935  1.00  0.00     0.325 C 
ATOM     78  N   UNL     1       7.304  -7.974  -1.558  1.00  0.00    -0.318 N 
ATOM     79  H   UNL     1       6.415  -8.444  -1.385  1.00  0.00     0.348 HD
BRANCH  78  80
ATOM     80  C   UNL     1       8.112  -8.649  -0.532  1.00  0.00     0.364 C 
BRANCH  80  81
ATOM     81  C   UNL     1       9.473  -8.044  -0.157  1.00  0.00     0.277 C 
ATOM     82  O   UNL     1       9.526  -7.029   0.547  1.00  0.00    -0.268 OA
ATOM     83  N   UNL     1      10.636  -8.744  -0.496  1.00  0.00    -0.333 N 
ATOM     84  C   UNL     1      10.847  -9.443  -1.768  1.00  0.00     0.148 C 
ATOM     85  C   UNL     1      11.874  -8.374   0.192  1.00  0.00     0.148 C 
ATOM     86  C   UNL     1      11.943 -10.506  -1.728  1.00  0.00     0.181 C 
ATOM     87  C   UNL     1      12.886  -9.524   0.187  1.00  0.00     0.181 C 
ATOM     88  O   UNL     1      13.143  -9.978  -1.150  1.00  0.00    -0.378 OA
ENDBRANCH  80  81
ENDBRANCH  78  80
ENDBRANCH  71  72
BRANCH  71  89
ATOM     89  C   UNL     1       6.933  -5.389  -4.922  1.00  0.00     0.044 A 
ATOM     90  C   UNL     1       5.818  -4.686  -4.499  1.00  0.00     0.094 A 
ATOM     91  C   UNL     1       6.439  -6.470  -5.739  1.00  0.00     0.009 A 
ATOM     92  N   UNL     1       4.697  -5.340  -4.933  1.00  0.00    -0.361 N 
ATOM     93  C   UNL     1       5.047  -6.465  -5.640  1.00  0.00     0.049 A 
ATOM     94  C   UNL     1       7.056  -7.514  -6.468  1.00  0.00     0.014 A 
ATOM     95  H   UNL     1       3.773  -5.046  -4.763  1.00  0.00     0.166 HD
ATOM     96  C   UNL     1       4.248  -7.483  -6.175  1.00  0.00     0.065 A 
ATOM     97  C   UNL     1       6.274  -8.540  -7.006  1.00  0.00     0.040 A 
ATOM     98  C   UNL     1       4.897  -8.522  -6.841  1.00  0.00     0.125 A 
ATOM     99  F   UNL     1       4.170  -9.536  -7.331  1.00  0.00    -0.207 F 
ENDBRANCH  71  89
ENDBRANCH  68  71
ENDBRANCH  66  67
ENDBRANCH  65  66
ENDBRANCH   1  65
TORSDOF 17
