REMARK SMILES O=C(NCCCCCCNC(=O)c1cccc(CS(=O)(=O)Nc2ncccn2)c1)c1ccc(-c2c3nc(c(-c4c(F)cccc4F)c4ccc([nH]4)c(-c4c(F)cccc4F)c4nc(c(-c5c(F)cccc5F)c5ccc2[nH]5)C=C4)C=C3)cc1
REMARK SMILES IDX 7 1 6 2 5 3 4 4 3 5 1 6 2 7 30 9 31 10 83 11 32 12 82 13
REMARK SMILES IDX 33 14 34 15 35 16 76 17 36 18 81 19 75 20 77 21 37 22 80 23
REMARK SMILES IDX 74 24 73 25 38 27 64 28 47 29 63 30 48 31 51 32 62 33 78 34
REMARK SMILES IDX 49 35 50 36 61 38 79 39 52 40 39 41 40 42 45 43 41 44 42 45
REMARK SMILES IDX 44 46 46 47 43 48 65 49 66 50 71 51 67 52 68 53 70 54 72 55
REMARK SMILES IDX 69 56 53 57 54 58 59 59 55 60 56 61 58 62 60 63 57 64 8 65
REMARK SMILES IDX 9 66 10 67 11 68 12 70 13 71 14 72 29 73 15 74 17 75 16 76
REMARK SMILES IDX 18 77 19 78 20 79 21 80 22 81 23 83 24 84 28 85 25 86 27 87
REMARK SMILES IDX 26 88
REMARK H PARENT 3 8 77 26 51 37 10 69 22 82
REMARK Flexibility Score: inf
ROOT
ATOM      1  C   UNL     1       4.615  -2.290   3.542  1.00  0.00     0.002 C 
ENDROOT
BRANCH   1   2
ATOM      2  C   UNL     1       4.116  -0.848   3.677  1.00  0.00     0.002 C 
BRANCH   2   3
ATOM      3  C   UNL     1       4.581   0.114   2.584  1.00  0.00     0.021 C 
BRANCH   3   4
ATOM      4  C   UNL     1       4.324  -0.357   1.157  1.00  0.00     0.116 C 
BRANCH   4   5
ATOM      5  N   UNL     1       2.911  -0.535   0.878  1.00  0.00    -0.352 N 
ATOM      6  O   UNL     1       0.942  -0.135  -0.147  1.00  0.00    -0.269 OA
ATOM      7  C   UNL     1       2.162  -0.015  -0.147  1.00  0.00     0.251 C 
ATOM      8  H   UNL     1       2.422  -1.108   1.511  1.00  0.00     0.163 HD
BRANCH   7   9
ATOM      9  C   UNL     1       2.832   0.715  -1.243  1.00  0.00     0.039 A 
ATOM     10  C   UNL     1       3.963   0.185  -1.873  1.00  0.00     0.014 A 
ATOM     11  C   UNL     1       2.303   1.940  -1.655  1.00  0.00     0.014 A 
ATOM     12  C   UNL     1       4.623   0.926  -2.848  1.00  0.00     0.010 A 
ATOM     13  C   UNL     1       2.928   2.652  -2.678  1.00  0.00     0.010 A 
ATOM     14  C   UNL     1       4.102   2.158  -3.270  1.00  0.00    -0.014 A 
BRANCH  14  15
ATOM     15  C   UNL     1       4.742   2.899  -4.383  1.00  0.00     0.031 A 
ATOM     16  C   UNL     1       5.378   4.237  -4.151  1.00  0.00     0.074 A 
ATOM     17  C   UNL     1       4.697   2.372  -5.620  1.00  0.00     0.049 A 
ATOM     18  N   UNL     1       5.893   5.067  -5.022  1.00  0.00    -0.248 NA
ATOM     19  C   UNL     1       5.432   4.711  -2.760  1.00  0.00     0.031 C 
ATOM     20  C   UNL     1       4.092   1.084  -5.965  1.00  0.00     0.029 A 
ATOM     21  N   UNL     1       5.149   2.861  -6.819  1.00  0.00    -0.354 N 
ATOM     22  C   UNL     1       6.310   6.171  -4.292  1.00  0.00     0.074 A 
ATOM     23  C   UNL     1       5.971   5.913  -2.907  1.00  0.00     0.031 C 
ATOM     24  C   UNL     1       4.208   0.885  -7.285  1.00  0.00     0.029 A 
ATOM     25  C   UNL     1       4.843   2.053  -7.885  1.00  0.00     0.049 A 
ATOM     26  H   UNL     1       5.644   3.707  -6.905  1.00  0.00     0.167 HD
ATOM     27  C   UNL     1       6.920   7.295  -4.739  1.00  0.00     0.037 A 
ATOM     28  C   UNL     1       5.017   2.245  -9.205  1.00  0.00     0.037 A 
ATOM     29  C   UNL     1       7.259   7.537  -6.118  1.00  0.00     0.049 A 
ATOM     30  C   UNL     1       5.669   3.509  -9.682  1.00  0.00     0.074 A 
ATOM     31  C   UNL     1       7.929   8.617  -6.665  1.00  0.00     0.029 A 
ATOM     32  N   UNL     1       6.941   6.689  -7.170  1.00  0.00    -0.354 N 
ATOM     33  N   UNL     1       6.104   4.525  -8.977  1.00  0.00    -0.248 NA
ATOM     34  C   UNL     1       5.854   3.655 -11.131  1.00  0.00     0.031 C 
ATOM     35  C   UNL     1       7.972   8.447  -8.053  1.00  0.00     0.029 A 
ATOM     36  C   UNL     1       7.374   7.237  -8.367  1.00  0.00     0.049 A 
ATOM     37  H   UNL     1       6.476   5.826  -7.079  1.00  0.00     0.167 HD
ATOM     38  C   UNL     1       6.632   5.424  -9.893  1.00  0.00     0.074 A 
ATOM     39  C   UNL     1       6.468   4.829 -11.204  1.00  0.00     0.031 C 
ATOM     40  C   UNL     1       7.204   6.631  -9.664  1.00  0.00     0.037 A 
BRANCH  27  41
ATOM     41  C   UNL     1       7.232   8.361  -3.728  1.00  0.00     0.057 A 
ATOM     42  C   UNL     1       8.236   8.202  -2.764  1.00  0.00     0.134 A 
ATOM     43  C   UNL     1       6.529   9.572  -3.733  1.00  0.00     0.134 A 
ATOM     44  F   UNL     1       8.940   7.062  -2.697  1.00  0.00    -0.206 F 
ATOM     45  C   UNL     1       8.507   9.196  -1.822  1.00  0.00     0.040 A 
ATOM     46  C   UNL     1       6.808  10.584  -2.812  1.00  0.00     0.040 A 
ATOM     47  F   UNL     1       5.560   9.794  -4.634  1.00  0.00    -0.206 F 
ATOM     48  C   UNL     1       7.794  10.393  -1.847  1.00  0.00     0.006 A 
ENDBRANCH  27  41
BRANCH  28  49
ATOM     49  C   UNL     1       4.542   1.209 -10.153  1.00  0.00     0.057 A 
ATOM     50  C   UNL     1       5.440   0.371 -10.819  1.00  0.00     0.134 A 
ATOM     51  C   UNL     1       3.173   0.991 -10.360  1.00  0.00     0.134 A 
ATOM     52  F   UNL     1       6.761   0.540 -10.667  1.00  0.00    -0.206 F 
ATOM     53  C   UNL     1       4.995  -0.651 -11.659  1.00  0.00     0.040 A 
ATOM     54  C   UNL     1       2.715  -0.041 -11.179  1.00  0.00     0.040 A 
ATOM     55  F   UNL     1       2.264   1.755  -9.737  1.00  0.00    -0.206 F 
ATOM     56  C   UNL     1       3.628  -0.866 -11.832  1.00  0.00     0.006 A 
ENDBRANCH  28  49
BRANCH  40  57
ATOM     57  C   UNL     1       7.725   7.380 -10.853  1.00  0.00     0.057 A 
ATOM     58  C   UNL     1       6.868   8.042 -11.741  1.00  0.00     0.134 A 
ATOM     59  C   UNL     1       9.103   7.494 -11.073  1.00  0.00     0.134 A 
ATOM     60  F   UNL     1       5.538   7.959 -11.592  1.00  0.00    -0.206 F 
ATOM     61  C   UNL     1       7.366   8.787 -12.811  1.00  0.00     0.040 A 
ATOM     62  C   UNL     1       9.613   8.254 -12.126  1.00  0.00     0.040 A 
ATOM     63  F   UNL     1       9.976   6.887 -10.254  1.00  0.00    -0.206 F 
ATOM     64  C   UNL     1       8.742   8.902 -13.000  1.00  0.00     0.006 A 
ENDBRANCH  40  57
ENDBRANCH  14  15
ENDBRANCH   7   9
ENDBRANCH   4   5
ENDBRANCH   3   4
ENDBRANCH   2   3
ENDBRANCH   1   2
BRANCH   1  65
ATOM     65  C   UNL     1       6.130  -2.454   3.377  1.00  0.00     0.021 C 
BRANCH  65  66
ATOM     66  C   UNL     1       6.967  -1.844   4.497  1.00  0.00     0.116 C 
BRANCH  66  67
ATOM     67  N   UNL     1       6.716  -2.502   5.765  1.00  0.00    -0.352 N 
ATOM     68  C   UNL     1       7.607  -3.085   6.627  1.00  0.00     0.251 C 
ATOM     69  H   UNL     1       5.773  -2.534   6.046  1.00  0.00     0.163 HD
ATOM     70  O   UNL     1       7.199  -3.768   7.563  1.00  0.00    -0.269 OA
BRANCH  68  71
ATOM     71  C   UNL     1       9.057  -2.850   6.475  1.00  0.00     0.040 A 
ATOM     72  C   UNL     1       9.944  -3.916   6.618  1.00  0.00     0.014 A 
ATOM     73  C   UNL     1       9.542  -1.545   6.331  1.00  0.00     0.018 A 
ATOM     74  C   UNL     1      11.317  -3.676   6.577  1.00  0.00     0.001 A 
ATOM     75  C   UNL     1      10.919  -1.282   6.344  1.00  0.00    -0.030 A 
ATOM     76  C   UNL     1      11.800  -2.370   6.432  1.00  0.00     0.005 A 
BRANCH  75  77
ATOM     77  C   UNL     1      11.387   0.141   6.201  1.00  0.00     0.195 C 
BRANCH  77  78
ATOM     78  S   UNL     1      12.366   0.764   7.586  1.00  0.00     0.239 S 
ATOM     79  O   UNL     1      13.382  -0.213   7.928  1.00  0.00    -0.206 OA
ATOM     80  O   UNL     1      12.799   2.098   7.208  1.00  0.00    -0.206 OA
BRANCH  78  81
ATOM     81  N   UNL     1      11.467   0.938   8.963  1.00  0.00    -0.251 N 
ATOM     82  H   UNL     1      11.881   1.296   9.782  1.00  0.00     0.183 HD
BRANCH  81  83
ATOM     83  C   UNL     1      10.126   0.577   8.960  1.00  0.00     0.236 A 
ATOM     84  N   UNL     1       9.220   1.527   8.726  1.00  0.00    -0.221 NA
ATOM     85  N   UNL     1       9.893  -0.676   9.349  1.00  0.00    -0.221 NA
ATOM     86  C   UNL     1       7.943   1.170   8.979  1.00  0.00     0.117 A 
ATOM     87  C   UNL     1       8.596  -1.000   9.518  1.00  0.00     0.117 A 
ATOM     88  C   UNL     1       7.569  -0.098   9.366  1.00  0.00     0.040 A 
ENDBRANCH  81  83
ENDBRANCH  78  81
ENDBRANCH  77  78
ENDBRANCH  75  77
ENDBRANCH  68  71
ENDBRANCH  66  67
ENDBRANCH  65  66
ENDBRANCH   1  65
TORSDOF 17
