REMARK SMILES CC[N@@H+](C)Cc1cc2c(cc1Cl)C=C(C(=O)NCCCCCCNC(=O)c1ccc(-c3c4nc(c(-c5c(F)cccc5F)c5ccc([nH]5)c(-c5c(F)cccc5F)c5nc(c(-c6c(F)cccc6F)c6ccc3[nH]6)C=C5)C=C4)cc1)[C@@H](C(F)(F)F)O2
REMARK SMILES IDX 20 1 19 2 18 3 17 4 15 5 16 6 14 8 6 9 7 10 11 11 8 12 10 13
REMARK SMILES IDX 12 14 9 15 86 16 13 17 81 18 5 19 3 20 4 21 2 23 1 24 82 25
REMARK SMILES IDX 83 26 84 27 85 28 21 29 22 30 23 31 24 32 25 33 26 35 27 36
REMARK SMILES IDX 28 37 80 38 29 39 79 40 30 41 31 42 32 43 73 44 33 45 78 46
REMARK SMILES IDX 72 47 74 48 34 49 77 50 71 51 70 52 35 54 61 55 44 56 60 57
REMARK SMILES IDX 45 58 48 59 59 60 75 61 46 62 47 63 58 65 76 66 49 67 36 68
REMARK SMILES IDX 37 69 42 70 38 71 39 72 41 73 43 74 40 75 62 76 63 77 68 78
REMARK SMILES IDX 64 79 65 80 67 81 69 82 66 83 50 84 51 85 56 86 52 87 53 88
REMARK SMILES IDX 55 89 57 90 54 91
REMARK H PARENT 17 7 3 22 24 34 74 53 48 64
REMARK Flexibility Score: inf
ROOT
ATOM      1  C   UNL     1       7.488  -4.953  -8.238  1.00  0.00     0.002 C 
ENDROOT
BRANCH   1   2
ATOM      2  C   UNL     1       7.158  -4.210  -6.940  1.00  0.00     0.021 C 
BRANCH   2   3
ATOM      3  C   UNL     1       5.668  -4.121  -6.628  1.00  0.00     0.116 C 
BRANCH   3   4
ATOM      4  N   UNL     1       5.159  -5.346  -6.042  1.00  0.00    -0.352 N 
ATOM      5  C   UNL     1       4.581  -5.713  -4.875  1.00  0.00     0.251 C 
ATOM      6  O   UNL     1       4.277  -6.907  -4.790  1.00  0.00    -0.270 OA
ATOM      7  H   UNL     1       5.260  -6.111  -6.653  1.00  0.00     0.163 HD
BRANCH   5   8
ATOM      8  C   UNL     1       4.292  -4.797  -3.731  1.00  0.00     0.067 C 
ATOM      9  C   UNL     1       2.785  -3.000   0.747  1.00  0.00     0.029 A 
ATOM     10  C   UNL     1       3.296  -2.433  -0.432  1.00  0.00     0.058 A 
ATOM     11  C   UNL     1       2.811  -4.399   0.861  1.00  0.00     0.050 A 
ATOM     12  C   UNL     1       3.699  -3.228  -1.499  1.00  0.00     0.128 A 
ATOM     13  C   UNL     1       3.229  -5.198  -0.214  1.00  0.00     0.033 A 
ATOM     14  Cl  UNL     1       2.364  -5.218   2.315  1.00  0.00    -0.084 Cl
ATOM     15  C   UNL     1       3.647  -4.612  -1.411  1.00  0.00     0.019 A 
ATOM     16  O   UNL     1       4.151  -2.562  -2.595  1.00  0.00    -0.475 OA
ATOM     17  C   UNL     1       4.031  -5.414  -2.562  1.00  0.00     0.025 C 
ATOM     18  C   UNL     1       4.215  -3.298  -3.844  1.00  0.00     0.314 C 
BRANCH   9  19
ATOM     19  C   UNL     1       2.206  -2.066   1.792  1.00  0.00     0.300 C 
BRANCH  19  20
ATOM     20  N   UNL     1       0.771  -1.735   1.663  1.00  0.00    -0.334 N 
ATOM     21  C   UNL     1      -0.091  -2.863   2.011  1.00  0.00     0.333 C 
ATOM     22  H   UNL     1       0.649  -0.990   2.349  1.00  0.00     0.348 HD
BRANCH  20  23
ATOM     23  C   UNL     1       0.355  -1.149   0.383  1.00  0.00     0.258 C 
ATOM     24  C   UNL     1       0.897   0.258   0.155  1.00  0.00     0.071 C 
ENDBRANCH  20  23
ENDBRANCH  19  20
ENDBRANCH   9  19
BRANCH  18  25
ATOM     25  C   UNL     1       3.072  -2.802  -4.747  1.00  0.00     0.429 C 
ATOM     26  F   UNL     1       3.267  -1.500  -5.079  1.00  0.00    -0.167 F 
ATOM     27  F   UNL     1       2.987  -3.479  -5.914  1.00  0.00    -0.167 F 
ATOM     28  F   UNL     1       1.864  -2.889  -4.147  1.00  0.00    -0.167 F 
ENDBRANCH  18  25
ENDBRANCH   5   8
ENDBRANCH   3   4
ENDBRANCH   2   3
ENDBRANCH   1   2
BRANCH   1  29
ATOM     29  C   UNL     1       6.785  -4.434  -9.500  1.00  0.00     0.002 C 
BRANCH  29  30
ATOM     30  C   UNL     1       6.839  -2.921  -9.720  1.00  0.00     0.021 C 
BRANCH  30  31
ATOM     31  C   UNL     1       8.240  -2.326  -9.774  1.00  0.00     0.116 C 
BRANCH  31  32
ATOM     32  N   UNL     1       9.016  -2.815 -10.901  1.00  0.00    -0.352 N 
ATOM     33  C   UNL     1       9.725  -2.104 -11.839  1.00  0.00     0.251 C 
ATOM     34  H   UNL     1       9.037  -3.793 -11.008  1.00  0.00     0.163 HD
ATOM     35  O   UNL     1      10.208  -2.672 -12.814  1.00  0.00    -0.269 OA
BRANCH  33  36
ATOM     36  C   UNL     1       9.873  -0.640 -11.688  1.00  0.00     0.039 A 
ATOM     37  C   UNL     1      10.222  -0.083 -10.457  1.00  0.00     0.014 A 
ATOM     38  C   UNL     1       9.632   0.185 -12.790  1.00  0.00     0.014 A 
ATOM     39  C   UNL     1      10.172   1.296 -10.287  1.00  0.00     0.010 A 
ATOM     40  C   UNL     1       9.662   1.574 -12.637  1.00  0.00     0.010 A 
ATOM     41  C   UNL     1       9.885   2.140 -11.372  1.00  0.00    -0.014 A 
BRANCH  41  42
ATOM     42  C   UNL     1       9.812   3.608 -11.152  1.00  0.00     0.031 A 
ATOM     43  C   UNL     1       8.511   4.347 -11.312  1.00  0.00     0.074 A 
ATOM     44  C   UNL     1      10.914   4.266 -10.745  1.00  0.00     0.049 A 
ATOM     45  N   UNL     1       8.254   5.617 -11.118  1.00  0.00    -0.248 NA
ATOM     46  C   UNL     1       7.346   3.563 -11.751  1.00  0.00     0.031 C 
ATOM     47  C   UNL     1      12.233   3.661 -10.550  1.00  0.00     0.029 A 
ATOM     48  N   UNL     1      11.095   5.579 -10.395  1.00  0.00    -0.354 N 
ATOM     49  C   UNL     1       6.909   5.786 -11.424  1.00  0.00     0.074 A 
ATOM     50  C   UNL     1       6.410   4.496 -11.848  1.00  0.00     0.031 C 
ATOM     51  C   UNL     1      13.073   4.587 -10.064  1.00  0.00     0.029 A 
ATOM     52  C   UNL     1      12.369   5.860  -9.966  1.00  0.00     0.049 A 
ATOM     53  H   UNL     1      10.381   6.255 -10.446  1.00  0.00     0.167 HD
ATOM     54  C   UNL     1       6.155   6.910 -11.348  1.00  0.00     0.037 A 
ATOM     55  C   UNL     1      12.913   7.018  -9.547  1.00  0.00     0.037 A 
ATOM     56  C   UNL     1       6.647   8.191 -10.910  1.00  0.00     0.049 A 
ATOM     57  C   UNL     1      12.064   8.255  -9.508  1.00  0.00     0.074 A 
ATOM     58  C   UNL     1       5.955   9.383 -10.777  1.00  0.00     0.029 A 
ATOM     59  N   UNL     1       7.957   8.447 -10.535  1.00  0.00    -0.354 N 
ATOM     60  N   UNL     1      10.790   8.393  -9.784  1.00  0.00    -0.248 NA
ATOM     61  C   UNL     1      12.733   9.499  -9.106  1.00  0.00     0.031 C 
ATOM     62  C   UNL     1       6.856  10.368 -10.355  1.00  0.00     0.029 A 
ATOM     63  C   UNL     1       8.099   9.781 -10.189  1.00  0.00     0.049 A 
ATOM     64  H   UNL     1       8.680   7.779 -10.518  1.00  0.00     0.167 HD
ATOM     65  C   UNL     1      10.502   9.735  -9.579  1.00  0.00     0.074 A 
ATOM     66  C   UNL     1      11.728  10.363  -9.131  1.00  0.00     0.031 C 
ATOM     67  C   UNL     1       9.328  10.390  -9.751  1.00  0.00     0.037 A 
BRANCH  54  68
ATOM     68  C   UNL     1       4.716   6.804 -11.761  1.00  0.00     0.057 A 
ATOM     69  C   UNL     1       4.270   7.391 -12.952  1.00  0.00     0.134 A 
ATOM     70  C   UNL     1       3.765   6.147 -10.969  1.00  0.00     0.134 A 
ATOM     71  F   UNL     1       5.126   8.040 -13.754  1.00  0.00    -0.206 F 
ATOM     72  C   UNL     1       2.930   7.326 -13.341  1.00  0.00     0.040 A 
ATOM     73  C   UNL     1       2.427   6.056 -11.359  1.00  0.00     0.040 A 
ATOM     74  F   UNL     1       4.130   5.552  -9.823  1.00  0.00    -0.206 F 
ATOM     75  C   UNL     1       2.006   6.652 -12.546  1.00  0.00     0.006 A 
ENDBRANCH  54  68
BRANCH  55  76
ATOM     76  C   UNL     1      14.337   7.062  -9.134  1.00  0.00     0.057 A 
ATOM     77  C   UNL     1      15.371   6.917 -10.067  1.00  0.00     0.134 A 
ATOM     78  C   UNL     1      14.695   7.261  -7.796  1.00  0.00     0.134 A 
ATOM     79  F   UNL     1      15.091   6.720 -11.363  1.00  0.00    -0.206 F 
ATOM     80  C   UNL     1      16.711   6.959  -9.683  1.00  0.00     0.040 A 
ATOM     81  C   UNL     1      16.032   7.330  -7.402  1.00  0.00     0.040 A 
ATOM     82  F   UNL     1      13.748   7.425  -6.861  1.00  0.00    -0.206 F 
ATOM     83  C   UNL     1      17.044   7.173  -8.347  1.00  0.00     0.006 A 
ENDBRANCH  55  76
BRANCH  67  84
ATOM     84  C   UNL     1       9.321  11.856  -9.434  1.00  0.00     0.057 A 
ATOM     85  C   UNL     1       8.690  12.335  -8.280  1.00  0.00     0.134 A 
ATOM     86  C   UNL     1       9.937  12.792 -10.274  1.00  0.00     0.134 A 
ATOM     87  F   UNL     1       8.078  11.490  -7.437  1.00  0.00    -0.206 F 
ATOM     88  C   UNL     1       8.674  13.695  -7.970  1.00  0.00     0.040 A 
ATOM     89  C   UNL     1       9.948  14.153  -9.963  1.00  0.00     0.040 A 
ATOM     90  F   UNL     1      10.574  12.393 -11.386  1.00  0.00    -0.206 F 
ATOM     91  C   UNL     1       9.312  14.607  -8.809  1.00  0.00     0.006 A 
ENDBRANCH  67  84
ENDBRANCH  41  42
ENDBRANCH  33  36
ENDBRANCH  31  32
ENDBRANCH  30  31
ENDBRANCH  29  30
ENDBRANCH   1  29
TORSDOF 17
