REMARK SMILES COc1ccccc1Nc1nc(C)c(C(=O)NCCCCCCNC(=O)c2ccc(-c3c4nc(c(-c5c(F)cccc5F)c5ccc([nH]5)c(-c5c(F)cccc5F)c5nc(c(-c6c(F)cccc6F)c6ccc3[nH]6)C=C5)C=C4)cc2)s1
REMARK SMILES IDX 20 1 19 2 18 3 17 4 15 5 16 6 14 8 10 9 11 10 81 11 12 12
REMARK SMILES IDX 13 13 9 14 8 16 3 17 4 18 5 19 7 20 6 21 2 22 1 23 21 24
REMARK SMILES IDX 22 25 23 26 24 27 25 28 26 30 27 31 28 32 80 33 29 34 79 35
REMARK SMILES IDX 30 36 31 37 32 38 73 39 33 40 78 41 72 42 74 43 34 44 77 45
REMARK SMILES IDX 71 46 70 47 35 49 61 50 44 51 60 52 45 53 48 54 59 55 75 56
REMARK SMILES IDX 46 57 47 58 58 60 76 61 49 62 36 63 37 64 42 65 38 66 39 67
REMARK SMILES IDX 41 68 43 69 40 70 62 71 63 72 68 73 64 74 65 75 67 76 69 77
REMARK SMILES IDX 66 78 50 79 51 80 56 81 52 82 53 83 55 84 57 85 54 86
REMARK H PARENT 17 7 9 15 24 29 74 48 48 59
REMARK Flexibility Score: inf
ROOT
ATOM      1  C   UNL     1      11.751  -2.667   2.239  1.00  0.00     0.002 C 
ENDROOT
BRANCH   1   2
ATOM      2  C   UNL     1      10.387  -2.000   2.054  1.00  0.00     0.021 C 
BRANCH   2   3
ATOM      3  C   UNL     1       9.679  -2.423   0.765  1.00  0.00     0.116 C 
BRANCH   3   4
ATOM      4  N   UNL     1       8.819  -3.544   1.032  1.00  0.00    -0.351 N 
ATOM      5  C   UNL     1       7.473  -3.664   1.244  1.00  0.00     0.263 C 
ATOM      6  O   UNL     1       7.132  -4.824   1.509  1.00  0.00    -0.268 OA
ATOM      7  H   UNL     1       9.298  -4.404   1.071  1.00  0.00     0.163 HD
BRANCH   5   8
ATOM      8  C   UNL     1       6.516  -2.569   1.143  1.00  0.00     0.117 A 
ATOM      9  C   UNL     1       4.312  -1.482   1.097  1.00  0.00     0.188 A 
ATOM     10  N   UNL     1       5.264  -0.591   1.065  1.00  0.00    -0.225 NA
ATOM     11  S   UNL     1       4.859  -3.085   0.911  1.00  0.00    -0.091 S 
ATOM     12  C   UNL     1       6.507  -1.178   1.227  1.00  0.00     0.063 A 
ATOM     13  C   UNL     1       7.550  -0.169   1.528  1.00  0.00     0.068 C 
BRANCH   9  14
ATOM     14  N   UNL     1       3.031  -1.085   1.212  1.00  0.00    -0.328 N 
ATOM     15  H   UNL     1       2.723  -0.424   0.550  1.00  0.00     0.169 HD
BRANCH  14  16
ATOM     16  C   UNL     1       2.072  -1.499   2.165  1.00  0.00     0.083 A 
ATOM     17  C   UNL     1       0.769  -0.960   2.136  1.00  0.00     0.142 A 
ATOM     18  C   UNL     1      -0.148  -1.283   3.145  1.00  0.00     0.048 A 
ATOM     19  C   UNL     1       0.196  -2.163   4.170  1.00  0.00     0.004 A 
ATOM     20  C   UNL     1       2.387  -2.404   3.197  1.00  0.00     0.030 A 
ATOM     21  C   UNL     1       1.463  -2.727   4.194  1.00  0.00     0.002 A 
BRANCH  17  22
ATOM     22  O   UNL     1       0.313  -0.004   1.260  1.00  0.00    -0.495 OA
ATOM     23  C   UNL     1       0.638  -0.174  -0.116  1.00  0.00     0.278 C 
ENDBRANCH  17  22
ENDBRANCH  14  16
ENDBRANCH   9  14
ENDBRANCH   5   8
ENDBRANCH   3   4
ENDBRANCH   2   3
ENDBRANCH   1   2
BRANCH   1  24
ATOM     24  C   UNL     1      12.780  -2.279   1.170  1.00  0.00     0.002 C 
BRANCH  24  25
ATOM     25  C   UNL     1      13.006  -0.771   1.021  1.00  0.00     0.021 C 
BRANCH  25  26
ATOM     26  C   UNL     1      13.536  -0.104   2.285  1.00  0.00     0.116 C 
BRANCH  26  27
ATOM     27  N   UNL     1      14.846  -0.626   2.644  1.00  0.00    -0.352 N 
ATOM     28  C   UNL     1      16.049   0.032   2.701  1.00  0.00     0.251 C 
ATOM     29  H   UNL     1      14.873  -1.582   2.878  1.00  0.00     0.163 HD
ATOM     30  O   UNL     1      17.102  -0.590   2.736  1.00  0.00    -0.269 OA
BRANCH  28  31
ATOM     31  C   UNL     1      16.054   1.508   2.714  1.00  0.00     0.039 A 
ATOM     32  C   UNL     1      16.940   2.197   1.886  1.00  0.00     0.014 A 
ATOM     33  C   UNL     1      15.163   2.202   3.538  1.00  0.00     0.014 A 
ATOM     34  C   UNL     1      16.888   3.591   1.838  1.00  0.00     0.010 A 
ATOM     35  C   UNL     1      15.056   3.581   3.426  1.00  0.00     0.010 A 
ATOM     36  C   UNL     1      15.920   4.290   2.579  1.00  0.00    -0.014 A 
BRANCH  36  37
ATOM     37  C   UNL     1      15.787   5.764   2.477  1.00  0.00     0.031 A 
ATOM     38  C   UNL     1      16.010   6.626   3.688  1.00  0.00     0.074 A 
ATOM     39  C   UNL     1      15.393   6.316   1.313  1.00  0.00     0.049 A 
ATOM     40  N   UNL     1      15.870   7.920   3.818  1.00  0.00    -0.248 NA
ATOM     41  C   UNL     1      16.414   5.939   4.926  1.00  0.00     0.031 C 
ATOM     42  C   UNL     1      15.097   5.578   0.083  1.00  0.00     0.029 A 
ATOM     43  N   UNL     1      15.163   7.626   0.978  1.00  0.00    -0.354 N 
ATOM     44  C   UNL     1      16.155   8.198   5.148  1.00  0.00     0.074 A 
ATOM     45  C   UNL     1      16.415   6.934   5.799  1.00  0.00     0.031 C 
ATOM     46  C   UNL     1      14.751   6.448  -0.878  1.00  0.00     0.029 A 
ATOM     47  C   UNL     1      14.757   7.798  -0.324  1.00  0.00     0.049 A 
ATOM     48  H   UNL     1      15.277   8.372   1.609  1.00  0.00     0.167 HD
ATOM     49  C   UNL     1      16.219   9.402   5.765  1.00  0.00     0.037 A 
ATOM     50  C   UNL     1      14.418   8.917  -0.991  1.00  0.00     0.037 A 
ATOM     51  C   UNL     1      15.974  10.658   5.106  1.00  0.00     0.049 A 
ATOM     52  C   UNL     1      14.481  10.240  -0.279  1.00  0.00     0.074 A 
ATOM     53  C   UNL     1      16.067  11.936   5.627  1.00  0.00     0.029 A 
ATOM     54  N   UNL     1      15.581  10.792   3.783  1.00  0.00    -0.354 N 
ATOM     55  N   UNL     1      14.822  10.497   0.960  1.00  0.00    -0.248 NA
ATOM     56  C   UNL     1      14.117  11.430  -1.060  1.00  0.00     0.031 C 
ATOM     57  C   UNL     1      15.677  12.841   4.636  1.00  0.00     0.029 A 
ATOM     58  C   UNL     1      15.403  12.131   3.477  1.00  0.00     0.049 A 
ATOM     59  H   UNL     1      15.448  10.046   3.154  1.00  0.00     0.167 HD
ATOM     60  C   UNL     1      14.752  11.877   1.097  1.00  0.00     0.074 A 
ATOM     61  C   UNL     1      14.342  12.403  -0.188  1.00  0.00     0.031 C 
ATOM     62  C   UNL     1      15.008  12.640   2.188  1.00  0.00     0.037 A 
BRANCH  49  63
ATOM     63  C   UNL     1      16.567   9.415   7.226  1.00  0.00     0.057 A 
ATOM     64  C   UNL     1      17.842   9.060   7.688  1.00  0.00     0.134 A 
ATOM     65  C   UNL     1      15.625   9.816   8.182  1.00  0.00     0.134 A 
ATOM     66  F   UNL     1      18.789   8.655   6.828  1.00  0.00    -0.206 F 
ATOM     67  C   UNL     1      18.158   9.074   9.048  1.00  0.00     0.040 A 
ATOM     68  C   UNL     1      15.939   9.865   9.542  1.00  0.00     0.040 A 
ATOM     69  F   UNL     1      14.387  10.176   7.811  1.00  0.00    -0.206 F 
ATOM     70  C   UNL     1      17.206   9.485   9.979  1.00  0.00     0.006 A 
ENDBRANCH  49  63
BRANCH  50  71
ATOM     71  C   UNL     1      14.013   8.838  -2.418  1.00  0.00     0.057 A 
ATOM     72  C   UNL     1      14.825   9.363  -3.429  1.00  0.00     0.134 A 
ATOM     73  C   UNL     1      12.806   8.242  -2.805  1.00  0.00     0.134 A 
ATOM     74  F   UNL     1      15.986   9.960  -3.121  1.00  0.00    -0.206 F 
ATOM     75  C   UNL     1      14.443   9.320  -4.771  1.00  0.00     0.040 A 
ATOM     76  C   UNL     1      12.425   8.167  -4.146  1.00  0.00     0.040 A 
ATOM     77  F   UNL     1      11.988   7.709  -1.886  1.00  0.00    -0.206 F 
ATOM     78  C   UNL     1      13.241   8.716  -5.133  1.00  0.00     0.006 A 
ENDBRANCH  50  71
BRANCH  62  79
ATOM     79  C   UNL     1      14.905  14.130   2.030  1.00  0.00     0.057 A 
ATOM     80  C   UNL     1      13.674  14.780   1.883  1.00  0.00     0.134 A 
ATOM     81  C   UNL     1      16.056  14.927   2.080  1.00  0.00     0.134 A 
ATOM     82  F   UNL     1      12.535  14.074   1.815  1.00  0.00    -0.206 F 
ATOM     83  C   UNL     1      13.593  16.169   1.770  1.00  0.00     0.040 A 
ATOM     84  C   UNL     1      15.985  16.318   1.999  1.00  0.00     0.040 A 
ATOM     85  F   UNL     1      17.266  14.368   2.229  1.00  0.00    -0.206 F 
ATOM     86  C   UNL     1      14.750  16.943   1.838  1.00  0.00     0.006 A 
ENDBRANCH  62  79
ENDBRANCH  36  37
ENDBRANCH  28  31
ENDBRANCH  26  27
ENDBRANCH  25  26
ENDBRANCH  24  25
ENDBRANCH   1  24
TORSDOF 16
