REMARK SMILES COc1ccc(C(=O)C2=C(NCCCCCCNC(=O)c3ccc(-c4c5nc(c(-c6c(F)cccc6F)c6ccc([nH]6)c(-c6c(F)cccc6F)c6nc(c(-c7c(F)cccc7F)c7ccc4[nH]7)C=C6)C=C5)cc3)C(=O)N(CC(=O)[O-])[C@H]2c2ccccc2)cc1
REMARK SMILES IDX 14 1 13 2 12 3 11 4 10 6 9 7 82 8 75 9 77 10 76 11 7 12 8 13
REMARK SMILES IDX 6 14 3 15 4 16 90 17 5 18 89 19 2 20 1 21 83 22 84 23 88 24
REMARK SMILES IDX 85 25 87 26 86 27 78 28 79 29 80 30 81 31 15 32 16 33 17 34
REMARK SMILES IDX 18 35 19 36 20 38 21 39 22 40 74 41 23 42 73 43 24 44 25 45
REMARK SMILES IDX 26 46 67 47 27 48 72 49 66 50 68 51 28 52 71 53 65 54 64 55
REMARK SMILES IDX 29 57 55 58 38 59 54 60 39 61 42 62 53 63 69 64 40 65 41 66
REMARK SMILES IDX 52 68 70 69 43 70 30 71 31 72 36 73 32 74 33 75 35 76 37 77
REMARK SMILES IDX 34 78 56 79 57 80 62 81 58 82 59 83 61 84 63 85 60 86 44 87
REMARK SMILES IDX 45 88 50 89 46 90 47 91 49 92 51 93 48 94
REMARK H PARENT 11 5 18 37 68 56 42 67
REMARK Flexibility Score: inf
ROOT
ATOM      1  C   UNL     1       1.284  -8.735   3.174  1.00  0.00     0.002 C 
ENDROOT
BRANCH   1   2
ATOM      2  C   UNL     1       1.003  -7.233   3.306  1.00  0.00     0.021 C 
BRANCH   2   3
ATOM      3  C   UNL     1       1.446  -6.617   4.633  1.00  0.00     0.113 C 
BRANCH   3   4
ATOM      4  N   UNL     1       2.884  -6.637   4.722  1.00  0.00    -0.380 N 
ATOM      5  H   UNL     1       3.294  -7.527   4.629  1.00  0.00     0.160 HD
BRANCH   4   6
ATOM      6  C   UNL     1       3.767  -5.610   4.917  1.00  0.00     0.110 C 
ATOM      7  C   UNL     1       3.693  -4.286   5.103  1.00  0.00     0.056 C 
ATOM      8  C   UNL     1       5.017  -3.619   5.342  1.00  0.00     0.153 C 
ATOM      9  C   UNL     1       5.231  -5.924   5.017  1.00  0.00     0.271 C 
ATOM     10  N   UNL     1       5.897  -4.763   5.314  1.00  0.00    -0.320 N 
ATOM     11  O   UNL     1       5.712  -7.035   4.861  1.00  0.00    -0.267 OA
BRANCH   7  12
ATOM     12  C   UNL     1       2.424  -3.565   5.295  1.00  0.00     0.193 C 
ATOM     13  O   UNL     1       1.908  -3.544   6.410  1.00  0.00    -0.289 OA
BRANCH  12  14
ATOM     14  C   UNL     1       1.783  -2.840   4.157  1.00  0.00     0.023 A 
ATOM     15  C   UNL     1       0.643  -1.204   2.161  1.00  0.00     0.118 A 
ATOM     16  C   UNL     1       0.005  -1.369   3.391  1.00  0.00     0.047 A 
ATOM     17  C   UNL     1       1.806  -1.924   1.903  1.00  0.00     0.047 A 
ATOM     18  C   UNL     1       0.574  -2.171   4.387  1.00  0.00     0.016 A 
ATOM     19  C   UNL     1       2.349  -2.765   2.883  1.00  0.00     0.016 A 
BRANCH  15  20
ATOM     20  O   UNL     1       0.037  -0.329   1.303  1.00  0.00    -0.497 OA
ATOM     21  C   UNL     1       0.764   0.022   0.130  1.00  0.00     0.278 C 
ENDBRANCH  15  20
ENDBRANCH  12  14
ENDBRANCH   7  12
BRANCH   8  22
ATOM     22  C   UNL     1       5.386  -2.604   4.271  1.00  0.00    -0.021 A 
ATOM     23  C   UNL     1       5.775  -3.006   2.976  1.00  0.00     0.006 A 
ATOM     24  C   UNL     1       5.287  -1.231   4.541  1.00  0.00     0.006 A 
ATOM     25  C   UNL     1       6.021  -2.067   1.975  1.00  0.00     0.000 A 
ATOM     26  C   UNL     1       5.549  -0.292   3.540  1.00  0.00     0.000 A 
ATOM     27  C   UNL     1       5.904  -0.710   2.257  1.00  0.00     0.000 A 
ENDBRANCH   8  22
BRANCH  10  28
ATOM     28  C   UNL     1       7.341  -4.696   5.490  1.00  0.00     0.173 C 
BRANCH  28  29
ATOM     29  C   UNL     1       7.852  -5.292   6.792  1.00  0.00     0.061 C 
ATOM     30  O   UNL     1       9.028  -5.499   7.054  1.00  0.00    -0.548 OA
ATOM     31  O   UNL     1       6.908  -5.501   7.731  1.00  0.00    -0.548 OA
ENDBRANCH  28  29
ENDBRANCH  10  28
ENDBRANCH   4   6
ENDBRANCH   3   4
ENDBRANCH   2   3
ENDBRANCH   1   2
BRANCH   1  32
ATOM     32  C   UNL     1       0.668  -9.613   4.268  1.00  0.00     0.002 C 
BRANCH  32  33
ATOM     33  C   UNL     1      -0.835  -9.427   4.484  1.00  0.00     0.021 C 
BRANCH  33  34
ATOM     34  C   UNL     1      -1.690  -9.636   3.239  1.00  0.00     0.116 C 
BRANCH  34  35
ATOM     35  N   UNL     1      -1.609 -10.997   2.734  1.00  0.00    -0.352 N 
ATOM     36  C   UNL     1      -2.621 -11.874   2.436  1.00  0.00     0.251 C 
ATOM     37  H   UNL     1      -0.697 -11.338   2.585  1.00  0.00     0.163 HD
ATOM     38  O   UNL     1      -2.369 -13.049   2.185  1.00  0.00    -0.269 OA
BRANCH  36  39
ATOM     39  C   UNL     1      -4.024 -11.408   2.438  1.00  0.00     0.039 A 
ATOM     40  C   UNL     1      -4.995 -12.195   3.062  1.00  0.00     0.014 A 
ATOM     41  C   UNL     1      -4.382 -10.202   1.828  1.00  0.00     0.014 A 
ATOM     42  C   UNL     1      -6.315 -11.745   3.124  1.00  0.00     0.010 A 
ATOM     43  C   UNL     1      -5.682  -9.720   1.957  1.00  0.00     0.010 A 
ATOM     44  C   UNL     1      -6.662 -10.488   2.603  1.00  0.00    -0.014 A 
BRANCH  44  45
ATOM     45  C   UNL     1      -8.045  -9.961   2.727  1.00  0.00     0.031 A 
ATOM     46  C   UNL     1      -8.872  -9.703   1.498  1.00  0.00     0.074 A 
ATOM     47  C   UNL     1      -8.536  -9.658   3.945  1.00  0.00     0.049 A 
ATOM     48  N   UNL     1     -10.072  -9.189   1.400  1.00  0.00    -0.248 NA
ATOM     49  C   UNL     1      -8.259 -10.045   0.204  1.00  0.00     0.031 C 
ATOM     50  C   UNL     1      -7.818  -9.819   5.211  1.00  0.00     0.029 A 
ATOM     51  N   UNL     1      -9.751  -9.140   4.317  1.00  0.00    -0.354 N 
ATOM     52  C   UNL     1     -10.351  -9.135   0.041  1.00  0.00     0.074 A 
ATOM     53  C   UNL     1      -9.176  -9.617  -0.651  1.00  0.00     0.031 C 
ATOM     54  C   UNL     1      -8.614  -9.432   6.220  1.00  0.00     0.029 A 
ATOM     55  C   UNL     1      -9.880  -8.957   5.673  1.00  0.00     0.049 A 
ATOM     56  H   UNL     1     -10.464  -8.922   3.674  1.00  0.00     0.167 HD
ATOM     57  C   UNL     1     -11.492  -8.743  -0.574  1.00  0.00     0.037 A 
ATOM     58  C   UNL     1     -10.900  -8.453   6.393  1.00  0.00     0.037 A 
ATOM     59  C   UNL     1     -12.667  -8.281   0.118  1.00  0.00     0.049 A 
ATOM     60  C   UNL     1     -12.150  -8.007   5.684  1.00  0.00     0.074 A 
ATOM     61  C   UNL     1     -13.892  -7.914  -0.412  1.00  0.00     0.029 A 
ATOM     62  N   UNL     1     -12.762  -8.119   1.492  1.00  0.00    -0.354 N 
ATOM     63  N   UNL     1     -12.426  -8.027   4.403  1.00  0.00    -0.248 NA
ATOM     64  C   UNL     1     -13.233  -7.475   6.523  1.00  0.00     0.031 C 
ATOM     65  C   UNL     1     -14.711  -7.482   0.635  1.00  0.00     0.029 A 
ATOM     66  C   UNL     1     -14.017  -7.633   1.825  1.00  0.00     0.049 A 
ATOM     67  H   UNL     1     -12.045  -8.320   2.136  1.00  0.00     0.167 HD
ATOM     68  C   UNL     1     -13.722  -7.541   4.285  1.00  0.00     0.074 A 
ATOM     69  C   UNL     1     -14.182  -7.248   5.626  1.00  0.00     0.031 C 
ATOM     70  C   UNL     1     -14.464  -7.354   3.166  1.00  0.00     0.037 A 
BRANCH  57  71
ATOM     71  C   UNL     1     -11.526  -8.796  -2.075  1.00  0.00     0.057 A 
ATOM     72  C   UNL     1     -11.538 -10.012  -2.772  1.00  0.00     0.134 A 
ATOM     73  C   UNL     1     -11.585  -7.619  -2.832  1.00  0.00     0.134 A 
ATOM     74  F   UNL     1     -11.472 -11.176  -2.109  1.00  0.00    -0.206 F 
ATOM     75  C   UNL     1     -11.580 -10.054  -4.167  1.00  0.00     0.040 A 
ATOM     76  C   UNL     1     -11.657  -7.649  -4.226  1.00  0.00     0.040 A 
ATOM     77  F   UNL     1     -11.584  -6.420  -2.230  1.00  0.00    -0.206 F 
ATOM     78  C   UNL     1     -11.648  -8.870  -4.898  1.00  0.00     0.006 A 
ENDBRANCH  57  71
BRANCH  58  79
ATOM     79  C   UNL     1     -10.793  -8.357   7.871  1.00  0.00     0.057 A 
ATOM     80  C   UNL     1     -11.574  -9.165   8.706  1.00  0.00     0.134 A 
ATOM     81  C   UNL     1      -9.921  -7.450   8.485  1.00  0.00     0.134 A 
ATOM     82  F   UNL     1     -12.442 -10.040   8.178  1.00  0.00    -0.206 F 
ATOM     83  C   UNL     1     -11.508  -9.060  10.097  1.00  0.00     0.040 A 
ATOM     84  C   UNL     1      -9.824  -7.354   9.874  1.00  0.00     0.040 A 
ATOM     85  F   UNL     1      -9.139  -6.652   7.741  1.00  0.00    -0.206 F 
ATOM     86  C   UNL     1     -10.627  -8.154  10.684  1.00  0.00     0.006 A 
ENDBRANCH  58  79
BRANCH  70  87
ATOM     87  C   UNL     1     -15.866  -6.847   3.346  1.00  0.00     0.057 A 
ATOM     88  C   UNL     1     -16.134  -5.528   3.734  1.00  0.00     0.134 A 
ATOM     89  C   UNL     1     -16.962  -7.681   3.091  1.00  0.00     0.134 A 
ATOM     90  F   UNL     1     -15.130  -4.681   4.006  1.00  0.00    -0.206 F 
ATOM     91  C   UNL     1     -17.442  -5.064   3.884  1.00  0.00     0.040 A 
ATOM     92  C   UNL     1     -18.274  -7.220   3.208  1.00  0.00     0.040 A 
ATOM     93  F   UNL     1     -16.776  -8.953   2.707  1.00  0.00    -0.206 F 
ATOM     94  C   UNL     1     -18.516  -5.910   3.613  1.00  0.00     0.006 A 
ENDBRANCH  70  87
ENDBRANCH  44  45
ENDBRANCH  36  39
ENDBRANCH  34  35
ENDBRANCH  33  34
ENDBRANCH  32  33
ENDBRANCH   1  32
TORSDOF 19
