REMARK SMILES CC[C@H](Oc1cccc(/C=C2\SC(=S)N(NC(=O)c3cccc(O)c3)C2=O)c1)C(=O)NCCCCCCNC(=O)c1ccc(-c2c3nc(c(-c4c(F)cccc4F)c4ccc([nH]4)c(-c4c(F)cccc4F)c4nc(c(-c5c(F)cccc5F)c5ccc2[nH]5)C=C4)C=C3)cc1
REMARK SMILES IDX 32 1 31 2 29 3 30 4 3 6 2 7 1 8 4 9 5 10 6 11 28 12 7 13
REMARK SMILES IDX 9 14 8 15 10 16 11 17 12 18 26 19 13 20 15 21 27 22 14 23
REMARK SMILES IDX 16 24 17 25 18 27 19 28 20 29 25 30 21 31 23 32 22 33 24 34
REMARK SMILES IDX 33 36 34 37 35 38 36 39 37 40 38 41 39 42 40 44 41 45 42 46
REMARK SMILES IDX 94 47 43 48 93 49 44 50 45 51 46 52 87 53 47 54 92 55 86 56
REMARK SMILES IDX 88 57 48 58 91 59 85 60 84 61 49 63 75 64 58 65 74 66 59 67
REMARK SMILES IDX 62 68 73 69 89 70 60 71 61 72 72 74 90 75 63 76 50 77 51 78
REMARK SMILES IDX 56 79 52 80 53 81 55 82 57 83 54 84 76 85 77 86 82 87 78 88
REMARK SMILES IDX 79 89 81 90 83 91 80 92 64 93 65 94 70 95 66 96 67 97 69 98
REMARK SMILES IDX 71 99 68 100
REMARK H PARENT 31 5 16 26 24 35 38 43 88 62 62 73
REMARK Flexibility Score: inf
ROOT
ATOM      1  C   UNL     1      -1.730  -3.295   0.112  1.00  0.00     0.116 C 
ENDROOT
BRANCH   1   2
ATOM      2  N   UNL     1      -0.553  -4.013  -0.346  1.00  0.00    -0.353 N 
ATOM      3  C   UNL     1       0.762  -3.635  -0.335  1.00  0.00     0.261 C 
ATOM      4  O   UNL     1       1.581  -4.392  -0.865  1.00  0.00    -0.271 OA
ATOM      5  H   UNL     1      -0.728  -4.906  -0.721  1.00  0.00     0.163 HD
BRANCH   3   6
ATOM      6  C   UNL     1       1.222  -2.371   0.423  1.00  0.00     0.261 C 
BRANCH   6   7
ATOM      7  C   UNL     1       1.221  -2.736   1.915  1.00  0.00     0.052 C 
ATOM      8  C   UNL     1       2.350  -2.046   2.679  1.00  0.00     0.008 C 
ENDBRANCH   6   7
BRANCH   6   9
ATOM      9  O   UNL     1       0.459  -1.281  -0.099  1.00  0.00    -0.481 OA
BRANCH   9  10
ATOM     10  C   UNL     1       0.108  -0.115   0.498  1.00  0.00     0.121 A 
ATOM     11  C   UNL     1       0.025   0.161   1.856  1.00  0.00     0.046 A 
ATOM     12  C   UNL     1      -0.355   0.856  -0.405  1.00  0.00     0.054 A 
ATOM     13  C   UNL     1      -0.466   1.384   2.315  1.00  0.00     0.004 A 
ATOM     14  C   UNL     1      -0.934   2.051   0.043  1.00  0.00    -0.021 A 
ATOM     15  C   UNL     1      -0.940   2.325   1.413  1.00  0.00     0.008 A 
BRANCH  14  16
ATOM     16  C   UNL     1      -1.619   3.032  -0.805  1.00  0.00     0.029 C 
ATOM     17  C   UNL     1      -2.503   2.794  -1.782  1.00  0.00     0.082 C 
ATOM     18  S   UNL     1      -2.945   1.316  -2.540  1.00  0.00    -0.052 SA
ATOM     19  C   UNL     1      -3.314   3.909  -2.341  1.00  0.00     0.285 C 
ATOM     20  C   UNL     1      -3.856   2.139  -3.800  1.00  0.00     0.168 C 
ATOM     21  N   UNL     1      -3.855   3.499  -3.548  1.00  0.00    -0.198 N 
ATOM     22  O   UNL     1      -3.515   4.955  -1.744  1.00  0.00    -0.266 OA
ATOM     23  S   UNL     1      -4.607   1.338  -5.055  1.00  0.00    -0.050 S 
BRANCH  21  24
ATOM     24  N   UNL     1      -4.582   4.374  -4.371  1.00  0.00    -0.255 N 
ATOM     25  C   UNL     1      -4.200   5.630  -4.798  1.00  0.00     0.270 C 
ATOM     26  H   UNL     1      -5.462   4.057  -4.678  1.00  0.00     0.192 HD
ATOM     27  O   UNL     1      -4.909   6.251  -5.586  1.00  0.00    -0.267 OA
BRANCH  25  28
ATOM     28  C   UNL     1      -2.984   6.282  -4.271  1.00  0.00     0.045 A 
ATOM     29  C   UNL     1      -3.156   7.501  -3.598  1.00  0.00     0.014 A 
ATOM     30  C   UNL     1      -1.718   5.696  -4.371  1.00  0.00     0.060 A 
ATOM     31  C   UNL     1      -2.072   8.102  -2.962  1.00  0.00     0.005 A 
ATOM     32  C   UNL     1      -0.649   6.305  -3.718  1.00  0.00     0.116 A 
ATOM     33  C   UNL     1      -0.819   7.493  -3.010  1.00  0.00     0.046 A 
BRANCH  32  34
ATOM     34  O   UNL     1       0.597   5.752  -3.722  1.00  0.00    -0.508 OA
ATOM     35  H   UNL     1       1.301   6.181  -3.276  1.00  0.00     0.293 HD
ENDBRANCH  32  34
ENDBRANCH  25  28
ENDBRANCH  21  24
ENDBRANCH  14  16
ENDBRANCH   9  10
ENDBRANCH   6   9
ENDBRANCH   3   6
ENDBRANCH   1   2
BRANCH   1  36
ATOM     36  C   UNL     1      -2.622  -2.891  -1.063  1.00  0.00     0.021 C 
BRANCH  36  37
ATOM     37  C   UNL     1      -3.398  -4.059  -1.688  1.00  0.00     0.002 C 
BRANCH  37  38
ATOM     38  C   UNL     1      -4.367  -4.783  -0.745  1.00  0.00     0.002 C 
BRANCH  38  39
ATOM     39  C   UNL     1      -5.411  -3.895  -0.060  1.00  0.00     0.021 C 
BRANCH  39  40
ATOM     40  C   UNL     1      -6.332  -3.126  -1.005  1.00  0.00     0.116 C 
BRANCH  40  41
ATOM     41  N   UNL     1      -7.149  -4.008  -1.821  1.00  0.00    -0.352 N 
ATOM     42  C   UNL     1      -8.501  -3.991  -2.057  1.00  0.00     0.251 C 
ATOM     43  H   UNL     1      -6.657  -4.729  -2.276  1.00  0.00     0.163 HD
ATOM     44  O   UNL     1      -9.027  -4.927  -2.655  1.00  0.00    -0.269 OA
BRANCH  42  45
ATOM     45  C   UNL     1      -9.339  -2.869  -1.578  1.00  0.00     0.039 A 
ATOM     46  C   UNL     1     -10.578  -3.164  -0.998  1.00  0.00     0.014 A 
ATOM     47  C   UNL     1      -8.941  -1.538  -1.732  1.00  0.00     0.014 A 
ATOM     48  C   UNL     1     -11.388  -2.132  -0.520  1.00  0.00     0.010 A 
ATOM     49  C   UNL     1      -9.727  -0.510  -1.208  1.00  0.00     0.010 A 
ATOM     50  C   UNL     1     -10.956  -0.798  -0.595  1.00  0.00    -0.014 A 
BRANCH  50  51
ATOM     51  C   UNL     1     -11.776   0.298  -0.020  1.00  0.00     0.031 A 
ATOM     52  C   UNL     1     -12.429   1.315  -0.913  1.00  0.00     0.074 A 
ATOM     53  C   UNL     1     -11.897   0.401   1.317  1.00  0.00     0.049 A 
ATOM     54  N   UNL     1     -13.145   2.361  -0.586  1.00  0.00    -0.248 NA
ATOM     55  C   UNL     1     -12.238   1.146  -2.362  1.00  0.00     0.031 C 
ATOM     56  C   UNL     1     -11.277  -0.496   2.295  1.00  0.00     0.029 A 
ATOM     57  N   UNL     1     -12.578   1.311   2.086  1.00  0.00    -0.354 N 
ATOM     58  C   UNL     1     -13.483   2.979  -1.782  1.00  0.00     0.074 A 
ATOM     59  C   UNL     1     -12.861   2.213  -2.842  1.00  0.00     0.031 C 
ATOM     60  C   UNL     1     -11.619  -0.100   3.532  1.00  0.00     0.029 A 
ATOM     61  C   UNL     1     -12.460   1.089   3.436  1.00  0.00     0.049 A 
ATOM     62  H   UNL     1     -13.100   2.054   1.706  1.00  0.00     0.167 HD
ATOM     63  C   UNL     1     -14.256   4.073  -1.982  1.00  0.00     0.037 A 
ATOM     64  C   UNL     1     -12.972   1.767   4.480  1.00  0.00     0.037 A 
ATOM     65  C   UNL     1     -14.897   4.823  -0.934  1.00  0.00     0.049 A 
ATOM     66  C   UNL     1     -13.841   2.966   4.229  1.00  0.00     0.074 A 
ATOM     67  C   UNL     1     -15.733   5.921  -1.045  1.00  0.00     0.029 A 
ATOM     68  N   UNL     1     -14.775   4.549   0.419  1.00  0.00    -0.354 N 
ATOM     69  N   UNL     1     -14.189   3.509   3.088  1.00  0.00    -0.248 NA
ATOM     70  C   UNL     1     -14.392   3.643   5.411  1.00  0.00     0.031 C 
ATOM     71  C   UNL     1     -16.100   6.325   0.244  1.00  0.00     0.029 A 
ATOM     72  C   UNL     1     -15.515   5.462   1.154  1.00  0.00     0.049 A 
ATOM     73  H   UNL     1     -14.243   3.814   0.802  1.00  0.00     0.167 HD
ATOM     74  C   UNL     1     -15.014   4.577   3.413  1.00  0.00     0.074 A 
ATOM     75  C   UNL     1     -15.127   4.597   4.857  1.00  0.00     0.031 C 
ATOM     76  C   UNL     1     -15.620   5.465   2.589  1.00  0.00     0.037 A 
BRANCH  63  77
ATOM     77  C   UNL     1     -14.465   4.520  -3.397  1.00  0.00     0.057 A 
ATOM     78  C   UNL     1     -15.318   3.827  -4.265  1.00  0.00     0.134 A 
ATOM     79  C   UNL     1     -13.848   5.679  -3.882  1.00  0.00     0.134 A 
ATOM     80  F   UNL     1     -15.930   2.703  -3.862  1.00  0.00    -0.206 F 
ATOM     81  C   UNL     1     -15.539   4.263  -5.572  1.00  0.00     0.040 A 
ATOM     82  C   UNL     1     -14.075   6.136  -5.182  1.00  0.00     0.040 A 
ATOM     83  F   UNL     1     -13.023   6.391  -3.099  1.00  0.00    -0.206 F 
ATOM     84  C   UNL     1     -14.921   5.425  -6.032  1.00  0.00     0.006 A 
ENDBRANCH  63  77
BRANCH  64  85
ATOM     85  C   UNL     1     -12.696   1.315   5.865  1.00  0.00     0.057 A 
ATOM     86  C   UNL     1     -13.692   0.704   6.635  1.00  0.00     0.134 A 
ATOM     87  C   UNL     1     -11.441   1.499   6.455  1.00  0.00     0.134 A 
ATOM     88  F   UNL     1     -14.920   0.521   6.127  1.00  0.00    -0.206 F 
ATOM     89  C   UNL     1     -13.456   0.308   7.951  1.00  0.00     0.040 A 
ATOM     90  C   UNL     1     -11.185   1.090   7.764  1.00  0.00     0.040 A 
ATOM     91  F   UNL     1     -10.446   2.074   5.765  1.00  0.00    -0.206 F 
ATOM     92  C   UNL     1     -12.197   0.498   8.518  1.00  0.00     0.006 A 
ENDBRANCH  64  85
BRANCH  76  93
ATOM     93  C   UNL     1     -16.473   6.516   3.232  1.00  0.00     0.057 A 
ATOM     94  C   UNL     1     -15.910   7.613   3.895  1.00  0.00     0.134 A 
ATOM     95  C   UNL     1     -17.869   6.439   3.170  1.00  0.00     0.134 A 
ATOM     96  F   UNL     1     -14.578   7.734   4.001  1.00  0.00    -0.206 F 
ATOM     97  C   UNL     1     -16.709   8.589   4.494  1.00  0.00     0.040 A 
ATOM     98  C   UNL     1     -18.678   7.418   3.748  1.00  0.00     0.040 A 
ATOM     99  F   UNL     1     -18.468   5.414   2.545  1.00  0.00    -0.206 F 
ATOM    100  C   UNL     1     -18.097   8.495   4.417  1.00  0.00     0.006 A 
ENDBRANCH  76  93
ENDBRANCH  50  51
ENDBRANCH  42  45
ENDBRANCH  40  41
ENDBRANCH  39  40
ENDBRANCH  38  39
ENDBRANCH  37  38
ENDBRANCH  36  37
ENDBRANCH   1  36
TORSDOF 20
