REMARK SMILES CC(C)[C@H](NC(=O)[C@H]1CC(=O)N(c2ccc(F)cc2)C1)C(=O)N1CCC[C@@H]1C(=O)NCCCCCCNC(=O)c1ccc(-c2c3nc(c(-c4c(F)cccc4F)c4ccc([nH]4)c(-c4c(F)cccc4F)c4nc(c(-c5c(F)cccc5F)c5ccc2[nH]5)C=C4)C=C3)cc1
REMARK SMILES IDX 32 1 31 2 30 3 28 4 29 5 27 7 23 8 24 9 25 10 26 11 21 12
REMARK SMILES IDX 22 13 4 14 2 15 1 16 3 17 5 18 6 19 7 21 8 22 9 23 20 24
REMARK SMILES IDX 10 25 12 26 11 27 13 28 14 29 19 30 15 31 18 32 16 33 17 34
REMARK SMILES IDX 33 35 34 36 35 37 36 38 37 39 38 40 39 42 40 43 41 44 93 45
REMARK SMILES IDX 42 46 92 47 43 48 44 49 45 50 86 51 46 52 91 53 85 54 87 55
REMARK SMILES IDX 47 56 90 57 84 58 83 59 48 61 74 62 57 63 73 64 58 65 61 66
REMARK SMILES IDX 72 67 88 68 59 69 60 70 71 72 89 73 62 74 49 75 50 76 55 77
REMARK SMILES IDX 51 78 52 79 54 80 56 81 53 82 75 83 76 84 81 85 77 86 78 87
REMARK SMILES IDX 80 88 82 89 79 90 63 91 64 92 69 93 65 94 66 95 68 96 70 97
REMARK SMILES IDX 67 98
REMARK H PARENT 30 6 5 20 37 41 87 60 61 71
REMARK Flexibility Score: inf
ROOT
ATOM      1  C   UNL     1       3.033  -1.484  -1.210  1.00  0.00     0.021 C 
ENDROOT
BRANCH   1   2
ATOM      2  C   UNL     1       3.295  -1.528   0.299  1.00  0.00     0.116 C 
BRANCH   2   3
ATOM      3  N   UNL     1       4.689  -1.690   0.646  1.00  0.00    -0.354 N 
ATOM      4  C   UNL     1       5.484  -1.003   1.515  1.00  0.00     0.242 C 
ATOM      5  O   UNL     1       6.671  -1.350   1.548  1.00  0.00    -0.273 OA
ATOM      6  H   UNL     1       5.143  -2.423   0.173  1.00  0.00     0.163 HD
BRANCH   4   7
ATOM      7  C   UNL     1       5.029   0.251   2.312  1.00  0.00     0.174 C 
ATOM      8  N   UNL     1       3.863   0.180   3.217  1.00  0.00    -0.329 N 
ATOM      9  C   UNL     1       3.274   1.501   3.265  1.00  0.00     0.120 C 
ATOM     10  C   UNL     1       3.399   2.006   1.845  1.00  0.00     0.024 C 
ATOM     11  C   UNL     1       4.751   1.456   1.393  1.00  0.00     0.037 C 
BRANCH   8  12
ATOM     12  C   UNL     1       3.990  -0.519   4.410  1.00  0.00     0.246 C 
ATOM     13  O   UNL     1       5.108  -0.770   4.870  1.00  0.00    -0.272 OA
BRANCH  12  14
ATOM     14  C   UNL     1       2.738  -1.235   5.021  1.00  0.00     0.174 C 
BRANCH  14  15
ATOM     15  C   UNL     1       2.598  -2.675   4.388  1.00  0.00     0.015 C 
ATOM     16  C   UNL     1       3.882  -3.521   4.432  1.00  0.00     0.010 C 
ATOM     17  C   UNL     1       1.467  -3.513   5.008  1.00  0.00     0.010 C 
ENDBRANCH  14  15
BRANCH  14  18
ATOM     18  N   UNL     1       1.477  -0.432   5.334  1.00  0.00    -0.344 N 
ATOM     19  C   UNL     1       0.338   0.096   4.784  1.00  0.00     0.226 C 
ATOM     20  H   UNL     1       1.486  -0.209   6.293  1.00  0.00     0.164 HD
ATOM     21  O   UNL     1      -0.448   0.642   5.565  1.00  0.00    -0.275 OA
BRANCH  19  22
ATOM     22  C   UNL     1       0.032   0.137   3.295  1.00  0.00     0.107 C 
ATOM     23  C   UNL     1       0.716  -1.022   2.676  1.00  0.00     0.116 C 
ATOM     24  C   UNL     1      -1.444  -0.063   2.897  1.00  0.00     0.139 C 
ATOM     25  C   UNL     1      -0.148  -1.588   1.657  1.00  0.00     0.227 C 
ATOM     26  N   UNL     1      -1.391  -1.017   1.808  1.00  0.00    -0.312 N 
ATOM     27  O   UNL     1       0.217  -2.517   0.962  1.00  0.00    -0.274 OA
BRANCH  26  28
ATOM     28  C   UNL     1      -2.494  -1.632   1.210  1.00  0.00     0.044 A 
ATOM     29  C   UNL     1      -2.555  -3.037   1.259  1.00  0.00     0.029 A 
ATOM     30  C   UNL     1      -3.301  -0.909   0.335  1.00  0.00     0.029 A 
ATOM     31  C   UNL     1      -3.325  -3.733   0.356  1.00  0.00     0.041 A 
ATOM     32  C   UNL     1      -4.077  -1.615  -0.580  1.00  0.00     0.041 A 
ATOM     33  C   UNL     1      -4.036  -3.010  -0.576  1.00  0.00     0.123 A 
ATOM     34  F   UNL     1      -4.639  -3.707  -1.531  1.00  0.00    -0.207 F 
ENDBRANCH  26  28
ENDBRANCH  19  22
ENDBRANCH  14  18
ENDBRANCH  12  14
ENDBRANCH   8  12
ENDBRANCH   4   7
ENDBRANCH   2   3
ENDBRANCH   1   2
BRANCH   1  35
ATOM     35  C   UNL     1       3.027  -2.830  -1.956  1.00  0.00     0.002 C 
BRANCH  35  36
ATOM     36  C   UNL     1       1.940  -3.847  -1.570  1.00  0.00     0.002 C 
BRANCH  36  37
ATOM     37  C   UNL     1       0.488  -3.371  -1.684  1.00  0.00     0.021 C 
BRANCH  37  38
ATOM     38  C   UNL     1      -0.121  -3.209  -3.068  1.00  0.00     0.116 C 
BRANCH  38  39
ATOM     39  N   UNL     1      -0.458  -4.465  -3.714  1.00  0.00    -0.352 N 
ATOM     40  C   UNL     1      -1.638  -4.966  -4.220  1.00  0.00     0.251 C 
ATOM     41  H   UNL     1       0.305  -5.078  -3.809  1.00  0.00     0.163 HD
ATOM     42  O   UNL     1      -1.629  -6.121  -4.650  1.00  0.00    -0.269 OA
BRANCH  40  43
ATOM     43  C   UNL     1      -2.924  -4.205  -4.248  1.00  0.00     0.039 A 
ATOM     44  C   UNL     1      -4.130  -4.931  -4.203  1.00  0.00     0.014 A 
ATOM     45  C   UNL     1      -3.000  -2.820  -4.360  1.00  0.00     0.014 A 
ATOM     46  C   UNL     1      -5.378  -4.279  -4.179  1.00  0.00     0.010 A 
ATOM     47  C   UNL     1      -4.233  -2.166  -4.243  1.00  0.00     0.010 A 
ATOM     48  C   UNL     1      -5.443  -2.882  -4.145  1.00  0.00    -0.014 A 
BRANCH  48  49
ATOM     49  C   UNL     1      -6.723  -2.118  -4.023  1.00  0.00     0.031 A 
ATOM     50  C   UNL     1      -7.106  -1.155  -5.114  1.00  0.00     0.074 A 
ATOM     51  C   UNL     1      -7.476  -2.149  -2.901  1.00  0.00     0.049 A 
ATOM     52  N   UNL     1      -8.093  -0.296  -5.149  1.00  0.00    -0.248 NA
ATOM     53  C   UNL     1      -6.268  -1.159  -6.324  1.00  0.00     0.031 C 
ATOM     54  C   UNL     1      -7.291  -3.041  -1.763  1.00  0.00     0.029 A 
ATOM     55  N   UNL     1      -8.520  -1.343  -2.501  1.00  0.00    -0.354 N 
ATOM     56  C   UNL     1      -8.019   0.305  -6.397  1.00  0.00     0.074 A 
ATOM     57  C   UNL     1      -6.820  -0.190  -7.037  1.00  0.00     0.031 C 
ATOM     58  C   UNL     1      -8.063  -2.642  -0.741  1.00  0.00     0.029 A 
ATOM     59  C   UNL     1      -8.879  -1.520  -1.183  1.00  0.00     0.049 A 
ATOM     60  H   UNL     1      -8.967  -0.702  -3.100  1.00  0.00     0.167 HD
ATOM     61  C   UNL     1      -8.910   1.131  -6.991  1.00  0.00     0.037 A 
ATOM     62  C   UNL     1      -9.779  -0.879  -0.413  1.00  0.00     0.037 A 
ATOM     63  C   UNL     1     -10.116   1.608  -6.372  1.00  0.00     0.049 A 
ATOM     64  C   UNL     1     -10.701   0.120  -1.043  1.00  0.00     0.074 A 
ATOM     65  C   UNL     1     -11.133   2.360  -6.932  1.00  0.00     0.029 A 
ATOM     66  N   UNL     1     -10.462   1.387  -5.049  1.00  0.00    -0.354 N 
ATOM     67  N   UNL     1     -10.702   0.572  -2.272  1.00  0.00    -0.248 NA
ATOM     68  C   UNL     1     -11.793   0.640  -0.207  1.00  0.00     0.031 C 
ATOM     69  C   UNL     1     -12.076   2.631  -5.935  1.00  0.00     0.029 A 
ATOM     70  C   UNL     1     -11.662   2.016  -4.764  1.00  0.00     0.049 A 
ATOM     71  H   UNL     1      -9.933   0.860  -4.407  1.00  0.00     0.167 HD
ATOM     72  C   UNL     1     -11.834   1.368  -2.381  1.00  0.00     0.074 A 
ATOM     73  C   UNL     1     -12.476   1.366  -1.083  1.00  0.00     0.031 C 
ATOM     74  C   UNL     1     -12.308   2.008  -3.476  1.00  0.00     0.037 A 
BRANCH  61  75
ATOM     75  C   UNL     1      -8.632   1.512  -8.413  1.00  0.00     0.057 A 
ATOM     76  C   UNL     1      -8.270   2.818  -8.758  1.00  0.00     0.134 A 
ATOM     77  C   UNL     1      -8.737   0.571  -9.448  1.00  0.00     0.134 A 
ATOM     78  F   UNL     1      -8.158   3.766  -7.816  1.00  0.00    -0.206 F 
ATOM     79  C   UNL     1      -8.013   3.173 -10.083  1.00  0.00     0.040 A 
ATOM     80  C   UNL     1      -8.456   0.907 -10.772  1.00  0.00     0.040 A 
ATOM     81  F   UNL     1      -9.069  -0.702  -9.179  1.00  0.00    -0.206 F 
ATOM     82  C   UNL     1      -8.097   2.214 -11.092  1.00  0.00     0.006 A 
ENDBRANCH  61  75
BRANCH  62  83
ATOM     83  C   UNL     1      -9.923  -1.251   1.015  1.00  0.00     0.057 A 
ATOM     84  C   UNL     1      -9.040  -0.768   1.988  1.00  0.00     0.134 A 
ATOM     85  C   UNL     1     -10.938  -2.118   1.435  1.00  0.00     0.134 A 
ATOM     86  F   UNL     1      -8.045   0.065   1.647  1.00  0.00    -0.206 F 
ATOM     87  C   UNL     1      -9.162  -1.135   3.330  1.00  0.00     0.040 A 
ATOM     88  C   UNL     1     -11.078  -2.485   2.774  1.00  0.00     0.040 A 
ATOM     89  F   UNL     1     -11.820  -2.601   0.548  1.00  0.00    -0.206 F 
ATOM     90  C   UNL     1     -10.186  -1.995   3.726  1.00  0.00     0.006 A 
ENDBRANCH  62  83
BRANCH  74  91
ATOM     91  C   UNL     1     -13.612   2.734  -3.348  1.00  0.00     0.057 A 
ATOM     92  C   UNL     1     -14.764   2.235  -3.971  1.00  0.00     0.134 A 
ATOM     93  C   UNL     1     -13.712   3.960  -2.682  1.00  0.00     0.134 A 
ATOM     94  F   UNL     1     -14.731   1.067  -4.629  1.00  0.00    -0.206 F 
ATOM     95  C   UNL     1     -15.966   2.942  -3.953  1.00  0.00     0.040 A 
ATOM     96  C   UNL     1     -14.915   4.666  -2.638  1.00  0.00     0.040 A 
ATOM     97  F   UNL     1     -12.648   4.481  -2.053  1.00  0.00    -0.206 F 
ATOM     98  C   UNL     1     -16.043   4.162  -3.285  1.00  0.00     0.006 A 
ENDBRANCH  74  91
ENDBRANCH  48  49
ENDBRANCH  40  43
ENDBRANCH  38  39
ENDBRANCH  37  38
ENDBRANCH  36  37
ENDBRANCH  35  36
ENDBRANCH   1  35
TORSDOF 19
