REMARK SMILES Cc1cc([N+](=O)[O-])ccc1-c1ccc(/C=C/C(=O)Nc2ccc(O)c(C(=O)NCCCCCCNC(=O)c3ccc(-c4c5nc(c(-c6c(F)cccc6F)c6ccc([nH]6)c(-c6c(F)cccc6F)c6nc(c(-c7c(F)cccc7F)c7ccc4[nH]7)C=C6)C=C5)cc3)c2)o1
REMARK SMILES IDX 30 1 29 2 28 3 26 4 27 5 25 7 20 8 21 9 92 10 22 11 23 12
REMARK SMILES IDX 19 13 17 14 18 15 16 17 15 18 14 19 11 20 12 21 93 22 13 23
REMARK SMILES IDX 10 24 1 25 2 26 3 27 4 28 9 29 8 30 5 31 6 32 7 33 24 34
REMARK SMILES IDX 31 36 32 37 33 38 34 39 35 40 36 41 37 43 38 44 39 45 91 46
REMARK SMILES IDX 40 47 90 48 41 49 42 50 43 51 84 52 44 53 89 54 83 55 85 56
REMARK SMILES IDX 45 57 88 58 82 59 81 60 46 62 72 63 55 64 71 65 56 66 59 67
REMARK SMILES IDX 70 68 86 69 57 70 58 71 69 73 87 74 60 75 47 76 48 77 53 78
REMARK SMILES IDX 49 79 50 80 52 81 54 82 51 83 73 84 74 85 79 86 75 87 76 88
REMARK SMILES IDX 78 89 80 90 77 91 61 92 62 93 67 94 63 95 64 96 66 97 68 98
REMARK SMILES IDX 65 99
REMARK H PARENT 28 6 19 16 24 35 35 42 85 61 59 72
REMARK Flexibility Score: inf
ROOT
ATOM      1  C   UNL     1       7.649   9.217  -3.438  1.00  0.00     0.021 C 
ENDROOT
BRANCH   1   2
ATOM      2  C   UNL     1       6.773   8.450  -2.455  1.00  0.00     0.116 C 
BRANCH   2   3
ATOM      3  N   UNL     1       7.256   8.353  -1.091  1.00  0.00    -0.352 N 
ATOM      4  C   UNL     1       6.569   8.105   0.080  1.00  0.00     0.255 C 
ATOM      5  O   UNL     1       7.211   8.032   1.127  1.00  0.00    -0.269 OA
ATOM      6  H   UNL     1       8.226   8.485  -0.983  1.00  0.00     0.163 HD
BRANCH   4   7
ATOM      7  C   UNL     1       5.085   7.947   0.137  1.00  0.00     0.083 A 
ATOM      8  C   UNL     1       3.063   8.100   1.477  1.00  0.00     0.042 A 
ATOM      9  C   UNL     1       2.292   7.799   0.355  1.00  0.00     0.030 A 
ATOM     10  C   UNL     1       4.439   8.313   1.334  1.00  0.00     0.043 A 
ATOM     11  C   UNL     1       2.917   7.408  -0.819  1.00  0.00     0.049 A 
ATOM     12  C   UNL     1       4.306   7.354  -0.862  1.00  0.00     0.128 A 
BRANCH   8  13
ATOM     13  N   UNL     1       2.515   8.047   2.772  1.00  0.00    -0.322 N 
ATOM     14  C   UNL     1       1.571   7.165   3.260  1.00  0.00     0.248 C 
ATOM     15  O   UNL     1       1.059   7.340   4.363  1.00  0.00    -0.270 OA
ATOM     16  H   UNL     1       2.844   8.722   3.409  1.00  0.00     0.170 HD
BRANCH  14  17
ATOM     17  C   UNL     1       1.204   5.952   2.470  1.00  0.00     0.075 C 
ATOM     18  C   UNL     1       2.156   5.168   1.939  1.00  0.00     0.053 C 
BRANCH  18  19
ATOM     19  C   UNL     1       1.856   4.152   0.993  1.00  0.00     0.127 A 
ATOM     20  C   UNL     1       1.005   2.327   0.070  1.00  0.00     0.135 A 
ATOM     21  C   UNL     1       1.885   2.835  -0.855  1.00  0.00     0.051 A 
ATOM     22  O   UNL     1       0.927   3.148   1.156  1.00  0.00    -0.457 OA
ATOM     23  C   UNL     1       2.459   3.967  -0.248  1.00  0.00     0.051 A 
BRANCH  20  24
ATOM     24  C   UNL     1       0.252   1.088   0.128  1.00  0.00     0.021 A 
ATOM     25  C   UNL     1       2.410  -0.304   0.116  1.00  0.00     0.045 C 
ATOM     26  C   UNL     1       0.908  -0.164   0.127  1.00  0.00    -0.033 A 
ATOM     27  C   UNL     1       0.142  -1.342   0.098  1.00  0.00     0.089 A 
ATOM     28  C   UNL     1      -1.256  -1.274   0.098  1.00  0.00     0.269 A 
ATOM     29  C   UNL     1      -1.151   1.138   0.144  1.00  0.00     0.019 A 
ATOM     30  C   UNL     1      -1.908  -0.037   0.128  1.00  0.00     0.086 A 
BRANCH  28  31
ATOM     31  N   UNL     1      -2.041  -2.514   0.059  1.00  0.00     0.062 N 
ATOM     32  O   UNL     1      -1.422  -3.588   0.043  1.00  0.00    -0.258 OA
ATOM     33  O   UNL     1      -3.276  -2.415   0.038  1.00  0.00    -0.258 OA
ENDBRANCH  28  31
ENDBRANCH  20  24
ENDBRANCH  18  19
ENDBRANCH  14  17
ENDBRANCH   8  13
BRANCH  12  34
ATOM     34  O   UNL     1       4.811   6.546  -1.842  1.00  0.00    -0.507 OA
ATOM     35  H   UNL     1       4.240   6.176  -2.486  1.00  0.00     0.293 HD
ENDBRANCH  12  34
ENDBRANCH   4   7
ENDBRANCH   2   3
ENDBRANCH   1   2
BRANCH   1  36
ATOM     36  C   UNL     1       9.113   8.789  -3.600  1.00  0.00     0.002 C 
BRANCH  36  37
ATOM     37  C   UNL     1       9.463   7.296  -3.677  1.00  0.00     0.002 C 
BRANCH  37  38
ATOM     38  C   UNL     1       8.673   6.405  -4.635  1.00  0.00     0.021 C 
BRANCH  38  39
ATOM     39  C   UNL     1       8.708   6.800  -6.104  1.00  0.00     0.116 C 
BRANCH  39  40
ATOM     40  N   UNL     1       9.732   6.126  -6.893  1.00  0.00    -0.352 N 
ATOM     41  C   UNL     1      10.006   6.277  -8.248  1.00  0.00     0.251 C 
ATOM     42  H   UNL     1      10.300   5.485  -6.407  1.00  0.00     0.163 HD
ATOM     43  O   UNL     1      10.926   5.689  -8.777  1.00  0.00    -0.269 OA
BRANCH  41  44
ATOM     44  C   UNL     1       9.220   7.283  -9.005  1.00  0.00     0.039 A 
ATOM     45  C   UNL     1       9.923   8.336  -9.597  1.00  0.00     0.014 A 
ATOM     46  C   UNL     1       7.832   7.326  -8.890  1.00  0.00     0.014 A 
ATOM     47  C   UNL     1       9.265   9.540  -9.822  1.00  0.00     0.010 A 
ATOM     48  C   UNL     1       7.195   8.544  -9.036  1.00  0.00     0.010 A 
ATOM     49  C   UNL     1       7.937   9.668  -9.416  1.00  0.00    -0.014 A 
BRANCH  49  50
ATOM     50  C   UNL     1       7.325  10.971  -9.184  1.00  0.00     0.031 A 
ATOM     51  C   UNL     1       6.372  11.549 -10.150  1.00  0.00     0.074 A 
ATOM     52  C   UNL     1       7.644  11.659  -8.062  1.00  0.00     0.049 A 
ATOM     53  N   UNL     1       6.123  12.814 -10.232  1.00  0.00    -0.248 NA
ATOM     54  C   UNL     1       5.682  10.760 -11.167  1.00  0.00     0.031 C 
ATOM     55  C   UNL     1       6.985  12.847  -7.524  1.00  0.00     0.029 A 
ATOM     56  N   UNL     1       8.828  11.551  -7.316  1.00  0.00    -0.354 N 
ATOM     57  C   UNL     1       5.029  12.958 -11.047  1.00  0.00     0.074 A 
ATOM     58  C   UNL     1       4.906  11.695 -11.728  1.00  0.00     0.031 C 
ATOM     59  C   UNL     1       7.865  13.524  -6.769  1.00  0.00     0.029 A 
ATOM     60  C   UNL     1       9.151  12.866  -6.919  1.00  0.00     0.049 A 
ATOM     61  H   UNL     1       9.329  10.728  -7.112  1.00  0.00     0.167 HD
ATOM     62  C   UNL     1       4.257  14.070 -10.915  1.00  0.00     0.037 A 
ATOM     63  C   UNL     1      10.301  13.481  -7.318  1.00  0.00     0.037 A 
ATOM     64  C   UNL     1       4.949  15.117 -10.161  1.00  0.00     0.049 A 
ATOM     65  C   UNL     1      10.091  14.798  -8.027  1.00  0.00     0.074 A 
ATOM     66  C   UNL     1       4.763  15.681  -8.912  1.00  0.00     0.029 A 
ATOM     67  N   UNL     1       6.171  15.594 -10.631  1.00  0.00    -0.354 N 
ATOM     68  N   UNL     1       8.959  15.170  -8.556  1.00  0.00    -0.248 NA
ATOM     69  C   UNL     1      11.153  15.778  -8.236  1.00  0.00     0.031 C 
ATOM     70  C   UNL     1       5.929  16.432  -8.597  1.00  0.00     0.029 A 
ATOM     71  C   UNL     1       6.798  16.363  -9.673  1.00  0.00     0.049 A 
ATOM     72  H   UNL     1       6.537  15.408 -11.526  1.00  0.00     0.167 HD
ATOM     73  C   UNL     1       9.128  16.367  -9.205  1.00  0.00     0.074 A 
ATOM     74  C   UNL     1      10.509  16.724  -8.941  1.00  0.00     0.031 C 
ATOM     75  C   UNL     1       8.116  16.938  -9.925  1.00  0.00     0.037 A 
BRANCH  62  76
ATOM     76  C   UNL     1       2.787  14.146 -11.280  1.00  0.00     0.057 A 
ATOM     77  C   UNL     1       2.091  15.367 -11.176  1.00  0.00     0.134 A 
ATOM     78  C   UNL     1       1.963  13.041 -11.589  1.00  0.00     0.134 A 
ATOM     79  F   UNL     1       2.727  16.508 -10.871  1.00  0.00    -0.206 F 
ATOM     80  C   UNL     1       0.702  15.475 -11.353  1.00  0.00     0.040 A 
ATOM     81  C   UNL     1       0.585  13.146 -11.824  1.00  0.00     0.040 A 
ATOM     82  F   UNL     1       2.421  11.786 -11.615  1.00  0.00    -0.206 F 
ATOM     83  C   UNL     1      -0.056  14.364 -11.690  1.00  0.00     0.006 A 
ENDBRANCH  62  76
BRANCH  63  84
ATOM     84  C   UNL     1      11.421  12.545  -7.596  1.00  0.00     0.057 A 
ATOM     85  C   UNL     1      11.917  11.744  -6.552  1.00  0.00     0.134 A 
ATOM     86  C   UNL     1      11.780  12.188  -8.898  1.00  0.00     0.134 A 
ATOM     87  F   UNL     1      11.607  12.029  -5.277  1.00  0.00    -0.206 F 
ATOM     88  C   UNL     1      12.650  10.581  -6.798  1.00  0.00     0.040 A 
ATOM     89  C   UNL     1      12.526  11.031  -9.156  1.00  0.00     0.040 A 
ATOM     90  F   UNL     1      11.328  12.887  -9.948  1.00  0.00    -0.206 F 
ATOM     91  C   UNL     1      12.933  10.207  -8.107  1.00  0.00     0.006 A 
ENDBRANCH  63  84
BRANCH  75  92
ATOM     92  C   UNL     1       8.238  18.114 -10.873  1.00  0.00     0.057 A 
ATOM     93  C   UNL     1       9.421  18.507 -11.520  1.00  0.00     0.134 A 
ATOM     94  C   UNL     1       7.085  18.830 -11.274  1.00  0.00     0.134 A 
ATOM     95  F   UNL     1      10.572  17.845 -11.350  1.00  0.00    -0.206 F 
ATOM     96  C   UNL     1       9.468  19.572 -12.434  1.00  0.00     0.040 A 
ATOM     97  C   UNL     1       7.111  19.856 -12.226  1.00  0.00     0.040 A 
ATOM     98  F   UNL     1       5.871  18.549 -10.778  1.00  0.00    -0.206 F 
ATOM     99  C   UNL     1       8.310  20.245 -12.798  1.00  0.00     0.006 A 
ENDBRANCH  75  92
ENDBRANCH  49  50
ENDBRANCH  41  44
ENDBRANCH  39  40
ENDBRANCH  38  39
ENDBRANCH  37  38
ENDBRANCH  36  37
ENDBRANCH   1  36
TORSDOF 19
