REMARK SMILES COc1ccc(-c2ccc(C(=O)NCc3ccc(C(=O)NCCCCCCNC(=O)c4ccc(-c5c6nc(c(-c7c(F)cccc7F)c7ccc([nH]7)c(-c7c(F)cccc7F)c7nc(c(-c8c(F)cccc8F)c8ccc5[nH]8)C=C7)C=C6)cc4)cc3)o2)c([N+](=O)[O-])c1
REMARK SMILES IDX 23 1 22 2 21 3 19 4 20 5 18 7 15 8 16 9 86 10 17 11 85 12
REMARK SMILES IDX 14 13 13 14 11 15 12 16 10 18 7 19 8 20 87 21 9 22 6 23 3 24
REMARK SMILES IDX 4 25 92 26 5 27 88 28 2 29 1 30 89 31 90 32 91 33 24 34
REMARK SMILES IDX 25 35 26 36 27 37 28 38 29 39 30 41 31 42 32 43 84 44 33 45
REMARK SMILES IDX 83 46 34 47 35 48 36 49 77 50 37 51 82 52 76 53 78 54 38 55
REMARK SMILES IDX 81 56 75 57 74 58 39 60 65 61 48 62 64 63 49 64 52 65 63 66
REMARK SMILES IDX 79 67 50 68 51 69 62 71 80 72 53 73 40 74 41 75 46 76 42 77
REMARK SMILES IDX 43 78 45 79 47 80 44 81 66 82 67 83 72 84 68 85 69 86 71 87
REMARK SMILES IDX 73 88 70 89 54 90 55 91 60 92 56 93 57 94 59 95 61 96 58 97
REMARK H PARENT 21 6 13 17 28 40 78 59 52 70
REMARK Flexibility Score: inf
ROOT
ATOM      1  C   UNL     1       2.948 -13.062  12.360  1.00  0.00     0.021 C 
ENDROOT
BRANCH   1   2
ATOM      2  C   UNL     1       1.778 -12.172  11.938  1.00  0.00     0.116 C 
BRANCH   2   3
ATOM      3  N   UNL     1       1.985 -10.820  12.418  1.00  0.00    -0.352 N 
ATOM      4  C   UNL     1       2.390  -9.684  11.767  1.00  0.00     0.251 C 
ATOM      5  O   UNL     1       2.469  -8.637  12.407  1.00  0.00    -0.269 OA
ATOM      6  H   UNL     1       1.804 -10.697  13.377  1.00  0.00     0.163 HD
BRANCH   4   7
ATOM      7  C   UNL     1       2.667  -9.664  10.308  1.00  0.00     0.039 A 
ATOM      8  C   UNL     1       3.039  -9.497   7.513  1.00  0.00    -0.029 A 
ATOM      9  C   UNL     1       2.437  -8.447   8.221  1.00  0.00     0.006 A 
ATOM     10  C   UNL     1       3.493 -10.611   8.232  1.00  0.00     0.006 A 
ATOM     11  C   UNL     1       2.258  -8.527   9.603  1.00  0.00     0.014 A 
ATOM     12  C   UNL     1       3.326 -10.685   9.619  1.00  0.00     0.014 A 
BRANCH   8  13
ATOM     13  C   UNL     1       3.220  -9.435   6.016  1.00  0.00     0.152 C 
BRANCH  13  14
ATOM     14  N   UNL     1       1.956  -9.283   5.334  1.00  0.00    -0.345 N 
ATOM     15  C   UNL     1       1.387  -8.228   4.671  1.00  0.00     0.287 C 
ATOM     16  O   UNL     1       0.321  -8.485   4.094  1.00  0.00    -0.266 OA
ATOM     17  H   UNL     1       1.396 -10.092   5.350  1.00  0.00     0.164 HD
BRANCH  15  18
ATOM     18  C   UNL     1       1.982  -6.904   4.654  1.00  0.00     0.192 A 
ATOM     19  C   UNL     1       2.095  -4.822   3.900  1.00  0.00     0.142 A 
ATOM     20  C   UNL     1       3.063  -4.929   4.869  1.00  0.00     0.052 A 
ATOM     21  O   UNL     1       1.426  -5.997   3.778  1.00  0.00    -0.451 OA
ATOM     22  C   UNL     1       2.991  -6.258   5.352  1.00  0.00     0.057 A 
BRANCH  19  23
ATOM     23  C   UNL     1       1.651  -3.742   3.037  1.00  0.00     0.095 A 
ATOM     24  C   UNL     1       0.731  -1.497   1.574  1.00  0.00     0.125 A 
ATOM     25  C   UNL     1      -0.134  -2.211   2.406  1.00  0.00     0.047 A 
ATOM     26  C   UNL     1       2.055  -1.910   1.451  1.00  0.00     0.132 A 
ATOM     27  C   UNL     1       0.315  -3.327   3.121  1.00  0.00     0.023 A 
ATOM     28  C   UNL     1       2.501  -3.029   2.179  1.00  0.00     0.284 A 
BRANCH  24  29
ATOM     29  O   UNL     1       0.172  -0.410   0.965  1.00  0.00    -0.497 OA
ATOM     30  C   UNL     1       0.887   0.151  -0.130  1.00  0.00     0.278 C 
ENDBRANCH  24  29
BRANCH  28  31
ATOM     31  N   UNL     1       3.892  -3.423   2.001  1.00  0.00     0.063 N 
ATOM     32  O   UNL     1       4.136  -4.616   1.781  1.00  0.00    -0.258 OA
ATOM     33  O   UNL     1       4.740  -2.521   2.048  1.00  0.00    -0.258 OA
ENDBRANCH  28  31
ENDBRANCH  19  23
ENDBRANCH  15  18
ENDBRANCH  13  14
ENDBRANCH   8  13
ENDBRANCH   4   7
ENDBRANCH   2   3
ENDBRANCH   1   2
BRANCH   1  34
ATOM     34  C   UNL     1       2.855 -13.537  13.815  1.00  0.00     0.002 C 
BRANCH  34  35
ATOM     35  C   UNL     1       1.685 -14.483  14.108  1.00  0.00     0.002 C 
BRANCH  35  36
ATOM     36  C   UNL     1       1.625 -15.731  13.223  1.00  0.00     0.021 C 
BRANCH  36  37
ATOM     37  C   UNL     1       2.860 -16.623  13.311  1.00  0.00     0.116 C 
BRANCH  37  38
ATOM     38  N   UNL     1       3.006 -17.210  14.635  1.00  0.00    -0.352 N 
ATOM     39  C   UNL     1       3.002 -18.531  14.999  1.00  0.00     0.251 C 
ATOM     40  H   UNL     1       3.123 -16.568  15.372  1.00  0.00     0.163 HD
ATOM     41  O   UNL     1       2.898 -18.851  16.183  1.00  0.00    -0.269 OA
BRANCH  39  42
ATOM     42  C   UNL     1       3.114 -19.577  13.964  1.00  0.00     0.039 A 
ATOM     43  C   UNL     1       2.242 -20.668  14.000  1.00  0.00     0.014 A 
ATOM     44  C   UNL     1       4.082 -19.479  12.960  1.00  0.00     0.014 A 
ATOM     45  C   UNL     1       2.300 -21.631  12.991  1.00  0.00     0.010 A 
ATOM     46  C   UNL     1       4.097 -20.404  11.922  1.00  0.00     0.010 A 
ATOM     47  C   UNL     1       3.205 -21.488  11.927  1.00  0.00    -0.014 A 
BRANCH  47  48
ATOM     48  C   UNL     1       3.229 -22.453  10.800  1.00  0.00     0.031 A 
ATOM     49  C   UNL     1       4.438 -23.312  10.566  1.00  0.00     0.074 A 
ATOM     50  C   UNL     1       2.190 -22.498   9.944  1.00  0.00     0.049 A 
ATOM     51  N   UNL     1       4.683 -24.146   9.588  1.00  0.00    -0.248 NA
ATOM     52  C   UNL     1       5.528 -23.200  11.548  1.00  0.00     0.031 C 
ATOM     53  C   UNL     1       0.978 -21.682  10.039  1.00  0.00     0.029 A 
ATOM     54  N   UNL     1       1.995 -23.252   8.814  1.00  0.00    -0.354 N 
ATOM     55  C   UNL     1       5.955 -24.647   9.828  1.00  0.00     0.074 A 
ATOM     56  C   UNL     1       6.452 -23.988  11.017  1.00  0.00     0.031 C 
ATOM     57  C   UNL     1       0.158 -21.992   9.022  1.00  0.00     0.029 A 
ATOM     58  C   UNL     1       0.802 -22.998   8.182  1.00  0.00     0.049 A 
ATOM     59  H   UNL     1       2.648 -23.912   8.488  1.00  0.00     0.167 HD
ATOM     60  C   UNL     1       6.639 -25.587   9.133  1.00  0.00     0.037 A 
ATOM     61  C   UNL     1       0.289 -23.510   7.048  1.00  0.00     0.037 A 
ATOM     62  C   UNL     1       6.134 -26.257   7.964  1.00  0.00     0.049 A 
ATOM     63  C   UNL     1       1.075 -24.540   6.286  1.00  0.00     0.074 A 
ATOM     64  C   UNL     1       6.723 -27.269   7.227  1.00  0.00     0.029 A 
ATOM     65  N   UNL     1       4.917 -25.979   7.359  1.00  0.00    -0.354 N 
ATOM     66  N   UNL     1       2.251 -25.052   6.561  1.00  0.00    -0.248 NA
ATOM     67  C   UNL     1       0.463 -25.064   5.057  1.00  0.00     0.031 C 
ATOM     68  C   UNL     1       5.882 -27.575   6.152  1.00  0.00     0.029 A 
ATOM     69  C   UNL     1       4.749 -26.782   6.243  1.00  0.00     0.049 A 
ATOM     70  H   UNL     1       4.268 -25.310   7.676  1.00  0.00     0.167 HD
ATOM     71  C   UNL     1       2.510 -25.971   5.553  1.00  0.00     0.074 A 
ATOM     72  C   UNL     1       1.362 -25.959   4.670  1.00  0.00     0.031 C 
ATOM     73  C   UNL     1       3.601 -26.755   5.374  1.00  0.00     0.037 A 
BRANCH  60  74
ATOM     74  C   UNL     1       8.011 -25.947   9.623  1.00  0.00     0.057 A 
ATOM     75  C   UNL     1       8.205 -26.674  10.805  1.00  0.00     0.134 A 
ATOM     76  C   UNL     1       9.150 -25.590   8.891  1.00  0.00     0.134 A 
ATOM     77  F   UNL     1       7.156 -27.036  11.560  1.00  0.00    -0.206 F 
ATOM     78  C   UNL     1       9.482 -27.010  11.255  1.00  0.00     0.040 A 
ATOM     79  C   UNL     1      10.432 -25.943   9.317  1.00  0.00     0.040 A 
ATOM     80  F   UNL     1       9.036 -24.898   7.747  1.00  0.00    -0.206 F 
ATOM     81  C   UNL     1      10.601 -26.650  10.506  1.00  0.00     0.006 A 
ENDBRANCH  60  74
BRANCH  61  82
ATOM     82  C   UNL     1      -1.044 -23.069   6.570  1.00  0.00     0.057 A 
ATOM     83  C   UNL     1      -2.148 -23.927   6.624  1.00  0.00     0.134 A 
ATOM     84  C   UNL     1      -1.248 -21.786   6.047  1.00  0.00     0.134 A 
ATOM     85  F   UNL     1      -2.010 -25.174   7.098  1.00  0.00    -0.206 F 
ATOM     86  C   UNL     1      -3.404 -23.533   6.160  1.00  0.00     0.040 A 
ATOM     87  C   UNL     1      -2.503 -21.371   5.600  1.00  0.00     0.040 A 
ATOM     88  F   UNL     1      -0.231 -20.915   5.975  1.00  0.00    -0.206 F 
ATOM     89  C   UNL     1      -3.584 -22.249   5.650  1.00  0.00     0.006 A 
ENDBRANCH  61  82
BRANCH  73  90
ATOM     90  C   UNL     1       3.595 -27.676   4.190  1.00  0.00     0.057 A 
ATOM     91  C   UNL     1       3.768 -27.198   2.885  1.00  0.00     0.134 A 
ATOM     92  C   UNL     1       3.451 -29.059   4.361  1.00  0.00     0.134 A 
ATOM     93  F   UNL     1       3.895 -25.883   2.654  1.00  0.00    -0.206 F 
ATOM     94  C   UNL     1       3.779 -28.062   1.789  1.00  0.00     0.040 A 
ATOM     95  C   UNL     1       3.486 -29.935   3.276  1.00  0.00     0.040 A 
ATOM     96  F   UNL     1       3.289 -29.581   5.586  1.00  0.00    -0.206 F 
ATOM     97  C   UNL     1       3.645 -29.436   1.984  1.00  0.00     0.006 A 
ENDBRANCH  73  90
ENDBRANCH  47  48
ENDBRANCH  39  42
ENDBRANCH  37  38
ENDBRANCH  36  37
ENDBRANCH  35  36
ENDBRANCH  34  35
ENDBRANCH   1  34
TORSDOF 19
