REMARK SMILES O=C(NCCCCCCNC(=O)c1[nH]ncc1C[N@H+]1CCC[C@@H](C(=O)c2ccc(Oc3ccccc3)cc2)C1)c1ccc(-c2c3nc(c(-c4c(F)cccc4F)c4ccc([nH]4)c(-c4c(F)cccc4F)c4nc(c(-c5c(F)cccc5F)c5ccc2[nH]5)C=C4)C=C3)cc1
REMARK SMILES IDX 8 1 7 2 6 3 5 4 4 5 3 6 1 7 2 8 40 10 41 11 93 12 42 13
REMARK SMILES IDX 92 14 43 15 44 16 45 17 86 18 46 19 91 20 85 21 87 22 47 23
REMARK SMILES IDX 90 24 84 25 83 26 48 28 74 29 57 30 73 31 58 32 61 33 72 34
REMARK SMILES IDX 88 35 59 36 60 37 71 39 89 40 62 41 49 42 50 43 55 44 51 45
REMARK SMILES IDX 52 46 54 47 56 48 53 49 75 50 76 51 81 52 77 53 78 54 80 55
REMARK SMILES IDX 82 56 79 57 63 58 64 59 69 60 65 61 66 62 68 63 70 64 67 65
REMARK SMILES IDX 9 66 10 67 11 68 12 70 13 71 14 72 17 73 15 74 16 76 18 77
REMARK SMILES IDX 19 78 20 79 39 80 21 82 23 83 22 84 24 85 25 86 26 87 27 88
REMARK SMILES IDX 38 89 28 90 37 91 29 92 30 93 31 94 32 95 36 96 33 97 35 98
REMARK SMILES IDX 34 99
REMARK H PARENT 3 9 87 27 61 38 10 69 14 75 19 81
REMARK Flexibility Score: inf
ROOT
ATOM      1  C   UNL     1       6.117  -4.379   0.668  1.00  0.00     0.021 C 
ENDROOT
BRANCH   1   2
ATOM      2  C   UNL     1       4.607  -4.314   0.917  1.00  0.00     0.002 C 
BRANCH   2   3
ATOM      3  C   UNL     1       4.148  -3.385   2.045  1.00  0.00     0.002 C 
BRANCH   3   4
ATOM      4  C   UNL     1       4.666  -1.948   1.989  1.00  0.00     0.021 C 
BRANCH   4   5
ATOM      5  C   UNL     1       4.433  -1.212   0.675  1.00  0.00     0.116 C 
BRANCH   5   6
ATOM      6  N   UNL     1       3.025  -1.060   0.354  1.00  0.00    -0.352 N 
ATOM      7  O   UNL     1       1.115   0.030  -0.139  1.00  0.00    -0.269 OA
ATOM      8  C   UNL     1       2.337   0.066  -0.026  1.00  0.00     0.251 C 
ATOM      9  H   UNL     1       2.487  -1.882   0.417  1.00  0.00     0.163 HD
BRANCH   8  10
ATOM     10  C   UNL     1       3.061   1.333  -0.271  1.00  0.00     0.039 A 
ATOM     11  C   UNL     1       4.235   1.361  -1.028  1.00  0.00     0.014 A 
ATOM     12  C   UNL     1       2.535   2.519   0.250  1.00  0.00     0.014 A 
ATOM     13  C   UNL     1       4.944   2.552  -1.163  1.00  0.00     0.010 A 
ATOM     14  C   UNL     1       3.212   3.726   0.057  1.00  0.00     0.010 A 
ATOM     15  C   UNL     1       4.435   3.747  -0.630  1.00  0.00    -0.014 A 
BRANCH  15  16
ATOM     16  C   UNL     1       5.166   5.020  -0.850  1.00  0.00     0.031 A 
ATOM     17  C   UNL     1       5.798   5.760   0.293  1.00  0.00     0.074 A 
ATOM     18  C   UNL     1       5.263   5.502  -2.104  1.00  0.00     0.049 A 
ATOM     19  N   UNL     1       6.470   6.883   0.276  1.00  0.00    -0.248 NA
ATOM     20  C   UNL     1       5.654   5.167   1.632  1.00  0.00     0.031 C 
ATOM     21  C   UNL     1       4.677   4.880  -3.293  1.00  0.00     0.029 A 
ATOM     22  N   UNL     1       5.894   6.618  -2.588  1.00  0.00    -0.354 N 
ATOM     23  C   UNL     1       6.813   7.143   1.596  1.00  0.00     0.074 A 
ATOM     24  C   UNL     1       6.258   6.069   2.394  1.00  0.00     0.031 C 
ATOM     25  C   UNL     1       5.006   5.603  -4.373  1.00  0.00     0.029 A 
ATOM     26  C   UNL     1       5.781   6.764  -3.949  1.00  0.00     0.049 A 
ATOM     27  H   UNL     1       6.382   7.254  -2.016  1.00  0.00     0.167 HD
ATOM     28  C   UNL     1       7.530   8.179   2.095  1.00  0.00     0.037 A 
ATOM     29  C   UNL     1       6.239   7.730  -4.764  1.00  0.00     0.037 A 
ATOM     30  C   UNL     1       8.094   9.238   1.298  1.00  0.00     0.049 A 
ATOM     31  C   UNL     1       7.019   8.872  -4.184  1.00  0.00     0.074 A 
ATOM     32  C   UNL     1       8.868  10.309   1.709  1.00  0.00     0.029 A 
ATOM     33  N   UNL     1       7.941   9.360  -0.075  1.00  0.00    -0.354 N 
ATOM     34  N   UNL     1       7.361   9.086  -2.937  1.00  0.00    -0.248 NA
ATOM     35  C   UNL     1       7.472   9.908  -5.122  1.00  0.00     0.031 C 
ATOM     36  C   UNL     1       9.155  11.099   0.589  1.00  0.00     0.029 A 
ATOM     37  C   UNL     1       8.591  10.499  -0.524  1.00  0.00     0.049 A 
ATOM     38  H   UNL     1       7.445   8.730  -0.646  1.00  0.00     0.167 HD
ATOM     39  C   UNL     1       8.079  10.274  -2.941  1.00  0.00     0.074 A 
ATOM     40  C   UNL     1       8.138  10.724  -4.317  1.00  0.00     0.031 C 
ATOM     41  C   UNL     1       8.636  10.934  -1.897  1.00  0.00     0.037 A 
BRANCH  28  42
ATOM     42  C   UNL     1       7.737   8.227   3.580  1.00  0.00     0.057 A 
ATOM     43  C   UNL     1       8.633   7.368   4.229  1.00  0.00     0.134 A 
ATOM     44  C   UNL     1       7.064   9.173   4.364  1.00  0.00     0.134 A 
ATOM     45  F   UNL     1       9.300   6.432   3.538  1.00  0.00    -0.206 F 
ATOM     46  C   UNL     1       8.840   7.438   5.609  1.00  0.00     0.040 A 
ATOM     47  C   UNL     1       7.277   9.266   5.740  1.00  0.00     0.040 A 
ATOM     48  F   UNL     1       6.196  10.029   3.803  1.00  0.00    -0.206 F 
ATOM     49  C   UNL     1       8.165   8.393   6.367  1.00  0.00     0.006 A 
ENDBRANCH  28  42
BRANCH  29  50
ATOM     50  C   UNL     1       5.967   7.650  -6.219  1.00  0.00     0.057 A 
ATOM     51  C   UNL     1       6.985   7.341  -7.127  1.00  0.00     0.134 A 
ATOM     52  C   UNL     1       4.680   7.853  -6.731  1.00  0.00     0.134 A 
ATOM     53  F   UNL     1       8.240   7.152  -6.695  1.00  0.00    -0.206 F 
ATOM     54  C   UNL     1       6.735   7.244  -8.497  1.00  0.00     0.040 A 
ATOM     55  C   UNL     1       4.411   7.736  -8.095  1.00  0.00     0.040 A 
ATOM     56  F   UNL     1       3.662   8.143  -5.908  1.00  0.00    -0.206 F 
ATOM     57  C   UNL     1       5.442   7.435  -8.982  1.00  0.00     0.006 A 
ENDBRANCH  29  50
BRANCH  41  58
ATOM     58  C   UNL     1       9.370  12.201  -2.210  1.00  0.00     0.057 A 
ATOM     59  C   UNL     1       8.689  13.387  -2.516  1.00  0.00     0.134 A 
ATOM     60  C   UNL     1      10.769  12.242  -2.184  1.00  0.00     0.134 A 
ATOM     61  F   UNL     1       7.349  13.406  -2.572  1.00  0.00    -0.206 F 
ATOM     62  C   UNL     1       9.377  14.566  -2.804  1.00  0.00     0.040 A 
ATOM     63  C   UNL     1      11.467  13.421  -2.450  1.00  0.00     0.040 A 
ATOM     64  F   UNL     1      11.477  11.141  -1.893  1.00  0.00    -0.206 F 
ATOM     65  C   UNL     1      10.771  14.586  -2.766  1.00  0.00     0.006 A 
ENDBRANCH  41  58
ENDBRANCH  15  16
ENDBRANCH   8  10
ENDBRANCH   5   6
ENDBRANCH   4   5
ENDBRANCH   3   4
ENDBRANCH   2   3
ENDBRANCH   1   2
BRANCH   1  66
ATOM     66  C   UNL     1       6.974  -4.671   1.895  1.00  0.00     0.116 C 
BRANCH  66  67
ATOM     67  N   UNL     1       6.703  -5.979   2.475  1.00  0.00    -0.351 N 
ATOM     68  C   UNL     1       7.586  -6.962   2.812  1.00  0.00     0.269 C 
ATOM     69  H   UNL     1       5.755  -6.180   2.648  1.00  0.00     0.163 HD
ATOM     70  O   UNL     1       7.146  -8.077   3.105  1.00  0.00    -0.268 OA
BRANCH  68  71
ATOM     71  C   UNL     1       8.989  -6.692   2.737  1.00  0.00     0.131 A 
ATOM     72  N   UNL     1       9.846  -7.522   2.066  1.00  0.00    -0.272 N 
ATOM     73  C   UNL     1       9.793  -5.688   3.279  1.00  0.00     0.057 A 
ATOM     74  N   UNL     1      11.087  -7.033   1.943  1.00  0.00    -0.183 NA
ATOM     75  H   UNL     1       9.575  -8.398   1.707  1.00  0.00     0.190 HD
ATOM     76  C   UNL     1      11.057  -5.927   2.686  1.00  0.00     0.145 A 
BRANCH  73  77
ATOM     77  C   UNL     1       9.400  -4.579   4.202  1.00  0.00     0.303 C 
BRANCH  77  78
ATOM     78  N   UNL     1       9.980  -4.655   5.549  1.00  0.00    -0.330 N 
ATOM     79  C   UNL     1       9.598  -5.867   6.284  1.00  0.00     0.262 C 
ATOM     80  C   UNL     1      11.425  -4.420   5.582  1.00  0.00     0.274 C 
ATOM     81  H   UNL     1       9.557  -3.875   6.051  1.00  0.00     0.348 HD
ATOM     82  C   UNL     1      10.063  -5.787   7.742  1.00  0.00     0.062 C 
ATOM     83  C   UNL     1      11.941  -4.289   7.019  1.00  0.00     0.116 C 
ATOM     84  C   UNL     1      11.564  -5.527   7.838  1.00  0.00     0.023 C 
BRANCH  83  85
ATOM     85  C   UNL     1      13.450  -4.114   6.936  1.00  0.00     0.171 C 
ATOM     86  O   UNL     1      14.226  -5.053   6.776  1.00  0.00    -0.294 OA
BRANCH  85  87
ATOM     87  C   UNL     1      13.991  -2.734   6.908  1.00  0.00     0.018 A 
ATOM     88  C   UNL     1      14.928  -2.404   5.924  1.00  0.00     0.015 A 
ATOM     89  C   UNL     1      13.579  -1.777   7.838  1.00  0.00     0.015 A 
ATOM     90  C   UNL     1      15.448  -1.110   5.869  1.00  0.00     0.048 A 
ATOM     91  C   UNL     1      14.101  -0.482   7.777  1.00  0.00     0.048 A 
ATOM     92  C   UNL     1      15.052  -0.152   6.806  1.00  0.00     0.127 A 
BRANCH  92  93
ATOM     93  O   UNL     1      15.616   1.096   6.653  1.00  0.00    -0.457 OA
BRANCH  93  94
ATOM     94  C   UNL     1      15.666   1.935   7.740  1.00  0.00     0.127 A 
ATOM     95  C   UNL     1      15.148   3.220   7.578  1.00  0.00     0.047 A 
ATOM     96  C   UNL     1      16.271   1.565   8.944  1.00  0.00     0.047 A 
ATOM     97  C   UNL     1      15.186   4.122   8.640  1.00  0.00     0.004 A 
ATOM     98  C   UNL     1      16.299   2.466  10.009  1.00  0.00     0.004 A 
ATOM     99  C   UNL     1      15.752   3.742   9.858  1.00  0.00     0.000 A 
ENDBRANCH  93  94
ENDBRANCH  92  93
ENDBRANCH  85  87
ENDBRANCH  83  85
ENDBRANCH  77  78
ENDBRANCH  73  77
ENDBRANCH  68  71
ENDBRANCH  66  67
ENDBRANCH   1  66
TORSDOF 19
