REMARK SMILES CC(C)([NH2+]C[C@@H]1CCCO1)C(=O)NCCCCCCNC(=O)c1ccc(-c2c3nc(c(-c4c(F)cccc4F)c4ccc([nH]4)c(-c4c(F)cccc4F)c4nc(c(-c5c(F)cccc5F)c5ccc2[nH]5)C=C4)C=C3)cc1
REMARK SMILES IDX 16 1 15 2 14 3 13 4 11 5 12 6 2 8 1 9 3 10 4 11 5 14 6 15
REMARK SMILES IDX 7 16 10 17 8 18 9 19 17 20 18 21 19 22 20 23 21 24 22 26
REMARK SMILES IDX 23 27 24 28 76 29 25 30 75 31 26 32 27 33 28 34 69 35 29 36
REMARK SMILES IDX 74 37 68 38 70 39 30 40 73 41 67 42 66 43 31 45 57 46 40 47
REMARK SMILES IDX 56 48 41 49 44 50 55 51 71 52 42 53 43 54 54 56 72 57 45 58
REMARK SMILES IDX 32 59 33 60 38 61 34 62 35 63 37 64 39 65 36 66 58 67 59 68
REMARK SMILES IDX 64 69 60 70 61 71 63 72 65 73 62 74 46 75 47 76 52 77 48 78
REMARK SMILES IDX 49 79 51 80 53 81 50 82
REMARK H PARENT 13 7 4 12 4 13 20 25 70 44 44 55
REMARK Flexibility Score: inf
ROOT
ATOM      1  C   UNL     1      -0.631  -3.785   5.338  1.00  0.00     0.002 C 
ENDROOT
BRANCH   1   2
ATOM      2  C   UNL     1      -0.887  -2.557   4.464  1.00  0.00     0.021 C 
BRANCH   2   3
ATOM      3  C   UNL     1       0.393  -1.910   3.921  1.00  0.00     0.116 C 
BRANCH   3   4
ATOM      4  N   UNL     1       0.675  -2.410   2.591  1.00  0.00    -0.351 N 
ATOM      5  C   UNL     1       0.612  -1.847   1.354  1.00  0.00     0.280 C 
ATOM      6  O   UNL     1       0.701  -2.667   0.427  1.00  0.00    -0.268 OA
ATOM      7  H   UNL     1       0.973  -3.348   2.581  1.00  0.00     0.163 HD
BRANCH   5   8
ATOM      8  C   UNL     1       0.525  -0.305   1.072  1.00  0.00     0.169 C 
ATOM      9  C   UNL     1       0.858  -0.147  -0.446  1.00  0.00     0.090 C 
ATOM     10  C   UNL     1       1.615   0.488   1.801  1.00  0.00     0.090 C 
BRANCH   8  11
ATOM     11  N   UNL     1      -0.840   0.283   1.132  1.00  0.00    -0.332 N 
ATOM     12  H   UNL     1      -1.380  -0.183   0.403  1.00  0.00     0.347 HD
ATOM     13  H   UNL     1      -0.639   1.280   1.053  1.00  0.00     0.347 HD
BRANCH  11  14
ATOM     14  C   UNL     1      -1.662   0.242   2.331  1.00  0.00     0.293 C 
BRANCH  14  15
ATOM     15  C   UNL     1      -1.537   1.365   3.387  1.00  0.00     0.173 C 
ATOM     16  C   UNL     1      -1.922   2.757   2.909  1.00  0.00     0.040 C 
ATOM     17  O   UNL     1      -0.220   1.482   3.948  1.00  0.00    -0.372 OA
ATOM     18  C   UNL     1      -1.180   3.636   3.888  1.00  0.00     0.031 C 
ATOM     19  C   UNL     1       0.111   2.872   4.070  1.00  0.00     0.161 C 
ENDBRANCH  14  15
ENDBRANCH  11  14
ENDBRANCH   8  11
ENDBRANCH   5   8
ENDBRANCH   3   4
ENDBRANCH   2   3
ENDBRANCH   1   2
BRANCH   1  20
ATOM     20  C   UNL     1      -0.030  -3.468   6.711  1.00  0.00     0.002 C 
BRANCH  20  21
ATOM     21  C   UNL     1      -0.850  -2.514   7.589  1.00  0.00     0.021 C 
BRANCH  21  22
ATOM     22  C   UNL     1      -2.303  -2.925   7.822  1.00  0.00     0.116 C 
BRANCH  22  23
ATOM     23  N   UNL     1      -2.410  -4.241   8.429  1.00  0.00    -0.352 N 
ATOM     24  C   UNL     1      -2.981  -4.631   9.613  1.00  0.00     0.251 C 
ATOM     25  H   UNL     1      -2.007  -4.971   7.905  1.00  0.00     0.163 HD
ATOM     26  O   UNL     1      -2.780  -5.763  10.040  1.00  0.00    -0.269 OA
BRANCH  24  27
ATOM     27  C   UNL     1      -3.828  -3.699  10.389  1.00  0.00     0.039 A 
ATOM     28  C   UNL     1      -3.689  -3.674  11.780  1.00  0.00     0.014 A 
ATOM     29  C   UNL     1      -4.791  -2.896   9.769  1.00  0.00     0.014 A 
ATOM     30  C   UNL     1      -4.478  -2.812  12.543  1.00  0.00     0.010 A 
ATOM     31  C   UNL     1      -5.537  -1.992  10.526  1.00  0.00     0.010 A 
ATOM     32  C   UNL     1      -5.390  -1.944  11.920  1.00  0.00    -0.014 A 
BRANCH  32  33
ATOM     33  C   UNL     1      -6.176  -0.975  12.724  1.00  0.00     0.031 A 
ATOM     34  C   UNL     1      -7.668  -1.105  12.844  1.00  0.00     0.074 A 
ATOM     35  C   UNL     1      -5.540   0.051  13.321  1.00  0.00     0.049 A 
ATOM     36  N   UNL     1      -8.511  -0.355  13.509  1.00  0.00    -0.248 NA
ATOM     37  C   UNL     1      -8.301  -2.206  12.103  1.00  0.00     0.031 C 
ATOM     38  C   UNL     1      -4.103   0.322  13.231  1.00  0.00     0.029 A 
ATOM     39  N   UNL     1      -6.018   1.058  14.120  1.00  0.00    -0.354 N 
ATOM     40  C   UNL     1      -9.770  -0.887  13.261  1.00  0.00     0.074 A 
ATOM     41  C   UNL     1      -9.586  -1.994  12.347  1.00  0.00     0.031 C 
ATOM     42  C   UNL     1      -3.813   1.405  13.970  1.00  0.00     0.029 A 
ATOM     43  C   UNL     1      -5.043   1.918  14.564  1.00  0.00     0.049 A 
ATOM     44  H   UNL     1      -6.970   1.155  14.354  1.00  0.00     0.167 HD
ATOM     45  C   UNL     1     -10.967  -0.502  13.767  1.00  0.00     0.037 A 
ATOM     46  C   UNL     1      -5.130   2.996  15.365  1.00  0.00     0.037 A 
ATOM     47  C   UNL     1     -11.146   0.585  14.694  1.00  0.00     0.049 A 
ATOM     48  C   UNL     1      -6.465   3.385  15.933  1.00  0.00     0.074 A 
ATOM     49  C   UNL     1     -12.309   1.010  15.313  1.00  0.00     0.029 A 
ATOM     50  N   UNL     1     -10.132   1.421  15.136  1.00  0.00    -0.354 N 
ATOM     51  N   UNL     1      -7.636   2.826  15.749  1.00  0.00    -0.248 NA
ATOM     52  C   UNL     1      -6.487   4.550  16.829  1.00  0.00     0.031 C 
ATOM     53  C   UNL     1     -12.005   2.126  16.100  1.00  0.00     0.029 A 
ATOM     54  C   UNL     1     -10.646   2.371  16.004  1.00  0.00     0.049 A 
ATOM     55  H   UNL     1      -9.186   1.350  14.872  1.00  0.00     0.167 HD
ATOM     56  C   UNL     1      -8.530   3.558  16.518  1.00  0.00     0.074 A 
ATOM     57  C   UNL     1      -7.762   4.586  17.189  1.00  0.00     0.031 C 
ATOM     58  C   UNL     1      -9.869   3.394  16.656  1.00  0.00     0.037 A 
BRANCH  45  59
ATOM     59  C   UNL     1     -12.180  -1.270  13.330  1.00  0.00     0.057 A 
ATOM     60  C   UNL     1     -12.422  -2.579  13.769  1.00  0.00     0.134 A 
ATOM     61  C   UNL     1     -13.136  -0.684  12.490  1.00  0.00     0.134 A 
ATOM     62  F   UNL     1     -11.540  -3.202  14.566  1.00  0.00    -0.206 F 
ATOM     63  C   UNL     1     -13.558  -3.285  13.370  1.00  0.00     0.040 A 
ATOM     64  C   UNL     1     -14.288  -1.371  12.105  1.00  0.00     0.040 A 
ATOM     65  F   UNL     1     -12.970   0.568  12.038  1.00  0.00    -0.206 F 
ATOM     66  C   UNL     1     -14.499  -2.678  12.540  1.00  0.00     0.006 A 
ENDBRANCH  45  59
BRANCH  46  67
ATOM     67  C   UNL     1      -3.907   3.762  15.708  1.00  0.00     0.057 A 
ATOM     68  C   UNL     1      -3.356   3.702  16.993  1.00  0.00     0.134 A 
ATOM     69  C   UNL     1      -3.263   4.571  14.765  1.00  0.00     0.134 A 
ATOM     70  F   UNL     1      -3.940   2.958  17.944  1.00  0.00    -0.206 F 
ATOM     71  C   UNL     1      -2.217   4.433  17.335  1.00  0.00     0.040 A 
ATOM     72  C   UNL     1      -2.110   5.289  15.086  1.00  0.00     0.040 A 
ATOM     73  F   UNL     1      -3.738   4.663  13.514  1.00  0.00    -0.206 F 
ATOM     74  C   UNL     1      -1.588   5.226  16.377  1.00  0.00     0.006 A 
ENDBRANCH  46  67
BRANCH  58  75
ATOM     75  C   UNL     1     -10.576   4.345  17.575  1.00  0.00     0.057 A 
ATOM     76  C   UNL     1     -10.788   5.686  17.227  1.00  0.00     0.134 A 
ATOM     77  C   UNL     1     -11.057   3.914  18.818  1.00  0.00     0.134 A 
ATOM     78  F   UNL     1     -10.338   6.163  16.057  1.00  0.00    -0.206 F 
ATOM     79  C   UNL     1     -11.426   6.572  18.097  1.00  0.00     0.040 A 
ATOM     80  C   UNL     1     -11.718   4.785  19.685  1.00  0.00     0.040 A 
ATOM     81  F   UNL     1     -10.893   2.642  19.208  1.00  0.00    -0.206 F 
ATOM     82  C   UNL     1     -11.897   6.120  19.328  1.00  0.00     0.006 A 
ENDBRANCH  58  75
ENDBRANCH  32  33
ENDBRANCH  24  27
ENDBRANCH  22  23
ENDBRANCH  21  22
ENDBRANCH  20  21
ENDBRANCH   1  20
TORSDOF 16
