REMARK SMILES C[C@H]([NH2+][C@H](C)c1ccccn1)[C@@H](C)C(=O)NCCCCCCNC(=O)c1ccc(-c2c3nc(c(-c4c(F)cccc4F)c4ccc([nH]4)c(-c4c(F)cccc4F)c4nc(c(-c5c(F)cccc5F)c5ccc2[nH]5)C=C4)C=C3)cc1
REMARK SMILES IDX 18 1 17 2 16 3 14 4 15 5 12 7 13 8 2 9 1 10 3 11 4 14 5 15
REMARK SMILES IDX 6 16 7 17 11 18 8 19 10 20 9 21 19 22 20 23 21 24 22 25
REMARK SMILES IDX 23 26 24 27 25 29 26 30 27 31 79 32 28 33 78 34 29 35 30 36
REMARK SMILES IDX 31 37 72 38 32 39 77 40 71 41 73 42 33 43 76 44 70 45 69 46
REMARK SMILES IDX 34 48 60 49 43 50 59 51 44 52 47 53 58 54 74 55 45 56 46 57
REMARK SMILES IDX 57 59 75 60 48 61 35 62 36 63 41 64 37 65 38 66 40 67 42 68
REMARK SMILES IDX 39 69 61 70 62 71 67 72 63 73 64 74 66 75 68 76 65 77 49 78
REMARK SMILES IDX 50 79 55 80 51 81 52 82 54 83 56 84 53 85
REMARK H PARENT 16 6 3 12 3 13 23 28 73 47 47 58
REMARK Flexibility Score: inf
ROOT
ATOM      1  C   UNL     1      -3.005   3.422  -1.148  1.00  0.00     0.021 C 
ENDROOT
BRANCH   1   2
ATOM      2  C   UNL     1      -2.469   2.391  -0.164  1.00  0.00     0.116 C 
BRANCH   2   3
ATOM      3  N   UNL     1      -1.272   1.752  -0.674  1.00  0.00    -0.356 N 
ATOM      4  C   UNL     1      -0.106   1.446  -0.043  1.00  0.00     0.228 C 
ATOM      5  O   UNL     1       0.764   0.863  -0.695  1.00  0.00    -0.275 OA
ATOM      6  H   UNL     1      -1.308   1.500  -1.625  1.00  0.00     0.163 HD
BRANCH   4   7
ATOM      7  C   UNL     1       0.134   1.822   1.416  1.00  0.00     0.133 C 
ATOM      8  C   UNL     1      -0.936   1.157   2.301  1.00  0.00     0.024 C 
BRANCH   7   9
ATOM      9  C   UNL     1       0.305   3.356   1.611  1.00  0.00     0.192 C 
ATOM     10  C   UNL     1       1.383   3.951   0.688  1.00  0.00     0.076 C 
BRANCH   9  11
ATOM     11  N   UNL     1       0.488   3.817   3.006  1.00  0.00    -0.336 N 
ATOM     12  H   UNL     1      -0.353   3.563   3.525  1.00  0.00     0.347 HD
ATOM     13  H   UNL     1       0.667   4.818   2.928  1.00  0.00     0.347 HD
BRANCH  11  14
ATOM     14  C   UNL     1       1.650   3.284   3.756  1.00  0.00     0.229 C 
ATOM     15  C   UNL     1       1.238   2.032   4.545  1.00  0.00     0.082 C 
BRANCH  14  16
ATOM     16  C   UNL     1       2.248   4.327   4.720  1.00  0.00     0.097 A 
ATOM     17  C   UNL     1       2.906   5.448   4.212  1.00  0.00     0.030 A 
ATOM     18  N   UNL     1       2.171   4.096   6.057  1.00  0.00    -0.255 NA
ATOM     19  C   UNL     1       3.518   6.332   5.099  1.00  0.00     0.004 A 
ATOM     20  C   UNL     1       2.785   4.958   6.892  1.00  0.00     0.111 A 
ATOM     21  C   UNL     1       3.469   6.079   6.464  1.00  0.00     0.020 A 
ENDBRANCH  14  16
ENDBRANCH  11  14
ENDBRANCH   9  11
ENDBRANCH   7   9
ENDBRANCH   4   7
ENDBRANCH   2   3
ENDBRANCH   1   2
BRANCH   1  22
ATOM     22  C   UNL     1      -3.647   2.805  -2.394  1.00  0.00     0.002 C 
BRANCH  22  23
ATOM     23  C   UNL     1      -4.782   1.815  -2.112  1.00  0.00     0.002 C 
BRANCH  23  24
ATOM     24  C   UNL     1      -5.899   2.345  -1.208  1.00  0.00     0.021 C 
BRANCH  24  25
ATOM     25  C   UNL     1      -6.540   3.645  -1.680  1.00  0.00     0.116 C 
BRANCH  25  26
ATOM     26  N   UNL     1      -7.090   3.529  -3.020  1.00  0.00    -0.352 N 
ATOM     27  C   UNL     1      -8.315   3.909  -3.493  1.00  0.00     0.251 C 
ATOM     28  H   UNL     1      -6.492   3.117  -3.684  1.00  0.00     0.163 HD
ATOM     29  O   UNL     1      -8.670   3.566  -4.622  1.00  0.00    -0.269 OA
BRANCH  27  30
ATOM     30  C   UNL     1      -9.222   4.713  -2.652  1.00  0.00     0.039 A 
ATOM     31  C   UNL     1     -10.577   4.378  -2.623  1.00  0.00     0.014 A 
ATOM     32  C   UNL     1      -8.752   5.810  -1.921  1.00  0.00     0.014 A 
ATOM     33  C   UNL     1     -11.456   5.116  -1.831  1.00  0.00     0.010 A 
ATOM     34  C   UNL     1      -9.618   6.506  -1.080  1.00  0.00     0.010 A 
ATOM     35  C   UNL     1     -10.979   6.172  -1.037  1.00  0.00    -0.014 A 
BRANCH  35  36
ATOM     36  C   UNL     1     -11.905   6.929  -0.160  1.00  0.00     0.031 A 
ATOM     37  C   UNL     1     -12.202   8.377  -0.434  1.00  0.00     0.074 A 
ATOM     38  C   UNL     1     -12.455   6.314   0.904  1.00  0.00     0.049 A 
ATOM     39  N   UNL     1     -12.993   9.193   0.214  1.00  0.00    -0.248 NA
ATOM     40  C   UNL     1     -11.501   8.996  -1.570  1.00  0.00     0.031 C 
ATOM     41  C   UNL     1     -12.195   4.930   1.307  1.00  0.00     0.029 A 
ATOM     42  N   UNL     1     -13.346   6.772   1.840  1.00  0.00    -0.354 N 
ATOM     43  C   UNL     1     -12.879  10.420  -0.427  1.00  0.00     0.074 A 
ATOM     44  C   UNL     1     -11.904  10.255  -1.483  1.00  0.00     0.031 C 
ATOM     45  C   UNL     1     -12.933   4.644   2.392  1.00  0.00     0.029 A 
ATOM     46  C   UNL     1     -13.697   5.828   2.773  1.00  0.00     0.049 A 
ATOM     47  H   UNL     1     -13.700   7.691   1.842  1.00  0.00     0.167 HD
ATOM     48  C   UNL     1     -13.545  11.572  -0.174  1.00  0.00     0.037 A 
ATOM     49  C   UNL     1     -14.544   5.907   3.816  1.00  0.00     0.037 A 
ATOM     50  C   UNL     1     -14.534  11.724   0.861  1.00  0.00     0.049 A 
ATOM     51  C   UNL     1     -15.289   7.189   4.059  1.00  0.00     0.074 A 
ATOM     52  C   UNL     1     -15.312  12.830   1.155  1.00  0.00     0.029 A 
ATOM     53  N   UNL     1     -14.879  10.739   1.774  1.00  0.00    -0.354 N 
ATOM     54  N   UNL     1     -15.231   8.317   3.394  1.00  0.00    -0.248 NA
ATOM     55  C   UNL     1     -16.226   7.204   5.190  1.00  0.00     0.031 C 
ATOM     56  C   UNL     1     -16.101  12.526   2.270  1.00  0.00     0.029 A 
ATOM     57  C   UNL     1     -15.845  11.217   2.644  1.00  0.00     0.049 A 
ATOM     58  H   UNL     1     -14.494   9.833   1.799  1.00  0.00     0.167 HD
ATOM     59  C   UNL     1     -16.138   9.168   4.011  1.00  0.00     0.074 A 
ATOM     60  C   UNL     1     -16.747   8.418   5.090  1.00  0.00     0.031 C 
ATOM     61  C   UNL     1     -16.438  10.457   3.713  1.00  0.00     0.037 A 
BRANCH  48  62
ATOM     62  C   UNL     1     -13.230  12.758  -1.038  1.00  0.00     0.057 A 
ATOM     63  C   UNL     1     -13.631  12.822  -2.379  1.00  0.00     0.134 A 
ATOM     64  C   UNL     1     -12.551  13.866  -0.514  1.00  0.00     0.134 A 
ATOM     65  F   UNL     1     -14.273  11.789  -2.946  1.00  0.00    -0.206 F 
ATOM     66  C   UNL     1     -13.349  13.934  -3.174  1.00  0.00     0.040 A 
ATOM     67  C   UNL     1     -12.286  14.994  -1.292  1.00  0.00     0.040 A 
ATOM     68  F   UNL     1     -12.143  13.873   0.764  1.00  0.00    -0.206 F 
ATOM     69  C   UNL     1     -12.680  15.028  -2.628  1.00  0.00     0.006 A 
ENDBRANCH  48  62
BRANCH  49  70
ATOM     70  C   UNL     1     -14.759   4.726   4.687  1.00  0.00     0.057 A 
ATOM     71  C   UNL     1     -15.966   4.018   4.660  1.00  0.00     0.134 A 
ATOM     72  C   UNL     1     -13.768   4.279   5.569  1.00  0.00     0.134 A 
ATOM     73  F   UNL     1     -16.959   4.409   3.848  1.00  0.00    -0.206 F 
ATOM     74  C   UNL     1     -16.189   2.921   5.494  1.00  0.00     0.040 A 
ATOM     75  C   UNL     1     -13.968   3.170   6.391  1.00  0.00     0.040 A 
ATOM     76  F   UNL     1     -12.586   4.910   5.635  1.00  0.00    -0.206 F 
ATOM     77  C   UNL     1     -15.186   2.492   6.360  1.00  0.00     0.006 A 
ENDBRANCH  49  70
BRANCH  61  78
ATOM     78  C   UNL     1     -17.485  11.122   4.556  1.00  0.00     0.057 A 
ATOM     79  C   UNL     1     -17.235  11.498   5.883  1.00  0.00     0.134 A 
ATOM     80  C   UNL     1     -18.752  11.404   4.031  1.00  0.00     0.134 A 
ATOM     81  F   UNL     1     -16.046  11.243   6.449  1.00  0.00    -0.206 F 
ATOM     82  C   UNL     1     -18.218  12.104   6.665  1.00  0.00     0.040 A 
ATOM     83  C   UNL     1     -19.735  12.034   4.795  1.00  0.00     0.040 A 
ATOM     84  F   UNL     1     -19.053  11.078   2.765  1.00  0.00    -0.206 F 
ATOM     85  C   UNL     1     -19.471  12.378   6.120  1.00  0.00     0.006 A 
ENDBRANCH  61  78
ENDBRANCH  35  36
ENDBRANCH  27  30
ENDBRANCH  25  26
ENDBRANCH  24  25
ENDBRANCH  23  24
ENDBRANCH  22  23
ENDBRANCH   1  22
TORSDOF 17
