REMARK SMILES COc1ccc(N2C(=O)/C(=C/c3c(C(=O)NCCCCCCNC(=O)c4ccc(-c5c6nc(c(-c7c(F)cccc7F)c7ccc([nH]7)c(-c7c(F)cccc7F)c7nc(c(-c8c(F)cccc8F)c8ccc5[nH]8)C=C7)C=C6)cc4)[nH]c4cc(OC)ccc34)SC2=S)cc1
REMARK SMILES IDX 19 1 18 2 17 3 16 4 14 5 15 6 13 8 12 9 88 10 80 11 81 12
REMARK SMILES IDX 87 13 82 15 86 16 83 17 11 18 7 19 8 20 90 21 9 22 10 23
REMARK SMILES IDX 89 24 91 25 6 26 3 27 4 28 93 29 5 30 92 31 2 32 1 33 84 34
REMARK SMILES IDX 85 35 20 36 21 37 22 38 23 39 24 40 25 42 26 43 27 44 79 45
REMARK SMILES IDX 28 46 78 47 29 48 30 49 31 50 72 51 32 52 77 53 71 54 73 55
REMARK SMILES IDX 33 56 76 57 70 58 69 59 34 61 60 62 43 63 59 64 44 65 47 66
REMARK SMILES IDX 58 67 74 68 45 69 46 70 57 72 75 73 48 74 35 75 36 76 41 77
REMARK SMILES IDX 37 78 38 79 40 80 42 81 39 82 61 83 62 84 67 85 63 86 64 87
REMARK SMILES IDX 66 88 68 89 65 90 49 91 50 92 55 93 51 94 52 95 54 96 56 97
REMARK SMILES IDX 53 98
REMARK H PARENT 16 7 80 14 23 41 73 60 47 71
REMARK Flexibility Score: inf
ROOT
ATOM      1  C   UNL     1      -0.227   2.960   6.974  1.00  0.00     0.002 C 
ENDROOT
BRANCH   1   2
ATOM      2  C   UNL     1      -0.238   3.395   8.448  1.00  0.00     0.021 C 
BRANCH   2   3
ATOM      3  C   UNL     1       0.960   2.919   9.263  1.00  0.00     0.116 C 
BRANCH   3   4
ATOM      4  N   UNL     1       2.182   3.617   8.918  1.00  0.00    -0.351 N 
ATOM      5  C   UNL     1       3.335   3.647   9.665  1.00  0.00     0.268 C 
ATOM      6  O   UNL     1       4.139   4.553   9.471  1.00  0.00    -0.268 OA
ATOM      7  H   UNL     1       2.187   4.116   8.069  1.00  0.00     0.163 HD
BRANCH   5   8
ATOM      8  C   UNL     1       3.490   2.678  10.723  1.00  0.00     0.112 A 
ATOM      9  C   UNL     1       3.377   1.287  10.796  1.00  0.00     0.014 A 
ATOM     10  C   UNL     1       3.221   0.981  12.203  1.00  0.00     0.008 A 
ATOM     11  N   UNL     1       3.851   3.105  11.973  1.00  0.00    -0.350 N 
ATOM     12  C   UNL     1       3.493   2.164  12.896  1.00  0.00     0.050 A 
ATOM     13  C   UNL     1       2.844  -0.135  12.991  1.00  0.00     0.015 A 
ATOM     14  H   UNL     1       4.300   3.958  12.175  1.00  0.00     0.167 HD
ATOM     15  C   UNL     1       3.378   2.311  14.279  1.00  0.00     0.073 A 
ATOM     16  C   UNL     1       2.697   0.004  14.397  1.00  0.00     0.047 A 
ATOM     17  C   UNL     1       2.954   1.219  15.028  1.00  0.00     0.120 A 
BRANCH   9  18
ATOM     18  C   UNL     1       3.217   0.441   9.627  1.00  0.00     0.032 C 
ATOM     19  N   UNL     1       3.834   0.938   6.127  1.00  0.00    -0.261 N 
ATOM     20  C   UNL     1       3.374   0.076   7.134  1.00  0.00     0.270 C 
ATOM     21  C   UNL     1       4.825   1.839   6.497  1.00  0.00     0.152 C 
ATOM     22  O   UNL     1       2.584  -0.852   7.026  1.00  0.00    -0.268 OA
ATOM     23  C   UNL     1       3.892   0.564   8.460  1.00  0.00     0.081 C 
ATOM     24  S   UNL     1       5.281   1.542   8.168  1.00  0.00    -0.054 SA
ATOM     25  S   UNL     1       5.602   3.011   5.591  1.00  0.00    -0.051 S 
BRANCH  19  26
ATOM     26  C   UNL     1       3.272   0.923   4.814  1.00  0.00     0.051 A 
ATOM     27  C   UNL     1       2.305   0.992   2.161  1.00  0.00     0.119 A 
ATOM     28  C   UNL     1       2.144   2.093   2.999  1.00  0.00     0.048 A 
ATOM     29  C   UNL     1       2.951  -0.145   2.649  1.00  0.00     0.048 A 
ATOM     30  C   UNL     1       2.629   2.065   4.310  1.00  0.00     0.030 A 
ATOM     31  C   UNL     1       3.411  -0.190   3.978  1.00  0.00     0.030 A 
BRANCH  27  32
ATOM     32  O   UNL     1       1.831   1.169   0.893  1.00  0.00    -0.497 OA
ATOM     33  C   UNL     1       1.530  -0.004   0.149  1.00  0.00     0.278 C 
ENDBRANCH  27  32
ENDBRANCH  19  26
ENDBRANCH   9  18
BRANCH  17  34
ATOM     34  O   UNL     1       2.775   1.516  16.351  1.00  0.00    -0.497 OA
ATOM     35  C   UNL     1       2.905   0.454  17.281  1.00  0.00     0.278 C 
ENDBRANCH  17  34
ENDBRANCH   5   8
ENDBRANCH   3   4
ENDBRANCH   2   3
ENDBRANCH   1   2
BRANCH   1  36
ATOM     36  C   UNL     1      -0.090   1.441   6.851  1.00  0.00     0.002 C 
BRANCH  36  37
ATOM     37  C   UNL     1      -0.487   0.780   5.538  1.00  0.00     0.021 C 
BRANCH  37  38
ATOM     38  C   UNL     1      -1.790   1.262   4.933  1.00  0.00     0.116 C 
BRANCH  38  39
ATOM     39  N   UNL     1      -1.577   1.946   3.662  1.00  0.00    -0.352 N 
ATOM     40  C   UNL     1      -2.020   1.583   2.409  1.00  0.00     0.251 C 
ATOM     41  H   UNL     1      -1.048   2.776   3.705  1.00  0.00     0.163 HD
ATOM     42  O   UNL     1      -1.607   2.141   1.399  1.00  0.00    -0.269 OA
BRANCH  40  43
ATOM     43  C   UNL     1      -3.006   0.488   2.300  1.00  0.00     0.039 A 
ATOM     44  C   UNL     1      -2.822  -0.535   1.367  1.00  0.00     0.014 A 
ATOM     45  C   UNL     1      -4.085   0.454   3.183  1.00  0.00     0.014 A 
ATOM     46  C   UNL     1      -3.689  -1.632   1.370  1.00  0.00     0.010 A 
ATOM     47  C   UNL     1      -4.855  -0.691   3.273  1.00  0.00     0.010 A 
ATOM     48  C   UNL     1      -4.691  -1.733   2.347  1.00  0.00    -0.014 A 
BRANCH  48  49
ATOM     49  C   UNL     1      -5.662  -2.855   2.402  1.00  0.00     0.031 A 
ATOM     50  C   UNL     1      -7.132  -2.529   2.328  1.00  0.00     0.074 A 
ATOM     51  C   UNL     1      -5.255  -4.114   2.647  1.00  0.00     0.049 A 
ATOM     52  N   UNL     1      -8.167  -3.271   2.623  1.00  0.00    -0.248 NA
ATOM     53  C   UNL     1      -7.476  -1.149   1.940  1.00  0.00     0.031 C 
ATOM     54  C   UNL     1      -3.865  -4.551   2.790  1.00  0.00     0.029 A 
ATOM     55  N   UNL     1      -5.984  -5.259   2.845  1.00  0.00    -0.354 N 
ATOM     56  C   UNL     1      -9.268  -2.429   2.525  1.00  0.00     0.074 A 
ATOM     57  C   UNL     1      -8.772  -1.111   2.204  1.00  0.00     0.031 C 
ATOM     58  C   UNL     1      -3.842  -5.872   3.033  1.00  0.00     0.029 A 
ATOM     59  C   UNL     1      -5.214  -6.365   3.109  1.00  0.00     0.049 A 
ATOM     60  H   UNL     1      -6.968  -5.285   2.802  1.00  0.00     0.167 HD
ATOM     61  C   UNL     1     -10.580  -2.733   2.662  1.00  0.00     0.037 A 
ATOM     62  C   UNL     1      -5.581  -7.630   3.393  1.00  0.00     0.037 A 
ATOM     63  C   UNL     1     -11.065  -4.067   2.888  1.00  0.00     0.049 A 
ATOM     64  C   UNL     1      -7.046  -7.965   3.458  1.00  0.00     0.074 A 
ATOM     65  C   UNL     1     -12.372  -4.512   2.951  1.00  0.00     0.029 A 
ATOM     66  N   UNL     1     -10.251  -5.177   3.060  1.00  0.00    -0.354 N 
ATOM     67  N   UNL     1      -8.082  -7.170   3.330  1.00  0.00    -0.248 NA
ATOM     68  C   UNL     1      -7.395  -9.371   3.702  1.00  0.00     0.031 C 
ATOM     69  C   UNL     1     -12.349  -5.892   3.181  1.00  0.00     0.029 A 
ATOM     70  C   UNL     1     -11.027  -6.309   3.226  1.00  0.00     0.049 A 
ATOM     71  H   UNL     1      -9.266  -5.161   3.063  1.00  0.00     0.167 HD
ATOM     72  C   UNL     1      -9.203  -7.981   3.450  1.00  0.00     0.074 A 
ATOM     73  C   UNL     1      -8.719  -9.333   3.649  1.00  0.00     0.031 C 
ATOM     74  C   UNL     1     -10.514  -7.643   3.404  1.00  0.00     0.037 A 
BRANCH  61  75
ATOM     75  C   UNL     1     -11.569  -1.607   2.550  1.00  0.00     0.057 A 
ATOM     76  C   UNL     1     -11.794  -0.933   1.341  1.00  0.00     0.134 A 
ATOM     77  C   UNL     1     -12.306  -1.190   3.665  1.00  0.00     0.134 A 
ATOM     78  F   UNL     1     -11.110  -1.270   0.237  1.00  0.00    -0.206 F 
ATOM     79  C   UNL     1     -12.683   0.140   1.256  1.00  0.00     0.040 A 
ATOM     80  C   UNL     1     -13.223  -0.141   3.584  1.00  0.00     0.040 A 
ATOM     81  F   UNL     1     -12.146  -1.793   4.853  1.00  0.00    -0.206 F 
ATOM     82  C   UNL     1     -13.405   0.535   2.379  1.00  0.00     0.006 A 
ENDBRANCH  61  75
BRANCH  62  83
ATOM     83  C   UNL     1      -4.548  -8.677   3.597  1.00  0.00     0.057 A 
ATOM     84  C   UNL     1      -4.340  -9.673   2.635  1.00  0.00     0.134 A 
ATOM     85  C   UNL     1      -3.744  -8.710   4.741  1.00  0.00     0.134 A 
ATOM     86  F   UNL     1      -5.092  -9.705   1.524  1.00  0.00    -0.206 F 
ATOM     87  C   UNL     1      -3.382 -10.674   2.810  1.00  0.00     0.040 A 
ATOM     88  C   UNL     1      -2.766  -9.691   4.919  1.00  0.00     0.040 A 
ATOM     89  F   UNL     1      -3.887  -7.780   5.697  1.00  0.00    -0.206 F 
ATOM     90  C   UNL     1      -2.587 -10.681   3.954  1.00  0.00     0.006 A 
ENDBRANCH  62  83
BRANCH  74  91
ATOM     91  C   UNL     1     -11.512  -8.754   3.528  1.00  0.00     0.057 A 
ATOM     92  C   UNL     1     -11.777  -9.373   4.755  1.00  0.00     0.134 A 
ATOM     93  C   UNL     1     -12.251  -9.171   2.414  1.00  0.00     0.134 A 
ATOM     94  F   UNL     1     -11.092  -9.024   5.855  1.00  0.00    -0.206 F 
ATOM     95  C   UNL     1     -12.731 -10.384   4.867  1.00  0.00     0.040 A 
ATOM     96  C   UNL     1     -13.225 -10.164   2.518  1.00  0.00     0.040 A 
ATOM     97  F   UNL     1     -12.050  -8.608   1.213  1.00  0.00    -0.206 F 
ATOM     98  C   UNL     1     -13.463 -10.777   3.747  1.00  0.00     0.006 A 
ENDBRANCH  74  91
ENDBRANCH  48  49
ENDBRANCH  40  43
ENDBRANCH  38  39
ENDBRANCH  37  38
ENDBRANCH  36  37
ENDBRANCH   1  36
TORSDOF 17
