REMARK SMILES CC[NH2+][C@]1(C(=O)NCCCCCCNC(=O)c2ccc(-c3c4nc(c(-c5c(F)cccc5F)c5ccc([nH]5)c(-c5c(F)cccc5F)c5nc(c(-c6c(F)cccc6F)c6ccc3[nH]6)C=C5)C=C4)cc2)CC[C@@H]([N@@H+]2CCO[C@@H](CC)C2)C1
REMARK SMILES IDX 10 1 9 2 8 3 7 4 5 5 6 6 4 8 71 9 82 10 72 11 73 12 3 13
REMARK SMILES IDX 2 16 1 17 74 18 75 19 81 20 76 22 78 23 77 24 79 25 80 26
REMARK SMILES IDX 11 27 12 28 13 29 14 30 15 31 16 33 17 34 18 35 70 36 19 37
REMARK SMILES IDX 69 38 20 39 21 40 22 41 63 42 23 43 68 44 62 45 64 46 24 47
REMARK SMILES IDX 67 48 61 49 60 50 25 52 51 53 34 54 50 55 35 56 38 57 49 58
REMARK SMILES IDX 65 59 36 60 37 61 48 63 66 64 39 65 26 66 27 67 32 68 28 69
REMARK SMILES IDX 29 70 31 71 33 72 30 73 52 74 53 75 58 76 54 77 55 78 57 79
REMARK SMILES IDX 59 80 56 81 40 82 41 83 46 84 42 85 43 86 45 87 47 88 44 89
REMARK H PARENT 7 7 3 14 3 15 74 21 14 32 64 51 38 62
REMARK Flexibility Score: inf
ROOT
ATOM      1  C   UNL     1       3.271  -1.707  -4.023  1.00  0.00     0.002 C 
ENDROOT
BRANCH   1   2
ATOM      2  C   UNL     1       2.724  -0.339  -4.450  1.00  0.00     0.021 C 
BRANCH   2   3
ATOM      3  C   UNL     1       1.239  -0.142  -4.123  1.00  0.00     0.116 C 
BRANCH   3   4
ATOM      4  N   UNL     1       1.067   0.197  -2.724  1.00  0.00    -0.351 N 
ATOM      5  C   UNL     1       0.813   1.373  -2.084  1.00  0.00     0.281 C 
ATOM      6  O   UNL     1       0.920   1.344  -0.852  1.00  0.00    -0.268 OA
ATOM      7  H   UNL     1       1.151  -0.573  -2.117  1.00  0.00     0.163 HD
BRANCH   5   8
ATOM      8  C   UNL     1       0.282   2.649  -2.813  1.00  0.00     0.181 C 
ATOM      9  C   UNL     1       0.701   3.893  -1.994  1.00  0.00     0.085 C 
ATOM     10  C   UNL     1       0.937   2.966  -4.167  1.00  0.00     0.144 C 
ATOM     11  C   UNL     1       0.571   5.054  -2.963  1.00  0.00     0.072 C 
ATOM     12  C   UNL     1       1.078   4.492  -4.300  1.00  0.00     0.191 C 
BRANCH   8  13
ATOM     13  N   UNL     1      -1.178   2.502  -3.054  1.00  0.00    -0.334 N 
ATOM     14  H   UNL     1      -1.452   3.174  -3.771  1.00  0.00     0.347 HD
ATOM     15  H   UNL     1      -1.328   1.533  -3.335  1.00  0.00     0.347 HD
BRANCH  13  16
ATOM     16  C   UNL     1      -2.015   2.726  -1.874  1.00  0.00     0.257 C 
ATOM     17  C   UNL     1      -3.457   2.356  -2.189  1.00  0.00     0.071 C 
ENDBRANCH  13  16
ENDBRANCH   8  13
BRANCH  12  18
ATOM     18  N   UNL     1       2.385   4.994  -4.756  1.00  0.00    -0.328 N 
ATOM     19  C   UNL     1       2.860   4.444  -6.039  1.00  0.00     0.291 C 
ATOM     20  C   UNL     1       3.496   5.032  -3.794  1.00  0.00     0.294 C 
ATOM     21  H   UNL     1       2.115   5.969  -4.890  1.00  0.00     0.348 HD
ATOM     22  C   UNL     1       3.775   3.205  -5.943  1.00  0.00     0.222 C 
ATOM     23  C   UNL     1       4.271   3.706  -3.665  1.00  0.00     0.173 C 
ATOM     24  O   UNL     1       4.800   3.324  -4.949  1.00  0.00    -0.367 OA
BRANCH  23  25
ATOM     25  C   UNL     1       5.452   3.802  -2.690  1.00  0.00     0.034 C 
ATOM     26  C   UNL     1       5.048   4.189  -1.275  1.00  0.00     0.007 C 
ENDBRANCH  23  25
ENDBRANCH  12  18
ENDBRANCH   5   8
ENDBRANCH   3   4
ENDBRANCH   2   3
ENDBRANCH   1   2
BRANCH   1  27
ATOM     27  C   UNL     1       2.583  -2.908  -4.684  1.00  0.00     0.002 C 
BRANCH  27  28
ATOM     28  C   UNL     1       2.564  -2.877  -6.215  1.00  0.00     0.021 C 
BRANCH  28  29
ATOM     29  C   UNL     1       3.947  -2.881  -6.858  1.00  0.00     0.116 C 
BRANCH  29  30
ATOM     30  N   UNL     1       4.668  -4.112  -6.572  1.00  0.00    -0.352 N 
ATOM     31  C   UNL     1       5.186  -5.035  -7.441  1.00  0.00     0.251 C 
ATOM     32  H   UNL     1       4.804  -4.309  -5.617  1.00  0.00     0.163 HD
ATOM     33  O   UNL     1       5.556  -6.135  -7.030  1.00  0.00    -0.269 OA
BRANCH  31  34
ATOM     34  C   UNL     1       5.290  -4.715  -8.878  1.00  0.00     0.039 A 
ATOM     35  C   UNL     1       4.917  -5.677  -9.820  1.00  0.00     0.014 A 
ATOM     36  C   UNL     1       5.770  -3.470  -9.295  1.00  0.00     0.014 A 
ATOM     37  C   UNL     1       4.977  -5.371 -11.181  1.00  0.00     0.010 A 
ATOM     38  C   UNL     1       5.756  -3.140 -10.646  1.00  0.00     0.010 A 
ATOM     39  C   UNL     1       5.368  -4.090 -11.603  1.00  0.00    -0.014 A 
BRANCH  39  40
ATOM     40  C   UNL     1       5.398  -3.727 -13.042  1.00  0.00     0.031 A 
ATOM     41  C   UNL     1       6.702  -3.366 -13.699  1.00  0.00     0.074 A 
ATOM     42  C   UNL     1       4.247  -3.658 -13.739  1.00  0.00     0.049 A 
ATOM     43  N   UNL     1       6.925  -2.933 -14.914  1.00  0.00    -0.248 NA
ATOM     44  C   UNL     1       7.913  -3.478 -12.870  1.00  0.00     0.031 C 
ATOM     45  C   UNL     1       2.914  -3.945 -13.205  1.00  0.00     0.029 A 
ATOM     46  N   UNL     1       4.012  -3.309 -15.045  1.00  0.00    -0.354 N 
ATOM     47  C   UNL     1       8.294  -2.713 -14.990  1.00  0.00     0.074 A 
ATOM     48  C   UNL     1       8.843  -3.001 -13.684  1.00  0.00     0.031 C 
ATOM     49  C   UNL     1       2.005  -3.776 -14.178  1.00  0.00     0.029 A 
ATOM     50  C   UNL     1       2.683  -3.329 -15.390  1.00  0.00     0.049 A 
ATOM     51  H   UNL     1       4.729  -3.068 -15.676  1.00  0.00     0.167 HD
ATOM     52  C   UNL     1       9.031  -2.329 -16.060  1.00  0.00     0.037 A 
ATOM     53  C   UNL     1       2.077  -3.008 -16.550  1.00  0.00     0.037 A 
ATOM     54  C   UNL     1       8.483  -2.061 -17.363  1.00  0.00     0.049 A 
ATOM     55  C   UNL     1       2.916  -2.566 -17.718  1.00  0.00     0.074 A 
ATOM     56  C   UNL     1       9.151  -1.708 -18.523  1.00  0.00     0.029 A 
ATOM     57  N   UNL     1       7.134  -2.113 -17.678  1.00  0.00    -0.354 N 
ATOM     58  N   UNL     1       4.217  -2.418 -17.793  1.00  0.00    -0.248 NA
ATOM     59  C   UNL     1       2.204  -2.253 -18.965  1.00  0.00     0.031 C 
ATOM     60  C   UNL     1       8.201  -1.501 -19.528  1.00  0.00     0.029 A 
ATOM     61  C   UNL     1       6.947  -1.780 -19.010  1.00  0.00     0.049 A 
ATOM     62  H   UNL     1       6.415  -2.351 -17.049  1.00  0.00     0.167 HD
ATOM     63  C   UNL     1       4.482  -2.030 -19.100  1.00  0.00     0.074 A 
ATOM     64  C   UNL     1       3.207  -1.976 -19.786  1.00  0.00     0.031 C 
ATOM     65  C   UNL     1       5.673  -1.746 -19.681  1.00  0.00     0.037 A 
BRANCH  52  66
ATOM     66  C   UNL     1      10.513  -2.181 -15.863  1.00  0.00     0.057 A 
ATOM     67  C   UNL     1      11.344  -3.289 -15.646  1.00  0.00     0.134 A 
ATOM     68  C   UNL     1      11.122  -0.922 -15.925  1.00  0.00     0.134 A 
ATOM     69  F   UNL     1      10.824  -4.523 -15.564  1.00  0.00    -0.206 F 
ATOM     70  C   UNL     1      12.721  -3.147 -15.471  1.00  0.00     0.040 A 
ATOM     71  C   UNL     1      12.503  -0.770 -15.782  1.00  0.00     0.040 A 
ATOM     72  F   UNL     1      10.389   0.181 -16.137  1.00  0.00    -0.206 F 
ATOM     73  C   UNL     1      13.305  -1.885 -15.546  1.00  0.00     0.006 A 
ENDBRANCH  52  66
BRANCH  53  74
ATOM     74  C   UNL     1       0.600  -3.103 -16.671  1.00  0.00     0.057 A 
ATOM     75  C   UNL     1       0.000  -4.068 -17.488  1.00  0.00     0.134 A 
ATOM     76  C   UNL     1      -0.248  -2.223 -15.987  1.00  0.00     0.134 A 
ATOM     77  F   UNL     1       0.759  -4.929 -18.183  1.00  0.00    -0.206 F 
ATOM     78  C   UNL     1      -1.385  -4.139 -17.643  1.00  0.00     0.040 A 
ATOM     79  C   UNL     1      -1.636  -2.300 -16.109  1.00  0.00     0.040 A 
ATOM     80  F   UNL     1       0.262  -1.281 -15.179  1.00  0.00    -0.206 F 
ATOM     81  C   UNL     1      -2.208  -3.255 -16.948  1.00  0.00     0.006 A 
ENDBRANCH  53  74
BRANCH  65  82
ATOM     82  C   UNL     1       5.663  -1.401 -21.142  1.00  0.00     0.057 A 
ATOM     83  C   UNL     1       5.161  -0.182 -21.615  1.00  0.00     0.134 A 
ATOM     84  C   UNL     1       6.210  -2.284 -22.083  1.00  0.00     0.134 A 
ATOM     85  F   UNL     1       4.613   0.703 -20.769  1.00  0.00    -0.206 F 
ATOM     86  C   UNL     1       5.183   0.137 -22.974  1.00  0.00     0.040 A 
ATOM     87  C   UNL     1       6.263  -1.964 -23.440  1.00  0.00     0.040 A 
ATOM     88  F   UNL     1       6.716  -3.464 -21.696  1.00  0.00    -0.206 F 
ATOM     89  C   UNL     1       5.743  -0.753 -23.890  1.00  0.00     0.006 A 
ENDBRANCH  65  82
ENDBRANCH  39  40
ENDBRANCH  31  34
ENDBRANCH  29  30
ENDBRANCH  28  29
ENDBRANCH  27  28
ENDBRANCH   1  27
TORSDOF 17
