REMARK SMILES COc1ccc(OC)c(S(=O)(=O)Nc2ccc(N3CCC(C)CC3)c(C(=O)NCCCCCCNC(=O)c3ccc(-c4c5nc(c(-c6c(F)cccc6F)c6ccc([nH]6)c(-c6c(F)cccc6F)c6nc(c(-c7c(F)cccc7F)c7ccc4[nH]7)C=C6)C=C5)cc3)c2)c1
REMARK SMILES IDX 30 1 29 2 28 3 26 4 27 5 25 7 14 8 15 9 92 10 16 11 17 12
REMARK SMILES IDX 13 13 10 15 11 16 12 17 9 18 3 19 4 20 93 21 5 22 6 23 2 24
REMARK SMILES IDX 1 25 7 26 8 27 18 28 19 29 24 30 20 31 23 32 21 33 22 34
REMARK SMILES IDX 31 35 32 36 33 37 34 38 35 39 36 40 37 42 38 43 39 44 91 45
REMARK SMILES IDX 40 46 90 47 41 48 42 49 43 50 84 51 44 52 89 53 83 54 85 55
REMARK SMILES IDX 45 56 88 57 82 58 81 59 46 61 72 62 55 63 71 64 56 65 59 66
REMARK SMILES IDX 70 67 86 68 57 69 58 70 69 72 87 73 60 74 47 75 48 76 53 77
REMARK SMILES IDX 49 78 50 79 52 80 54 81 51 82 73 83 74 84 79 85 75 86 76 87
REMARK SMILES IDX 78 88 80 89 77 90 61 91 62 92 67 93 63 94 64 95 66 96 68 97
REMARK SMILES IDX 65 98
REMARK H PARENT 28 6 13 14 35 41 85 60 59 71
REMARK Flexibility Score: inf
ROOT
ATOM      1  C   UNL     1       3.056  -3.128   4.140  1.00  0.00     0.021 C 
ENDROOT
BRANCH   1   2
ATOM      2  C   UNL     1       2.224  -2.574   2.981  1.00  0.00     0.116 C 
BRANCH   2   3
ATOM      3  N   UNL     1       2.061  -1.144   3.137  1.00  0.00    -0.352 N 
ATOM      4  C   UNL     1       2.789  -0.047   2.741  1.00  0.00     0.253 C 
ATOM      5  O   UNL     1       2.633   0.934   3.465  1.00  0.00    -0.269 OA
ATOM      6  H   UNL     1       1.248  -0.903   3.637  1.00  0.00     0.163 HD
BRANCH   4   7
ATOM      7  C   UNL     1       3.655  -0.007   1.506  1.00  0.00     0.065 A 
ATOM      8  C   UNL     1       4.838  -1.305  -0.184  1.00  0.00     0.050 A 
ATOM      9  C   UNL     1       4.951  -0.179  -0.985  1.00  0.00     0.029 A 
ATOM     10  C   UNL     1       4.338  -1.173   1.109  1.00  0.00     0.042 A 
ATOM     11  C   UNL     1       4.412   1.028  -0.556  1.00  0.00     0.029 A 
ATOM     12  C   UNL     1       3.687   1.137   0.651  1.00  0.00     0.050 A 
BRANCH   8  13
ATOM     13  N   UNL     1       5.168  -2.547  -0.787  1.00  0.00    -0.279 N 
ATOM     14  H   UNL     1       5.820  -2.527  -1.524  1.00  0.00     0.180 HD
BRANCH  13  15
ATOM     15  S   UNL     1       4.546  -4.045  -0.360  1.00  0.00     0.265 S 
ATOM     16  O   UNL     1       4.949  -4.295   1.015  1.00  0.00    -0.201 OA
ATOM     17  O   UNL     1       4.940  -4.922  -1.435  1.00  0.00    -0.201 OA
BRANCH  15  18
ATOM     18  C   UNL     1       2.765  -3.973  -0.390  1.00  0.00     0.133 A 
ATOM     19  C   UNL     1       0.691  -2.734  -0.593  1.00  0.00     0.120 A 
ATOM     20  C   UNL     1       0.003  -3.794   0.003  1.00  0.00     0.050 A 
ATOM     21  C   UNL     1       2.065  -2.841  -0.834  1.00  0.00     0.072 A 
ATOM     22  C   UNL     1       0.680  -4.952   0.377  1.00  0.00     0.052 A 
ATOM     23  C   UNL     1       2.056  -5.046   0.170  1.00  0.00     0.139 A 
BRANCH  19  24
ATOM     24  O   UNL     1      -0.093  -1.665  -0.921  1.00  0.00    -0.497 OA
ATOM     25  C   UNL     1       0.498  -0.371  -0.852  1.00  0.00     0.278 C 
ENDBRANCH  19  24
BRANCH  23  26
ATOM     26  O   UNL     1       2.660  -6.190   0.612  1.00  0.00    -0.495 OA
ATOM     27  C   UNL     1       2.902  -7.102  -0.464  1.00  0.00     0.278 C 
ENDBRANCH  23  26
ENDBRANCH  15  18
ENDBRANCH  13  15
ENDBRANCH   8  13
BRANCH  12  28
ATOM     28  N   UNL     1       2.986   2.318   0.879  1.00  0.00    -0.371 N 
ATOM     29  C   UNL     1       3.372   3.176   2.006  1.00  0.00     0.117 C 
ATOM     30  C   UNL     1       2.349   3.035  -0.228  1.00  0.00     0.117 C 
ATOM     31  C   UNL     1       2.107   3.820   2.583  1.00  0.00     0.025 C 
ATOM     32  C   UNL     1       1.069   3.697   0.274  1.00  0.00     0.025 C 
ATOM     33  C   UNL     1       1.317   4.582   1.506  1.00  0.00    -0.011 C 
ATOM     34  C   UNL     1      -0.013   5.082   2.068  1.00  0.00     0.008 C 
ENDBRANCH  12  28
ENDBRANCH   4   7
ENDBRANCH   2   3
ENDBRANCH   1   2
BRANCH   1  35
ATOM     35  C   UNL     1       2.299  -3.131   5.476  1.00  0.00     0.002 C 
BRANCH  35  36
ATOM     36  C   UNL     1       1.027  -3.986   5.492  1.00  0.00     0.002 C 
BRANCH  36  37
ATOM     37  C   UNL     1       1.221  -5.439   5.053  1.00  0.00     0.021 C 
BRANCH  37  38
ATOM     38  C   UNL     1       2.250  -6.215   5.870  1.00  0.00     0.116 C 
BRANCH  38  39
ATOM     39  N   UNL     1       1.854  -6.349   7.264  1.00  0.00    -0.352 N 
ATOM     40  C   UNL     1       1.822  -7.474   8.048  1.00  0.00     0.251 C 
ATOM     41  H   UNL     1       1.570  -5.516   7.706  1.00  0.00     0.163 HD
ATOM     42  O   UNL     1       1.301  -7.448   9.158  1.00  0.00    -0.269 OA
BRANCH  40  43
ATOM     43  C   UNL     1       2.399  -8.732   7.535  1.00  0.00     0.039 A 
ATOM     44  C   UNL     1       1.638  -9.902   7.608  1.00  0.00     0.014 A 
ATOM     45  C   UNL     1       3.680  -8.753   6.974  1.00  0.00     0.014 A 
ATOM     46  C   UNL     1       2.135 -11.084   7.057  1.00  0.00     0.010 A 
ATOM     47  C   UNL     1       4.154  -9.920   6.382  1.00  0.00     0.010 A 
ATOM     48  C   UNL     1       3.382 -11.092   6.412  1.00  0.00    -0.014 A 
BRANCH  48  49
ATOM     49  C   UNL     1       3.884 -12.310   5.733  1.00  0.00     0.031 A 
ATOM     50  C   UNL     1       5.081 -13.038   6.269  1.00  0.00     0.074 A 
ATOM     51  C   UNL     1       3.301 -12.713   4.588  1.00  0.00     0.049 A 
ATOM     52  N   UNL     1       5.710 -14.071   5.769  1.00  0.00    -0.248 NA
ATOM     53  C   UNL     1       5.660 -12.525   7.520  1.00  0.00     0.031 C 
ATOM     54  C   UNL     1       2.158 -12.061   3.945  1.00  0.00     0.029 A 
ATOM     55  N   UNL     1       3.601 -13.759   3.753  1.00  0.00    -0.354 N 
ATOM     56  C   UNL     1       6.765 -14.324   6.635  1.00  0.00     0.074 A 
ATOM     57  C   UNL     1       6.714 -13.316   7.672  1.00  0.00     0.031 C 
ATOM     58  C   UNL     1       1.848 -12.728   2.822  1.00  0.00     0.029 A 
ATOM     59  C   UNL     1       2.787 -13.831   2.649  1.00  0.00     0.049 A 
ATOM     60  H   UNL     1       4.330 -14.397   3.928  1.00  0.00     0.167 HD
ATOM     61  C   UNL     1       7.683 -15.318   6.577  1.00  0.00     0.037 A 
ATOM     62  C   UNL     1       2.805 -14.684   1.608  1.00  0.00     0.037 A 
ATOM     63  C   UNL     1       7.717 -16.334   5.560  1.00  0.00     0.049 A 
ATOM     64  C   UNL     1       3.844 -15.767   1.560  1.00  0.00     0.074 A 
ATOM     65  C   UNL     1       8.553 -17.433   5.465  1.00  0.00     0.029 A 
ATOM     66  N   UNL     1       6.880 -16.371   4.455  1.00  0.00    -0.354 N 
ATOM     67  N   UNL     1       4.793 -16.038   2.423  1.00  0.00    -0.248 NA
ATOM     68  C   UNL     1       3.818 -16.659   0.393  1.00  0.00     0.031 C 
ATOM     69  C   UNL     1       8.246 -18.115   4.283  1.00  0.00     0.029 A 
ATOM     70  C   UNL     1       7.199 -17.457   3.658  1.00  0.00     0.049 A 
ATOM     71  H   UNL     1       6.165 -15.721   4.266  1.00  0.00     0.167 HD
ATOM     72  C   UNL     1       5.471 -17.134   1.909  1.00  0.00     0.074 A 
ATOM     73  C   UNL     1       4.814 -17.490   0.668  1.00  0.00     0.031 C 
ATOM     74  C   UNL     1       6.543 -17.787   2.419  1.00  0.00     0.037 A 
BRANCH  61  75
ATOM     75  C   UNL     1       8.726 -15.355   7.653  1.00  0.00     0.057 A 
ATOM     76  C   UNL     1       8.422 -15.766   8.957  1.00  0.00     0.134 A 
ATOM     77  C   UNL     1      10.053 -15.008   7.375  1.00  0.00     0.134 A 
ATOM     78  F   UNL     1       7.165 -16.100   9.289  1.00  0.00    -0.206 F 
ATOM     79  C   UNL     1       9.399 -15.813   9.953  1.00  0.00     0.040 A 
ATOM     80  C   UNL     1      11.043 -15.070   8.357  1.00  0.00     0.040 A 
ATOM     81  F   UNL     1      10.410 -14.610   6.145  1.00  0.00    -0.206 F 
ATOM     82  C   UNL     1      10.715 -15.469   9.652  1.00  0.00     0.006 A 
ENDBRANCH  61  75
BRANCH  62  83
ATOM     83  C   UNL     1       1.800 -14.550   0.528  1.00  0.00     0.057 A 
ATOM     84  C   UNL     1       0.746 -15.462   0.410  1.00  0.00     0.134 A 
ATOM     85  C   UNL     1       1.864 -13.508  -0.405  1.00  0.00     0.134 A 
ATOM     86  F   UNL     1       0.646 -16.490   1.265  1.00  0.00    -0.206 F 
ATOM     87  C   UNL     1      -0.206 -15.350  -0.603  1.00  0.00     0.040 A 
ATOM     88  C   UNL     1       0.908 -13.374  -1.414  1.00  0.00     0.040 A 
ATOM     89  F   UNL     1       2.848 -12.600  -0.341  1.00  0.00    -0.206 F 
ATOM     90  C   UNL     1      -0.129 -14.299  -1.516  1.00  0.00     0.006 A 
ENDBRANCH  62  83
BRANCH  74  91
ATOM     91  C   UNL     1       7.071 -18.947   1.632  1.00  0.00     0.057 A 
ATOM     92  C   UNL     1       7.835 -18.757   0.475  1.00  0.00     0.134 A 
ATOM     93  C   UNL     1       6.843 -20.263   2.053  1.00  0.00     0.134 A 
ATOM     94  F   UNL     1       8.073 -17.520   0.014  1.00  0.00    -0.206 F 
ATOM     95  C   UNL     1       8.344 -19.838  -0.246  1.00  0.00     0.040 A 
ATOM     96  C   UNL     1       7.363 -21.351   1.351  1.00  0.00     0.040 A 
ATOM     97  F   UNL     1       6.121 -20.510   3.156  1.00  0.00    -0.206 F 
ATOM     98  C   UNL     1       8.113 -21.139   0.196  1.00  0.00     0.006 A 
ENDBRANCH  74  91
ENDBRANCH  48  49
ENDBRANCH  40  43
ENDBRANCH  38  39
ENDBRANCH  37  38
ENDBRANCH  36  37
ENDBRANCH  35  36
ENDBRANCH   1  35
TORSDOF 19
