REMARK SMILES C[C@H](CN(Cc1ccccc1)C(=O)c1cc2ccccc2oc1=O)C(=O)NCCCCCCNC(=O)c1ccc(-c2c3nc(c(-c4c(F)cccc4F)c4ccc([nH]4)c(-c4c(F)cccc4F)c4nc(c(-c5c(F)cccc5F)c5ccc2[nH]5)C=C4)C=C3)cc1
REMARK SMILES IDX 29 1 28 2 27 3 25 4 26 5 2 7 1 8 3 9 4 10 5 11 6 12 7 13
REMARK SMILES IDX 11 14 8 15 10 16 9 17 12 18 13 19 14 20 15 21 23 22 16 23
REMARK SMILES IDX 22 24 24 25 17 26 21 27 18 28 20 29 19 30 30 31 31 32 32 33
REMARK SMILES IDX 33 34 34 35 35 36 36 38 37 39 38 40 90 41 39 42 89 43 40 44
REMARK SMILES IDX 41 45 42 46 83 47 43 48 88 49 82 50 84 51 44 52 87 53 81 54
REMARK SMILES IDX 80 55 45 57 71 58 54 59 70 60 55 61 58 62 69 63 85 64 56 65
REMARK SMILES IDX 57 66 68 68 86 69 59 70 46 71 47 72 52 73 48 74 49 75 51 76
REMARK SMILES IDX 53 77 50 78 72 79 73 80 78 81 74 82 75 83 77 84 79 85 76 86
REMARK SMILES IDX 60 87 61 88 66 89 62 90 63 91 65 92 67 93 64 94
REMARK H PARENT 27 6 34 37 84 56 58 67
REMARK Flexibility Score: inf
ROOT
ATOM      1  C   UNL     1      -2.116   0.930   1.963  1.00  0.00     0.021 C 
ENDROOT
BRANCH   1   2
ATOM      2  C   UNL     1      -1.800  -0.479   1.451  1.00  0.00     0.116 C 
BRANCH   2   3
ATOM      3  N   UNL     1      -1.584  -0.468   0.012  1.00  0.00    -0.356 N 
ATOM      4  C   UNL     1      -0.441  -0.546  -0.723  1.00  0.00     0.224 C 
ATOM      5  O   UNL     1      -0.539  -0.370  -1.941  1.00  0.00    -0.275 OA
ATOM      6  H   UNL     1      -2.407  -0.390  -0.522  1.00  0.00     0.163 HD
BRANCH   4   7
ATOM      7  C   UNL     1       0.914  -0.894  -0.111  1.00  0.00     0.095 C 
ATOM      8  C   UNL     1       0.900  -2.326   0.428  1.00  0.00     0.020 C 
BRANCH   7   9
ATOM      9  C   UNL     1       1.458   0.209   0.823  1.00  0.00     0.133 C 
BRANCH   9  10
ATOM     10  N   UNL     1       2.297  -0.297   1.921  1.00  0.00    -0.333 N 
BRANCH  10  11
ATOM     11  C   UNL     1       3.714  -0.558   1.631  1.00  0.00     0.155 C 
BRANCH  11  12
ATOM     12  C   UNL     1       4.598   0.642   1.909  1.00  0.00    -0.029 A 
ATOM     13  C   UNL     1       5.303   1.265   0.869  1.00  0.00     0.005 A 
ATOM     14  C   UNL     1       4.777   1.124   3.216  1.00  0.00     0.005 A 
ATOM     15  C   UNL     1       6.163   2.336   1.133  1.00  0.00     0.000 A 
ATOM     16  C   UNL     1       5.631   2.196   3.478  1.00  0.00     0.000 A 
ATOM     17  C   UNL     1       6.327   2.800   2.436  1.00  0.00     0.000 A 
ENDBRANCH  11  12
ENDBRANCH  10  11
BRANCH  10  18
ATOM     18  C   UNL     1       1.718  -0.429   3.176  1.00  0.00     0.261 C 
ATOM     19  O   UNL     1       0.680   0.154   3.485  1.00  0.00    -0.269 OA
BRANCH  18  20
ATOM     20  C   UNL     1       2.371  -1.378   4.139  1.00  0.00     0.126 A 
ATOM     21  C   UNL     1       2.132  -1.181   5.455  1.00  0.00     0.033 A 
ATOM     22  C   UNL     1       2.190  -2.814   3.779  1.00  0.00     0.349 A 
ATOM     23  C   UNL     1       0.773  -1.606   5.854  1.00  0.00     0.018 A 
ATOM     24  O   UNL     1       0.988  -3.382   4.208  1.00  0.00    -0.422 OA
ATOM     25  O   UNL     1       3.008  -3.431   3.106  1.00  0.00    -0.246 OA
ATOM     26  C   UNL     1       0.034  -0.963   6.842  1.00  0.00     0.012 A 
ATOM     27  C   UNL     1       0.224  -2.704   5.182  1.00  0.00     0.138 A 
ATOM     28  C   UNL     1      -1.252  -1.422   7.140  1.00  0.00     0.001 A 
ATOM     29  C   UNL     1      -1.054  -3.168   5.467  1.00  0.00     0.048 A 
ATOM     30  C   UNL     1      -1.795  -2.517   6.453  1.00  0.00     0.004 A 
ENDBRANCH  18  20
ENDBRANCH  10  18
ENDBRANCH   9  10
ENDBRANCH   7   9
ENDBRANCH   4   7
ENDBRANCH   2   3
ENDBRANCH   1   2
BRANCH   1  31
ATOM     31  C   UNL     1      -3.597   1.169   2.275  1.00  0.00     0.002 C 
BRANCH  31  32
ATOM     32  C   UNL     1      -4.159   0.384   3.467  1.00  0.00     0.002 C 
BRANCH  32  33
ATOM     33  C   UNL     1      -3.366   0.478   4.776  1.00  0.00     0.021 C 
BRANCH  33  34
ATOM     34  C   UNL     1      -3.158   1.886   5.336  1.00  0.00     0.116 C 
BRANCH  34  35
ATOM     35  N   UNL     1      -4.407   2.490   5.769  1.00  0.00    -0.352 N 
ATOM     36  C   UNL     1      -4.767   3.029   6.976  1.00  0.00     0.251 C 
ATOM     37  H   UNL     1      -5.110   2.517   5.080  1.00  0.00     0.163 HD
ATOM     38  O   UNL     1      -5.948   3.318   7.173  1.00  0.00    -0.269 OA
BRANCH  36  39
ATOM     39  C   UNL     1      -3.780   3.274   8.056  1.00  0.00     0.039 A 
ATOM     40  C   UNL     1      -4.180   3.050   9.380  1.00  0.00     0.014 A 
ATOM     41  C   UNL     1      -2.519   3.824   7.803  1.00  0.00     0.014 A 
ATOM     42  C   UNL     1      -3.321   3.354  10.441  1.00  0.00     0.010 A 
ATOM     43  C   UNL     1      -1.646   4.096   8.862  1.00  0.00     0.010 A 
ATOM     44  C   UNL     1      -2.044   3.877  10.191  1.00  0.00    -0.014 A 
BRANCH  44  45
ATOM     45  C   UNL     1      -1.143   4.250  11.311  1.00  0.00     0.031 A 
ATOM     46  C   UNL     1      -0.892   5.698  11.630  1.00  0.00     0.074 A 
ATOM     47  C   UNL     1      -0.531   3.295  12.035  1.00  0.00     0.049 A 
ATOM     48  N   UNL     1      -0.077   6.221  12.511  1.00  0.00    -0.248 NA
ATOM     49  C   UNL     1      -1.645   6.686  10.844  1.00  0.00     0.031 C 
ATOM     50  C   UNL     1      -0.677   1.853  11.834  1.00  0.00     0.029 A 
ATOM     51  N   UNL     1       0.344   3.400  13.088  1.00  0.00    -0.354 N 
ATOM     52  C   UNL     1      -0.195   7.597  12.366  1.00  0.00     0.074 A 
ATOM     53  C   UNL     1      -1.158   7.829  11.308  1.00  0.00     0.031 C 
ATOM     54  C   UNL     1       0.074   1.207  12.742  1.00  0.00     0.029 A 
ATOM     55  C   UNL     1       0.768   2.188  13.574  1.00  0.00     0.049 A 
ATOM     56  H   UNL     1       0.639   4.262  13.460  1.00  0.00     0.167 HD
ATOM     57  C   UNL     1       0.438   8.581  13.049  1.00  0.00     0.037 A 
ATOM     58  C   UNL     1       1.622   1.899  14.573  1.00  0.00     0.037 A 
ATOM     59  C   UNL     1       1.366   8.368  14.127  1.00  0.00     0.049 A 
ATOM     60  C   UNL     1       2.268   3.007  15.354  1.00  0.00     0.074 A 
ATOM     61  C   UNL     1       2.049   9.310  14.878  1.00  0.00     0.029 A 
ATOM     62  N   UNL     1       1.727   7.126  14.619  1.00  0.00    -0.354 N 
ATOM     63  N   UNL     1       2.156   4.302  15.194  1.00  0.00    -0.248 NA
ATOM     64  C   UNL     1       3.159   2.612  16.455  1.00  0.00     0.031 C 
ATOM     65  C   UNL     1       2.827   8.635  15.826  1.00  0.00     0.029 A 
ATOM     66  C   UNL     1       2.616   7.275  15.670  1.00  0.00     0.049 A 
ATOM     67  H   UNL     1       1.401   6.264  14.273  1.00  0.00     0.167 HD
ATOM     68  C   UNL     1       2.949   4.876  16.177  1.00  0.00     0.074 A 
ATOM     69  C   UNL     1       3.533   3.790  16.937  1.00  0.00     0.031 C 
ATOM     70  C   UNL     1       3.177   6.188  16.425  1.00  0.00     0.037 A 
BRANCH  57  71
ATOM     71  C   UNL     1       0.149   9.990  12.636  1.00  0.00     0.057 A 
ATOM     72  C   UNL     1      -1.010  10.652  13.055  1.00  0.00     0.134 A 
ATOM     73  C   UNL     1       1.051  10.697  11.833  1.00  0.00     0.134 A 
ATOM     74  F   UNL     1      -1.918  10.020  13.815  1.00  0.00    -0.206 F 
ATOM     75  C   UNL     1      -1.269  11.971  12.677  1.00  0.00     0.040 A 
ATOM     76  C   UNL     1       0.810  12.019  11.460  1.00  0.00     0.040 A 
ATOM     77  F   UNL     1       2.180  10.114  11.402  1.00  0.00    -0.206 F 
ATOM     78  C   UNL     1      -0.355  12.659  11.880  1.00  0.00     0.006 A 
ENDBRANCH  57  71
BRANCH  58  79
ATOM     79  C   UNL     1       1.906   0.486  14.910  1.00  0.00     0.057 A 
ATOM     80  C   UNL     1       1.297  -0.124  16.011  1.00  0.00     0.134 A 
ATOM     81  C   UNL     1       2.793  -0.279  14.146  1.00  0.00     0.134 A 
ATOM     82  F   UNL     1       0.454   0.571  16.788  1.00  0.00    -0.206 F 
ATOM     83  C   UNL     1       1.566  -1.451  16.348  1.00  0.00     0.040 A 
ATOM     84  C   UNL     1       3.063  -1.610  14.465  1.00  0.00     0.040 A 
ATOM     85  F   UNL     1       3.405   0.257  13.081  1.00  0.00    -0.206 F 
ATOM     86  C   UNL     1       2.450  -2.198  15.570  1.00  0.00     0.006 A 
ENDBRANCH  58  79
BRANCH  70  87
ATOM     87  C   UNL     1       4.075   6.518  17.574  1.00  0.00     0.057 A 
ATOM     88  C   UNL     1       5.468   6.487  17.444  1.00  0.00     0.134 A 
ATOM     89  C   UNL     1       3.542   6.899  18.811  1.00  0.00     0.134 A 
ATOM     90  F   UNL     1       6.035   6.119  16.286  1.00  0.00    -0.206 F 
ATOM     91  C   UNL     1       6.304   6.816  18.512  1.00  0.00     0.040 A 
ATOM     92  C   UNL     1       4.367   7.238  19.884  1.00  0.00     0.040 A 
ATOM     93  F   UNL     1       2.214   6.945  18.995  1.00  0.00    -0.206 F 
ATOM     94  C   UNL     1       5.753   7.196  19.736  1.00  0.00     0.006 A 
ENDBRANCH  70  87
ENDBRANCH  44  45
ENDBRANCH  36  39
ENDBRANCH  34  35
ENDBRANCH  33  34
ENDBRANCH  32  33
ENDBRANCH  31  32
ENDBRANCH   1  31
TORSDOF 19
