REMARK SMILES COc1ccccc1-c1ccc(C(=O)NCCCCCCNC(=O)c2ccc(-c3c4nc(c(-c5c(F)cccc5F)c5ccc([nH]5)c(-c5c(F)cccc5F)c5nc(c(-c6c(F)cccc6F)c6ccc3[nH]6)C=C5)C=C4)cc2)c(O)c1
REMARK SMILES IDX 18 1 17 2 16 3 15 4 13 5 14 6 12 8 9 9 10 10 81 11 11 12
REMARK SMILES IDX 79 13 8 14 3 15 4 16 5 17 7 18 6 19 2 20 1 21 80 22 19 24
REMARK SMILES IDX 20 25 21 26 22 27 23 28 24 30 25 31 26 32 78 33 27 34 77 35
REMARK SMILES IDX 28 36 29 37 30 38 71 39 31 40 76 41 70 42 72 43 32 44 75 45
REMARK SMILES IDX 69 46 68 47 33 49 59 50 42 51 58 52 43 53 46 54 57 55 73 56
REMARK SMILES IDX 44 57 45 58 56 60 74 61 47 62 34 63 35 64 40 65 36 66 37 67
REMARK SMILES IDX 39 68 41 69 38 70 60 71 61 72 66 73 62 74 63 75 65 76 67 77
REMARK SMILES IDX 64 78 48 79 49 80 54 81 50 82 51 83 53 84 55 85 52 86
REMARK H PARENT 15 7 80 23 22 29 72 48 46 59
REMARK Flexibility Score: inf
ROOT
ATOM      1  C   UNL     1       7.905  -1.361   4.395  1.00  0.00     0.002 C 
ENDROOT
BRANCH   1   2
ATOM      2  C   UNL     1       6.791  -1.670   3.391  1.00  0.00     0.021 C 
BRANCH   2   3
ATOM      3  C   UNL     1       5.978  -0.436   2.987  1.00  0.00     0.116 C 
BRANCH   3   4
ATOM      4  N   UNL     1       6.685   0.287   1.953  1.00  0.00    -0.352 N 
ATOM      5  C   UNL     1       6.557   0.270   0.589  1.00  0.00     0.255 C 
ATOM      6  O   UNL     1       7.390   0.905  -0.062  1.00  0.00    -0.269 OA
ATOM      7  H   UNL     1       7.379   0.900   2.288  1.00  0.00     0.163 HD
BRANCH   5   8
ATOM      8  C   UNL     1       5.413  -0.356  -0.132  1.00  0.00     0.081 A 
ATOM      9  C   UNL     1       3.189  -1.232  -1.654  1.00  0.00    -0.011 A 
ATOM     10  C   UNL     1       3.859  -0.056  -1.999  1.00  0.00     0.010 A 
ATOM     11  C   UNL     1       3.675  -1.990  -0.581  1.00  0.00     0.055 A 
ATOM     12  C   UNL     1       4.948   0.380  -1.240  1.00  0.00     0.018 A 
ATOM     13  C   UNL     1       4.792  -1.576   0.150  1.00  0.00     0.128 A 
BRANCH   9  14
ATOM     14  C   UNL     1       2.016  -1.703  -2.393  1.00  0.00     0.024 A 
ATOM     15  C   UNL     1       0.727  -1.757  -1.825  1.00  0.00     0.126 A 
ATOM     16  C   UNL     1      -0.324  -2.370  -2.514  1.00  0.00     0.047 A 
ATOM     17  C   UNL     1      -0.117  -2.907  -3.784  1.00  0.00     0.004 A 
ATOM     18  C   UNL     1       2.199  -2.236  -3.682  1.00  0.00     0.012 A 
ATOM     19  C   UNL     1       1.144  -2.837  -4.370  1.00  0.00     0.001 A 
BRANCH  15  20
ATOM     20  O   UNL     1       0.432  -1.348  -0.547  1.00  0.00    -0.496 OA
ATOM     21  C   UNL     1       0.640   0.048  -0.337  1.00  0.00     0.278 C 
ENDBRANCH  15  20
ENDBRANCH   9  14
BRANCH  13  22
ATOM     22  O   UNL     1       5.259  -2.438   1.099  1.00  0.00    -0.507 OA
ATOM     23  H   UNL     1       6.005  -2.205   1.616  1.00  0.00     0.293 HD
ENDBRANCH  13  22
ENDBRANCH   5   8
ENDBRANCH   3   4
ENDBRANCH   2   3
ENDBRANCH   1   2
BRANCH   1  24
ATOM     24  C   UNL     1       7.406  -0.908   5.769  1.00  0.00     0.002 C 
BRANCH  24  25
ATOM     25  C   UNL     1       6.432  -1.876   6.446  1.00  0.00     0.021 C 
BRANCH  25  26
ATOM     26  C   UNL     1       7.007  -3.268   6.686  1.00  0.00     0.116 C 
BRANCH  26  27
ATOM     27  N   UNL     1       8.130  -3.225   7.610  1.00  0.00    -0.352 N 
ATOM     28  C   UNL     1       8.272  -3.842   8.826  1.00  0.00     0.251 C 
ATOM     29  H   UNL     1       8.894  -2.676   7.322  1.00  0.00     0.163 HD
ATOM     30  O   UNL     1       9.157  -3.495   9.600  1.00  0.00    -0.269 OA
BRANCH  28  31
ATOM     31  C   UNL     1       7.348  -4.932   9.200  1.00  0.00     0.039 A 
ATOM     32  C   UNL     1       6.828  -4.969  10.496  1.00  0.00     0.014 A 
ATOM     33  C   UNL     1       7.017  -5.928   8.276  1.00  0.00     0.014 A 
ATOM     34  C   UNL     1       5.939  -5.984  10.852  1.00  0.00     0.010 A 
ATOM     35  C   UNL     1       6.073  -6.892   8.609  1.00  0.00     0.010 A 
ATOM     36  C   UNL     1       5.536  -6.939   9.904  1.00  0.00    -0.014 A 
BRANCH  36  37
ATOM     37  C   UNL     1       4.573  -8.012  10.254  1.00  0.00     0.031 A 
ATOM     38  C   UNL     1       5.008  -9.451  10.219  1.00  0.00     0.074 A 
ATOM     39  C   UNL     1       3.297  -7.695  10.543  1.00  0.00     0.049 A 
ATOM     40  N   UNL     1       4.302 -10.534  10.421  1.00  0.00    -0.248 NA
ATOM     41  C   UNL     1       6.418  -9.709   9.885  1.00  0.00     0.031 C 
ATOM     42  C   UNL     1       2.745  -6.339  10.567  1.00  0.00     0.029 A 
ATOM     43  N   UNL     1       2.229  -8.494  10.863  1.00  0.00    -0.354 N 
ATOM     44  C   UNL     1       5.176 -11.596  10.225  1.00  0.00     0.074 A 
ATOM     45  C   UNL     1       6.447 -11.031   9.830  1.00  0.00     0.031 C 
ATOM     46  C   UNL     1       1.448  -6.399  10.907  1.00  0.00     0.029 A 
ATOM     47  C   UNL     1       1.067  -7.796  11.086  1.00  0.00     0.049 A 
ATOM     48  H   UNL     1       2.289  -9.475  10.926  1.00  0.00     0.167 HD
ATOM     49  C   UNL     1       4.946 -12.921  10.383  1.00  0.00     0.037 A 
ATOM     50  C   UNL     1      -0.168  -8.236  11.394  1.00  0.00     0.037 A 
ATOM     51  C   UNL     1       3.684 -13.476  10.798  1.00  0.00     0.049 A 
ATOM     52  C   UNL     1      -0.400  -9.714  11.554  1.00  0.00     0.074 A 
ATOM     53  C   UNL     1       3.362 -14.800  11.039  1.00  0.00     0.029 A 
ATOM     54  N   UNL     1       2.535 -12.735  11.032  1.00  0.00    -0.354 N 
ATOM     55  N   UNL     1       0.451 -10.704  11.427  1.00  0.00    -0.248 NA
ATOM     56  C   UNL     1      -1.762 -10.135  11.908  1.00  0.00     0.031 C 
ATOM     57  C   UNL     1       2.006 -14.866  11.373  1.00  0.00     0.029 A 
ATOM     58  C   UNL     1       1.497 -13.577  11.395  1.00  0.00     0.049 A 
ATOM     59  H   UNL     1       2.468 -11.757  10.952  1.00  0.00     0.167 HD
ATOM     60  C   UNL     1      -0.263 -11.859  11.719  1.00  0.00     0.074 A 
ATOM     61  C   UNL     1      -1.613 -11.445  12.040  1.00  0.00     0.031 C 
ATOM     62  C   UNL     1       0.161 -13.146  11.723  1.00  0.00     0.037 A 
BRANCH  49  63
ATOM     63  C   UNL     1       6.086 -13.860  10.108  1.00  0.00     0.057 A 
ATOM     64  C   UNL     1       7.211 -13.922  10.942  1.00  0.00     0.134 A 
ATOM     65  C   UNL     1       6.046 -14.733   9.014  1.00  0.00     0.134 A 
ATOM     66  F   UNL     1       7.319 -13.105  12.001  1.00  0.00    -0.206 F 
ATOM     67  C   UNL     1       8.267 -14.796  10.680  1.00  0.00     0.040 A 
ATOM     68  C   UNL     1       7.082 -15.633   8.759  1.00  0.00     0.040 A 
ATOM     69  F   UNL     1       4.997 -14.732   8.178  1.00  0.00    -0.206 F 
ATOM     70  C   UNL     1       8.201 -15.661   9.590  1.00  0.00     0.006 A 
ENDBRANCH  49  63
BRANCH  50  71
ATOM     71  C   UNL     1      -1.275  -7.268  11.596  1.00  0.00     0.057 A 
ATOM     72  C   UNL     1      -1.828  -7.058  12.865  1.00  0.00     0.134 A 
ATOM     73  C   UNL     1      -1.813  -6.537  10.530  1.00  0.00     0.134 A 
ATOM     74  F   UNL     1      -1.366  -7.741  13.923  1.00  0.00    -0.206 F 
ATOM     75  C   UNL     1      -2.892  -6.176  13.063  1.00  0.00     0.040 A 
ATOM     76  C   UNL     1      -2.859  -5.632  10.718  1.00  0.00     0.040 A 
ATOM     77  F   UNL     1      -1.322  -6.685   9.291  1.00  0.00    -0.206 F 
ATOM     78  C   UNL     1      -3.407  -5.457  11.987  1.00  0.00     0.006 A 
ENDBRANCH  50  71
BRANCH  62  79
ATOM     79  C   UNL     1      -0.831 -14.196  12.132  1.00  0.00     0.057 A 
ATOM     80  C   UNL     1      -1.903 -14.566  11.310  1.00  0.00     0.134 A 
ATOM     81  C   UNL     1      -0.685 -14.874  13.349  1.00  0.00     0.134 A 
ATOM     82  F   UNL     1      -2.106 -13.947  10.137  1.00  0.00    -0.206 F 
ATOM     83  C   UNL     1      -2.809 -15.555  11.696  1.00  0.00     0.040 A 
ATOM     84  C   UNL     1      -1.567 -15.884  13.732  1.00  0.00     0.040 A 
ATOM     85  F   UNL     1       0.326 -14.576  14.179  1.00  0.00    -0.206 F 
ATOM     86  C   UNL     1      -2.638 -16.222  12.907  1.00  0.00     0.006 A 
ENDBRANCH  62  79
ENDBRANCH  36  37
ENDBRANCH  28  31
ENDBRANCH  26  27
ENDBRANCH  25  26
ENDBRANCH  24  25
ENDBRANCH   1  24
TORSDOF 16
