REMARK SMILES O=C(NCCCCCCNC(=O)c1cn(C[C@@H]2CCS(=O)(=O)C2)c(=O)[nH]c1=O)c1ccc(-c2c3nc(c(-c4c(F)cccc4F)c4ccc([nH]4)c(-c4c(F)cccc4F)c4nc(c(-c5c(F)cccc5F)c5ccc2[nH]5)C=C4)C=C3)cc1
REMARK SMILES IDX 6 1 5 2 4 3 3 4 1 5 2 6 29 8 30 9 82 10 31 11 81 12 32 13
REMARK SMILES IDX 33 14 34 15 75 16 35 17 80 18 74 19 76 20 36 21 79 22 73 23
REMARK SMILES IDX 72 24 37 26 63 27 46 28 62 29 47 30 50 31 61 32 77 33 48 34
REMARK SMILES IDX 49 35 60 37 78 38 51 39 38 40 39 41 44 42 40 43 41 44 43 45
REMARK SMILES IDX 45 46 42 47 64 48 65 49 70 50 66 51 67 52 69 53 71 54 68 55
REMARK SMILES IDX 52 56 53 57 58 58 54 59 55 60 57 61 59 62 56 63 7 64 8 65
REMARK SMILES IDX 9 66 10 67 11 68 12 70 13 71 14 72 27 73 15 74 26 75 28 76
REMARK SMILES IDX 24 77 25 79 16 80 17 81 18 82 23 83 19 84 20 85 21 86 22 87
REMARK H PARENT 3 7 76 25 50 36 10 69 26 78
REMARK Flexibility Score: inf
ROOT
ATOM      1  C   UNL     1       4.107   2.430  -3.073  1.00  0.00     0.002 C 
ENDROOT
BRANCH   1   2
ATOM      2  C   UNL     1       4.611   1.114  -2.479  1.00  0.00     0.021 C 
BRANCH   2   3
ATOM      3  C   UNL     1       4.345   0.942  -0.991  1.00  0.00     0.116 C 
BRANCH   3   4
ATOM      4  N   UNL     1       2.927   0.934  -0.681  1.00  0.00    -0.352 N 
ATOM      5  O   UNL     1       0.974   0.080   0.045  1.00  0.00    -0.269 OA
ATOM      6  C   UNL     1       2.200   0.022   0.040  1.00  0.00     0.251 C 
ATOM      7  H   UNL     1       2.413   1.693  -1.041  1.00  0.00     0.163 HD
BRANCH   6   8
ATOM      8  C   UNL     1       2.891  -1.043   0.799  1.00  0.00     0.039 A 
ATOM      9  C   UNL     1       2.341  -2.326   0.808  1.00  0.00     0.014 A 
ATOM     10  C   UNL     1       4.060  -0.778   1.518  1.00  0.00     0.014 A 
ATOM     11  C   UNL     1       2.977  -3.345   1.518  1.00  0.00     0.010 A 
ATOM     12  C   UNL     1       4.748  -1.817   2.137  1.00  0.00     0.010 A 
ATOM     13  C   UNL     1       4.196  -3.104   2.176  1.00  0.00    -0.014 A 
BRANCH  13  14
ATOM     14  C   UNL     1       4.860  -4.178   2.957  1.00  0.00     0.031 A 
ATOM     15  C   UNL     1       5.041  -4.030   4.446  1.00  0.00     0.074 A 
ATOM     16  C   UNL     1       5.301  -5.286   2.331  1.00  0.00     0.049 A 
ATOM     17  N   UNL     1       5.547  -4.877   5.308  1.00  0.00    -0.248 NA
ATOM     18  C   UNL     1       4.624  -2.751   5.043  1.00  0.00     0.031 C 
ATOM     19  C   UNL     1       5.226  -5.532   0.890  1.00  0.00     0.029 A 
ATOM     20  N   UNL     1       5.881  -6.423   2.833  1.00  0.00    -0.354 N 
ATOM     21  C   UNL     1       5.518  -4.229   6.537  1.00  0.00     0.074 A 
ATOM     22  C   UNL     1       5.018  -2.894   6.298  1.00  0.00     0.031 C 
ATOM     23  C   UNL     1       5.679  -6.769   0.632  1.00  0.00     0.029 A 
ATOM     24  C   UNL     1       6.111  -7.387   1.881  1.00  0.00     0.049 A 
ATOM     25  H   UNL     1       6.111  -6.537   3.783  1.00  0.00     0.167 HD
ATOM     26  C   UNL     1       5.844  -4.708   7.761  1.00  0.00     0.037 A 
ATOM     27  C   UNL     1       6.598  -8.634   2.009  1.00  0.00     0.037 A 
ATOM     28  C   UNL     1       6.327  -6.043   8.001  1.00  0.00     0.049 A 
ATOM     29  C   UNL     1       6.979  -9.134   3.376  1.00  0.00     0.074 A 
ATOM     30  C   UNL     1       6.635  -6.649   9.206  1.00  0.00     0.029 A 
ATOM     31  N   UNL     1       6.583  -6.977   7.007  1.00  0.00    -0.354 N 
ATOM     32  N   UNL     1       6.873  -8.538   4.540  1.00  0.00    -0.248 NA
ATOM     33  C   UNL     1       7.540 -10.489   3.442  1.00  0.00     0.031 C 
ATOM     34  C   UNL     1       7.136  -7.928   8.936  1.00  0.00     0.029 A 
ATOM     35  C   UNL     1       7.078  -8.144   7.568  1.00  0.00     0.049 A 
ATOM     36  H   UNL     1       6.434  -6.832   6.045  1.00  0.00     0.167 HD
ATOM     37  C   UNL     1       7.325  -9.457   5.479  1.00  0.00     0.074 A 
ATOM     38  C   UNL     1       7.677 -10.658   4.748  1.00  0.00     0.031 C 
ATOM     39  C   UNL     1       7.439  -9.325   6.825  1.00  0.00     0.037 A 
BRANCH  26  40
ATOM     40  C   UNL     1       5.701  -3.767   8.926  1.00  0.00     0.057 A 
ATOM     41  C   UNL     1       6.831  -3.308   9.616  1.00  0.00     0.134 A 
ATOM     42  C   UNL     1       4.451  -3.300   9.360  1.00  0.00     0.134 A 
ATOM     43  F   UNL     1       8.058  -3.716   9.261  1.00  0.00    -0.206 F 
ATOM     44  C   UNL     1       6.724  -2.412  10.681  1.00  0.00     0.040 A 
ATOM     45  C   UNL     1       4.334  -2.376  10.400  1.00  0.00     0.040 A 
ATOM     46  F   UNL     1       3.327  -3.687   8.737  1.00  0.00    -0.206 F 
ATOM     47  C   UNL     1       5.474  -1.933  11.067  1.00  0.00     0.006 A 
ENDBRANCH  26  40
BRANCH  27  48
ATOM     48  C   UNL     1       6.713  -9.524   0.825  1.00  0.00     0.057 A 
ATOM     49  C   UNL     1       7.644  -9.281  -0.191  1.00  0.00     0.134 A 
ATOM     50  C   UNL     1       5.911 -10.666   0.705  1.00  0.00     0.134 A 
ATOM     51  F   UNL     1       8.437  -8.201  -0.141  1.00  0.00    -0.206 F 
ATOM     52  C   UNL     1       7.775 -10.143  -1.282  1.00  0.00     0.040 A 
ATOM     53  C   UNL     1       6.051 -11.551  -0.365  1.00  0.00     0.040 A 
ATOM     54  F   UNL     1       5.013 -10.963   1.656  1.00  0.00    -0.206 F 
ATOM     55  C   UNL     1       6.985 -11.288  -1.365  1.00  0.00     0.006 A 
ENDBRANCH  27  48
BRANCH  39  56
ATOM     56  C   UNL     1       7.937 -10.525   7.581  1.00  0.00     0.057 A 
ATOM     57  C   UNL     1       7.080 -11.237   8.431  1.00  0.00     0.134 A 
ATOM     58  C   UNL     1       9.250 -10.997   7.447  1.00  0.00     0.134 A 
ATOM     59  F   UNL     1       5.814 -10.834   8.618  1.00  0.00    -0.206 F 
ATOM     60  C   UNL     1       7.505 -12.383   9.103  1.00  0.00     0.040 A 
ATOM     61  C   UNL     1       9.675 -12.164   8.085  1.00  0.00     0.040 A 
ATOM     62  F   UNL     1      10.120 -10.370   6.640  1.00  0.00    -0.206 F 
ATOM     63  C   UNL     1       8.801 -12.860   8.917  1.00  0.00     0.006 A 
ENDBRANCH  39  56
ENDBRANCH  13  14
ENDBRANCH   6   8
ENDBRANCH   3   4
ENDBRANCH   2   3
ENDBRANCH   1   2
BRANCH   1  64
ATOM     64  C   UNL     1       4.620   3.700  -2.389  1.00  0.00     0.002 C 
BRANCH  64  65
ATOM     65  C   UNL     1       6.139   3.802  -2.251  1.00  0.00     0.021 C 
BRANCH  65  66
ATOM     66  C   UNL     1       6.913   3.584  -3.544  1.00  0.00     0.116 C 
BRANCH  66  67
ATOM     67  N   UNL     1       6.630   4.588  -4.558  1.00  0.00    -0.352 N 
ATOM     68  C   UNL     1       7.489   5.444  -5.201  1.00  0.00     0.258 C 
ATOM     69  H   UNL     1       5.684   4.664  -4.822  1.00  0.00     0.163 HD
ATOM     70  O   UNL     1       7.065   6.228  -6.041  1.00  0.00    -0.269 OA
BRANCH  68  71
ATOM     71  C   UNL     1       8.915   5.369  -4.832  1.00  0.00     0.121 A 
ATOM     72  C   UNL     1       9.578   4.221  -5.036  1.00  0.00     0.110 A 
ATOM     73  C   UNL     1       9.603   6.468  -4.136  1.00  0.00     0.266 A 
ATOM     74  N   UNL     1      10.816   3.974  -4.467  1.00  0.00    -0.299 N 
ATOM     75  N   UNL     1      10.829   6.151  -3.616  1.00  0.00    -0.273 N 
ATOM     76  O   UNL     1       9.103   7.571  -3.950  1.00  0.00    -0.268 OA
ATOM     77  C   UNL     1      11.432   4.924  -3.656  1.00  0.00     0.328 A 
ATOM     78  H   UNL     1      11.325   6.875  -3.170  1.00  0.00     0.175 HD
ATOM     79  O   UNL     1      12.455   4.711  -3.011  1.00  0.00    -0.248 OA
BRANCH  74  80
ATOM     80  C   UNL     1      11.394   2.636  -4.567  1.00  0.00     0.131 C 
BRANCH  80  81
ATOM     81  C   UNL     1      12.490   2.424  -5.629  1.00  0.00     0.025 C 
ATOM     82  C   UNL     1      13.792   3.211  -5.416  1.00  0.00     0.022 C 
ATOM     83  C   UNL     1      12.048   2.701  -7.066  1.00  0.00     0.142 C 
ATOM     84  C   UNL     1      13.672   4.579  -6.079  1.00  0.00     0.137 C 
ATOM     85  S   UNL     1      12.561   4.365  -7.454  1.00  0.00     0.150 S 
ATOM     86  O   UNL     1      11.427   5.251  -7.282  1.00  0.00    -0.229 OA
ATOM     87  O   UNL     1      13.330   4.331  -8.677  1.00  0.00    -0.229 OA
ENDBRANCH  80  81
ENDBRANCH  74  80
ENDBRANCH  68  71
ENDBRANCH  66  67
ENDBRANCH  65  66
ENDBRANCH  64  65
ENDBRANCH   1  64
TORSDOF 15
