REMARK SMILES CC(C)CSc1cc2c(cc1Cl)C=C(C(=O)NCCCCCCNC(=O)c1ccc(-c3c4nc(c(-c5c(F)cccc5F)c5ccc([nH]5)c(-c5c(F)cccc5F)c5nc(c(-c6c(F)cccc6F)c6ccc3[nH]6)C=C5)C=C4)cc1)[C@@H](C(F)(F)F)O2
REMARK SMILES IDX 20 1 19 2 18 3 17 4 15 5 16 6 14 8 6 9 7 10 11 11 8 12 10 13
REMARK SMILES IDX 12 14 9 15 86 16 13 17 81 18 5 19 4 20 2 21 1 22 3 23 82 24
REMARK SMILES IDX 83 25 84 26 85 27 21 28 22 29 23 30 24 31 25 32 26 34 27 35
REMARK SMILES IDX 28 36 80 37 29 38 79 39 30 40 31 41 32 42 73 43 33 44 78 45
REMARK SMILES IDX 72 46 74 47 34 48 77 49 71 50 70 51 35 53 61 54 44 55 60 56
REMARK SMILES IDX 45 57 48 58 59 59 75 60 46 61 47 62 58 64 76 65 49 66 36 67
REMARK SMILES IDX 37 68 42 69 38 70 39 71 41 72 43 73 40 74 62 75 63 76 68 77
REMARK SMILES IDX 64 78 65 79 67 80 69 81 66 82 50 83 51 84 56 85 52 86 53 87
REMARK SMILES IDX 55 88 57 89 54 90
REMARK H PARENT 17 7 24 33 74 52 48 63
REMARK Flexibility Score: inf
ROOT
ATOM      1  C   UNL     1      -2.394  11.196   2.839  1.00  0.00     0.002 C 
ENDROOT
BRANCH   1   2
ATOM      2  C   UNL     1      -2.711   9.881   2.122  1.00  0.00     0.021 C 
BRANCH   2   3
ATOM      3  C   UNL     1      -1.513   9.166   1.508  1.00  0.00     0.116 C 
BRANCH   3   4
ATOM      4  N   UNL     1      -0.682   8.502   2.491  1.00  0.00    -0.352 N 
ATOM      5  C   UNL     1      -0.176   7.254   2.642  1.00  0.00     0.251 C 
ATOM      6  O   UNL     1       0.563   7.085   3.616  1.00  0.00    -0.270 OA
ATOM      7  H   UNL     1      -0.422   9.101   3.228  1.00  0.00     0.163 HD
BRANCH   5   8
ATOM      8  C   UNL     1      -0.478   6.100   1.740  1.00  0.00     0.067 C 
ATOM      9  C   UNL     1      -1.413   1.388   0.100  1.00  0.00     0.030 A 
ATOM     10  C   UNL     1      -1.362   2.662  -0.496  1.00  0.00     0.063 A 
ATOM     11  C   UNL     1      -1.151   1.306   1.477  1.00  0.00     0.055 A 
ATOM     12  C   UNL     1      -1.034   3.803   0.238  1.00  0.00     0.129 A 
ATOM     13  C   UNL     1      -0.776   2.451   2.201  1.00  0.00     0.033 A 
ATOM     14  Cl  UNL     1      -1.339  -0.132   2.414  1.00  0.00    -0.083 Cl
ATOM     15  C   UNL     1      -0.727   3.703   1.586  1.00  0.00     0.019 A 
ATOM     16  O   UNL     1      -1.047   4.978  -0.446  1.00  0.00    -0.475 OA
ATOM     17  C   UNL     1      -0.412   4.901   2.346  1.00  0.00     0.025 C 
ATOM     18  C   UNL     1      -0.801   6.220   0.273  1.00  0.00     0.314 C 
BRANCH   9  19
ATOM     19  S   UNL     1      -1.909   0.088  -1.030  1.00  0.00    -0.124 SA
BRANCH  19  20
ATOM     20  C   UNL     1      -0.875  -1.368  -0.639  1.00  0.00     0.078 C 
BRANCH  20  21
ATOM     21  C   UNL     1       0.622  -1.337  -0.999  1.00  0.00    -0.007 C 
ATOM     22  C   UNL     1       1.429  -0.209  -0.361  1.00  0.00     0.008 C 
ATOM     23  C   UNL     1       1.238  -2.682  -0.584  1.00  0.00     0.008 C 
ENDBRANCH  20  21
ENDBRANCH  19  20
ENDBRANCH   9  19
BRANCH  18  24
ATOM     24  C   UNL     1       0.247   6.997  -0.543  1.00  0.00     0.429 C 
ATOM     25  F   UNL     1      -0.296   7.422  -1.713  1.00  0.00    -0.167 F 
ATOM     26  F   UNL     1       0.704   8.103   0.082  1.00  0.00    -0.167 F 
ATOM     27  F   UNL     1       1.324   6.238  -0.848  1.00  0.00    -0.167 F 
ENDBRANCH  18  24
ENDBRANCH   5   8
ENDBRANCH   3   4
ENDBRANCH   2   3
ENDBRANCH   1   2
BRANCH   1  28
ATOM     28  C   UNL     1      -1.620  12.242   2.027  1.00  0.00     0.002 C 
BRANCH  28  29
ATOM     29  C   UNL     1      -2.148  12.533   0.621  1.00  0.00     0.021 C 
BRANCH  29  30
ATOM     30  C   UNL     1      -3.608  12.963   0.544  1.00  0.00     0.116 C 
BRANCH  30  31
ATOM     31  N   UNL     1      -3.861  14.233   1.205  1.00  0.00    -0.352 N 
ATOM     32  C   UNL     1      -4.524  15.339   0.730  1.00  0.00     0.251 C 
ATOM     33  H   UNL     1      -3.509  14.311   2.121  1.00  0.00     0.163 HD
ATOM     34  O   UNL     1      -4.535  16.382   1.377  1.00  0.00    -0.269 OA
BRANCH  32  35
ATOM     35  C   UNL     1      -5.192  15.282  -0.589  1.00  0.00     0.039 A 
ATOM     36  C   UNL     1      -6.008  14.201  -0.930  1.00  0.00     0.014 A 
ATOM     37  C   UNL     1      -4.972  16.314  -1.506  1.00  0.00     0.014 A 
ATOM     38  C   UNL     1      -6.470  14.072  -2.236  1.00  0.00     0.010 A 
ATOM     39  C   UNL     1      -5.503  16.220  -2.795  1.00  0.00     0.010 A 
ATOM     40  C   UNL     1      -6.215  15.074  -3.185  1.00  0.00    -0.014 A 
BRANCH  40  41
ATOM     41  C   UNL     1      -6.682  14.897  -4.584  1.00  0.00     0.031 A 
ATOM     42  C   UNL     1      -5.693  14.750  -5.710  1.00  0.00     0.074 A 
ATOM     43  C   UNL     1      -8.002  14.819  -4.836  1.00  0.00     0.049 A 
ATOM     44  N   UNL     1      -5.915  14.591  -6.991  1.00  0.00    -0.248 NA
ATOM     45  C   UNL     1      -4.266  14.791  -5.352  1.00  0.00     0.031 C 
ATOM     46  C   UNL     1      -9.061  14.932  -3.830  1.00  0.00     0.029 A 
ATOM     47  N   UNL     1      -8.679  14.610  -6.010  1.00  0.00    -0.354 N 
ATOM     48  C   UNL     1      -4.664  14.531  -7.591  1.00  0.00     0.074 A 
ATOM     49  C   UNL     1      -3.684  14.700  -6.540  1.00  0.00     0.031 C 
ATOM     50  C   UNL     1     -10.250  14.747  -4.423  1.00  0.00     0.029 A 
ATOM     51  C   UNL     1     -10.043  14.563  -5.855  1.00  0.00     0.049 A 
ATOM     52  H   UNL     1      -8.231  14.503  -6.880  1.00  0.00     0.167 HD
ATOM     53  C   UNL     1      -4.357  14.342  -8.898  1.00  0.00     0.037 A 
ATOM     54  C   UNL     1     -11.019  14.406  -6.768  1.00  0.00     0.037 A 
ATOM     55  C   UNL     1      -5.331  14.156  -9.943  1.00  0.00     0.049 A 
ATOM     56  C   UNL     1     -10.653  14.252  -8.215  1.00  0.00     0.074 A 
ATOM     57  C   UNL     1      -5.119  13.936 -11.293  1.00  0.00     0.029 A 
ATOM     58  N   UNL     1      -6.705  14.170  -9.752  1.00  0.00    -0.354 N 
ATOM     59  N   UNL     1      -9.465  14.190  -8.765  1.00  0.00    -0.248 NA
ATOM     60  C   UNL     1     -11.766  14.157  -9.169  1.00  0.00     0.031 C 
ATOM     61  C   UNL     1      -6.365  13.853 -11.925  1.00  0.00     0.029 A 
ATOM     62  C   UNL     1      -7.352  13.983 -10.963  1.00  0.00     0.049 A 
ATOM     63  H   UNL     1      -7.153  14.295  -8.885  1.00  0.00     0.167 HD
ATOM     64  C   UNL     1      -9.686  14.037 -10.127  1.00  0.00     0.074 A 
ATOM     65  C   UNL     1     -11.122  13.992 -10.316  1.00  0.00     0.031 C 
ATOM     66  C   UNL     1      -8.782  13.946 -11.133  1.00  0.00     0.037 A 
BRANCH  53  67
ATOM     67  C   UNL     1      -2.904  14.343  -9.273  1.00  0.00     0.057 A 
ATOM     68  C   UNL     1      -2.352  15.413  -9.989  1.00  0.00     0.134 A 
ATOM     69  C   UNL     1      -2.055  13.276  -8.951  1.00  0.00     0.134 A 
ATOM     70  F   UNL     1      -3.111  16.464 -10.335  1.00  0.00    -0.206 F 
ATOM     71  C   UNL     1      -1.009  15.423 -10.370  1.00  0.00     0.040 A 
ATOM     72  C   UNL     1      -0.705  13.284  -9.306  1.00  0.00     0.040 A 
ATOM     73  F   UNL     1      -2.517  12.227  -8.254  1.00  0.00    -0.206 F 
ATOM     74  C   UNL     1      -0.180  14.358 -10.023  1.00  0.00     0.006 A 
ENDBRANCH  53  67
BRANCH  54  75
ATOM     75  C   UNL     1     -12.440  14.404  -6.341  1.00  0.00     0.057 A 
ATOM     76  C   UNL     1     -13.063  15.568  -5.874  1.00  0.00     0.134 A 
ATOM     77  C   UNL     1     -13.211  13.238  -6.402  1.00  0.00     0.134 A 
ATOM     78  F   UNL     1     -12.376  16.716  -5.789  1.00  0.00    -0.206 F 
ATOM     79  C   UNL     1     -14.399  15.571  -5.473  1.00  0.00     0.040 A 
ATOM     80  C   UNL     1     -14.556  13.232  -6.029  1.00  0.00     0.040 A 
ATOM     81  F   UNL     1     -12.675  12.098  -6.861  1.00  0.00    -0.206 F 
ATOM     82  C   UNL     1     -15.151  14.401  -5.557  1.00  0.00     0.006 A 
ENDBRANCH  54  75
BRANCH  66  83
ATOM     83  C   UNL     1      -9.327  13.770 -12.518  1.00  0.00     0.057 A 
ATOM     84  C   UNL     1      -9.232  12.536 -13.172  1.00  0.00     0.134 A 
ATOM     85  C   UNL     1      -9.938  14.825 -13.207  1.00  0.00     0.134 A 
ATOM     86  F   UNL     1      -8.654  11.487 -12.568  1.00  0.00    -0.206 F 
ATOM     87  C   UNL     1      -9.727  12.357 -14.465  1.00  0.00     0.040 A 
ATOM     88  C   UNL     1     -10.458  14.652 -14.491  1.00  0.00     0.040 A 
ATOM     89  F   UNL     1     -10.075  16.027 -12.627  1.00  0.00    -0.206 F 
ATOM     90  C   UNL     1     -10.349  13.416 -15.124  1.00  0.00     0.006 A 
ENDBRANCH  66  83
ENDBRANCH  40  41
ENDBRANCH  32  35
ENDBRANCH  30  31
ENDBRANCH  29  30
ENDBRANCH  28  29
ENDBRANCH   1  28
TORSDOF 17
