REMARK SMILES C/C(=N\Nc1ccncc1[N+](=O)[O-])C(=O)NCCCCCCNC(=O)c1ccc(-c2c3nc(c(-c4c(F)cccc4F)c4ccc([nH]4)c(-c4c(F)cccc4F)c4nc(c(-c5c(F)cccc5F)c5ccc2[nH]5)C=C4)C=C3)cc1
REMARK SMILES IDX 19 1 18 2 17 3 16 4 14 5 15 6 2 8 1 9 3 10 4 11 5 13 6 14
REMARK SMILES IDX 10 15 7 16 9 17 8 18 11 19 12 20 13 21 20 22 21 23 22 24
REMARK SMILES IDX 23 25 24 26 25 28 26 29 27 30 79 31 28 32 78 33 29 34 30 35
REMARK SMILES IDX 31 36 72 37 32 38 77 39 71 40 73 41 33 42 76 43 70 44 69 45
REMARK SMILES IDX 34 47 60 48 43 49 59 50 44 51 47 52 58 53 74 54 45 55 46 56
REMARK SMILES IDX 57 58 75 59 48 60 35 61 36 62 41 63 37 64 38 65 40 66 42 67
REMARK SMILES IDX 39 68 61 69 62 70 67 71 63 72 64 73 66 74 68 75 65 76 49 77
REMARK SMILES IDX 50 78 55 79 51 80 52 81 54 82 56 83 53 84
REMARK H PARENT 16 7 4 12 23 27 73 46 47 57
REMARK Flexibility Score: inf
ROOT
ATOM      1  C   UNL     1      -1.448  -0.297   6.062  1.00  0.00     0.002 C 
ENDROOT
BRANCH   1   2
ATOM      2  C   UNL     1      -1.633   0.453   4.735  1.00  0.00     0.021 C 
BRANCH   2   3
ATOM      3  C   UNL     1      -0.318   0.956   4.136  1.00  0.00     0.116 C 
BRANCH   3   4
ATOM      4  N   UNL     1       0.491  -0.176   3.720  1.00  0.00    -0.351 N 
ATOM      5  C   UNL     1       0.798  -0.620   2.460  1.00  0.00     0.267 C 
ATOM      6  O   UNL     1       1.300  -1.724   2.286  1.00  0.00    -0.268 OA
ATOM      7  H   UNL     1       0.878  -0.705   4.455  1.00  0.00     0.163 HD
BRANCH   5   8
ATOM      8  C   UNL     1       0.675   0.321   1.271  1.00  0.00     0.122 C 
ATOM      9  C   UNL     1       1.865   0.276   0.345  1.00  0.00     0.075 C 
ATOM     10  N   UNL     1      -0.405   1.042   1.141  1.00  0.00    -0.175 NA
BRANCH  10  11
ATOM     11  N   UNL     1      -0.428   2.059   0.250  1.00  0.00    -0.271 N 
ATOM     12  H   UNL     1      -0.539   2.968   0.614  1.00  0.00     0.190 HD
BRANCH  11  13
ATOM     13  C   UNL     1      -0.307   1.942  -1.147  1.00  0.00     0.137 A 
ATOM     14  C   UNL     1      -0.527   0.716  -1.784  1.00  0.00     0.055 A 
ATOM     15  C   UNL     1       0.204   2.995  -1.928  1.00  0.00     0.312 A 
ATOM     16  C   UNL     1      -0.192   0.578  -3.122  1.00  0.00     0.113 A 
ATOM     17  C   UNL     1       0.525   2.763  -3.257  1.00  0.00     0.198 A 
ATOM     18  N   UNL     1       0.341   1.569  -3.867  1.00  0.00    -0.257 NA
BRANCH  15  19
ATOM     19  N   UNL     1       0.447   4.322  -1.377  1.00  0.00     0.066 N 
ATOM     20  O   UNL     1       1.196   5.081  -2.008  1.00  0.00    -0.258 OA
ATOM     21  O   UNL     1      -0.121   4.626  -0.316  1.00  0.00    -0.258 OA
ENDBRANCH  15  19
ENDBRANCH  11  13
ENDBRANCH  10  11
ENDBRANCH   5   8
ENDBRANCH   3   4
ENDBRANCH   2   3
ENDBRANCH   1   2
BRANCH   1  22
ATOM     22  C   UNL     1      -0.771   0.518   7.169  1.00  0.00     0.002 C 
BRANCH  22  23
ATOM     23  C   UNL     1      -1.462   1.843   7.499  1.00  0.00     0.021 C 
BRANCH  23  24
ATOM     24  C   UNL     1      -2.911   1.696   7.946  1.00  0.00     0.116 C 
BRANCH  24  25
ATOM     25  N   UNL     1      -3.022   0.950   9.190  1.00  0.00    -0.352 N 
ATOM     26  C   UNL     1      -3.658   1.297  10.356  1.00  0.00     0.251 C 
ATOM     27  H   UNL     1      -2.579   0.071   9.196  1.00  0.00     0.163 HD
ATOM     28  O   UNL     1      -3.481   0.644  11.377  1.00  0.00    -0.269 OA
BRANCH  26  29
ATOM     29  C   UNL     1      -4.543   2.481  10.378  1.00  0.00     0.039 A 
ATOM     30  C   UNL     1      -4.444   3.378  11.443  1.00  0.00     0.014 A 
ATOM     31  C   UNL     1      -5.463   2.704   9.350  1.00  0.00     0.014 A 
ATOM     32  C   UNL     1      -5.230   4.532  11.448  1.00  0.00     0.010 A 
ATOM     33  C   UNL     1      -6.188   3.891   9.317  1.00  0.00     0.010 A 
ATOM     34  C   UNL     1      -6.082   4.814  10.367  1.00  0.00    -0.014 A 
BRANCH  34  35
ATOM     35  C   UNL     1      -6.870   6.072  10.319  1.00  0.00     0.031 A 
ATOM     36  C   UNL     1      -8.373   6.025  10.325  1.00  0.00     0.074 A 
ATOM     37  C   UNL     1      -6.231   7.253  10.208  1.00  0.00     0.049 A 
ATOM     38  N   UNL     1      -9.231   7.009  10.227  1.00  0.00    -0.248 NA
ATOM     39  C   UNL     1      -8.993   4.695  10.430  1.00  0.00     0.031 C 
ATOM     40  C   UNL     1      -4.778   7.428  10.146  1.00  0.00     0.029 A 
ATOM     41  N   UNL     1      -6.722   8.531  10.118  1.00  0.00    -0.354 N 
ATOM     42  C   UNL     1     -10.487   6.417  10.248  1.00  0.00     0.074 A 
ATOM     43  C   UNL     1     -10.280   4.986  10.308  1.00  0.00     0.031 C 
ATOM     44  C   UNL     1      -4.497   8.737  10.054  1.00  0.00     0.029 A 
ATOM     45  C   UNL     1      -5.745   9.491  10.006  1.00  0.00     0.049 A 
ATOM     46  H   UNL     1      -7.684   8.741  10.132  1.00  0.00     0.167 HD
ATOM     47  C   UNL     1     -11.704   7.012  10.241  1.00  0.00     0.037 A 
ATOM     48  C   UNL     1      -5.845  10.827   9.872  1.00  0.00     0.037 A 
ATOM     49  C   UNL     1     -11.906   8.437  10.196  1.00  0.00     0.049 A 
ATOM     50  C   UNL     1      -7.208  11.462   9.845  1.00  0.00     0.074 A 
ATOM     51  C   UNL     1     -13.097   9.140  10.239  1.00  0.00     0.029 A 
ATOM     52  N   UNL     1     -10.890   9.376  10.092  1.00  0.00    -0.354 N 
ATOM     53  N   UNL     1      -8.387  10.895   9.934  1.00  0.00    -0.248 NA
ATOM     54  C   UNL     1      -7.254  12.924   9.704  1.00  0.00     0.031 C 
ATOM     55  C   UNL     1     -12.806  10.501  10.107  1.00  0.00     0.029 A 
ATOM     56  C   UNL     1     -11.430  10.651  10.043  1.00  0.00     0.049 A 
ATOM     57  H   UNL     1      -9.929   9.168  10.059  1.00  0.00     0.167 HD
ATOM     58  C   UNL     1      -9.312  11.931   9.894  1.00  0.00     0.074 A 
ATOM     59  C   UNL     1      -8.556  13.161   9.785  1.00  0.00     0.031 C 
ATOM     60  C   UNL     1     -10.665  11.868   9.944  1.00  0.00     0.037 A 
BRANCH  47  61
ATOM     61  C   UNL     1     -12.912   6.121  10.282  1.00  0.00     0.057 A 
ATOM     62  C   UNL     1     -13.245   5.377  11.422  1.00  0.00     0.134 A 
ATOM     63  C   UNL     1     -13.774   6.032   9.181  1.00  0.00     0.134 A 
ATOM     64  F   UNL     1     -12.457   5.406  12.508  1.00  0.00    -0.206 F 
ATOM     65  C   UNL     1     -14.374   4.555  11.456  1.00  0.00     0.040 A 
ATOM     66  C   UNL     1     -14.923   5.239   9.214  1.00  0.00     0.040 A 
ATOM     67  F   UNL     1     -13.521   6.723   8.059  1.00  0.00    -0.206 F 
ATOM     68  C   UNL     1     -15.221   4.491  10.351  1.00  0.00     0.006 A 
ENDBRANCH  47  61
BRANCH  48  69
ATOM     69  C   UNL     1      -4.619  11.659   9.770  1.00  0.00     0.057 A 
ATOM     70  C   UNL     1      -4.253  12.536  10.798  1.00  0.00     0.134 A 
ATOM     71  C   UNL     1      -3.790  11.608   8.642  1.00  0.00     0.134 A 
ATOM     72  F   UNL     1      -5.015  12.643  11.896  1.00  0.00    -0.206 F 
ATOM     73  C   UNL     1      -3.123  13.349  10.699  1.00  0.00     0.040 A 
ATOM     74  C   UNL     1      -2.642  12.395   8.542  1.00  0.00     0.040 A 
ATOM     75  F   UNL     1      -4.079  10.782   7.626  1.00  0.00    -0.206 F 
ATOM     76  C   UNL     1      -2.311  13.276   9.569  1.00  0.00     0.006 A 
ENDBRANCH  48  69
BRANCH  60  77
ATOM     77  C   UNL     1     -11.416  13.169   9.927  1.00  0.00     0.057 A 
ATOM     78  C   UNL     1     -11.499  13.964   8.777  1.00  0.00     0.134 A 
ATOM     79  C   UNL     1     -12.098  13.610  11.069  1.00  0.00     0.134 A 
ATOM     80  F   UNL     1     -10.859  13.606   7.654  1.00  0.00    -0.206 F 
ATOM     81  C   UNL     1     -12.214  15.164   8.771  1.00  0.00     0.040 A 
ATOM     82  C   UNL     1     -12.840  14.791  11.066  1.00  0.00     0.040 A 
ATOM     83  F   UNL     1     -12.067  12.891  12.201  1.00  0.00    -0.206 F 
ATOM     84  C   UNL     1     -12.894  15.576   9.916  1.00  0.00     0.006 A 
ENDBRANCH  60  77
ENDBRANCH  34  35
ENDBRANCH  26  29
ENDBRANCH  24  25
ENDBRANCH  23  24
ENDBRANCH  22  23
ENDBRANCH   1  22
TORSDOF 16
