REMARK SMILES O=C(NCCCCCCNC(=O)c1cccc2c1cc(Br)c1ccccc12)c1ccc(-c2c3nc(c(-c4c(F)cccc4F)c4ccc([nH]4)c(-c4c(F)cccc4F)c4nc(c(-c5c(F)cccc5F)c5ccc2[nH]5)C=C4)C=C3)cc1
REMARK SMILES IDX 5 1 4 2 3 3 1 4 2 5 28 7 29 8 81 9 30 10 80 11 31 12 32 13
REMARK SMILES IDX 33 14 74 15 34 16 79 17 73 18 75 19 35 20 78 21 72 22 71 23
REMARK SMILES IDX 36 25 62 26 45 27 61 28 46 29 49 30 60 31 76 32 47 33 48 34
REMARK SMILES IDX 59 36 77 37 50 38 37 39 38 40 43 41 39 42 40 43 42 44 44 45
REMARK SMILES IDX 41 46 63 47 64 48 69 49 65 50 66 51 68 52 70 53 67 54 51 55
REMARK SMILES IDX 52 56 57 57 53 58 54 59 56 60 58 61 55 62 6 63 7 64 8 65
REMARK SMILES IDX 9 66 10 67 11 68 12 70 13 71 14 72 18 73 15 74 17 75 19 76
REMARK SMILES IDX 16 77 27 78 20 79 22 80 26 81 21 82 23 83 25 84 24 85
REMARK H PARENT 3 6 75 24 49 35 10 69
REMARK Flexibility Score: inf
ROOT
ATOM      1  C   UNL     1       4.818  -2.290   1.385  1.00  0.00     0.021 C 
ENDROOT
BRANCH   1   2
ATOM      2  C   UNL     1       4.550  -1.241   0.311  1.00  0.00     0.116 C 
BRANCH   2   3
ATOM      3  N   UNL     1       3.135  -1.055   0.052  1.00  0.00    -0.352 N 
ATOM      4  O   UNL     1       1.174   0.034  -0.109  1.00  0.00    -0.269 OA
ATOM      5  C   UNL     1       2.399   0.100  -0.019  1.00  0.00     0.251 C 
ATOM      6  H   UNL     1       2.625  -1.884  -0.096  1.00  0.00     0.163 HD
BRANCH   5   7
ATOM      7  C   UNL     1       3.053   1.429   0.019  1.00  0.00     0.039 A 
ATOM      8  C   UNL     1       2.426   2.460   0.728  1.00  0.00     0.014 A 
ATOM      9  C   UNL     1       4.225   1.694  -0.696  1.00  0.00     0.014 A 
ATOM     10  C   UNL     1       2.976   3.744   0.734  1.00  0.00     0.010 A 
ATOM     11  C   UNL     1       4.809   2.959  -0.638  1.00  0.00     0.010 A 
ATOM     12  C   UNL     1       4.174   4.003   0.052  1.00  0.00    -0.014 A 
BRANCH  12  13
ATOM     13  C   UNL     1       4.722   5.381  -0.037  1.00  0.00     0.031 A 
ATOM     14  C   UNL     1       4.728   6.091  -1.364  1.00  0.00     0.074 A 
ATOM     15  C   UNL     1       5.232   5.986   1.052  1.00  0.00     0.049 A 
ATOM     16  N   UNL     1       5.226   7.260  -1.679  1.00  0.00    -0.248 NA
ATOM     17  C   UNL     1       4.110   5.378  -2.494  1.00  0.00     0.031 C 
ATOM     18  C   UNL     1       5.299   5.406   2.393  1.00  0.00     0.029 A 
ATOM     19  N   UNL     1       5.797   7.228   1.196  1.00  0.00    -0.354 N 
ATOM     20  C   UNL     1       5.001   7.410  -3.042  1.00  0.00     0.074 A 
ATOM     21  C   UNL     1       4.364   6.196  -3.503  1.00  0.00     0.031 C 
ATOM     22  C   UNL     1       5.854   6.300   3.229  1.00  0.00     0.029 A 
ATOM     23  C   UNL     1       6.210   7.500   2.477  1.00  0.00     0.049 A 
ATOM     24  H   UNL     1       5.897   7.864   0.451  1.00  0.00     0.167 HD
ATOM     25  C   UNL     1       5.276   8.472  -3.837  1.00  0.00     0.037 A 
ATOM     26  C   UNL     1       6.811   8.593   2.983  1.00  0.00     0.037 A 
ATOM     27  C   UNL     1       5.872   9.697  -3.376  1.00  0.00     0.049 A 
ATOM     28  C   UNL     1       7.118   9.755   2.078  1.00  0.00     0.074 A 
ATOM     29  C   UNL     1       6.147  10.848  -4.093  1.00  0.00     0.029 A 
ATOM     30  N   UNL     1       6.277   9.931  -2.071  1.00  0.00    -0.354 N 
ATOM     31  N   UNL     1       6.873   9.895   0.798  1.00  0.00    -0.248 NA
ATOM     32  C   UNL     1       7.788  10.911   2.692  1.00  0.00     0.031 C 
ATOM     33  C   UNL     1       6.745  11.770  -3.226  1.00  0.00     0.029 A 
ATOM     34  C   UNL     1       6.813  11.203  -1.964  1.00  0.00     0.049 A 
ATOM     35  H   UNL     1       6.196   9.288  -1.330  1.00  0.00     0.167 HD
ATOM     36  C   UNL     1       7.338  11.159   0.459  1.00  0.00     0.074 A 
ATOM     37  C   UNL     1       7.866  11.751   1.670  1.00  0.00     0.031 C 
ATOM     38  C   UNL     1       7.331  11.775  -0.749  1.00  0.00     0.037 A 
BRANCH  25  39
ATOM     39  C   UNL     1       4.926   8.346  -5.290  1.00  0.00     0.057 A 
ATOM     40  C   UNL     1       5.928   8.200  -6.257  1.00  0.00     0.134 A 
ATOM     41  C   UNL     1       3.597   8.371  -5.732  1.00  0.00     0.134 A 
ATOM     42  F   UNL     1       7.221   8.171  -5.901  1.00  0.00    -0.206 F 
ATOM     43  C   UNL     1       5.619   8.076  -7.613  1.00  0.00     0.040 A 
ATOM     44  C   UNL     1       3.275   8.224  -7.082  1.00  0.00     0.040 A 
ATOM     45  F   UNL     1       2.591   8.492  -4.853  1.00  0.00    -0.206 F 
ATOM     46  C   UNL     1       4.288   8.079  -8.027  1.00  0.00     0.006 A 
ENDBRANCH  25  39
BRANCH  26  47
ATOM     47  C   UNL     1       7.151   8.658   4.426  1.00  0.00     0.057 A 
ATOM     48  C   UNL     1       8.205   7.912   4.964  1.00  0.00     0.134 A 
ATOM     49  C   UNL     1       6.442   9.497   5.293  1.00  0.00     0.134 A 
ATOM     50  F   UNL     1       8.921   7.089   4.184  1.00  0.00    -0.206 F 
ATOM     51  C   UNL     1       8.541   7.996   6.316  1.00  0.00     0.040 A 
ATOM     52  C   UNL     1       6.780   9.606   6.642  1.00  0.00     0.040 A 
ATOM     53  F   UNL     1       5.437  10.253   4.828  1.00  0.00    -0.206 F 
ATOM     54  C   UNL     1       7.832   8.851   7.158  1.00  0.00     0.006 A 
ENDBRANCH  26  47
BRANCH  38  55
ATOM     55  C   UNL     1       7.889  13.165  -0.806  1.00  0.00     0.057 A 
ATOM     56  C   UNL     1       7.040  14.270  -0.935  1.00  0.00     0.134 A 
ATOM     57  C   UNL     1       9.268  13.405  -0.755  1.00  0.00     0.134 A 
ATOM     58  F   UNL     1       5.711  14.106  -0.996  1.00  0.00    -0.206 F 
ATOM     59  C   UNL     1       7.545  15.570  -1.012  1.00  0.00     0.040 A 
ATOM     60  C   UNL     1       9.783  14.701  -0.808  1.00  0.00     0.040 A 
ATOM     61  F   UNL     1      10.130  12.387  -0.615  1.00  0.00    -0.206 F 
ATOM     62  C   UNL     1       8.919  15.788  -0.943  1.00  0.00     0.006 A 
ENDBRANCH  38  55
ENDBRANCH  12  13
ENDBRANCH   5   7
ENDBRANCH   2   3
ENDBRANCH   1   2
BRANCH   1  63
ATOM     63  C   UNL     1       4.342  -3.708   1.061  1.00  0.00     0.002 C 
BRANCH  63  64
ATOM     64  C   UNL     1       4.855  -4.306  -0.252  1.00  0.00     0.002 C 
BRANCH  64  65
ATOM     65  C   UNL     1       6.374  -4.297  -0.450  1.00  0.00     0.021 C 
BRANCH  65  66
ATOM     66  C   UNL     1       7.195  -4.923   0.675  1.00  0.00     0.116 C 
BRANCH  66  67
ATOM     67  N   UNL     1       6.865  -6.317   0.902  1.00  0.00    -0.352 N 
ATOM     68  C   UNL     1       7.705  -7.394   1.037  1.00  0.00     0.251 C 
ATOM     69  H   UNL     1       5.903  -6.518   0.968  1.00  0.00     0.163 HD
ATOM     70  O   UNL     1       7.241  -8.520   1.209  1.00  0.00    -0.269 OA
BRANCH  68  71
ATOM     71  C   UNL     1       9.171  -7.192   0.986  1.00  0.00     0.047 A 
ATOM     72  C   UNL     1       9.731  -6.394   1.989  1.00  0.00     0.014 A 
ATOM     73  C   UNL     1       9.974  -7.812  -0.011  1.00  0.00    -0.004 A 
ATOM     74  C   UNL     1      11.091  -6.150   1.982  1.00  0.00     0.002 A 
ATOM     75  C   UNL     1      11.375  -7.582  -0.021  1.00  0.00    -0.010 A 
ATOM     76  C   UNL     1       9.431  -8.652  -1.000  1.00  0.00     0.026 A 
ATOM     77  C   UNL     1      11.890  -6.727   0.993  1.00  0.00     0.009 A 
ATOM     78  C   UNL     1      12.206  -8.213  -1.023  1.00  0.00    -0.009 A 
ATOM     79  C   UNL     1      10.230  -9.273  -1.961  1.00  0.00     0.026 A 
ATOM     80  C   UNL     1      11.624  -9.075  -1.993  1.00  0.00    -0.004 A 
ATOM     81  C   UNL     1      13.613  -8.023  -1.093  1.00  0.00     0.009 A 
ATOM     82  Br  UNL     1       9.312 -10.393  -3.206  1.00  0.00    -0.050 Br
ATOM     83  C   UNL     1      12.466  -9.702  -2.948  1.00  0.00     0.010 A 
ATOM     84  C   UNL     1      14.418  -8.650  -2.047  1.00  0.00     0.001 A 
ATOM     85  C   UNL     1      13.844  -9.496  -2.975  1.00  0.00     0.001 A 
ENDBRANCH  68  71
ENDBRANCH  66  67
ENDBRANCH  65  66
ENDBRANCH  64  65
ENDBRANCH  63  64
ENDBRANCH   1  63
TORSDOF 13
