REMARK SMILES O=C(NCCCCCCNC(=O)c1ccc(-c2c3nc(c(-c4c(F)cccc4F)c4ccc([nH]4)c(-c4c(F)cccc4F)c4nc(c(-c5c(F)cccc5F)c5ccc2[nH]5)C=C4)C=C3)cc1)C1=NN(c2ccc(S(=O)(=O)[O-])cc2)C(=O)/C1=C\Nc1ccccc1
REMARK SMILES IDX 6 1 5 2 4 3 3 4 1 5 2 6 67 8 68 9 82 10 69 11 80 12 83 13
REMARK SMILES IDX 81 14 70 15 71 16 79 17 72 18 78 19 73 20 74 21 75 22 76 23
REMARK SMILES IDX 77 24 84 25 85 27 86 28 90 29 87 30 89 31 88 32 7 33 8 34
REMARK SMILES IDX 9 35 10 36 11 37 12 39 13 40 14 41 66 42 15 43 65 44 16 45
REMARK SMILES IDX 17 46 18 47 59 48 19 49 64 50 58 51 60 52 20 53 63 54 57 55
REMARK SMILES IDX 56 56 21 58 47 59 30 60 46 61 31 62 34 63 45 64 61 65 32 66
REMARK SMILES IDX 33 67 44 69 62 70 35 71 22 72 23 73 28 74 24 75 25 76 27 77
REMARK SMILES IDX 29 78 26 79 48 80 49 81 54 82 50 83 51 84 53 85 55 86 52 87
REMARK SMILES IDX 36 88 37 89 42 90 38 91 39 92 41 93 43 94 40 95
REMARK H PARENT 3 7 84 26 10 38 60 57 34 68
REMARK Flexibility Score: inf
ROOT
ATOM      1  C   UNL     1       4.243  -0.584   3.801  1.00  0.00     0.002 C 
ENDROOT
BRANCH   1   2
ATOM      2  C   UNL     1       4.748   0.357   2.703  1.00  0.00     0.021 C 
BRANCH   2   3
ATOM      3  C   UNL     1       4.488  -0.107   1.276  1.00  0.00     0.116 C 
BRANCH   3   4
ATOM      4  N   UNL     1       3.076  -0.205   0.959  1.00  0.00    -0.351 N 
ATOM      5  O   UNL     1       1.250  -0.066  -0.384  1.00  0.00    -0.267 OA
ATOM      6  C   UNL     1       2.439   0.156  -0.205  1.00  0.00     0.272 C 
ATOM      7  H   UNL     1       2.500  -0.576   1.666  1.00  0.00     0.163 HD
BRANCH   6   8
ATOM      8  C   UNL     1       3.231   0.795  -1.303  1.00  0.00     0.163 C 
ATOM      9  N   UNL     1       3.039   2.017  -1.736  1.00  0.00    -0.158 NA
ATOM     10  C   UNL     1       4.321   0.112  -2.004  1.00  0.00     0.091 C 
ATOM     11  N   UNL     1       3.958   2.185  -2.775  1.00  0.00    -0.196 N 
ATOM     12  C   UNL     1       4.836   1.108  -2.953  1.00  0.00     0.282 C 
ATOM     13  C   UNL     1       4.800  -1.125  -1.857  1.00  0.00     0.099 C 
ATOM     14  O   UNL     1       5.797   0.957  -3.688  1.00  0.00    -0.267 OA
BRANCH  11  15
ATOM     15  C   UNL     1       3.814   3.277  -3.655  1.00  0.00     0.069 A 
ATOM     16  C   UNL     1       3.264   4.493  -3.229  1.00  0.00     0.030 A 
ATOM     17  C   UNL     1       4.173   3.131  -5.005  1.00  0.00     0.030 A 
ATOM     18  C   UNL     1       3.113   5.556  -4.129  1.00  0.00     0.021 A 
ATOM     19  C   UNL     1       3.986   4.167  -5.917  1.00  0.00     0.021 A 
ATOM     20  C   UNL     1       3.472   5.382  -5.470  1.00  0.00     0.054 A 
BRANCH  20  21
ATOM     21  S   UNL     1       3.243   6.713  -6.612  1.00  0.00     0.124 S 
ATOM     22  O   UNL     1       1.858   7.123  -6.552  1.00  0.00    -0.237 OA
ATOM     23  O   UNL     1       4.324   7.652  -6.418  1.00  0.00    -0.237 OA
ATOM     24  O   UNL     1       3.466   6.072  -8.078  1.00  0.00    -0.744 OA
ENDBRANCH  20  21
ENDBRANCH  11  15
BRANCH  13  25
ATOM     25  N   UNL     1       5.948  -1.626  -2.414  1.00  0.00    -0.361 N 
ATOM     26  H   UNL     1       6.514  -0.983  -2.900  1.00  0.00     0.166 HD
BRANCH  25  27
ATOM     27  C   UNL     1       6.407  -2.947  -2.372  1.00  0.00     0.038 A 
ATOM     28  C   UNL     1       7.773  -3.191  -2.188  1.00  0.00     0.026 A 
ATOM     29  C   UNL     1       5.535  -4.038  -2.449  1.00  0.00     0.026 A 
ATOM     30  C   UNL     1       8.262  -4.497  -2.110  1.00  0.00     0.002 A 
ATOM     31  C   UNL     1       6.023  -5.345  -2.399  1.00  0.00     0.002 A 
ATOM     32  C   UNL     1       7.387  -5.574  -2.228  1.00  0.00     0.000 A 
ENDBRANCH  25  27
ENDBRANCH  13  25
ENDBRANCH   6   8
ENDBRANCH   3   4
ENDBRANCH   2   3
ENDBRANCH   1   2
BRANCH   1  33
ATOM     33  C   UNL     1       4.763  -2.024   3.744  1.00  0.00     0.002 C 
BRANCH  33  34
ATOM     34  C   UNL     1       6.284  -2.183   3.693  1.00  0.00     0.021 C 
BRANCH  34  35
ATOM     35  C   UNL     1       7.054  -1.479   4.805  1.00  0.00     0.116 C 
BRANCH  35  36
ATOM     36  N   UNL     1       6.714  -1.973   6.129  1.00  0.00    -0.352 N 
ATOM     37  C   UNL     1       7.539  -2.386   7.146  1.00  0.00     0.251 C 
ATOM     38  H   UNL     1       5.750  -2.018   6.325  1.00  0.00     0.163 HD
ATOM     39  O   UNL     1       7.064  -2.909   8.149  1.00  0.00    -0.269 OA
BRANCH  37  40
ATOM     40  C   UNL     1       9.005  -2.229   7.024  1.00  0.00     0.039 A 
ATOM     41  C   UNL     1       9.828  -3.295   7.397  1.00  0.00     0.014 A 
ATOM     42  C   UNL     1       9.570  -1.041   6.551  1.00  0.00     0.014 A 
ATOM     43  C   UNL     1      11.212  -3.194   7.235  1.00  0.00     0.010 A 
ATOM     44  C   UNL     1      10.942  -0.969   6.320  1.00  0.00     0.010 A 
ATOM     45  C   UNL     1      11.777  -2.044   6.660  1.00  0.00    -0.014 A 
BRANCH  45  46
ATOM     46  C   UNL     1      13.238  -1.952   6.403  1.00  0.00     0.031 A 
ATOM     47  C   UNL     1      14.070  -0.915   7.105  1.00  0.00     0.074 A 
ATOM     48  C   UNL     1      13.805  -2.762   5.488  1.00  0.00     0.049 A 
ATOM     49  N   UNL     1      15.341  -0.638   6.961  1.00  0.00    -0.248 NA
ATOM     50  C   UNL     1      13.374  -0.059   8.078  1.00  0.00     0.031 C 
ATOM     51  C   UNL     1      13.100  -3.776   4.703  1.00  0.00     0.029 A 
ATOM     52  N   UNL     1      15.105  -2.851   5.054  1.00  0.00    -0.354 N 
ATOM     53  C   UNL     1      15.595   0.425   7.819  1.00  0.00     0.074 A 
ATOM     54  C   UNL     1      14.334   0.783   8.431  1.00  0.00     0.031 C 
ATOM     55  C   UNL     1      13.976  -4.395   3.896  1.00  0.00     0.029 A 
ATOM     56  C   UNL     1      15.295  -3.797   4.077  1.00  0.00     0.049 A 
ATOM     57  H   UNL     1      15.831  -2.289   5.410  1.00  0.00     0.167 HD
ATOM     58  C   UNL     1      16.776   1.031   8.092  1.00  0.00     0.037 A 
ATOM     59  C   UNL     1      16.405  -4.138   3.394  1.00  0.00     0.037 A 
ATOM     60  C   UNL     1      18.032   0.668   7.488  1.00  0.00     0.049 A 
ATOM     61  C   UNL     1      17.701  -3.441   3.700  1.00  0.00     0.074 A 
ATOM     62  C   UNL     1      19.289   1.192   7.729  1.00  0.00     0.029 A 
ATOM     63  N   UNL     1      18.187  -0.309   6.515  1.00  0.00    -0.354 N 
ATOM     64  N   UNL     1      17.939  -2.480   4.560  1.00  0.00    -0.248 NA
ATOM     65  C   UNL     1      18.884  -3.881   2.948  1.00  0.00     0.031 C 
ATOM     66  C   UNL     1      20.198   0.566   6.869  1.00  0.00     0.029 A 
ATOM     67  C   UNL     1      19.516  -0.387   6.130  1.00  0.00     0.049 A 
ATOM     68  H   UNL     1      17.460  -0.865   6.151  1.00  0.00     0.167 HD
ATOM     69  C   UNL     1      19.300  -2.218   4.471  1.00  0.00     0.074 A 
ATOM     70  C   UNL     1      19.838  -3.132   3.485  1.00  0.00     0.031 C 
ATOM     71  C   UNL     1      20.038  -1.303   5.147  1.00  0.00     0.037 A 
BRANCH  58  72
ATOM     72  C   UNL     1      16.759   2.151   9.094  1.00  0.00     0.057 A 
ATOM     73  C   UNL     1      16.507   1.921  10.454  1.00  0.00     0.134 A 
ATOM     74  C   UNL     1      17.013   3.471   8.701  1.00  0.00     0.134 A 
ATOM     75  F   UNL     1      16.244   0.682  10.897  1.00  0.00    -0.206 F 
ATOM     76  C   UNL     1      16.473   2.966  11.379  1.00  0.00     0.040 A 
ATOM     77  C   UNL     1      17.014   4.520   9.621  1.00  0.00     0.040 A 
ATOM     78  F   UNL     1      17.270   3.762   7.417  1.00  0.00    -0.206 F 
ATOM     79  C   UNL     1      16.733   4.271  10.963  1.00  0.00     0.006 A 
ENDBRANCH  58  72
BRANCH  59  80
ATOM     80  C   UNL     1      16.337  -5.202   2.361  1.00  0.00     0.057 A 
ATOM     81  C   UNL     1      16.946  -6.447   2.562  1.00  0.00     0.134 A 
ATOM     82  C   UNL     1      15.660  -5.004   1.152  1.00  0.00     0.134 A 
ATOM     83  F   UNL     1      17.625  -6.691   3.692  1.00  0.00    -0.206 F 
ATOM     84  C   UNL     1      16.898  -7.450   1.592  1.00  0.00     0.040 A 
ATOM     85  C   UNL     1      15.581  -6.007   0.184  1.00  0.00     0.040 A 
ATOM     86  F   UNL     1      15.047  -3.837   0.902  1.00  0.00    -0.206 F 
ATOM     87  C   UNL     1      16.208  -7.232   0.401  1.00  0.00     0.006 A 
ENDBRANCH  59  80
BRANCH  71  88
ATOM     88  C   UNL     1      21.513  -1.264   4.865  1.00  0.00     0.057 A 
ATOM     89  C   UNL     1      22.025  -0.772   3.657  1.00  0.00     0.134 A 
ATOM     90  C   UNL     1      22.433  -1.691   5.831  1.00  0.00     0.134 A 
ATOM     91  F   UNL     1      21.197  -0.361   2.685  1.00  0.00    -0.206 F 
ATOM     92  C   UNL     1      23.398  -0.728   3.412  1.00  0.00     0.040 A 
ATOM     93  C   UNL     1      23.809  -1.625   5.608  1.00  0.00     0.040 A 
ATOM     94  F   UNL     1      22.011  -2.165   7.013  1.00  0.00    -0.206 F 
ATOM     95  C   UNL     1      24.295  -1.148   4.393  1.00  0.00     0.006 A 
ENDBRANCH  71  88
ENDBRANCH  45  46
ENDBRANCH  37  40
ENDBRANCH  35  36
ENDBRANCH  34  35
ENDBRANCH  33  34
ENDBRANCH   1  33
TORSDOF 17
