REMARK SMILES O=C(Cc1ccccc1C(=O)NCCCCCCNC(=O)c1ccc(-c2c3nc(c(-c4c(F)cccc4F)c4ccc([nH]4)c(-c4c(F)cccc4F)c4nc(c(-c5c(F)cccc5F)c5ccc2[nH]5)C=C4)C=C3)cc1)Nc1cccc(OC[C@@H]2CCCO2)c1
REMARK SMILES IDX 13 1 12 2 10 3 11 4 9 6 4 7 5 8 6 9 8 10 7 11 3 12 2 13 1 14
REMARK SMILES IDX 76 15 77 17 78 18 89 19 79 20 81 21 80 22 82 23 83 24 84 25
REMARK SMILES IDX 85 26 88 27 86 28 87 29 14 30 15 31 16 32 17 33 18 34 19 35
REMARK SMILES IDX 20 36 21 38 22 39 23 40 75 41 24 42 74 43 25 44 26 45 27 46
REMARK SMILES IDX 68 47 28 48 73 49 67 50 69 51 29 52 72 53 66 54 65 55 30 57
REMARK SMILES IDX 56 58 39 59 55 60 40 61 43 62 54 63 70 64 41 65 42 66 53 68
REMARK SMILES IDX 71 69 44 70 31 71 32 72 37 73 33 74 34 75 36 76 38 77 35 78
REMARK SMILES IDX 57 79 58 80 63 81 59 82 60 83 62 84 64 85 61 86 45 87 46 88
REMARK SMILES IDX 51 89 47 90 48 91 50 92 52 93 49 94
REMARK H PARENT 12 5 76 16 19 37 69 56 43 67
REMARK Flexibility Score: inf
ROOT
ATOM      1  C   UNL     1       1.629  -0.901   0.179  1.00  0.00     0.116 C 
ENDROOT
BRANCH   1   2
ATOM      2  N   UNL     1       1.975   0.165  -0.837  1.00  0.00    -0.352 N 
ATOM      3  C   UNL     1       2.776   0.476  -1.936  1.00  0.00     0.251 C 
ATOM      4  O   UNL     1       2.446   1.524  -2.515  1.00  0.00    -0.269 OA
ATOM      5  H   UNL     1       1.411   0.950  -0.647  1.00  0.00     0.163 HD
BRANCH   3   6
ATOM      6  C   UNL     1       3.944  -0.251  -2.573  1.00  0.00     0.043 A 
ATOM      7  C   UNL     1       5.076  -0.820  -1.965  1.00  0.00    -0.026 A 
ATOM      8  C   UNL     1       5.938  -1.664  -2.705  1.00  0.00     0.005 A 
ATOM      9  C   UNL     1       5.943  -1.608  -4.089  1.00  0.00     0.000 A 
ATOM     10  C   UNL     1       4.070  -0.093  -3.973  1.00  0.00     0.014 A 
ATOM     11  C   UNL     1       5.083  -0.722  -4.716  1.00  0.00     0.001 A 
BRANCH   7  12
ATOM     12  C   UNL     1       5.743  -0.191  -0.750  1.00  0.00     0.136 C 
BRANCH  12  13
ATOM     13  C   UNL     1       4.732   0.309   0.211  1.00  0.00     0.228 C 
ATOM     14  O   UNL     1       4.200  -0.636   0.771  1.00  0.00    -0.274 OA
ATOM     15  N   UNL     1       4.529   1.658   0.260  1.00  0.00    -0.326 N 
ATOM     16  H   UNL     1       5.354   2.128   0.000  1.00  0.00     0.169 HD
BRANCH  15  17
ATOM     17  C   UNL     1       3.494   2.621   0.570  1.00  0.00     0.044 A 
ATOM     18  C   UNL     1       3.951   3.926   0.353  1.00  0.00     0.026 A 
ATOM     19  C   UNL     1       2.113   2.512   0.893  1.00  0.00     0.072 A 
ATOM     20  C   UNL     1       3.120   5.043   0.445  1.00  0.00     0.006 A 
ATOM     21  C   UNL     1       1.248   3.639   0.991  1.00  0.00     0.121 A 
ATOM     22  C   UNL     1       1.779   4.900   0.764  1.00  0.00     0.046 A 
BRANCH  21  23
ATOM     23  O   UNL     1      -0.128   3.660   1.087  1.00  0.00    -0.491 OA
BRANCH  23  24
ATOM     24  C   UNL     1      -0.817   2.827   2.025  1.00  0.00     0.261 C 
BRANCH  24  25
ATOM     25  C   UNL     1      -2.207   2.359   1.493  1.00  0.00     0.156 C 
ATOM     26  C   UNL     1      -2.743   1.026   2.021  1.00  0.00     0.038 C 
ATOM     27  O   UNL     1      -2.216   2.233   0.066  1.00  0.00    -0.375 OA
ATOM     28  C   UNL     1      -2.536   0.028   0.895  1.00  0.00     0.031 C 
ATOM     29  C   UNL     1      -2.125   0.861  -0.297  1.00  0.00     0.161 C 
ENDBRANCH  24  25
ENDBRANCH  23  24
ENDBRANCH  21  23
ENDBRANCH  15  17
ENDBRANCH  12  13
ENDBRANCH   7  12
ENDBRANCH   3   6
ENDBRANCH   1   2
BRANCH   1  30
ATOM     30  C   UNL     1       2.019  -0.977   1.752  1.00  0.00     0.021 C 
BRANCH  30  31
ATOM     31  C   UNL     1       1.606  -0.035   2.886  1.00  0.00     0.002 C 
BRANCH  31  32
ATOM     32  C   UNL     1       0.145  -0.141   3.191  1.00  0.00     0.002 C 
BRANCH  32  33
ATOM     33  C   UNL     1      -0.252  -1.480   3.761  1.00  0.00     0.021 C 
BRANCH  33  34
ATOM     34  C   UNL     1       0.368  -1.661   5.129  1.00  0.00     0.116 C 
BRANCH  34  35
ATOM     35  N   UNL     1      -0.200  -0.695   6.070  1.00  0.00    -0.352 N 
ATOM     36  C   UNL     1      -1.269  -0.898   6.918  1.00  0.00     0.251 C 
ATOM     37  H   UNL     1       0.226   0.192   6.101  1.00  0.00     0.163 HD
ATOM     38  O   UNL     1      -1.952   0.011   7.328  1.00  0.00    -0.269 OA
BRANCH  36  39
ATOM     39  C   UNL     1      -1.526  -2.301   7.294  1.00  0.00     0.039 A 
ATOM     40  C   UNL     1      -2.818  -2.817   7.291  1.00  0.00     0.014 A 
ATOM     41  C   UNL     1      -0.419  -3.119   7.521  1.00  0.00     0.014 A 
ATOM     42  C   UNL     1      -2.984  -4.189   7.474  1.00  0.00     0.010 A 
ATOM     43  C   UNL     1      -0.575  -4.484   7.475  1.00  0.00     0.010 A 
ATOM     44  C   UNL     1      -1.859  -5.031   7.535  1.00  0.00    -0.014 A 
BRANCH  44  45
ATOM     45  C   UNL     1      -1.966  -6.486   7.767  1.00  0.00     0.031 A 
ATOM     46  C   UNL     1      -1.249  -7.081   8.954  1.00  0.00     0.074 A 
ATOM     47  C   UNL     1      -2.621  -7.259   6.884  1.00  0.00     0.049 A 
ATOM     48  N   UNL     1      -1.117  -8.335   9.297  1.00  0.00    -0.248 NA
ATOM     49  C   UNL     1      -0.523  -6.148   9.839  1.00  0.00     0.031 C 
ATOM     50  C   UNL     1      -3.267  -6.793   5.654  1.00  0.00     0.029 A 
ATOM     51  N   UNL     1      -2.854  -8.607   6.890  1.00  0.00    -0.354 N 
ATOM     52  C   UNL     1      -0.270  -8.331  10.398  1.00  0.00     0.074 A 
ATOM     53  C   UNL     1       0.171  -6.974  10.601  1.00  0.00     0.031 C 
ATOM     54  C   UNL     1      -3.874  -7.830   5.057  1.00  0.00     0.029 A 
ATOM     55  C   UNL     1      -3.625  -9.036   5.838  1.00  0.00     0.049 A 
ATOM     56  H   UNL     1      -2.502  -9.213   7.582  1.00  0.00     0.167 HD
ATOM     57  C   UNL     1       0.065  -9.359  11.210  1.00  0.00     0.037 A 
ATOM     58  C   UNL     1      -4.084 -10.268   5.556  1.00  0.00     0.037 A 
ATOM     59  C   UNL     1      -0.445 -10.688  11.036  1.00  0.00     0.049 A 
ATOM     60  C   UNL     1      -3.744 -11.388   6.500  1.00  0.00     0.074 A 
ATOM     61  C   UNL     1      -0.254 -11.799  11.833  1.00  0.00     0.029 A 
ATOM     62  N   UNL     1      -1.267 -11.076   9.986  1.00  0.00    -0.354 N 
ATOM     63  N   UNL     1      -3.011 -11.359   7.588  1.00  0.00    -0.248 NA
ATOM     64  C   UNL     1      -4.305 -12.707   6.184  1.00  0.00     0.031 C 
ATOM     65  C   UNL     1      -0.927 -12.873  11.241  1.00  0.00     0.029 A 
ATOM     66  C   UNL     1      -1.579 -12.417  10.104  1.00  0.00     0.049 A 
ATOM     67  H   UNL     1      -1.581 -10.483   9.265  1.00  0.00     0.167 HD
ATOM     68  C   UNL     1      -3.041 -12.649   8.101  1.00  0.00     0.074 A 
ATOM     69  C   UNL     1      -3.885 -13.426   7.215  1.00  0.00     0.031 C 
ATOM     70  C   UNL     1      -2.426 -13.152   9.201  1.00  0.00     0.037 A 
BRANCH  57  71
ATOM     71  C   UNL     1       0.994  -9.065  12.354  1.00  0.00     0.057 A 
ATOM     72  C   UNL     1       0.619  -8.238  13.424  1.00  0.00     0.134 A 
ATOM     73  C   UNL     1       2.284  -9.608  12.384  1.00  0.00     0.134 A 
ATOM     74  F   UNL     1      -0.595  -7.666  13.450  1.00  0.00    -0.206 F 
ATOM     75  C   UNL     1       1.504  -7.932  14.459  1.00  0.00     0.040 A 
ATOM     76  C   UNL     1       3.166  -9.337  13.432  1.00  0.00     0.040 A 
ATOM     77  F   UNL     1       2.711 -10.405  11.394  1.00  0.00    -0.206 F 
ATOM     78  C   UNL     1       2.781  -8.488  14.468  1.00  0.00     0.006 A 
ENDBRANCH  57  71
BRANCH  58  79
ATOM     79  C   UNL     1      -4.951 -10.487   4.371  1.00  0.00     0.057 A 
ATOM     80  C   UNL     1      -6.309 -10.793   4.517  1.00  0.00     0.134 A 
ATOM     81  C   UNL     1      -4.452 -10.386   3.067  1.00  0.00     0.134 A 
ATOM     82  F   UNL     1      -6.846 -10.912   5.741  1.00  0.00    -0.206 F 
ATOM     83  C   UNL     1      -7.134 -11.015   3.413  1.00  0.00     0.040 A 
ATOM     84  C   UNL     1      -5.271 -10.580   1.953  1.00  0.00     0.040 A 
ATOM     85  F   UNL     1      -3.163 -10.079   2.856  1.00  0.00    -0.206 F 
ATOM     86  C   UNL     1      -6.615 -10.904   2.125  1.00  0.00     0.006 A 
ENDBRANCH  58  79
BRANCH  70  87
ATOM     87  C   UNL     1      -2.671 -14.598   9.510  1.00  0.00     0.057 A 
ATOM     88  C   UNL     1      -2.123 -15.622   8.729  1.00  0.00     0.134 A 
ATOM     89  C   UNL     1      -3.436 -14.966  10.624  1.00  0.00     0.134 A 
ATOM     90  F   UNL     1      -1.390 -15.332   7.643  1.00  0.00    -0.206 F 
ATOM     91  C   UNL     1      -2.354 -16.965   9.027  1.00  0.00     0.040 A 
ATOM     92  C   UNL     1      -3.646 -16.305  10.951  1.00  0.00     0.040 A 
ATOM     93  F   UNL     1      -3.975 -14.031  11.421  1.00  0.00    -0.206 F 
ATOM     94  C   UNL     1      -3.111 -17.308  10.146  1.00  0.00     0.006 A 
ENDBRANCH  70  87
ENDBRANCH  44  45
ENDBRANCH  36  39
ENDBRANCH  34  35
ENDBRANCH  33  34
ENDBRANCH  32  33
ENDBRANCH  31  32
ENDBRANCH  30  31
ENDBRANCH   1  30
TORSDOF 19
