REMARK SMILES [NH3+][C@@H]1CCCCC[C@H]1C(=O)N1[C@@H](C2CC2)SC[C@H]1C(=O)NCCCCCCNC(=O)c1ccc(-c2c3nc(c(-c4c(F)cccc4F)c4ccc([nH]4)c(-c4c(F)cccc4F)c4nc(c(-c5c(F)cccc5F)c5ccc2[nH]5)C=C4)C=C3)cc1
REMARK SMILES IDX 23 1 22 2 21 3 19 4 20 5 18 7 11 8 12 9 16 10 17 11 9 12
REMARK SMILES IDX 10 13 8 14 2 15 1 16 3 20 4 21 7 23 6 24 5 25 13 27 14 28
REMARK SMILES IDX 15 29 24 30 25 31 26 32 27 33 28 34 29 35 30 37 31 38 32 39
REMARK SMILES IDX 84 40 33 41 83 42 34 43 35 44 36 45 77 46 37 47 82 48 76 49
REMARK SMILES IDX 78 50 38 51 81 52 75 53 74 54 39 56 65 57 48 58 64 59 49 60
REMARK SMILES IDX 52 61 63 62 79 63 50 64 51 65 62 67 80 68 53 69 40 70 41 71
REMARK SMILES IDX 46 72 42 73 43 74 45 75 47 76 44 77 66 78 67 79 72 80 68 81
REMARK SMILES IDX 69 82 71 83 73 84 70 85 54 86 55 87 60 88 56 89 57 90 59 91
REMARK SMILES IDX 61 92 58 93
REMARK H PARENT 21 6 1 17 1 18 1 19 28 36 78 55 52 66
REMARK Flexibility Score: 90.00
ROOT
ATOM      1  C   UNL     1      -0.958   4.477  -1.940  1.00  0.00     0.021 C 
ENDROOT
BRANCH   1   2
ATOM      2  C   UNL     1      -1.641   3.887  -3.171  1.00  0.00     0.116 C 
BRANCH   2   3
ATOM      3  N   UNL     1      -0.734   3.605  -4.256  1.00  0.00    -0.354 N 
ATOM      4  C   UNL     1      -0.491   2.421  -4.885  1.00  0.00     0.243 C 
ATOM      5  O   UNL     1       0.065   2.482  -5.989  1.00  0.00    -0.273 OA
ATOM      6  H   UNL     1      -0.219   4.375  -4.588  1.00  0.00     0.163 HD
BRANCH   4   7
ATOM      7  C   UNL     1      -1.059   1.069  -4.392  1.00  0.00     0.185 C 
ATOM      8  N   UNL     1      -0.934   0.686  -2.971  1.00  0.00    -0.317 N 
ATOM      9  C   UNL     1      -2.129   0.083  -2.388  1.00  0.00     0.147 C 
ATOM     10  S   UNL     1      -3.200  -0.344  -3.773  1.00  0.00    -0.134 SA
ATOM     11  C   UNL     1      -2.514   0.944  -4.834  1.00  0.00     0.107 C 
BRANCH   8  12
ATOM     12  C   UNL     1       0.367   0.525  -2.519  1.00  0.00     0.233 C 
ATOM     13  O   UNL     1       1.220   1.374  -2.806  1.00  0.00    -0.274 OA
BRANCH  12  14
ATOM     14  C   UNL     1       0.839  -0.811  -1.908  1.00  0.00     0.136 C 
BRANCH  14  15
ATOM     15  C   UNL     1       0.434  -1.080  -0.445  1.00  0.00     0.193 C 
BRANCH  15  16
ATOM     16  N   UNL     1       0.958  -0.012   0.421  1.00  0.00    -0.354 N 
ATOM     17  H   UNL     1       0.688  -0.195   1.388  1.00  0.00     0.344 HD
ATOM     18  H   UNL     1       0.575   0.885   0.125  1.00  0.00     0.344 HD
ATOM     19  H   UNL     1       1.976   0.013   0.352  1.00  0.00     0.344 HD
ENDBRANCH  15  16
BRANCH  15  20
ATOM     20  C   UNL     1       0.925  -2.437   0.107  1.00  0.00     0.066 C 
BRANCH  20  21
ATOM     21  C   UNL     1       0.217  -3.637  -0.523  1.00  0.00     0.006 CG0
ATOM     22  G   UNL     1       0.887  -4.192  -1.775  1.00  0.00     0.000 G0
ENDBRANCH  20  21
ENDBRANCH  15  20
ENDBRANCH  14  15
BRANCH  14  23
ATOM     23  C   UNL     1       0.554  -1.936  -2.928  1.00  0.00     0.020 C 
BRANCH  23  24
ATOM     24  C   UNL     1       1.444  -3.162  -2.748  1.00  0.00     0.001 C 
BRANCH  24  25
ATOM     25  C   UNL     1       0.887  -4.192  -1.775  1.00  0.00     0.000 CG0
ATOM     26  G   UNL     1       0.217  -3.637  -0.523  1.00  0.00     0.000 G0
ENDBRANCH  24  25
ENDBRANCH  23  24
ENDBRANCH  14  23
ENDBRANCH  12  14
ENDBRANCH   8  12
BRANCH   9  27
ATOM     27  C   UNL     1      -2.730   1.032  -1.375  1.00  0.00     0.022 C 
ATOM     28  C   UNL     1      -4.025   1.809  -1.558  1.00  0.00     0.007 C 
ATOM     29  C   UNL     1      -3.967   0.678  -0.577  1.00  0.00     0.007 C 
ENDBRANCH   9  27
ENDBRANCH   4   7
ENDBRANCH   2   3
ENDBRANCH   1   2
BRANCH   1  30
ATOM     30  C   UNL     1      -1.072   6.002  -1.832  1.00  0.00     0.002 C 
BRANCH  30  31
ATOM     31  C   UNL     1      -2.500   6.564  -1.753  1.00  0.00     0.002 C 
BRANCH  31  32
ATOM     32  C   UNL     1      -3.375   6.026  -0.617  1.00  0.00     0.021 C 
BRANCH  32  33
ATOM     33  C   UNL     1      -2.859   6.287   0.796  1.00  0.00     0.116 C 
BRANCH  33  34
ATOM     34  N   UNL     1      -2.724   7.706   1.080  1.00  0.00    -0.352 N 
ATOM     35  C   UNL     1      -3.277   8.487   2.061  1.00  0.00     0.251 C 
ATOM     36  H   UNL     1      -2.132   8.190   0.459  1.00  0.00     0.163 HD
ATOM     37  O   UNL     1      -3.157   9.708   1.990  1.00  0.00    -0.269 OA
BRANCH  35  38
ATOM     38  C   UNL     1      -4.018   7.899   3.203  1.00  0.00     0.039 A 
ATOM     39  C   UNL     1      -5.113   8.605   3.715  1.00  0.00     0.014 A 
ATOM     40  C   UNL     1      -3.604   6.722   3.833  1.00  0.00     0.014 A 
ATOM     41  C   UNL     1      -5.805   8.121   4.829  1.00  0.00     0.010 A 
ATOM     42  C   UNL     1      -4.338   6.202   4.901  1.00  0.00     0.010 A 
ATOM     43  C   UNL     1      -5.432   6.907   5.424  1.00  0.00    -0.014 A 
BRANCH  43  44
ATOM     44  C   UNL     1      -6.147   6.393   6.621  1.00  0.00     0.031 A 
ATOM     45  C   UNL     1      -5.437   6.295   7.945  1.00  0.00     0.074 A 
ATOM     46  C   UNL     1      -7.426   5.984   6.516  1.00  0.00     0.049 A 
ATOM     47  N   UNL     1      -5.880   5.844   9.092  1.00  0.00    -0.248 NA
ATOM     48  C   UNL     1      -4.035   6.740   7.978  1.00  0.00     0.031 C 
ATOM     49  C   UNL     1      -8.217   5.985   5.285  1.00  0.00     0.029 A 
ATOM     50  N   UNL     1      -8.285   5.484   7.463  1.00  0.00    -0.354 N 
ATOM     51  C   UNL     1      -4.809   5.931   9.973  1.00  0.00     0.074 A 
ATOM     52  C   UNL     1      -3.682   6.434   9.218  1.00  0.00     0.031 C 
ATOM     53  C   UNL     1      -9.452   5.532   5.556  1.00  0.00     0.029 A 
ATOM     54  C   UNL     1      -9.533   5.185   6.972  1.00  0.00     0.049 A 
ATOM     55  H   UNL     1      -8.031   5.352   8.405  1.00  0.00     0.167 HD
ATOM     56  C   UNL     1      -4.771   5.642  11.296  1.00  0.00     0.037 A 
ATOM     57  C   UNL     1     -10.620   4.692   7.595  1.00  0.00     0.037 A 
ATOM     58  C   UNL     1      -5.900   5.180  12.059  1.00  0.00     0.049 A 
ATOM     59  C   UNL     1     -10.563   4.409   9.070  1.00  0.00     0.074 A 
ATOM     60  C   UNL     1      -5.976   4.914  13.415  1.00  0.00     0.029 A 
ATOM     61  N   UNL     1      -7.156   4.923  11.530  1.00  0.00    -0.354 N 
ATOM     62  N   UNL     1      -9.559   4.550   9.900  1.00  0.00    -0.248 NA
ATOM     63  C   UNL     1     -11.795   3.908   9.696  1.00  0.00     0.031 C 
ATOM     64  C   UNL     1      -7.271   4.468  13.703  1.00  0.00     0.029 A 
ATOM     65  C   UNL     1      -8.010   4.492  12.531  1.00  0.00     0.049 A 
ATOM     66  H   UNL     1      -7.403   5.030  10.584  1.00  0.00     0.167 HD
ATOM     67  C   UNL     1     -10.044   4.184  11.149  1.00  0.00     0.074 A 
ATOM     68  C   UNL     1     -11.436   3.825  10.969  1.00  0.00     0.031 C 
ATOM     69  C   UNL     1      -9.396   4.149  12.338  1.00  0.00     0.037 A 
BRANCH  56  70
ATOM     70  C   UNL     1      -3.461   5.827  12.004  1.00  0.00     0.057 A 
ATOM     71  C   UNL     1      -2.941   7.101  12.273  1.00  0.00     0.134 A 
ATOM     72  C   UNL     1      -2.722   4.722  12.444  1.00  0.00     0.134 A 
ATOM     73  F   UNL     1      -3.594   8.200  11.867  1.00  0.00    -0.206 F 
ATOM     74  C   UNL     1      -1.720   7.268  12.928  1.00  0.00     0.040 A 
ATOM     75  C   UNL     1      -1.512   4.877  13.123  1.00  0.00     0.040 A 
ATOM     76  F   UNL     1      -3.165   3.475  12.225  1.00  0.00    -0.206 F 
ATOM     77  C   UNL     1      -1.005   6.153  13.360  1.00  0.00     0.006 A 
ENDBRANCH  56  70
BRANCH  57  78
ATOM     78  C   UNL     1     -11.873   4.472   6.832  1.00  0.00     0.057 A 
ATOM     79  C   UNL     1     -12.980   5.309   7.011  1.00  0.00     0.134 A 
ATOM     80  C   UNL     1     -11.996   3.424   5.913  1.00  0.00     0.134 A 
ATOM     81  F   UNL     1     -12.927   6.319   7.892  1.00  0.00    -0.206 F 
ATOM     82  C   UNL     1     -14.173   5.101   6.318  1.00  0.00     0.040 A 
ATOM     83  C   UNL     1     -13.176   3.217   5.197  1.00  0.00     0.040 A 
ATOM     84  F   UNL     1     -10.968   2.592   5.693  1.00  0.00    -0.206 F 
ATOM     85  C   UNL     1     -14.271   4.054   5.403  1.00  0.00     0.006 A 
ENDBRANCH  57  78
BRANCH  69  86
ATOM     86  C   UNL     1     -10.194   3.744  13.541  1.00  0.00     0.057 A 
ATOM     87  C   UNL     1     -10.573   2.414  13.762  1.00  0.00     0.134 A 
ATOM     88  C   UNL     1     -10.561   4.692  14.504  1.00  0.00     0.134 A 
ATOM     89  F   UNL     1     -10.262   1.461  12.870  1.00  0.00    -0.206 F 
ATOM     90  C   UNL     1     -11.310   2.045  14.889  1.00  0.00     0.040 A 
ATOM     91  C   UNL     1     -11.278   4.332  15.645  1.00  0.00     0.040 A 
ATOM     92  F   UNL     1     -10.222   5.981  14.354  1.00  0.00    -0.206 F 
ATOM     93  C   UNL     1     -11.659   3.005  15.837  1.00  0.00     0.006 A 
ENDBRANCH  69  86
ENDBRANCH  43  44
ENDBRANCH  35  38
ENDBRANCH  33  34
ENDBRANCH  32  33
ENDBRANCH  31  32
ENDBRANCH  30  31
ENDBRANCH   1  30
TORSDOF 17
