REMARK SMILES Cc1ccc(-c2c(C)sc(NC(=O)[C@H]3CC=CC[C@H]3C(=O)NCCCCCCNC(=O)c3ccc(-c4c5nc(c(-c6c(F)cccc6F)c6ccc([nH]6)c(-c6c(F)cccc6F)c6nc(c(-c7c(F)cccc7F)c7ccc4[nH]7)C=C6)C=C5)cc3)c2C(N)=O)cc1
REMARK SMILES IDX 25 1 24 2 23 3 22 4 20 5 21 6 19 8 14 9 15 10 16 11 18 12
REMARK SMILES IDX 17 13 12 14 11 15 13 17 10 18 6 19 7 20 86 21 8 22 9 23 5 24
REMARK SMILES IDX 1 25 2 26 3 27 91 28 4 29 90 30 87 31 88 32 89 33 26 36
REMARK SMILES IDX 27 37 28 38 29 39 30 40 31 42 32 43 33 44 85 45 34 46 84 47
REMARK SMILES IDX 35 48 36 49 37 50 78 51 38 52 83 53 77 54 79 55 39 56 82 57
REMARK SMILES IDX 76 58 75 59 40 61 66 62 49 63 65 64 50 65 53 66 64 67 80 68
REMARK SMILES IDX 51 69 52 70 63 72 81 73 54 74 41 75 42 76 47 77 43 78 44 79
REMARK SMILES IDX 46 80 48 81 45 82 67 83 68 84 73 85 69 86 70 87 72 88 74 89
REMARK SMILES IDX 71 90 55 91 56 92 61 93 57 94 58 95 60 96 62 97 59 98
REMARK H PARENT 22 7 11 16 88 34 88 35 29 41 79 60 53 71
REMARK Flexibility Score: inf
ROOT
ATOM      1  C   UNL     1      -9.113  -4.386   2.854  1.00  0.00     0.002 C 
ENDROOT
BRANCH   1   2
ATOM      2  C   UNL     1      -8.493  -3.058   2.406  1.00  0.00     0.021 C 
BRANCH   2   3
ATOM      3  C   UNL     1      -7.827  -3.128   1.033  1.00  0.00     0.116 C 
BRANCH   3   4
ATOM      4  N   UNL     1      -8.829  -3.130   0.010  1.00  0.00    -0.356 N 
ATOM      5  C   UNL     1      -9.197  -2.143  -0.831  1.00  0.00     0.224 C 
ATOM      6  O   UNL     1     -10.252  -2.310  -1.449  1.00  0.00    -0.275 OA
ATOM      7  H   UNL     1      -9.321  -3.976  -0.095  1.00  0.00     0.163 HD
BRANCH   5   8
ATOM      8  C   UNL     1      -8.335  -0.922  -1.100  1.00  0.00     0.095 C 
ATOM      9  C   UNL     1      -8.303   0.271  -0.122  1.00  0.00     0.095 C 
ATOM     10  C   UNL     1      -7.925   1.526  -0.937  1.00  0.00     0.041 C 
ATOM     11  C   UNL     1      -6.934   1.266  -2.057  1.00  0.00    -0.030 C 
ATOM     12  C   UNL     1      -6.984  -1.216  -1.740  1.00  0.00     0.041 C 
ATOM     13  C   UNL     1      -6.470   0.044  -2.381  1.00  0.00    -0.030 C 
BRANCH   9  14
ATOM     14  C   UNL     1      -7.682   0.152   1.302  1.00  0.00     0.229 C 
ATOM     15  N   UNL     1      -6.390  -0.034   1.705  1.00  0.00    -0.317 N 
ATOM     16  H   UNL     1      -6.316  -0.386   2.621  1.00  0.00     0.170 HD
ATOM     17  O   UNL     1      -8.483   0.116   2.257  1.00  0.00    -0.274 OA
BRANCH  15  18
ATOM     18  C   UNL     1      -5.169   0.168   1.099  1.00  0.00     0.109 A 
ATOM     19  C   UNL     1      -2.950   0.202   0.361  1.00  0.00     0.010 A 
ATOM     20  C   UNL     1      -3.587   1.093  -0.492  1.00  0.00     0.012 A 
ATOM     21  C   UNL     1      -3.896  -0.367   1.335  1.00  0.00     0.082 A 
ATOM     22  C   UNL     1      -3.180   1.705  -1.791  1.00  0.00     0.057 C 
ATOM     23  S   UNL     1      -4.993   1.643   0.280  1.00  0.00    -0.122 S 
BRANCH  19  24
ATOM     24  C   UNL     1      -1.501   0.033   0.244  1.00  0.00    -0.016 A 
ATOM     25  C   UNL     1       2.796  -0.194  -0.084  1.00  0.00     0.044 C 
ATOM     26  C   UNL     1       1.302  -0.115   0.001  1.00  0.00    -0.051 A 
ATOM     27  C   UNL     1       0.512  -1.273  -0.070  1.00  0.00     0.004 A 
ATOM     28  C   UNL     1       0.680   1.118   0.197  1.00  0.00     0.004 A 
ATOM     29  C   UNL     1      -0.885  -1.201   0.040  1.00  0.00     0.009 A 
ATOM     30  C   UNL     1      -0.702   1.186   0.334  1.00  0.00     0.009 A 
ENDBRANCH  19  24
BRANCH  21  31
ATOM     31  C   UNL     1      -3.514  -1.337   2.371  1.00  0.00     0.252 C 
ATOM     32  N   UNL     1      -4.512  -1.987   3.046  1.00  0.00    -0.365 N 
ATOM     33  O   UNL     1      -2.363  -1.606   2.671  1.00  0.00    -0.269 OA
ATOM     34  H   UNL     1      -5.455  -1.798   2.833  1.00  0.00     0.159 HD
ATOM     35  H   UNL     1      -4.288  -2.644   3.744  1.00  0.00     0.159 HD
ENDBRANCH  21  31
ENDBRANCH  15  18
ENDBRANCH   9  14
ENDBRANCH   5   8
ENDBRANCH   3   4
ENDBRANCH   2   3
ENDBRANCH   1   2
BRANCH   1  36
ATOM     36  C   UNL     1      -8.165  -5.593   2.811  1.00  0.00     0.002 C 
BRANCH  36  37
ATOM     37  C   UNL     1      -6.775  -5.353   3.398  1.00  0.00     0.021 C 
BRANCH  37  38
ATOM     38  C   UNL     1      -6.796  -5.062   4.885  1.00  0.00     0.116 C 
BRANCH  38  39
ATOM     39  N   UNL     1      -6.895  -6.262   5.690  1.00  0.00    -0.352 N 
ATOM     40  C   UNL     1      -6.792  -6.441   7.052  1.00  0.00     0.251 C 
ATOM     41  H   UNL     1      -7.064  -7.087   5.179  1.00  0.00     0.163 HD
ATOM     42  O   UNL     1      -6.726  -7.588   7.489  1.00  0.00    -0.269 OA
BRANCH  40  43
ATOM     43  C   UNL     1      -6.987  -5.304   7.991  1.00  0.00     0.039 A 
ATOM     44  C   UNL     1      -7.666  -5.612   9.180  1.00  0.00     0.014 A 
ATOM     45  C   UNL     1      -6.911  -3.987   7.559  1.00  0.00     0.014 A 
ATOM     46  C   UNL     1      -8.549  -4.687   9.714  1.00  0.00     0.010 A 
ATOM     47  C   UNL     1      -7.880  -3.120   7.982  1.00  0.00     0.010 A 
ATOM     48  C   UNL     1      -8.740  -3.510   9.006  1.00  0.00    -0.014 A 
BRANCH  48  49
ATOM     49  C   UNL     1      -9.789  -2.558   9.271  1.00  0.00     0.031 A 
ATOM     50  C   UNL     1      -9.468  -1.460  10.184  1.00  0.00     0.074 A 
ATOM     51  C   UNL     1     -10.903  -2.627   8.513  1.00  0.00     0.049 A 
ATOM     52  N   UNL     1     -10.329  -0.810  10.875  1.00  0.00    -0.248 NA
ATOM     53  C   UNL     1      -8.090  -1.045  10.439  1.00  0.00     0.031 C 
ATOM     54  C   UNL     1     -11.945  -1.629   8.331  1.00  0.00     0.029 A 
ATOM     55  N   UNL     1     -11.392  -3.759   7.850  1.00  0.00    -0.354 N 
ATOM     56  C   UNL     1      -9.686   0.309  11.360  1.00  0.00     0.074 A 
ATOM     57  C   UNL     1      -8.281   0.032  11.201  1.00  0.00     0.031 C 
ATOM     58  C   UNL     1     -13.057  -2.242   7.882  1.00  0.00     0.029 A 
ATOM     59  C   UNL     1     -12.798  -3.674   7.907  1.00  0.00     0.049 A 
ATOM     60  H   UNL     1     -10.860  -4.472   7.428  1.00  0.00     0.167 HD
ATOM     61  C   UNL     1     -10.441   1.409  11.642  1.00  0.00     0.037 A 
ATOM     62  C   UNL     1     -13.499  -4.582   8.652  1.00  0.00     0.037 A 
ATOM     63  C   UNL     1     -11.856   1.095  11.418  1.00  0.00     0.049 A 
ATOM     64  C   UNL     1     -14.178  -3.941   9.841  1.00  0.00     0.074 A 
ATOM     65  C   UNL     1     -12.684   1.316  10.328  1.00  0.00     0.029 A 
ATOM     66  N   UNL     1     -12.478   0.124  12.196  1.00  0.00    -0.354 N 
ATOM     67  N   UNL     1     -13.773  -2.831  10.398  1.00  0.00    -0.248 NA
ATOM     68  C   UNL     1     -15.379  -4.479  10.472  1.00  0.00     0.031 C 
ATOM     69  C   UNL     1     -13.775   0.414  10.420  1.00  0.00     0.029 A 
ATOM     70  C   UNL     1     -13.621  -0.339  11.572  1.00  0.00     0.049 A 
ATOM     71  H   UNL     1     -12.150  -0.189  13.069  1.00  0.00     0.167 HD
ATOM     72  C   UNL     1     -14.619  -2.499  11.424  1.00  0.00     0.074 A 
ATOM     73  C   UNL     1     -15.610  -3.560  11.425  1.00  0.00     0.031 C 
ATOM     74  C   UNL     1     -14.441  -1.377  12.183  1.00  0.00     0.037 A 
BRANCH  61  75
ATOM     75  C   UNL     1      -9.920   2.826  11.773  1.00  0.00     0.057 A 
ATOM     76  C   UNL     1     -10.792   3.918  11.580  1.00  0.00     0.134 A 
ATOM     77  C   UNL     1      -8.590   3.203  12.035  1.00  0.00     0.134 A 
ATOM     78  F   UNL     1     -12.110   3.748  11.409  1.00  0.00    -0.206 F 
ATOM     79  C   UNL     1     -10.364   5.252  11.556  1.00  0.00     0.040 A 
ATOM     80  C   UNL     1      -8.141   4.533  11.984  1.00  0.00     0.040 A 
ATOM     81  F   UNL     1      -7.659   2.324  12.411  1.00  0.00    -0.206 F 
ATOM     82  C   UNL     1      -9.028   5.565  11.734  1.00  0.00     0.006 A 
ENDBRANCH  61  75
BRANCH  62  83
ATOM     83  C   UNL     1     -12.848  -5.927   8.643  1.00  0.00     0.057 A 
ATOM     84  C   UNL     1     -12.742  -6.592   7.405  1.00  0.00     0.134 A 
ATOM     85  C   UNL     1     -11.949  -6.309   9.645  1.00  0.00     0.134 A 
ATOM     86  F   UNL     1     -13.589  -6.292   6.407  1.00  0.00    -0.206 F 
ATOM     87  C   UNL     1     -11.680  -7.454   7.117  1.00  0.00     0.040 A 
ATOM     88  C   UNL     1     -10.896  -7.192   9.373  1.00  0.00     0.040 A 
ATOM     89  F   UNL     1     -11.987  -5.733  10.855  1.00  0.00    -0.206 F 
ATOM     90  C   UNL     1     -10.724  -7.718   8.092  1.00  0.00     0.006 A 
ENDBRANCH  62  83
BRANCH  74  91
ATOM     91  C   UNL     1     -15.099  -1.097  13.515  1.00  0.00     0.057 A 
ATOM     92  C   UNL     1     -15.608  -2.089  14.365  1.00  0.00     0.134 A 
ATOM     93  C   UNL     1     -15.102   0.209  14.060  1.00  0.00     0.134 A 
ATOM     94  F   UNL     1     -15.546  -3.390  14.051  1.00  0.00    -0.206 F 
ATOM     95  C   UNL     1     -16.158  -1.796  15.620  1.00  0.00     0.040 A 
ATOM     96  C   UNL     1     -15.581   0.501  15.340  1.00  0.00     0.040 A 
ATOM     97  F   UNL     1     -14.614   1.262  13.390  1.00  0.00    -0.206 F 
ATOM     98  C   UNL     1     -16.136  -0.500  16.116  1.00  0.00     0.006 A 
ENDBRANCH  74  91
ENDBRANCH  48  49
ENDBRANCH  40  43
ENDBRANCH  38  39
ENDBRANCH  37  38
ENDBRANCH  36  37
ENDBRANCH   1  36
TORSDOF 17
