REMARK SMILES CC(C)C[C@H](C[NH3+])C(=O)N1CCSC[C@@H]1CC(=O)NCCCCCCNC(=O)c1ccc(-c2c3nc(c(-c4c(F)cccc4F)c4ccc([nH]4)c(-c4c(F)cccc4F)c4nc(c(-c5c(F)cccc5F)c5ccc2[nH]5)C=C4)C=C3)cc1
REMARK SMILES IDX 21 1 20 2 19 3 17 4 18 5 16 7 15 8 10 9 11 10 12 11 14 12
REMARK SMILES IDX 13 13 8 14 9 15 5 16 4 17 2 18 1 19 3 20 6 21 7 22 22 26
REMARK SMILES IDX 23 27 24 28 25 29 26 30 27 31 28 33 29 34 30 35 82 36 31 37
REMARK SMILES IDX 81 38 32 39 33 40 34 41 75 42 35 43 80 44 74 45 76 46 36 47
REMARK SMILES IDX 79 48 73 49 72 50 37 52 63 53 46 54 62 55 47 56 50 57 61 58
REMARK SMILES IDX 77 59 48 60 49 61 60 63 78 64 51 65 38 66 39 67 44 68 40 69
REMARK SMILES IDX 41 70 43 71 45 72 42 73 64 74 65 75 70 76 66 77 67 78 69 79
REMARK SMILES IDX 71 80 68 81 52 82 53 83 58 84 54 85 55 86 57 87 59 88 56 89
REMARK H PARENT 19 6 7 23 7 24 7 25 26 32 76 51 50 62
REMARK Flexibility Score: inf
ROOT
ATOM      1  C   UNL     1      -6.187   2.113   5.063  1.00  0.00     0.021 C 
ENDROOT
BRANCH   1   2
ATOM      2  C   UNL     1      -5.510   0.984   5.842  1.00  0.00     0.116 C 
BRANCH   2   3
ATOM      3  N   UNL     1      -6.258  -0.256   5.691  1.00  0.00    -0.356 N 
ATOM      4  C   UNL     1      -6.027  -1.360   4.928  1.00  0.00     0.222 C 
ATOM      5  O   UNL     1      -6.898  -2.229   4.875  1.00  0.00    -0.275 OA
ATOM      6  H   UNL     1      -7.076  -0.304   6.237  1.00  0.00     0.163 HD
BRANCH   4   7
ATOM      7  C   UNL     1      -4.709  -1.545   4.214  1.00  0.00     0.126 C 
BRANCH   7   8
ATOM      8  C   UNL     1      -4.737  -1.494   2.669  1.00  0.00     0.104 C 
ATOM      9  N   UNL     1      -3.563  -0.736   2.149  1.00  0.00    -0.337 N 
ATOM     10  C   UNL     1      -3.646   0.711   2.327  1.00  0.00     0.130 C 
ATOM     11  C   UNL     1      -4.773   1.340   1.507  1.00  0.00     0.091 C 
ATOM     12  C   UNL     1      -6.053  -1.088   1.967  1.00  0.00     0.095 C 
ATOM     13  S   UNL     1      -6.415   0.699   1.960  1.00  0.00    -0.158 SA
BRANCH   9  14
ATOM     14  C   UNL     1      -2.981  -1.199   0.971  1.00  0.00     0.231 C 
ATOM     15  O   UNL     1      -3.673  -1.604   0.035  1.00  0.00    -0.274 OA
BRANCH  14  16
ATOM     16  C   UNL     1      -1.458  -1.363   0.933  1.00  0.00     0.133 C 
BRANCH  16  17
ATOM     17  C   UNL     1      -0.991  -2.457   1.915  1.00  0.00     0.022 C 
BRANCH  17  18
ATOM     18  C   UNL     1      -1.685  -3.826   1.742  1.00  0.00    -0.016 C 
ATOM     19  C   UNL     1      -1.425  -4.456   0.374  1.00  0.00     0.007 C 
ATOM     20  C   UNL     1      -1.240  -4.779   2.853  1.00  0.00     0.007 C 
ENDBRANCH  17  18
ENDBRANCH  16  17
BRANCH  16  21
ATOM     21  C   UNL     1      -0.646  -0.058   1.018  1.00  0.00     0.272 C 
BRANCH  21  22
ATOM     22  N   UNL     1      -0.152   0.300   2.346  1.00  0.00    -0.357 N 
ATOM     23  H   UNL     1      -0.942   0.466   2.969  1.00  0.00     0.344 HD
ATOM     24  H   UNL     1       0.415   1.145   2.282  1.00  0.00     0.344 HD
ATOM     25  H   UNL     1       0.417  -0.463   2.714  1.00  0.00     0.344 HD
ENDBRANCH  21  22
ENDBRANCH  16  21
ENDBRANCH  14  16
ENDBRANCH   9  14
ENDBRANCH   7   8
ENDBRANCH   4   7
ENDBRANCH   2   3
ENDBRANCH   1   2
BRANCH   1  26
ATOM     26  C   UNL     1      -6.686   3.273   5.921  1.00  0.00     0.002 C 
BRANCH  26  27
ATOM     27  C   UNL     1      -5.592   4.181   6.485  1.00  0.00     0.002 C 
BRANCH  27  28
ATOM     28  C   UNL     1      -4.664   4.836   5.456  1.00  0.00     0.021 C 
BRANCH  28  29
ATOM     29  C   UNL     1      -5.352   5.538   4.285  1.00  0.00     0.116 C 
BRANCH  29  30
ATOM     30  N   UNL     1      -6.287   6.563   4.720  1.00  0.00    -0.352 N 
ATOM     31  C   UNL     1      -6.239   7.924   4.588  1.00  0.00     0.251 C 
ATOM     32  H   UNL     1      -7.085   6.222   5.184  1.00  0.00     0.163 HD
ATOM     33  O   UNL     1      -7.044   8.628   5.201  1.00  0.00    -0.269 OA
BRANCH  31  34
ATOM     34  C   UNL     1      -5.220   8.566   3.734  1.00  0.00     0.039 A 
ATOM     35  C   UNL     1      -4.534   9.680   4.229  1.00  0.00     0.014 A 
ATOM     36  C   UNL     1      -4.968   8.108   2.438  1.00  0.00     0.014 A 
ATOM     37  C   UNL     1      -3.550  10.293   3.451  1.00  0.00     0.010 A 
ATOM     38  C   UNL     1      -3.947   8.684   1.684  1.00  0.00     0.010 A 
ATOM     39  C   UNL     1      -3.225   9.779   2.185  1.00  0.00    -0.014 A 
BRANCH  39  40
ATOM     40  C   UNL     1      -2.117  10.358   1.387  1.00  0.00     0.031 A 
ATOM     41  C   UNL     1      -2.395  11.054   0.085  1.00  0.00     0.074 A 
ATOM     42  C   UNL     1      -0.847  10.193   1.804  1.00  0.00     0.049 A 
ATOM     43  N   UNL     1      -1.550  11.559  -0.778  1.00  0.00    -0.248 NA
ATOM     44  C   UNL     1      -3.806  11.178  -0.310  1.00  0.00     0.031 C 
ATOM     45  C   UNL     1      -0.445   9.498   3.028  1.00  0.00     0.029 A 
ATOM     46  N   UNL     1       0.340  10.584   1.237  1.00  0.00    -0.354 N 
ATOM     47  C   UNL     1      -2.324  12.048  -1.823  1.00  0.00     0.074 A 
ATOM     48  C   UNL     1      -3.702  11.739  -1.506  1.00  0.00     0.031 C 
ATOM     49  C   UNL     1       0.893   9.521   3.126  1.00  0.00     0.029 A 
ATOM     50  C   UNL     1       1.444  10.199   1.956  1.00  0.00     0.049 A 
ATOM     51  H   UNL     1       0.394  11.091   0.395  1.00  0.00     0.167 HD
ATOM     52  C   UNL     1      -1.923  12.708  -2.937  1.00  0.00     0.037 A 
ATOM     53  C   UNL     1       2.756  10.363   1.699  1.00  0.00     0.037 A 
ATOM     54  C   UNL     1      -0.552  13.029  -3.240  1.00  0.00     0.049 A 
ATOM     55  C   UNL     1       3.177  11.087   0.452  1.00  0.00     0.074 A 
ATOM     56  C   UNL     1      -0.053  13.763  -4.302  1.00  0.00     0.029 A 
ATOM     57  N   UNL     1       0.540  12.627  -2.485  1.00  0.00    -0.354 N 
ATOM     58  N   UNL     1       2.431  11.610  -0.490  1.00  0.00    -0.248 NA
ATOM     59  C   UNL     1       4.622  11.246   0.234  1.00  0.00     0.031 C 
ATOM     60  C   UNL     1       1.344  13.762  -4.217  1.00  0.00     0.029 A 
ATOM     61  C   UNL     1       1.713  13.067  -3.076  1.00  0.00     0.049 A 
ATOM     62  H   UNL     1       0.488  12.105  -1.652  1.00  0.00     0.167 HD
ATOM     63  C   UNL     1       3.311  12.171  -1.405  1.00  0.00     0.074 A 
ATOM     64  C   UNL     1       4.648  11.941  -0.895  1.00  0.00     0.031 C 
ATOM     65  C   UNL     1       3.037  12.817  -2.565  1.00  0.00     0.037 A 
BRANCH  52  66
ATOM     66  C   UNL     1      -2.985  13.119  -3.914  1.00  0.00     0.057 A 
ATOM     67  C   UNL     1      -3.903  14.139  -3.626  1.00  0.00     0.134 A 
ATOM     68  C   UNL     1      -3.079  12.503  -5.169  1.00  0.00     0.134 A 
ATOM     69  F   UNL     1      -3.874  14.763  -2.439  1.00  0.00    -0.206 F 
ATOM     70  C   UNL     1      -4.894  14.509  -4.537  1.00  0.00     0.040 A 
ATOM     71  C   UNL     1      -4.049  12.883  -6.098  1.00  0.00     0.040 A 
ATOM     72  F   UNL     1      -2.228  11.525  -5.513  1.00  0.00    -0.206 F 
ATOM     73  C   UNL     1      -4.965  13.883  -5.780  1.00  0.00     0.006 A 
ENDBRANCH  52  66
BRANCH  53  74
ATOM     74  C   UNL     1       3.762   9.836   2.653  1.00  0.00     0.057 A 
ATOM     75  C   UNL     1       4.507  10.699   3.464  1.00  0.00     0.134 A 
ATOM     76  C   UNL     1       3.986   8.461   2.793  1.00  0.00     0.134 A 
ATOM     77  F   UNL     1       4.348  12.027   3.361  1.00  0.00    -0.206 F 
ATOM     78  C   UNL     1       5.447  10.215   4.375  1.00  0.00     0.040 A 
ATOM     79  C   UNL     1       4.907   7.962   3.715  1.00  0.00     0.040 A 
ATOM     80  F   UNL     1       3.296   7.583   2.050  1.00  0.00    -0.206 F 
ATOM     81  C   UNL     1       5.643   8.841   4.507  1.00  0.00     0.006 A 
ENDBRANCH  53  74
BRANCH  65  82
ATOM     82  C   UNL     1       4.206  13.323  -3.358  1.00  0.00     0.057 A 
ATOM     83  C   UNL     1       5.041  12.454  -4.072  1.00  0.00     0.134 A 
ATOM     84  C   UNL     1       4.480  14.694  -3.436  1.00  0.00     0.134 A 
ATOM     85  F   UNL     1       4.841  11.128  -4.026  1.00  0.00    -0.206 F 
ATOM     86  C   UNL     1       6.120  12.929  -4.820  1.00  0.00     0.040 A 
ATOM     87  C   UNL     1       5.540  15.183  -4.200  1.00  0.00     0.040 A 
ATOM     88  F   UNL     1       3.715  15.580  -2.781  1.00  0.00    -0.206 F 
ATOM     89  C   UNL     1       6.367  14.299  -4.891  1.00  0.00     0.006 A 
ENDBRANCH  65  82
ENDBRANCH  39  40
ENDBRANCH  31  34
ENDBRANCH  29  30
ENDBRANCH  28  29
ENDBRANCH  27  28
ENDBRANCH  26  27
ENDBRANCH   1  26
TORSDOF 20
