REMARK SMILES Cc1ccnc(C(=O)c2[nH]c3ccc(OC(F)(F)F)cc3c2CC(=O)NCCCCCCNC(=O)c2ccc(-c3c4nc(c(-c5c(F)cccc5F)c5ccc([nH]5)c(-c5c(F)cccc5F)c5nc(c(-c6c(F)cccc6F)c6ccc3[nH]6)C=C5)C=C4)cc2)c1
REMARK SMILES IDX 29 1 28 2 27 3 26 4 24 5 25 6 23 8 22 9 9 10 10 11 11 12
REMARK SMILES IDX 21 14 12 15 20 16 13 17 14 18 7 19 8 20 6 21 1 22 2 23 3 24
REMARK SMILES IDX 90 25 4 26 5 27 15 28 16 29 17 30 18 31 19 32 30 33 31 34
REMARK SMILES IDX 32 35 33 36 34 37 35 39 36 40 37 41 89 42 38 43 88 44 39 45
REMARK SMILES IDX 40 46 41 47 82 48 42 49 87 50 81 51 83 52 43 53 86 54 80 55
REMARK SMILES IDX 79 56 44 58 70 59 53 60 69 61 54 62 57 63 68 64 84 65 55 66
REMARK SMILES IDX 56 67 67 69 85 70 58 71 45 72 46 73 51 74 47 75 48 76 50 77
REMARK SMILES IDX 52 78 49 79 71 80 72 81 77 82 73 83 74 84 76 85 78 86 75 87
REMARK SMILES IDX 59 88 60 89 65 90 61 91 62 92 64 93 66 94 63 95
REMARK H PARENT 26 7 10 13 33 38 83 57 57 68
REMARK Flexibility Score: inf
ROOT
ATOM      1  C   UNL     1       4.718  -6.890  -1.401  1.00  0.00     0.002 C 
ENDROOT
BRANCH   1   2
ATOM      2  C   UNL     1       3.423  -6.968  -0.584  1.00  0.00     0.021 C 
BRANCH   2   3
ATOM      3  C   UNL     1       3.600  -6.824   0.927  1.00  0.00     0.116 C 
BRANCH   3   4
ATOM      4  N   UNL     1       4.051  -5.504   1.318  1.00  0.00    -0.356 N 
ATOM      5  C   UNL     1       3.337  -4.466   1.845  1.00  0.00     0.224 C 
ATOM      6  O   UNL     1       3.945  -3.455   2.205  1.00  0.00    -0.275 OA
ATOM      7  H   UNL     1       5.010  -5.329   1.184  1.00  0.00     0.163 HD
BRANCH   5   8
ATOM      8  C   UNL     1       1.842  -4.596   2.080  1.00  0.00     0.138 C 
BRANCH   8   9
ATOM      9  C   UNL     1       1.011  -4.696   0.833  1.00  0.00    -0.002 A 
ATOM     10  C   UNL     1       0.974  -3.806  -0.236  1.00  0.00     0.093 A 
ATOM     11  N   UNL     1       0.107  -4.318  -1.174  1.00  0.00    -0.352 N 
ATOM     12  C   UNL     1      -0.482  -5.468  -0.714  1.00  0.00     0.046 A 
ATOM     13  H   UNL     1      -0.066  -3.915  -2.055  1.00  0.00     0.167 HD
ATOM     14  C   UNL     1       0.056  -5.730   0.543  1.00  0.00     0.008 A 
ATOM     15  C   UNL     1      -1.433  -6.295  -1.318  1.00  0.00     0.030 A 
ATOM     16  C   UNL     1      -0.392  -6.878   1.230  1.00  0.00     0.057 A 
ATOM     17  C   UNL     1      -1.855  -7.431  -0.615  1.00  0.00     0.049 A 
ATOM     18  C   UNL     1      -1.345  -7.728   0.647  1.00  0.00     0.130 A 
BRANCH  10  19
ATOM     19  C   UNL     1       1.725  -2.585  -0.465  1.00  0.00     0.227 C 
ATOM     20  O   UNL     1       2.897  -2.626  -0.825  1.00  0.00    -0.285 OA
BRANCH  19  21
ATOM     21  C   UNL     1       0.994  -1.269  -0.339  1.00  0.00     0.113 A 
ATOM     22  C   UNL     1      -2.332   0.186   0.764  1.00  0.00     0.044 C 
ATOM     23  C   UNL     1      -0.943   0.050   0.216  1.00  0.00    -0.047 A 
ATOM     24  C   UNL     1      -0.255   1.173  -0.243  1.00  0.00     0.023 A 
ATOM     25  C   UNL     1      -0.297  -1.190   0.186  1.00  0.00     0.036 A 
ATOM     26  C   UNL     1       1.028   1.010  -0.736  1.00  0.00     0.112 A 
ATOM     27  N   UNL     1       1.658  -0.180  -0.808  1.00  0.00    -0.253 NA
ENDBRANCH  19  21
ENDBRANCH  10  19
BRANCH  18  28
ATOM     28  O   UNL     1      -1.676  -8.804   1.423  1.00  0.00    -0.406 OA
BRANCH  28  29
ATOM     29  C   UNL     1      -2.605  -9.737   0.899  1.00  0.00     0.573 C 
ATOM     30  F   UNL     1      -3.803  -9.157   0.674  1.00  0.00    -0.132 F 
ATOM     31  F   UNL     1      -2.147 -10.290  -0.244  1.00  0.00    -0.132 F 
ATOM     32  F   UNL     1      -2.780 -10.726   1.804  1.00  0.00    -0.132 F 
ENDBRANCH  28  29
ENDBRANCH  18  28
ENDBRANCH   8   9
ENDBRANCH   5   8
ENDBRANCH   3   4
ENDBRANCH   2   3
ENDBRANCH   1   2
BRANCH   1  33
ATOM     33  C   UNL     1       5.775  -7.953  -1.085  1.00  0.00     0.002 C 
BRANCH  33  34
ATOM     34  C   UNL     1       5.304  -9.411  -1.145  1.00  0.00     0.021 C 
BRANCH  34  35
ATOM     35  C   UNL     1       4.666  -9.853  -2.462  1.00  0.00     0.116 C 
BRANCH  35  36
ATOM     36  N   UNL     1       5.589  -9.794  -3.581  1.00  0.00    -0.352 N 
ATOM     37  C   UNL     1       5.689 -10.626  -4.668  1.00  0.00     0.251 C 
ATOM     38  H   UNL     1       6.235  -9.052  -3.556  1.00  0.00     0.163 HD
ATOM     39  O   UNL     1       6.614 -10.490  -5.462  1.00  0.00    -0.269 OA
BRANCH  37  40
ATOM     40  C   UNL     1       4.701 -11.708  -4.886  1.00  0.00     0.039 A 
ATOM     41  C   UNL     1       5.177 -12.985  -5.206  1.00  0.00     0.014 A 
ATOM     42  C   UNL     1       3.325 -11.464  -4.847  1.00  0.00     0.014 A 
ATOM     43  C   UNL     1       4.278 -14.027  -5.445  1.00  0.00     0.010 A 
ATOM     44  C   UNL     1       2.425 -12.509  -5.075  1.00  0.00     0.010 A 
ATOM     45  C   UNL     1       2.897 -13.797  -5.373  1.00  0.00    -0.014 A 
BRANCH  45  46
ATOM     46  C   UNL     1       1.935 -14.897  -5.614  1.00  0.00     0.031 A 
ATOM     47  C   UNL     1       1.268 -15.044  -6.948  1.00  0.00     0.074 A 
ATOM     48  C   UNL     1       1.646 -15.758  -4.621  1.00  0.00     0.049 A 
ATOM     49  N   UNL     1       0.308 -15.860  -7.302  1.00  0.00    -0.248 NA
ATOM     50  C   UNL     1       1.734 -14.153  -8.021  1.00  0.00     0.031 C 
ATOM     51  C   UNL     1       2.227 -15.731  -3.279  1.00  0.00     0.029 A 
ATOM     52  N   UNL     1       0.782 -16.822  -4.594  1.00  0.00    -0.354 N 
ATOM     53  C   UNL     1       0.029 -15.560  -8.627  1.00  0.00     0.074 A 
ATOM     54  C   UNL     1       0.940 -14.506  -9.024  1.00  0.00     0.031 C 
ATOM     55  C   UNL     1       1.706 -16.738  -2.558  1.00  0.00     0.029 A 
ATOM     56  C   UNL     1       0.747 -17.468  -3.384  1.00  0.00     0.049 A 
ATOM     57  H   UNL     1       0.239 -17.097  -5.368  1.00  0.00     0.167 HD
ATOM     58  C   UNL     1      -0.914 -16.102  -9.433  1.00  0.00     0.037 A 
ATOM     59  C   UNL     1       0.017 -18.525  -2.984  1.00  0.00     0.037 A 
ATOM     60  C   UNL     1      -1.816 -17.155  -9.053  1.00  0.00     0.049 A 
ATOM     61  C   UNL     1      -0.949 -19.171  -3.930  1.00  0.00     0.074 A 
ATOM     62  C   UNL     1      -2.867 -17.700  -9.771  1.00  0.00     0.029 A 
ATOM     63  N   UNL     1      -1.750 -17.845  -7.854  1.00  0.00    -0.354 N 
ATOM     64  N   UNL     1      -1.267 -18.816  -5.150  1.00  0.00    -0.248 NA
ATOM     65  C   UNL     1      -1.659 -20.362  -3.442  1.00  0.00     0.031 C 
ATOM     66  C   UNL     1      -3.425 -18.737  -9.012  1.00  0.00     0.029 A 
ATOM     67  C   UNL     1      -2.719 -18.834  -7.825  1.00  0.00     0.049 A 
ATOM     68  H   UNL     1      -1.110 -17.660  -7.130  1.00  0.00     0.167 HD
ATOM     69  C   UNL     1      -2.226 -19.727  -5.570  1.00  0.00     0.074 A 
ATOM     70  C   UNL     1      -2.423 -20.665  -4.484  1.00  0.00     0.031 C 
ATOM     71  C   UNL     1      -2.895 -19.767  -6.746  1.00  0.00     0.037 A 
BRANCH  58  72
ATOM     72  C   UNL     1      -1.032 -15.534 -10.810  1.00  0.00     0.057 A 
ATOM     73  C   UNL     1      -0.292 -16.055 -11.876  1.00  0.00     0.134 A 
ATOM     74  C   UNL     1      -1.905 -14.472 -11.074  1.00  0.00     0.134 A 
ATOM     75  F   UNL     1       0.568 -17.065 -11.677  1.00  0.00    -0.206 F 
ATOM     76  C   UNL     1      -0.413 -15.534 -13.164  1.00  0.00     0.040 A 
ATOM     77  C   UNL     1      -2.037 -13.944 -12.358  1.00  0.00     0.040 A 
ATOM     78  F   UNL     1      -2.634 -13.930 -10.087  1.00  0.00    -0.206 F 
ATOM     79  C   UNL     1      -1.290 -14.476 -13.408  1.00  0.00     0.006 A 
ENDBRANCH  58  72
BRANCH  59  80
ATOM     80  C   UNL     1       0.172 -19.038  -1.607  1.00  0.00     0.057 A 
ATOM     81  C   UNL     1       1.083 -20.058  -1.318  1.00  0.00     0.134 A 
ATOM     82  C   UNL     1      -0.584 -18.514  -0.555  1.00  0.00     0.134 A 
ATOM     83  F   UNL     1       1.820 -20.602  -2.296  1.00  0.00    -0.206 F 
ATOM     84  C   UNL     1       1.237 -20.544  -0.020  1.00  0.00     0.040 A 
ATOM     85  C   UNL     1      -0.437 -18.988   0.748  1.00  0.00     0.040 A 
ATOM     86  F   UNL     1      -1.475 -17.538  -0.782  1.00  0.00    -0.206 F 
ATOM     87  C   UNL     1       0.477 -20.007   1.018  1.00  0.00     0.006 A 
ENDBRANCH  59  80
BRANCH  71  88
ATOM     88  C   UNL     1      -3.901 -20.858  -6.912  1.00  0.00     0.057 A 
ATOM     89  C   UNL     1      -5.235 -20.672  -6.531  1.00  0.00     0.134 A 
ATOM     90  C   UNL     1      -3.545 -22.091  -7.469  1.00  0.00     0.134 A 
ATOM     91  F   UNL     1      -5.630 -19.513  -5.985  1.00  0.00    -0.206 F 
ATOM     92  C   UNL     1      -6.184 -21.681  -6.697  1.00  0.00     0.040 A 
ATOM     93  C   UNL     1      -4.485 -23.108  -7.639  1.00  0.00     0.040 A 
ATOM     94  F   UNL     1      -2.278 -22.328  -7.841  1.00  0.00    -0.206 F 
ATOM     95  C   UNL     1      -5.809 -22.904  -7.253  1.00  0.00     0.006 A 
ENDBRANCH  71  88
ENDBRANCH  45  46
ENDBRANCH  37  40
ENDBRANCH  35  36
ENDBRANCH  34  35
ENDBRANCH  33  34
ENDBRANCH   1  33
TORSDOF 18
