REMARK SMILES NS(=O)(=O)c1ccc(C#Cc2cc(Cl)cc3c2O[C@H](C(F)(F)F)C(C(=O)NCCCCCCNC(=O)c2ccc(-c4c5nc(c(-c6c(F)cccc6F)c6ccc([nH]6)c(-c6c(F)cccc6F)c6nc(c(-c7c(F)cccc7F)c7ccc4[nH]7)C=C6)C=C5)cc2)=C3)cc1
REMARK SMILES IDX 29 1 28 2 27 3 25 4 26 5 24 7 11 8 12 9 17 10 13 11 16 12
REMARK SMILES IDX 18 13 14 14 15 15 91 16 19 17 10 18 9 19 8 20 5 21 6 22
REMARK SMILES IDX 93 23 7 24 92 25 2 26 3 27 4 28 1 29 20 32 21 33 22 34 23 35
REMARK SMILES IDX 30 36 31 37 32 38 33 39 34 40 35 41 36 43 37 44 38 45 90 46
REMARK SMILES IDX 39 47 89 48 40 49 41 50 42 51 83 52 43 53 88 54 82 55 84 56
REMARK SMILES IDX 44 57 87 58 81 59 80 60 45 62 71 63 54 64 70 65 55 66 58 67
REMARK SMILES IDX 69 68 85 69 56 70 57 71 68 73 86 74 59 75 46 76 47 77 52 78
REMARK SMILES IDX 48 79 49 80 51 81 53 82 50 83 72 84 73 85 78 86 74 87 75 88
REMARK SMILES IDX 77 89 79 90 76 91 60 92 61 93 66 94 62 95 63 96 65 97 67 98
REMARK SMILES IDX 64 99
REMARK H PARENT 27 6 1 30 1 31 34 42 84 61 58 72
REMARK Flexibility Score: inf
ROOT
ATOM      1  C   UNL     1      -0.074 -13.027  -3.514  1.00  0.00     0.021 C 
ENDROOT
BRANCH   1   2
ATOM      2  C   UNL     1       1.185 -12.536  -4.216  1.00  0.00     0.116 C 
BRANCH   2   3
ATOM      3  N   UNL     1       1.152 -12.813  -5.641  1.00  0.00    -0.352 N 
ATOM      4  C   UNL     1       1.201 -12.100  -6.791  1.00  0.00     0.251 C 
ATOM      5  O   UNL     1       1.173 -12.761  -7.832  1.00  0.00    -0.270 OA
ATOM      6  H   UNL     1       1.072 -13.778  -5.819  1.00  0.00     0.163 HD
BRANCH   4   7
ATOM      7  C   UNL     1       1.283 -10.610  -6.864  1.00  0.00     0.067 C 
ATOM      8  C   UNL     1       1.286  -6.415  -7.138  1.00  0.00     0.069 A 
ATOM      9  C   UNL     1       1.284  -5.802  -8.389  1.00  0.00     0.041 A 
ATOM     10  C   UNL     1       1.253  -7.814  -7.057  1.00  0.00     0.143 A 
ATOM     11  C   UNL     1       1.249  -6.590  -9.541  1.00  0.00     0.043 A 
ATOM     12  C   UNL     1       1.216  -8.606  -8.209  1.00  0.00     0.020 A 
ATOM     13  O   UNL     1       1.202  -8.352  -5.806  1.00  0.00    -0.474 OA
ATOM     14  Cl  UNL     1       1.234  -5.832 -11.086  1.00  0.00    -0.084 Cl
ATOM     15  C   UNL     1       1.215  -7.985  -9.459  1.00  0.00     0.032 A 
ATOM     16  C   UNL     1       1.135 -10.058  -8.082  1.00  0.00     0.025 C 
ATOM     17  C   UNL     1       1.547  -9.746  -5.669  1.00  0.00     0.314 C 
BRANCH   8  18
ATOM     18  C   UNL     1       1.310  -5.626  -5.942  1.00  0.00    -0.058 C 
ATOM     19  C   UNL     1       1.295  -5.013  -4.905  1.00  0.00    -0.062 C 
BRANCH  19  20
ATOM     20  C   UNL     1       1.205  -4.276  -3.682  1.00  0.00     0.025 A 
ATOM     21  C   UNL     1       0.834  -2.790  -1.350  1.00  0.00     0.082 A 
ATOM     22  C   UNL     1       1.127  -2.135  -2.549  1.00  0.00     0.023 A 
ATOM     23  C   UNL     1       0.772  -4.187  -1.300  1.00  0.00     0.023 A 
ATOM     24  C   UNL     1       1.314  -2.883  -3.713  1.00  0.00     0.018 A 
ATOM     25  C   UNL     1       0.954  -4.929  -2.471  1.00  0.00     0.018 A 
BRANCH  21  26
ATOM     26  S   UNL     1       0.513  -1.878   0.130  1.00  0.00     0.238 S 
ATOM     27  O   UNL     1       1.277  -2.461   1.207  1.00  0.00    -0.207 OA
ATOM     28  O   UNL     1      -0.909  -1.641   0.213  1.00  0.00    -0.207 OA
BRANCH  26  29
ATOM     29  N   UNL     1       1.211  -0.371  -0.137  1.00  0.00    -0.225 NA
ATOM     30  H   UNL     1       1.067   0.221   0.682  1.00  0.00     0.137 HD
ATOM     31  H   UNL     1       0.779   0.065  -0.951  1.00  0.00     0.137 HD
ENDBRANCH  26  29
ENDBRANCH  21  26
ENDBRANCH  19  20
ENDBRANCH   8  18
BRANCH  17  32
ATOM     32  C   UNL     1       2.996  -9.856  -5.161  1.00  0.00     0.429 C 
ATOM     33  F   UNL     1       3.088  -9.392  -3.889  1.00  0.00    -0.167 F 
ATOM     34  F   UNL     1       3.448 -11.132  -5.132  1.00  0.00    -0.167 F 
ATOM     35  F   UNL     1       3.864  -9.150  -5.919  1.00  0.00    -0.167 F 
ENDBRANCH  17  32
ENDBRANCH   4   7
ENDBRANCH   2   3
ENDBRANCH   1   2
BRANCH   1  36
ATOM     36  C   UNL     1       0.009 -14.498  -3.106  1.00  0.00     0.002 C 
BRANCH  36  37
ATOM     37  C   UNL     1       1.224 -14.854  -2.237  1.00  0.00     0.002 C 
BRANCH  37  38
ATOM     38  C   UNL     1       1.425 -13.957  -1.015  1.00  0.00     0.021 C 
BRANCH  38  39
ATOM     39  C   UNL     1       0.240 -13.948  -0.060  1.00  0.00     0.116 C 
BRANCH  39  40
ATOM     40  N   UNL     1      -0.039 -15.272   0.479  1.00  0.00    -0.352 N 
ATOM     41  C   UNL     1      -0.128 -15.677   1.789  1.00  0.00     0.251 C 
ATOM     42  H   UNL     1      -0.184 -15.978  -0.191  1.00  0.00     0.163 HD
ATOM     43  O   UNL     1      -0.166 -16.868   2.075  1.00  0.00    -0.269 OA
BRANCH  41  44
ATOM     44  C   UNL     1      -0.142 -14.652   2.851  1.00  0.00     0.039 A 
ATOM     45  C   UNL     1      -0.912 -13.500   2.693  1.00  0.00     0.014 A 
ATOM     46  C   UNL     1       0.676 -14.808   3.972  1.00  0.00     0.014 A 
ATOM     47  C   UNL     1      -0.693 -12.418   3.531  1.00  0.00     0.010 A 
ATOM     48  C   UNL     1       0.798 -13.757   4.885  1.00  0.00     0.010 A 
ATOM     49  C   UNL     1       0.170 -12.527   4.634  1.00  0.00    -0.014 A 
BRANCH  49  50
ATOM     50  C   UNL     1       0.417 -11.323   5.473  1.00  0.00     0.031 A 
ATOM     51  C   UNL     1       1.798 -10.731   5.593  1.00  0.00     0.074 A 
ATOM     52  C   UNL     1      -0.629 -10.707   6.056  1.00  0.00     0.049 A 
ATOM     53  N   UNL     1       2.179  -9.644   6.219  1.00  0.00    -0.248 NA
ATOM     54  C   UNL     1       2.896 -11.453   4.933  1.00  0.00     0.031 C 
ATOM     55  C   UNL     1      -2.018 -11.172   6.008  1.00  0.00     0.029 A 
ATOM     56  N   UNL     1      -0.696  -9.539   6.771  1.00  0.00    -0.354 N 
ATOM     57  C   UNL     1       3.555  -9.559   6.036  1.00  0.00     0.074 A 
ATOM     58  C   UNL     1       3.950 -10.732   5.287  1.00  0.00     0.031 C 
ATOM     59  C   UNL     1      -2.806 -10.267   6.605  1.00  0.00     0.029 A 
ATOM     60  C   UNL     1      -1.973  -9.199   7.145  1.00  0.00     0.049 A 
ATOM     61  H   UNL     1       0.095  -8.997   6.995  1.00  0.00     0.167 HD
ATOM     62  C   UNL     1       4.410  -8.586   6.436  1.00  0.00     0.037 A 
ATOM     63  C   UNL     1      -2.424  -8.151   7.857  1.00  0.00     0.037 A 
ATOM     64  C   UNL     1       4.019  -7.420   7.188  1.00  0.00     0.049 A 
ATOM     65  C   UNL     1      -1.440  -7.131   8.355  1.00  0.00     0.074 A 
ATOM     66  C   UNL     1       4.809  -6.374   7.633  1.00  0.00     0.029 A 
ATOM     67  N   UNL     1       2.727  -7.151   7.615  1.00  0.00    -0.354 N 
ATOM     68  N   UNL     1      -0.147  -7.052   8.151  1.00  0.00    -0.248 NA
ATOM     69  C   UNL     1      -1.985  -6.051   9.187  1.00  0.00     0.031 C 
ATOM     70  C   UNL     1       4.008  -5.508   8.387  1.00  0.00     0.029 A 
ATOM     71  C   UNL     1       2.704  -5.974   8.349  1.00  0.00     0.049 A 
ATOM     72  H   UNL     1       1.941  -7.714   7.426  1.00  0.00     0.167 HD
ATOM     73  C   UNL     1       0.270  -5.902   8.807  1.00  0.00     0.074 A 
ATOM     74  C   UNL     1      -0.915  -5.298   9.382  1.00  0.00     0.031 C 
ATOM     75  C   UNL     1       1.521  -5.391   8.931  1.00  0.00     0.037 A 
BRANCH  62  76
ATOM     76  C   UNL     1       5.865  -8.762   6.091  1.00  0.00     0.057 A 
ATOM     77  C   UNL     1       6.815  -8.986   7.096  1.00  0.00     0.134 A 
ATOM     78  C   UNL     1       6.331  -8.704   4.770  1.00  0.00     0.134 A 
ATOM     79  F   UNL     1       6.445  -9.043   8.385  1.00  0.00    -0.206 F 
ATOM     80  C   UNL     1       8.170  -9.152   6.801  1.00  0.00     0.040 A 
ATOM     81  C   UNL     1       7.678  -8.902   4.459  1.00  0.00     0.040 A 
ATOM     82  F   UNL     1       5.476  -8.504   3.755  1.00  0.00    -0.206 F 
ATOM     83  C   UNL     1       8.603  -9.123   5.477  1.00  0.00     0.006 A 
ENDBRANCH  62  76
BRANCH  63  84
ATOM     84  C   UNL     1      -3.871  -8.019   8.167  1.00  0.00     0.057 A 
ATOM     85  C   UNL     1      -4.523  -8.933   9.004  1.00  0.00     0.134 A 
ATOM     86  C   UNL     1      -4.624  -6.945   7.677  1.00  0.00     0.134 A 
ATOM     87  F   UNL     1      -3.863  -9.990   9.500  1.00  0.00    -0.206 F 
ATOM     88  C   UNL     1      -5.868  -8.784   9.344  1.00  0.00     0.040 A 
ATOM     89  C   UNL     1      -5.959  -6.763   8.039  1.00  0.00     0.040 A 
ATOM     90  F   UNL     1      -4.053  -6.026   6.884  1.00  0.00    -0.206 F 
ATOM     91  C   UNL     1      -6.585  -7.686   8.874  1.00  0.00     0.006 A 
ENDBRANCH  63  84
BRANCH  75  92
ATOM     92  C   UNL     1       1.651  -4.099   9.691  1.00  0.00     0.057 A 
ATOM     93  C   UNL     1       2.010  -2.916   9.033  1.00  0.00     0.134 A 
ATOM     94  C   UNL     1       1.387  -4.014  11.066  1.00  0.00     0.134 A 
ATOM     95  F   UNL     1       2.293  -2.923   7.721  1.00  0.00    -0.206 F 
ATOM     96  C   UNL     1       2.081  -1.696   9.707  1.00  0.00     0.040 A 
ATOM     97  C   UNL     1       1.415  -2.793  11.742  1.00  0.00     0.040 A 
ATOM     98  F   UNL     1       1.028  -5.106  11.759  1.00  0.00    -0.206 F 
ATOM     99  C   UNL     1       1.765  -1.629  11.061  1.00  0.00     0.006 A 
ENDBRANCH  75  92
ENDBRANCH  49  50
ENDBRANCH  41  44
ENDBRANCH  39  40
ENDBRANCH  38  39
ENDBRANCH  37  38
ENDBRANCH  36  37
ENDBRANCH   1  36
TORSDOF 18
