REMARK SMILES COC(=O)c1ccc(C)c(NC(=O)[C@H]2CC=CC[C@H]2C(=O)NCCCCCCNC(=O)c2ccc(-c3c4nc(c(-c5c(F)cccc5F)c5ccc([nH]5)c(-c5c(F)cccc5F)c5nc(c(-c6c(F)cccc6F)c6ccc3[nH]6)C=C5)C=C4)cc2)c1
REMARK SMILES IDX 24 1 23 2 22 3 20 4 21 5 19 7 14 8 15 9 16 10 18 11 17 12
REMARK SMILES IDX 12 13 11 14 13 16 10 17 5 18 6 19 86 20 7 21 8 22 9 23 3 24
REMARK SMILES IDX 4 25 2 26 1 27 25 28 26 29 27 30 28 31 29 32 30 33 31 35
REMARK SMILES IDX 32 36 33 37 85 38 34 39 84 40 35 41 36 42 37 43 78 44 38 45
REMARK SMILES IDX 83 46 77 47 79 48 39 49 82 50 76 51 75 52 40 54 66 55 49 56
REMARK SMILES IDX 65 57 50 58 53 59 64 60 80 61 51 62 52 63 63 65 81 66 54 67
REMARK SMILES IDX 41 68 42 69 47 70 43 71 44 72 46 73 48 74 45 75 67 76 68 77
REMARK SMILES IDX 73 78 69 79 70 80 72 81 74 82 71 83 55 84 56 85 61 86 57 87
REMARK SMILES IDX 58 88 60 89 62 90 59 91
REMARK H PARENT 22 6 11 15 29 34 79 53 53 64
REMARK Flexibility Score: inf
ROOT
ATOM      1  C   UNL     1       4.464  -0.244  -0.154  1.00  0.00     0.021 C 
ENDROOT
BRANCH   1   2
ATOM      2  C   UNL     1       5.407  -0.003   1.024  1.00  0.00     0.116 C 
BRANCH   2   3
ATOM      3  N   UNL     1       6.752  -0.457   0.749  1.00  0.00    -0.356 N 
ATOM      4  C   UNL     1       7.962   0.139   0.853  1.00  0.00     0.224 C 
ATOM      5  O   UNL     1       8.940  -0.545   0.531  1.00  0.00    -0.275 OA
ATOM      6  H   UNL     1       6.796  -1.385   0.422  1.00  0.00     0.163 HD
BRANCH   4   7
ATOM      7  C   UNL     1       8.176   1.563   1.347  1.00  0.00     0.095 C 
ATOM      8  C   UNL     1       8.062   2.681   0.282  1.00  0.00     0.095 C 
ATOM      9  C   UNL     1       8.556   4.009   0.857  1.00  0.00     0.041 C 
ATOM     10  C   UNL     1       8.164   4.264   2.285  1.00  0.00    -0.030 C 
ATOM     11  C   UNL     1       7.575   1.875   2.722  1.00  0.00     0.041 C 
ATOM     12  C   UNL     1       7.700   3.317   3.109  1.00  0.00    -0.030 C 
BRANCH   8  13
ATOM     13  C   UNL     1       6.961   2.545  -0.795  1.00  0.00     0.228 C 
ATOM     14  N   UNL     1       5.656   2.877  -0.875  1.00  0.00    -0.326 N 
ATOM     15  H   UNL     1       5.247   2.257  -1.521  1.00  0.00     0.169 HD
ATOM     16  O   UNL     1       7.278   1.836  -1.777  1.00  0.00    -0.274 OA
BRANCH  14  17
ATOM     17  C   UNL     1       4.625   3.733  -0.430  1.00  0.00     0.044 A 
ATOM     18  C   UNL     1       2.182   4.040  -0.361  1.00  0.00     0.062 A 
ATOM     19  C   UNL     1       2.316   5.333   0.104  1.00  0.00     0.016 A 
ATOM     20  C   UNL     1       3.311   3.259  -0.671  1.00  0.00     0.042 A 
ATOM     21  C   UNL     1       3.589   5.827   0.301  1.00  0.00     0.006 A 
ATOM     22  C   UNL     1       4.741   5.050   0.030  1.00  0.00    -0.027 A 
ATOM     23  C   UNL     1       6.024   5.780   0.173  1.00  0.00     0.046 C 
BRANCH  18  24
ATOM     24  C   UNL     1       0.805   3.600  -0.597  1.00  0.00     0.337 C 
ATOM     25  O   UNL     1       0.159   4.114  -1.504  1.00  0.00    -0.246 OA
BRANCH  24  26
ATOM     26  O   UNL     1       0.274   2.684   0.243  1.00  0.00    -0.465 OA
ATOM     27  C   UNL     1       0.915   2.252   1.450  1.00  0.00     0.282 C 
ENDBRANCH  24  26
ENDBRANCH  18  24
ENDBRANCH  14  17
ENDBRANCH   8  13
ENDBRANCH   4   7
ENDBRANCH   2   3
ENDBRANCH   1   2
BRANCH   1  28
ATOM     28  C   UNL     1       4.226  -1.698  -0.570  1.00  0.00     0.002 C 
BRANCH  28  29
ATOM     29  C   UNL     1       3.499  -2.611   0.427  1.00  0.00     0.002 C 
BRANCH  29  30
ATOM     30  C   UNL     1       2.231  -2.068   1.089  1.00  0.00     0.021 C 
BRANCH  30  31
ATOM     31  C   UNL     1       1.151  -1.540   0.153  1.00  0.00     0.116 C 
BRANCH  31  32
ATOM     32  N   UNL     1       0.010  -2.406  -0.091  1.00  0.00    -0.352 N 
ATOM     33  C   UNL     1      -1.200  -2.149  -0.725  1.00  0.00     0.251 C 
ATOM     34  H   UNL     1       0.110  -3.325   0.248  1.00  0.00     0.163 HD
ATOM     35  O   UNL     1      -2.048  -3.042  -0.726  1.00  0.00    -0.269 OA
BRANCH  33  36
ATOM     36  C   UNL     1      -1.484  -0.888  -1.484  1.00  0.00     0.039 A 
ATOM     37  C   UNL     1      -2.562  -0.840  -2.394  1.00  0.00     0.014 A 
ATOM     38  C   UNL     1      -0.648   0.210  -1.430  1.00  0.00     0.014 A 
ATOM     39  C   UNL     1      -2.667   0.196  -3.346  1.00  0.00     0.010 A 
ATOM     40  C   UNL     1      -0.729   1.204  -2.372  1.00  0.00     0.010 A 
ATOM     41  C   UNL     1      -1.686   1.178  -3.373  1.00  0.00    -0.014 A 
BRANCH  41  42
ATOM     42  C   UNL     1      -1.356   2.103  -4.452  1.00  0.00     0.031 A 
ATOM     43  C   UNL     1      -1.893   3.466  -4.563  1.00  0.00     0.074 A 
ATOM     44  C   UNL     1      -0.240   1.782  -5.148  1.00  0.00     0.049 A 
ATOM     45  N   UNL     1      -1.845   4.153  -5.655  1.00  0.00    -0.248 NA
ATOM     46  C   UNL     1      -2.493   4.184  -3.447  1.00  0.00     0.031 C 
ATOM     47  C   UNL     1       0.613   2.626  -5.975  1.00  0.00     0.029 A 
ATOM     48  N   UNL     1       0.305   0.504  -5.298  1.00  0.00    -0.354 N 
ATOM     49  C   UNL     1      -2.138   5.457  -5.335  1.00  0.00     0.074 A 
ATOM     50  C   UNL     1      -2.613   5.413  -3.967  1.00  0.00     0.031 C 
ATOM     51  C   UNL     1       1.362   1.834  -6.762  1.00  0.00     0.029 A 
ATOM     52  C   UNL     1       0.891   0.470  -6.576  1.00  0.00     0.049 A 
ATOM     53  H   UNL     1       0.283  -0.228  -4.640  1.00  0.00     0.167 HD
ATOM     54  C   UNL     1      -1.827   6.456  -6.211  1.00  0.00     0.037 A 
ATOM     55  C   UNL     1       0.299  -0.312  -7.529  1.00  0.00     0.037 A 
ATOM     56  C   UNL     1      -1.120   5.945  -7.383  1.00  0.00     0.049 A 
ATOM     57  C   UNL     1      -0.329   0.475  -8.663  1.00  0.00     0.074 A 
ATOM     58  C   UNL     1       0.216   5.869  -7.744  1.00  0.00     0.029 A 
ATOM     59  N   UNL     1      -1.795   5.117  -8.256  1.00  0.00    -0.354 N 
ATOM     60  N   UNL     1      -0.320   1.776  -8.758  1.00  0.00    -0.248 NA
ATOM     61  C   UNL     1      -1.106  -0.152  -9.733  1.00  0.00     0.031 C 
ATOM     62  C   UNL     1       0.332   4.939  -8.819  1.00  0.00     0.029 A 
ATOM     63  C   UNL     1      -0.933   4.467  -9.117  1.00  0.00     0.049 A 
ATOM     64  H   UNL     1      -2.773   5.003  -8.264  1.00  0.00     0.167 HD
ATOM     65  C   UNL     1      -1.150   2.161  -9.773  1.00  0.00     0.074 A 
ATOM     66  C   UNL     1      -1.594   0.920 -10.379  1.00  0.00     0.031 C 
ATOM     67  C   UNL     1      -1.475   3.462 -10.015  1.00  0.00     0.037 A 
BRANCH  54  68
ATOM     68  C   UNL     1      -1.994   7.926  -5.925  1.00  0.00     0.057 A 
ATOM     69  C   UNL     1      -1.146   8.886  -6.510  1.00  0.00     0.134 A 
ATOM     70  C   UNL     1      -3.009   8.459  -5.111  1.00  0.00     0.134 A 
ATOM     71  F   UNL     1      -0.174   8.541  -7.364  1.00  0.00    -0.206 F 
ATOM     72  C   UNL     1      -1.252  10.258  -6.247  1.00  0.00     0.040 A 
ATOM     73  C   UNL     1      -3.098   9.824  -4.802  1.00  0.00     0.040 A 
ATOM     74  F   UNL     1      -3.988   7.686  -4.619  1.00  0.00    -0.206 F 
ATOM     75  C   UNL     1      -2.213  10.731  -5.368  1.00  0.00     0.006 A 
ENDBRANCH  54  68
BRANCH  55  76
ATOM     76  C   UNL     1      -0.289  -1.551  -6.925  1.00  0.00     0.057 A 
ATOM     77  C   UNL     1       0.575  -2.452  -6.270  1.00  0.00     0.134 A 
ATOM     78  C   UNL     1      -1.649  -1.627  -6.598  1.00  0.00     0.134 A 
ATOM     79  F   UNL     1       1.894  -2.423  -6.520  1.00  0.00    -0.206 F 
ATOM     80  C   UNL     1       0.129  -3.291  -5.245  1.00  0.00     0.040 A 
ATOM     81  C   UNL     1      -2.108  -2.480  -5.588  1.00  0.00     0.040 A 
ATOM     82  F   UNL     1      -2.536  -0.791  -7.157  1.00  0.00    -0.206 F 
ATOM     83  C   UNL     1      -1.213  -3.281  -4.879  1.00  0.00     0.006 A 
ENDBRANCH  55  76
BRANCH  67  84
ATOM     84  C   UNL     1      -2.368   3.867 -11.145  1.00  0.00     0.057 A 
ATOM     85  C   UNL     1      -2.131   3.433 -12.455  1.00  0.00     0.134 A 
ATOM     86  C   UNL     1      -3.406   4.802 -10.980  1.00  0.00     0.134 A 
ATOM     87  F   UNL     1      -1.139   2.571 -12.726  1.00  0.00    -0.206 F 
ATOM     88  C   UNL     1      -2.897   3.884 -13.535  1.00  0.00     0.040 A 
ATOM     89  C   UNL     1      -4.144   5.298 -12.055  1.00  0.00     0.040 A 
ATOM     90  F   UNL     1      -3.759   5.254  -9.767  1.00  0.00    -0.206 F 
ATOM     91  C   UNL     1      -3.896   4.832 -13.339  1.00  0.00     0.006 A 
ENDBRANCH  67  84
ENDBRANCH  41  42
ENDBRANCH  33  36
ENDBRANCH  31  32
ENDBRANCH  30  31
ENDBRANCH  29  30
ENDBRANCH  28  29
ENDBRANCH   1  28
TORSDOF 17
