REMARK SMILES CC[C@@H](Sc1nnc2ccc3ccccc3n12)C(=O)Nc1cccc(C(=O)NCCCCCCNC(=O)c2ccc(-c3c4nc(c(-c5c(F)cccc5F)c5ccc([nH]5)c(-c5c(F)cccc5F)c5nc(c(-c6c(F)cccc6F)c6ccc3[nH]6)C=C5)C=C4)cc2)c1
REMARK SMILES IDX 30 1 29 2 28 3 26 4 27 5 25 7 21 8 22 9 92 10 23 11 24 12
REMARK SMILES IDX 20 13 18 14 19 15 3 17 2 18 1 19 4 20 5 21 6 22 17 23 7 24
REMARK SMILES IDX 8 25 16 26 9 27 11 28 15 29 10 30 12 31 14 32 13 33 31 34
REMARK SMILES IDX 32 35 33 36 34 37 35 38 36 39 37 41 38 42 39 43 91 44 40 45
REMARK SMILES IDX 90 46 41 47 42 48 43 49 84 50 44 51 89 52 83 53 85 54 45 55
REMARK SMILES IDX 88 56 82 57 81 58 46 60 72 61 55 62 71 63 56 64 59 65 70 66
REMARK SMILES IDX 86 67 57 68 58 69 69 71 87 72 60 73 47 74 48 75 53 76 49 77
REMARK SMILES IDX 50 78 52 79 54 80 51 81 73 82 74 83 79 84 75 85 76 86 78 87
REMARK SMILES IDX 80 88 77 89 61 90 62 91 67 92 63 93 64 94 66 95 68 96 65 97
REMARK H PARENT 28 6 20 16 35 40 85 59 59 70
REMARK Flexibility Score: inf
ROOT
ATOM      1  C   UNL     1      -3.270  -6.477   2.845  1.00  0.00     0.021 C 
ENDROOT
BRANCH   1   2
ATOM      2  C   UNL     1      -3.881  -5.629   1.750  1.00  0.00     0.116 C 
BRANCH   2   3
ATOM      3  N   UNL     1      -4.714  -4.548   2.224  1.00  0.00    -0.352 N 
ATOM      4  C   UNL     1      -4.760  -3.203   1.903  1.00  0.00     0.251 C 
ATOM      5  O   UNL     1      -5.543  -2.503   2.510  1.00  0.00    -0.269 OA
ATOM      6  H   UNL     1      -5.373  -4.819   2.902  1.00  0.00     0.163 HD
BRANCH   4   7
ATOM      7  C   UNL     1      -3.857  -2.589   0.877  1.00  0.00     0.041 A 
ATOM      8  C   UNL     1      -2.033  -2.706  -0.689  1.00  0.00     0.041 A 
ATOM      9  C   UNL     1      -2.124  -1.347  -0.892  1.00  0.00     0.026 A 
ATOM     10  C   UNL     1      -3.101  -3.309  -0.049  1.00  0.00     0.040 A 
ATOM     11  C   UNL     1      -2.952  -0.572  -0.084  1.00  0.00     0.003 A 
ATOM     12  C   UNL     1      -3.746  -1.194   0.875  1.00  0.00     0.014 A 
BRANCH   8  13
ATOM     13  N   UNL     1      -0.942  -3.511  -1.063  1.00  0.00    -0.325 N 
ATOM     14  C   UNL     1       0.400  -3.419  -0.737  1.00  0.00     0.237 C 
ATOM     15  O   UNL     1       1.098  -4.389  -1.078  1.00  0.00    -0.273 OA
ATOM     16  H   UNL     1      -1.170  -4.264  -1.655  1.00  0.00     0.169 HD
BRANCH  14  17
ATOM     17  C   UNL     1       1.069  -2.269   0.088  1.00  0.00     0.144 C 
BRANCH  17  18
ATOM     18  C   UNL     1       0.930  -0.947  -0.663  1.00  0.00     0.021 C 
ATOM     19  C   UNL     1       1.727   0.288  -0.310  1.00  0.00     0.005 C 
ENDBRANCH  17  18
BRANCH  17  20
ATOM     20  S   UNL     1       0.574  -2.520   1.852  1.00  0.00    -0.072 SA
BRANCH  20  21
ATOM     21  C   UNL     1       0.972  -1.060   2.686  1.00  0.00     0.196 A 
ATOM     22  N   UNL     1       0.317   0.054   2.442  1.00  0.00    -0.122 NA
ATOM     23  N   UNL     1       1.823  -0.871   3.772  1.00  0.00    -0.270 N 
ATOM     24  N   UNL     1       0.834   1.044   3.225  1.00  0.00    -0.129 NA
ATOM     25  C   UNL     1       1.728   0.501   4.019  1.00  0.00     0.161 A 
ATOM     26  C   UNL     1       2.623  -1.724   4.592  1.00  0.00     0.057 A 
ATOM     27  C   UNL     1       2.502   1.101   5.039  1.00  0.00     0.050 A 
ATOM     28  C   UNL     1       3.315  -1.104   5.662  1.00  0.00    -0.001 A 
ATOM     29  C   UNL     1       2.719  -3.107   4.431  1.00  0.00     0.027 A 
ATOM     30  C   UNL     1       3.260   0.350   5.846  1.00  0.00     0.014 A 
ATOM     31  C   UNL     1       4.059  -1.874   6.565  1.00  0.00     0.010 A 
ATOM     32  C   UNL     1       3.470  -3.864   5.341  1.00  0.00     0.002 A 
ATOM     33  C   UNL     1       4.130  -3.255   6.407  1.00  0.00     0.001 A 
ENDBRANCH  20  21
ENDBRANCH  17  20
ENDBRANCH  14  17
ENDBRANCH   8  13
ENDBRANCH   4   7
ENDBRANCH   2   3
ENDBRANCH   1   2
BRANCH   1  34
ATOM     34  C   UNL     1      -4.260  -7.357   3.586  1.00  0.00     0.002 C 
BRANCH  34  35
ATOM     35  C   UNL     1      -5.068  -8.301   2.687  1.00  0.00     0.002 C 
BRANCH  35  36
ATOM     36  C   UNL     1      -4.247  -9.205   1.749  1.00  0.00     0.021 C 
BRANCH  36  37
ATOM     37  C   UNL     1      -3.234 -10.099   2.457  1.00  0.00     0.116 C 
BRANCH  37  38
ATOM     38  N   UNL     1      -3.844 -10.937   3.460  1.00  0.00    -0.352 N 
ATOM     39  C   UNL     1      -4.213 -12.242   3.551  1.00  0.00     0.251 C 
ATOM     40  H   UNL     1      -4.042 -10.439   4.285  1.00  0.00     0.163 HD
ATOM     41  O   UNL     1      -4.499 -12.622   4.691  1.00  0.00    -0.269 OA
BRANCH  39  42
ATOM     42  C   UNL     1      -4.431 -13.181   2.418  1.00  0.00     0.039 A 
ATOM     43  C   UNL     1      -4.066 -13.062   1.082  1.00  0.00     0.014 A 
ATOM     44  C   UNL     1      -5.132 -14.338   2.776  1.00  0.00     0.014 A 
ATOM     45  C   UNL     1      -4.716 -13.888   0.129  1.00  0.00     0.010 A 
ATOM     46  C   UNL     1      -5.471 -15.291   1.831  1.00  0.00     0.010 A 
ATOM     47  C   UNL     1      -5.602 -14.933   0.514  1.00  0.00    -0.014 A 
BRANCH  47  48
ATOM     48  C   UNL     1      -6.201 -15.948  -0.424  1.00  0.00     0.031 A 
ATOM     49  C   UNL     1      -5.062 -16.401  -1.303  1.00  0.00     0.074 A 
ATOM     50  C   UNL     1      -7.514 -16.418  -0.506  1.00  0.00     0.049 A 
ATOM     51  N   UNL     1      -4.831 -15.910  -2.473  1.00  0.00    -0.248 NA
ATOM     52  C   UNL     1      -3.875 -17.122  -0.782  1.00  0.00     0.031 C 
ATOM     53  C   UNL     1      -8.717 -16.131   0.321  1.00  0.00     0.029 A 
ATOM     54  N   UNL     1      -8.115 -17.266  -1.466  1.00  0.00    -0.354 N 
ATOM     55  C   UNL     1      -3.693 -16.536  -2.971  1.00  0.00     0.074 A 
ATOM     56  C   UNL     1      -3.045 -17.119  -1.836  1.00  0.00     0.031 C 
ATOM     57  C   UNL     1      -9.764 -16.960   0.013  1.00  0.00     0.029 A 
ATOM     58  C   UNL     1      -9.427 -17.789  -1.135  1.00  0.00     0.049 A 
ATOM     59  H   UNL     1      -7.666 -17.490  -2.314  1.00  0.00     0.167 HD
ATOM     60  C   UNL     1      -3.614 -16.731  -4.317  1.00  0.00     0.037 A 
ATOM     61  C   UNL     1     -10.271 -18.608  -1.887  1.00  0.00     0.037 A 
ATOM     62  C   UNL     1      -4.608 -15.897  -4.961  1.00  0.00     0.049 A 
ATOM     63  C   UNL     1      -9.810 -18.503  -3.287  1.00  0.00     0.074 A 
ATOM     64  C   UNL     1      -4.782 -14.548  -5.173  1.00  0.00     0.029 A 
ATOM     65  N   UNL     1      -5.854 -16.466  -4.944  1.00  0.00    -0.354 N 
ATOM     66  N   UNL     1      -9.935 -17.402  -3.968  1.00  0.00    -0.248 NA
ATOM     67  C   UNL     1      -8.706 -19.378  -3.635  1.00  0.00     0.031 C 
ATOM     68  C   UNL     1      -6.181 -14.308  -5.001  1.00  0.00     0.029 A 
ATOM     69  C   UNL     1      -6.838 -15.528  -4.873  1.00  0.00     0.049 A 
ATOM     70  H   UNL     1      -6.018 -17.436  -4.978  1.00  0.00     0.167 HD
ATOM     71  C   UNL     1      -8.655 -17.176  -4.439  1.00  0.00     0.074 A 
ATOM     72  C   UNL     1      -7.944 -18.451  -4.222  1.00  0.00     0.031 C 
ATOM     73  C   UNL     1      -8.206 -15.896  -4.620  1.00  0.00     0.037 A 
BRANCH  60  74
ATOM     74  C   UNL     1      -3.158 -18.013  -4.987  1.00  0.00     0.057 A 
ATOM     75  C   UNL     1      -3.035 -19.258  -4.342  1.00  0.00     0.134 A 
ATOM     76  C   UNL     1      -3.209 -18.073  -6.395  1.00  0.00     0.134 A 
ATOM     77  F   UNL     1      -3.013 -19.372  -3.009  1.00  0.00    -0.206 F 
ATOM     78  C   UNL     1      -3.028 -20.473  -5.042  1.00  0.00     0.040 A 
ATOM     79  C   UNL     1      -3.251 -19.281  -7.100  1.00  0.00     0.040 A 
ATOM     80  F   UNL     1      -3.312 -16.951  -7.125  1.00  0.00    -0.206 F 
ATOM     81  C   UNL     1      -3.174 -20.490  -6.422  1.00  0.00     0.006 A 
ENDBRANCH  60  74
BRANCH  61  82
ATOM     82  C   UNL     1     -11.177 -19.793  -1.557  1.00  0.00     0.057 A 
ATOM     83  C   UNL     1     -10.855 -20.588  -0.452  1.00  0.00     0.134 A 
ATOM     84  C   UNL     1     -12.120 -20.396  -2.442  1.00  0.00     0.134 A 
ATOM     85  F   UNL     1      -9.897 -20.189   0.394  1.00  0.00    -0.206 F 
ATOM     86  C   UNL     1     -11.411 -21.863  -0.221  1.00  0.00     0.040 A 
ATOM     87  C   UNL     1     -12.704 -21.671  -2.210  1.00  0.00     0.040 A 
ATOM     88  F   UNL     1     -12.460 -19.804  -3.598  1.00  0.00    -0.206 F 
ATOM     89  C   UNL     1     -12.341 -22.413  -1.094  1.00  0.00     0.006 A 
ENDBRANCH  61  82
BRANCH  73  90
ATOM     90  C   UNL     1      -9.213 -14.781  -4.538  1.00  0.00     0.057 A 
ATOM     91  C   UNL     1      -9.487 -14.088  -5.717  1.00  0.00     0.134 A 
ATOM     92  C   UNL     1      -9.831 -14.303  -3.370  1.00  0.00     0.134 A 
ATOM     93  F   UNL     1      -8.846 -14.415  -6.849  1.00  0.00    -0.206 F 
ATOM     94  C   UNL     1     -10.377 -13.017  -5.757  1.00  0.00     0.040 A 
ATOM     95  C   UNL     1     -10.760 -13.253  -3.401  1.00  0.00     0.040 A 
ATOM     96  F   UNL     1      -9.508 -14.790  -2.167  1.00  0.00    -0.206 F 
ATOM     97  C   UNL     1     -11.046 -12.617  -4.605  1.00  0.00     0.006 A 
ENDBRANCH  73  90
ENDBRANCH  47  48
ENDBRANCH  39  42
ENDBRANCH  37  38
ENDBRANCH  36  37
ENDBRANCH  35  36
ENDBRANCH  34  35
ENDBRANCH   1  34
TORSDOF 18
