REMARK SMILES CC[C@](O)(C(=O)NCCCCCCNC(=O)c1ccc(-c2c3nc(c(-c4c(F)cccc4F)c4ccc([nH]4)c(-c4c(F)cccc4F)c4nc(c(-c5c(F)cccc5F)c5ccc2[nH]5)C=C4)C=C3)cc1)[C@@H](C)c1ccc2c(c1)OCCO2
REMARK SMILES IDX 10 1 9 2 8 3 7 4 5 5 6 6 3 8 2 9 1 10 71 11 72 12 73 13
REMARK SMILES IDX 74 14 78 15 75 16 77 17 76 18 79 19 82 20 80 21 81 22 4 23
REMARK SMILES IDX 11 25 12 26 13 27 14 28 15 29 16 31 17 32 18 33 70 34 19 35
REMARK SMILES IDX 69 36 20 37 21 38 22 39 63 40 23 41 68 42 62 43 64 44 24 45
REMARK SMILES IDX 67 46 61 47 60 48 25 50 51 51 34 52 50 53 35 54 38 55 49 56
REMARK SMILES IDX 65 57 36 58 37 59 48 61 66 62 39 63 26 64 27 65 32 66 28 67
REMARK SMILES IDX 29 68 31 69 33 70 30 71 52 72 53 73 58 74 54 75 55 76 57 77
REMARK SMILES IDX 59 78 56 79 40 80 41 81 46 82 42 83 43 84 45 85 47 86 44 87
REMARK H PARENT 7 7 4 24 14 30 64 49 38 60
REMARK Flexibility Score: inf
ROOT
ATOM      1  C   UNL     1      -3.626  -4.526  -0.408  1.00  0.00     0.002 C 
ENDROOT
BRANCH   1   2
ATOM      2  C   UNL     1      -2.773  -3.268  -0.257  1.00  0.00     0.021 C 
BRANCH   2   3
ATOM      3  C   UNL     1      -2.002  -3.231   1.058  1.00  0.00     0.116 C 
BRANCH   3   4
ATOM      4  N   UNL     1      -0.911  -4.205   1.086  1.00  0.00    -0.354 N 
ATOM      5  C   UNL     1       0.440  -3.983   1.269  1.00  0.00     0.252 C 
ATOM      6  O   UNL     1       1.198  -4.949   1.337  1.00  0.00    -0.272 OA
ATOM      7  H   UNL     1      -1.175  -5.145   0.957  1.00  0.00     0.163 HD
BRANCH   5   8
ATOM      8  C   UNL     1       0.913  -2.511   1.418  1.00  0.00     0.149 C 
BRANCH   8   9
ATOM      9  C   UNL     1       0.409  -2.087   2.851  1.00  0.00     0.043 C 
ATOM     10  C   UNL     1      -0.230  -0.720   3.077  1.00  0.00     0.007 C 
ENDBRANCH   8   9
BRANCH   8  11
ATOM     11  C   UNL     1       2.470  -2.280   1.270  1.00  0.00     0.058 C 
ATOM     12  C   UNL     1       3.022  -2.839  -0.065  1.00  0.00     0.016 C 
BRANCH  11  13
ATOM     13  C   UNL     1       2.885  -0.794   1.310  1.00  0.00    -0.038 A 
ATOM     14  C   UNL     1       4.231  -0.391   1.361  1.00  0.00     0.008 A 
ATOM     15  C   UNL     1       1.933   0.209   1.109  1.00  0.00     0.054 A 
ATOM     16  C   UNL     1       4.593   0.927   1.021  1.00  0.00     0.051 A 
ATOM     17  C   UNL     1       2.271   1.505   0.822  1.00  0.00     0.161 A 
ATOM     18  C   UNL     1       3.600   1.831   0.652  1.00  0.00     0.161 A 
ATOM     19  O   UNL     1       1.238   2.341   0.519  1.00  0.00    -0.486 OA
ATOM     20  O   UNL     1       3.901   2.946  -0.095  1.00  0.00    -0.486 OA
ATOM     21  C   UNL     1       1.510   3.075  -0.674  1.00  0.00     0.271 C 
ATOM     22  C   UNL     1       2.948   2.933  -1.183  1.00  0.00     0.271 C 
ENDBRANCH  11  13
ENDBRANCH   8  11
BRANCH   8  23
ATOM     23  O   UNL     1       0.249  -1.858   0.311  1.00  0.00    -0.379 OA
ATOM     24  H   UNL     1       0.622  -2.179  -0.525  1.00  0.00     0.212 HD
ENDBRANCH   8  23
ENDBRANCH   5   8
ENDBRANCH   3   4
ENDBRANCH   2   3
ENDBRANCH   1   2
BRANCH   1  25
ATOM     25  C   UNL     1      -4.574  -4.787   0.768  1.00  0.00     0.002 C 
BRANCH  25  26
ATOM     26  C   UNL     1      -5.524  -3.630   1.095  1.00  0.00     0.021 C 
BRANCH  26  27
ATOM     27  C   UNL     1      -6.438  -3.233  -0.057  1.00  0.00     0.116 C 
BRANCH  27  28
ATOM     28  N   UNL     1      -7.279  -4.342  -0.482  1.00  0.00    -0.352 N 
ATOM     29  C   UNL     1      -8.641  -4.404  -0.592  1.00  0.00     0.251 C 
ATOM     30  H   UNL     1      -6.798  -5.166  -0.725  1.00  0.00     0.163 HD
ATOM     31  O   UNL     1      -9.201  -5.490  -0.750  1.00  0.00    -0.269 OA
BRANCH  29  32
ATOM     32  C   UNL     1      -9.440  -3.168  -0.508  1.00  0.00     0.039 A 
ATOM     33  C   UNL     1     -10.608  -3.168   0.258  1.00  0.00     0.014 A 
ATOM     34  C   UNL     1      -9.039  -2.013  -1.185  1.00  0.00     0.014 A 
ATOM     35  C   UNL     1     -11.344  -1.991   0.389  1.00  0.00     0.010 A 
ATOM     36  C   UNL     1      -9.730  -0.822  -0.989  1.00  0.00     0.010 A 
ATOM     37  C   UNL     1     -10.893  -0.800  -0.204  1.00  0.00    -0.014 A 
BRANCH  37  38
ATOM     38  C   UNL     1     -11.622   0.477  -0.010  1.00  0.00     0.031 A 
ATOM     39  C   UNL     1     -12.239   1.184  -1.185  1.00  0.00     0.074 A 
ATOM     40  C   UNL     1     -11.678   1.028   1.218  1.00  0.00     0.049 A 
ATOM     41  N   UNL     1     -12.866   2.332  -1.221  1.00  0.00    -0.248 NA
ATOM     42  C   UNL     1     -12.111   0.528  -2.495  1.00  0.00     0.031 C 
ATOM     43  C   UNL     1     -11.079   0.462   2.428  1.00  0.00     0.029 A 
ATOM     44  N   UNL     1     -12.261   2.193   1.650  1.00  0.00    -0.354 N 
ATOM     45  C   UNL     1     -13.198   2.539  -2.554  1.00  0.00     0.074 A 
ATOM     46  C   UNL     1     -12.652   1.428  -3.303  1.00  0.00     0.031 C 
ATOM     47  C   UNL     1     -11.348   1.266   3.469  1.00  0.00     0.029 A 
ATOM     48  C   UNL     1     -12.098   2.424   2.995  1.00  0.00     0.049 A 
ATOM     49  H   UNL     1     -12.749   2.805   1.053  1.00  0.00     0.167 HD
ATOM     50  C   UNL     1     -13.914   3.550  -3.101  1.00  0.00     0.037 A 
ATOM     51  C   UNL     1     -12.501   3.458   3.757  1.00  0.00     0.037 A 
ATOM     52  C   UNL     1     -14.467   4.646  -2.349  1.00  0.00     0.049 A 
ATOM     53  C   UNL     1     -13.275   4.579   3.122  1.00  0.00     0.074 A 
ATOM     54  C   UNL     1     -15.254   5.691  -2.801  1.00  0.00     0.029 A 
ATOM     55  N   UNL     1     -14.287   4.842  -0.988  1.00  0.00    -0.354 N 
ATOM     56  N   UNL     1     -13.644   4.726   1.872  1.00  0.00    -0.248 NA
ATOM     57  C   UNL     1     -13.694   5.677   4.004  1.00  0.00     0.031 C 
ATOM     58  C   UNL     1     -15.502   6.548  -1.726  1.00  0.00     0.029 A 
ATOM     59  C   UNL     1     -14.924   6.006  -0.590  1.00  0.00     0.049 A 
ATOM     60  H   UNL     1     -13.781   4.242  -0.393  1.00  0.00     0.167 HD
ATOM     61  C   UNL     1     -14.364   5.913   1.824  1.00  0.00     0.074 A 
ATOM     62  C   UNL     1     -14.392   6.438   3.174  1.00  0.00     0.031 C 
ATOM     63  C   UNL     1     -14.950   6.513   0.759  1.00  0.00     0.037 A 
BRANCH  50  64
ATOM     64  C   UNL     1     -14.137   3.518  -4.586  1.00  0.00     0.057 A 
ATOM     65  C   UNL     1     -14.963   2.561  -5.191  1.00  0.00     0.134 A 
ATOM     66  C   UNL     1     -13.550   4.480  -5.419  1.00  0.00     0.134 A 
ATOM     67  F   UNL     1     -15.548   1.604  -4.454  1.00  0.00    -0.206 F 
ATOM     68  C   UNL     1     -15.173   2.543  -6.571  1.00  0.00     0.040 A 
ATOM     69  C   UNL     1     -13.778   4.491  -6.796  1.00  0.00     0.040 A 
ATOM     70  F   UNL     1     -12.754   5.431  -4.907  1.00  0.00    -0.206 F 
ATOM     71  C   UNL     1     -14.585   3.516  -7.377  1.00  0.00     0.006 A 
ENDBRANCH  50  64
BRANCH  51  72
ATOM     72  C   UNL     1     -12.194   3.475   5.210  1.00  0.00     0.057 A 
ATOM     73  C   UNL     1     -13.210   3.345   6.165  1.00  0.00     0.134 A 
ATOM     74  C   UNL     1     -10.885   3.633   5.681  1.00  0.00     0.134 A 
ATOM     75  F   UNL     1     -14.486   3.207   5.778  1.00  0.00    -0.206 F 
ATOM     76  C   UNL     1     -12.939   3.396   7.534  1.00  0.00     0.040 A 
ATOM     77  C   UNL     1     -10.596   3.657   7.046  1.00  0.00     0.040 A 
ATOM     78  F   UNL     1      -9.865   3.754   4.818  1.00  0.00    -0.206 F 
ATOM     79  C   UNL     1     -11.627   3.548   7.977  1.00  0.00     0.006 A 
ENDBRANCH  51  72
BRANCH  63  80
ATOM     80  C   UNL     1     -15.707   7.785   1.016  1.00  0.00     0.057 A 
ATOM     81  C   UNL     1     -15.059   8.984   1.337  1.00  0.00     0.134 A 
ATOM     82  C   UNL     1     -17.103   7.816   0.902  1.00  0.00     0.134 A 
ATOM     83  F   UNL     1     -13.724   9.021   1.474  1.00  0.00    -0.206 F 
ATOM     84  C   UNL     1     -15.774  10.162   1.561  1.00  0.00     0.040 A 
ATOM     85  C   UNL     1     -17.826   8.994   1.093  1.00  0.00     0.040 A 
ATOM     86  F   UNL     1     -17.786   6.705   0.588  1.00  0.00    -0.206 F 
ATOM     87  C   UNL     1     -17.161  10.170   1.431  1.00  0.00     0.006 A 
ENDBRANCH  63  80
ENDBRANCH  37  38
ENDBRANCH  29  32
ENDBRANCH  27  28
ENDBRANCH  26  27
ENDBRANCH  25  26
ENDBRANCH   1  25
TORSDOF 17
