REMARK SMILES Cc1ccc(S(=O)(=O)n2cc(C(=O)C(=O)NCC(=O)NCC(=O)NCCCCCCNC(=O)c3ccc(-c4c5nc(c(-c6c(F)cccc6F)c6ccc([nH]6)c(-c6c(F)cccc6F)c6nc(c(-c7c(F)cccc7F)c7ccc4[nH]7)C=C6)C=C5)cc3)c3ccccc32)cc1
REMARK SMILES IDX 25 1 24 2 22 3 23 4 21 6 20 7 18 8 19 9 17 11 16 12 14 13
REMARK SMILES IDX 15 14 12 16 13 17 11 18 9 19 10 20 93 21 88 22 92 23 89 24
REMARK SMILES IDX 91 25 90 26 6 27 7 28 8 29 5 30 1 31 2 32 3 33 95 34 4 35
REMARK SMILES IDX 94 36 26 37 27 38 28 39 29 40 30 41 31 42 32 43 33 45 34 46
REMARK SMILES IDX 35 47 87 48 36 49 86 50 37 51 38 52 39 53 80 54 40 55 85 56
REMARK SMILES IDX 79 57 81 58 41 59 84 60 78 61 77 62 42 64 68 65 51 66 67 67
REMARK SMILES IDX 52 68 55 69 66 70 82 71 53 72 54 73 65 75 83 76 56 77 43 78
REMARK SMILES IDX 44 79 49 80 45 81 46 82 48 83 50 84 47 85 69 86 70 87 75 88
REMARK SMILES IDX 71 89 72 90 74 91 76 92 73 93 57 94 58 95 63 96 59 97 60 98
REMARK SMILES IDX 62 99 64 100 61 101
REMARK H PARENT 24 5 20 10 16 15 31 44 81 63 55 74
REMARK Flexibility Score: inf
ROOT
ATOM      1  C   UNL     1      -9.756   3.381   3.597  1.00  0.00     0.116 C 
ENDROOT
BRANCH   1   2
ATOM      2  N   UNL     1     -10.264   2.922   2.327  1.00  0.00    -0.355 N 
ATOM      3  C   UNL     1     -10.114   3.477   1.089  1.00  0.00     0.239 C 
ATOM      4  O   UNL     1     -10.416   2.784   0.114  1.00  0.00    -0.273 OA
ATOM      5  H   UNL     1     -10.793   2.092   2.358  1.00  0.00     0.163 HD
BRANCH   3   6
ATOM      6  C   UNL     1      -9.428   4.843   0.894  1.00  0.00     0.216 C 
BRANCH   6   7
ATOM      7  N   UNL     1      -9.891   5.897   1.783  1.00  0.00    -0.346 N 
ATOM      8  C   UNL     1      -9.212   6.679   2.668  1.00  0.00     0.239 C 
ATOM      9  O   UNL     1      -9.867   7.461   3.363  1.00  0.00    -0.273 OA
ATOM     10  H   UNL     1     -10.858   6.077   1.736  1.00  0.00     0.164 HD
BRANCH   8  11
ATOM     11  C   UNL     1      -7.679   6.620   2.794  1.00  0.00     0.216 C 
BRANCH  11  12
ATOM     12  N   UNL     1      -7.139   5.359   3.309  1.00  0.00    -0.340 N 
ATOM     13  C   UNL     1      -6.313   4.410   2.738  1.00  0.00     0.292 C 
ATOM     14  O   UNL     1      -6.063   3.391   3.372  1.00  0.00    -0.265 OA
ATOM     15  H   UNL     1      -7.414   5.150   4.231  1.00  0.00     0.164 HD
BRANCH  13  16
ATOM     16  C   UNL     1      -5.717   4.631   1.331  1.00  0.00     0.252 C 
ATOM     17  O   UNL     1      -5.812   5.758   0.854  1.00  0.00    -0.283 OA
BRANCH  16  18
ATOM     18  C   UNL     1      -5.052   3.574   0.559  1.00  0.00     0.054 A 
ATOM     19  N   UNL     1      -4.153   1.648  -0.132  1.00  0.00    -0.240 N 
ATOM     20  C   UNL     1      -4.848   2.246   0.893  1.00  0.00     0.117 A 
ATOM     21  C   UNL     1      -3.898   2.540  -1.152  1.00  0.00     0.065 A 
ATOM     22  C   UNL     1      -4.450   3.758  -0.739  1.00  0.00     0.012 A 
ATOM     23  C   UNL     1      -3.212   2.417  -2.375  1.00  0.00     0.028 A 
ATOM     24  C   UNL     1      -4.315   4.879  -1.589  1.00  0.00     0.011 A 
ATOM     25  C   UNL     1      -3.074   3.554  -3.177  1.00  0.00     0.002 A 
ATOM     26  C   UNL     1      -3.621   4.770  -2.794  1.00  0.00     0.001 A 
BRANCH  19  27
ATOM     27  S   UNL     1      -3.587   0.040  -0.089  1.00  0.00     0.268 S 
ATOM     28  O   UNL     1      -3.935  -0.521  -1.376  1.00  0.00    -0.201 OA
ATOM     29  O   UNL     1      -4.088  -0.519   1.158  1.00  0.00    -0.201 OA
BRANCH  27  30
ATOM     30  C   UNL     1      -1.816   0.081   0.026  1.00  0.00     0.088 A 
ATOM     31  C   UNL     1       2.486  -0.048   0.021  1.00  0.00     0.044 C 
ATOM     32  C   UNL     1       0.986   0.001   0.042  1.00  0.00    -0.051 A 
ATOM     33  C   UNL     1       0.246  -1.185  -0.036  1.00  0.00     0.005 A 
ATOM     34  C   UNL     1       0.309   1.223   0.140  1.00  0.00     0.005 A 
ATOM     35  C   UNL     1      -1.149  -1.147  -0.050  1.00  0.00     0.022 A 
ATOM     36  C   UNL     1      -1.089   1.267   0.145  1.00  0.00     0.022 A 
ENDBRANCH  27  30
ENDBRANCH  19  27
ENDBRANCH  16  18
ENDBRANCH  13  16
ENDBRANCH  11  12
ENDBRANCH   8  11
ENDBRANCH   6   7
ENDBRANCH   3   6
ENDBRANCH   1   2
BRANCH   1  37
ATOM     37  C   UNL     1     -10.820   3.485   4.680  1.00  0.00     0.021 C 
BRANCH  37  38
ATOM     38  C   UNL     1     -11.228   2.144   5.292  1.00  0.00     0.002 C 
BRANCH  38  39
ATOM     39  C   UNL     1     -10.075   1.254   5.781  1.00  0.00     0.002 C 
BRANCH  39  40
ATOM     40  C   UNL     1      -9.022   1.938   6.653  1.00  0.00     0.021 C 
BRANCH  40  41
ATOM     41  C   UNL     1      -9.538   2.390   8.007  1.00  0.00     0.116 C 
BRANCH  41  42
ATOM     42  N   UNL     1      -9.603   1.316   8.987  1.00  0.00    -0.352 N 
ATOM     43  C   UNL     1      -9.861   1.343  10.344  1.00  0.00     0.251 C 
ATOM     44  H   UNL     1      -9.435   0.417   8.621  1.00  0.00     0.163 HD
ATOM     45  O   UNL     1      -9.745   0.308  10.995  1.00  0.00    -0.269 OA
BRANCH  43  46
ATOM     46  C   UNL     1     -10.486   2.538  10.973  1.00  0.00     0.039 A 
ATOM     47  C   UNL     1     -11.537   2.263  11.861  1.00  0.00     0.014 A 
ATOM     48  C   UNL     1     -10.395   3.781  10.367  1.00  0.00     0.014 A 
ATOM     49  C   UNL     1     -12.671   3.057  11.823  1.00  0.00     0.010 A 
ATOM     50  C   UNL     1     -11.560   4.477  10.192  1.00  0.00     0.010 A 
ATOM     51  C   UNL     1     -12.708   4.061  10.866  1.00  0.00    -0.014 A 
BRANCH  51  52
ATOM     52  C   UNL     1     -13.897   4.791  10.502  1.00  0.00     0.031 A 
ATOM     53  C   UNL     1     -14.112   6.069  11.186  1.00  0.00     0.074 A 
ATOM     54  C   UNL     1     -14.631   4.338   9.464  1.00  0.00     0.049 A 
ATOM     55  N   UNL     1     -15.261   6.600  11.385  1.00  0.00    -0.248 NA
ATOM     56  C   UNL     1     -13.015   6.828  11.783  1.00  0.00     0.031 C 
ATOM     57  C   UNL     1     -15.661   5.034   8.707  1.00  0.00     0.029 A 
ATOM     58  N   UNL     1     -14.680   3.024   8.983  1.00  0.00    -0.354 N 
ATOM     59  C   UNL     1     -15.037   7.892  11.812  1.00  0.00     0.074 A 
ATOM     60  C   UNL     1     -13.645   7.936  12.178  1.00  0.00     0.031 C 
ATOM     61  C   UNL     1     -16.422   4.125   8.069  1.00  0.00     0.029 A 
ATOM     62  C   UNL     1     -15.995   2.810   8.523  1.00  0.00     0.049 A 
ATOM     63  H   UNL     1     -13.939   2.376   8.968  1.00  0.00     0.167 HD
ATOM     64  C   UNL     1     -16.018   8.815  11.612  1.00  0.00     0.037 A 
ATOM     65  C   UNL     1     -16.802   1.907   9.158  1.00  0.00     0.037 A 
ATOM     66  C   UNL     1     -17.163   8.169  10.972  1.00  0.00     0.049 A 
ATOM     67  C   UNL     1     -17.976   2.575   9.835  1.00  0.00     0.074 A 
ATOM     68  C   UNL     1     -17.508   8.043   9.635  1.00  0.00     0.029 A 
ATOM     69  N   UNL     1     -17.884   7.204  11.662  1.00  0.00    -0.354 N 
ATOM     70  N   UNL     1     -17.967   3.812  10.252  1.00  0.00    -0.248 NA
ATOM     71  C   UNL     1     -19.260   1.917  10.053  1.00  0.00     0.031 C 
ATOM     72  C   UNL     1     -18.409   6.956   9.520  1.00  0.00     0.029 A 
ATOM     73  C   UNL     1     -18.625   6.436  10.786  1.00  0.00     0.049 A 
ATOM     74  H   UNL     1     -17.870   7.085  12.640  1.00  0.00     0.167 HD
ATOM     75  C   UNL     1     -19.197   4.127  10.770  1.00  0.00     0.074 A 
ATOM     76  C   UNL     1     -19.971   2.909  10.617  1.00  0.00     0.031 C 
ATOM     77  C   UNL     1     -19.484   5.366  11.271  1.00  0.00     0.037 A 
BRANCH  64  78
ATOM     78  C   UNL     1     -15.835  10.314  11.661  1.00  0.00     0.057 A 
ATOM     79  C   UNL     1     -16.699  11.155  10.927  1.00  0.00     0.134 A 
ATOM     80  C   UNL     1     -14.832  11.000  12.367  1.00  0.00     0.134 A 
ATOM     81  F   UNL     1     -17.762  10.674  10.269  1.00  0.00    -0.206 F 
ATOM     82  C   UNL     1     -16.524  12.540  10.830  1.00  0.00     0.040 A 
ATOM     83  C   UNL     1     -14.622  12.384  12.250  1.00  0.00     0.040 A 
ATOM     84  F   UNL     1     -14.040  10.384  13.251  1.00  0.00    -0.206 F 
ATOM     85  C   UNL     1     -15.466  13.159  11.472  1.00  0.00     0.006 A 
ENDBRANCH  64  78
BRANCH  65  86
ATOM     86  C   UNL     1     -16.029   0.750   9.700  1.00  0.00     0.057 A 
ATOM     87  C   UNL     1     -15.373  -0.086   8.775  1.00  0.00     0.134 A 
ATOM     88  C   UNL     1     -15.542   0.749  11.011  1.00  0.00     0.134 A 
ATOM     89  F   UNL     1     -15.806  -0.154   7.506  1.00  0.00    -0.206 F 
ATOM     90  C   UNL     1     -14.180  -0.742   9.090  1.00  0.00     0.040 A 
ATOM     91  C   UNL     1     -14.360   0.074  11.342  1.00  0.00     0.040 A 
ATOM     92  F   UNL     1     -16.117   1.506  11.956  1.00  0.00    -0.206 F 
ATOM     93  C   UNL     1     -13.643  -0.620  10.367  1.00  0.00     0.006 A 
ENDBRANCH  65  86
BRANCH  77  94
ATOM     94  C   UNL     1     -20.651   5.721  12.166  1.00  0.00     0.057 A 
ATOM     95  C   UNL     1     -21.369   4.792  12.932  1.00  0.00     0.134 A 
ATOM     96  C   UNL     1     -20.998   7.074  12.406  1.00  0.00     0.134 A 
ATOM     97  F   UNL     1     -21.068   3.487  12.927  1.00  0.00    -0.206 F 
ATOM     98  C   UNL     1     -22.402   5.167  13.801  1.00  0.00     0.040 A 
ATOM     99  C   UNL     1     -21.974   7.463  13.325  1.00  0.00     0.040 A 
ATOM    100  F   UNL     1     -20.384   8.090  11.783  1.00  0.00    -0.206 F 
ATOM    101  C   UNL     1     -22.701   6.506  14.010  1.00  0.00     0.006 A 
ENDBRANCH  77  94
ENDBRANCH  51  52
ENDBRANCH  43  46
ENDBRANCH  41  42
ENDBRANCH  40  41
ENDBRANCH  39  40
ENDBRANCH  38  39
ENDBRANCH  37  38
ENDBRANCH   1  37
TORSDOF 20
