REMARK SMILES CCSc1nc(CC(=O)N[C@@H](C(=O)NCCCCCCNC(=O)c2ccc(-c3c4nc(c(-c5c(F)cccc5F)c5ccc([nH]5)c(-c5c(F)cccc5F)c5nc(c(-c6c(F)cccc6F)c6ccc3[nH]6)C=C5)C=C4)cc2)C2=C(C)N=N[C@@H]2C)cs1
REMARK SMILES IDX 16 1 15 2 14 3 12 4 13 5 11 7 10 8 8 9 9 10 7 12 6 13 4 14
REMARK SMILES IDX 5 15 86 16 85 17 3 18 2 19 1 20 78 21 79 22 83 23 80 24
REMARK SMILES IDX 81 25 82 26 84 27 17 28 18 29 19 30 20 31 21 32 22 33 23 35
REMARK SMILES IDX 24 36 25 37 77 38 26 39 76 40 27 41 28 42 29 43 70 44 30 45
REMARK SMILES IDX 75 46 69 47 71 48 31 49 74 50 68 51 67 52 32 54 58 55 41 56
REMARK SMILES IDX 57 57 42 58 45 59 56 60 72 61 43 62 44 63 55 65 73 66 46 67
REMARK SMILES IDX 33 68 34 69 39 70 35 71 36 72 38 73 40 74 37 75 59 76 60 77
REMARK SMILES IDX 65 78 61 79 62 80 64 81 66 82 63 83 47 84 48 85 53 86 49 87
REMARK SMILES IDX 50 88 52 89 54 90 51 91
REMARK H PARENT 14 6 10 11 21 34 71 53 45 64
REMARK Flexibility Score: inf
ROOT
ATOM      1  C   UNL     1       6.234  -0.143  -0.947  1.00  0.00     0.021 C 
ENDROOT
BRANCH   1   2
ATOM      2  C   UNL     1       5.255  -1.236  -0.541  1.00  0.00     0.116 C 
BRANCH   2   3
ATOM      3  N   UNL     1       4.561  -1.862  -1.642  1.00  0.00    -0.354 N 
ATOM      4  C   UNL     1       4.072  -3.136  -1.741  1.00  0.00     0.247 C 
ATOM      5  O   UNL     1       3.047  -3.243  -2.428  1.00  0.00    -0.272 OA
ATOM      6  H   UNL     1       4.420  -1.292  -2.432  1.00  0.00     0.163 HD
BRANCH   4   7
ATOM      7  C   UNL     1       4.699  -4.390  -1.000  1.00  0.00     0.202 C 
BRANCH   7   8
ATOM      8  N   UNL     1       6.085  -4.213  -0.577  1.00  0.00    -0.340 N 
ATOM      9  C   UNL     1       6.597  -4.046   0.679  1.00  0.00     0.226 C 
ATOM     10  O   UNL     1       7.785  -3.722   0.772  1.00  0.00    -0.275 OA
ATOM     11  H   UNL     1       6.748  -4.214  -1.304  1.00  0.00     0.164 HD
BRANCH   9  12
ATOM     12  C   UNL     1       5.750  -4.246   1.924  1.00  0.00     0.157 C 
BRANCH  12  13
ATOM     13  C   UNL     1       4.809  -3.126   2.232  1.00  0.00     0.062 A 
ATOM     14  C   UNL     1       2.767  -2.252   2.317  1.00  0.00     0.150 A 
ATOM     15  N   UNL     1       3.481  -3.241   1.830  1.00  0.00    -0.234 NA
ATOM     16  S   UNL     1       3.643  -1.082   3.211  1.00  0.00    -0.116 S 
ATOM     17  C   UNL     1       5.084  -1.981   2.959  1.00  0.00     0.092 A 
BRANCH  14  18
ATOM     18  S   UNL     1       1.027  -2.209   2.156  1.00  0.00    -0.096 SA
BRANCH  18  19
ATOM     19  C   UNL     1       0.815  -1.788   0.404  1.00  0.00     0.074 C 
ATOM     20  C   UNL     1       1.108  -0.321   0.146  1.00  0.00     0.016 C 
ENDBRANCH  18  19
ENDBRANCH  14  18
ENDBRANCH  12  13
ENDBRANCH   9  12
ENDBRANCH   7   8
BRANCH   7  21
ATOM     21  C   UNL     1       4.664  -5.644  -1.839  1.00  0.00     0.011 C 
ATOM     22  C   UNL     1       4.890  -6.923  -1.499  1.00  0.00     0.064 C 
ATOM     23  C   UNL     1       4.244  -5.716  -3.278  1.00  0.00     0.156 C 
ATOM     24  C   UNL     1       5.306  -7.507  -0.196  1.00  0.00     0.069 C 
ATOM     25  N   UNL     1       4.680  -7.796  -2.536  1.00  0.00    -0.160 NA
ATOM     26  N   UNL     1       4.301  -7.177  -3.562  1.00  0.00    -0.181 NA
ATOM     27  C   UNL     1       5.175  -5.019  -4.260  1.00  0.00     0.040 C 
ENDBRANCH   7  21
ENDBRANCH   4   7
ENDBRANCH   2   3
ENDBRANCH   1   2
BRANCH   1  28
ATOM     28  C   UNL     1       5.593   1.210  -1.261  1.00  0.00     0.002 C 
BRANCH  28  29
ATOM     29  C   UNL     1       4.713   1.803  -0.154  1.00  0.00     0.002 C 
BRANCH  29  30
ATOM     30  C   UNL     1       5.350   1.897   1.234  1.00  0.00     0.021 C 
BRANCH  30  31
ATOM     31  C   UNL     1       6.622   2.731   1.301  1.00  0.00     0.116 C 
BRANCH  31  32
ATOM     32  N   UNL     1       6.408   4.097   0.855  1.00  0.00    -0.352 N 
ATOM     33  C   UNL     1       6.679   5.283   1.489  1.00  0.00     0.251 C 
ATOM     34  H   UNL     1       6.007   4.186  -0.040  1.00  0.00     0.163 HD
ATOM     35  O   UNL     1       6.252   6.336   1.028  1.00  0.00    -0.269 OA
BRANCH  33  36
ATOM     36  C   UNL     1       7.470   5.293   2.738  1.00  0.00     0.039 A 
ATOM     37  C   UNL     1       7.071   6.133   3.780  1.00  0.00     0.014 A 
ATOM     38  C   UNL     1       8.611   4.498   2.876  1.00  0.00     0.014 A 
ATOM     39  C   UNL     1       7.784   6.135   4.980  1.00  0.00     0.010 A 
ATOM     40  C   UNL     1       9.273   4.441   4.099  1.00  0.00     0.010 A 
ATOM     41  C   UNL     1       8.871   5.265   5.160  1.00  0.00    -0.014 A 
BRANCH  41  42
ATOM     42  C   UNL     1       9.606   5.211   6.449  1.00  0.00     0.031 A 
ATOM     43  C   UNL     1      11.058   5.598   6.508  1.00  0.00     0.074 A 
ATOM     44  C   UNL     1       8.982   4.755   7.552  1.00  0.00     0.049 A 
ATOM     45  N   UNL     1      11.885   5.555   7.522  1.00  0.00    -0.248 NA
ATOM     46  C   UNL     1      11.670   6.071   5.255  1.00  0.00     0.031 C 
ATOM     47  C   UNL     1       7.590   4.304   7.612  1.00  0.00     0.029 A 
ATOM     48  N   UNL     1       9.441   4.586   8.834  1.00  0.00    -0.354 N 
ATOM     49  C   UNL     1      13.112   5.978   7.027  1.00  0.00     0.074 A 
ATOM     50  C   UNL     1      12.937   6.221   5.612  1.00  0.00     0.031 C 
ATOM     51  C   UNL     1       7.303   3.931   8.870  1.00  0.00     0.029 A 
ATOM     52  C   UNL     1       8.498   4.077   9.694  1.00  0.00     0.049 A 
ATOM     53  H   UNL     1      10.359   4.807   9.111  1.00  0.00     0.167 HD
ATOM     54  C   UNL     1      14.274   6.169   7.696  1.00  0.00     0.037 A 
ATOM     55  C   UNL     1       8.589   3.757  10.999  1.00  0.00     0.037 A 
ATOM     56  C   UNL     1      14.437   5.951   9.109  1.00  0.00     0.049 A 
ATOM     57  C   UNL     1       9.892   3.975  11.717  1.00  0.00     0.074 A 
ATOM     58  C   UNL     1      15.555   6.177   9.893  1.00  0.00     0.029 A 
ATOM     59  N   UNL     1      13.452   5.454   9.950  1.00  0.00    -0.354 N 
ATOM     60  N   UNL     1      11.024   4.444  11.252  1.00  0.00    -0.248 NA
ATOM     61  C   UNL     1       9.928   3.625  13.144  1.00  0.00     0.031 C 
ATOM     62  C   UNL     1      15.263   5.770  11.198  1.00  0.00     0.029 A 
ATOM     63  C   UNL     1      13.945   5.343  11.240  1.00  0.00     0.049 A 
ATOM     64  H   UNL     1      12.538   5.216   9.672  1.00  0.00     0.167 HD
ATOM     65  C   UNL     1      11.897   4.474  12.333  1.00  0.00     0.074 A 
ATOM     66  C   UNL     1      11.157   3.990  13.480  1.00  0.00     0.031 C 
ATOM     67  C   UNL     1      13.193   4.867  12.372  1.00  0.00     0.037 A 
BRANCH  54  68
ATOM     68  C   UNL     1      15.462   6.640   6.907  1.00  0.00     0.057 A 
ATOM     69  C   UNL     1      15.532   7.936   6.379  1.00  0.00     0.134 A 
ATOM     70  C   UNL     1      16.567   5.802   6.710  1.00  0.00     0.134 A 
ATOM     71  F   UNL     1      14.504   8.786   6.521  1.00  0.00    -0.206 F 
ATOM     72  C   UNL     1      16.648   8.373   5.661  1.00  0.00     0.040 A 
ATOM     73  C   UNL     1      17.699   6.237   6.019  1.00  0.00     0.040 A 
ATOM     74  F   UNL     1      16.569   4.551   7.194  1.00  0.00    -0.206 F 
ATOM     75  C   UNL     1      17.739   7.525   5.487  1.00  0.00     0.006 A 
ENDBRANCH  54  68
BRANCH  55  76
ATOM     76  C   UNL     1       7.409   3.212  11.717  1.00  0.00     0.057 A 
ATOM     77  C   UNL     1       6.755   3.958  12.705  1.00  0.00     0.134 A 
ATOM     78  C   UNL     1       6.915   1.931  11.445  1.00  0.00     0.134 A 
ATOM     79  F   UNL     1       7.192   5.186  13.023  1.00  0.00    -0.206 F 
ATOM     80  C   UNL     1       5.669   3.442  13.413  1.00  0.00     0.040 A 
ATOM     81  C   UNL     1       5.812   1.412  12.126  1.00  0.00     0.040 A 
ATOM     82  F   UNL     1       7.490   1.168  10.503  1.00  0.00    -0.206 F 
ATOM     83  C   UNL     1       5.192   2.165  13.121  1.00  0.00     0.006 A 
ENDBRANCH  55  76
BRANCH  67  84
ATOM     84  C   UNL     1      13.884   4.825  13.704  1.00  0.00     0.057 A 
ATOM     85  C   UNL     1      14.244   3.618  14.316  1.00  0.00     0.134 A 
ATOM     86  C   UNL     1      14.228   6.013  14.364  1.00  0.00     0.134 A 
ATOM     87  F   UNL     1      13.931   2.446  13.743  1.00  0.00    -0.206 F 
ATOM     88  C   UNL     1      14.900   3.593  15.548  1.00  0.00     0.040 A 
ATOM     89  C   UNL     1      14.910   6.000  15.581  1.00  0.00     0.040 A 
ATOM     90  F   UNL     1      13.922   7.204  13.828  1.00  0.00    -0.206 F 
ATOM     91  C   UNL     1      15.242   4.787  16.179  1.00  0.00     0.006 A 
ENDBRANCH  67  84
ENDBRANCH  41  42
ENDBRANCH  33  36
ENDBRANCH  31  32
ENDBRANCH  30  31
ENDBRANCH  29  30
ENDBRANCH  28  29
ENDBRANCH   1  28
TORSDOF 19
