REMARK SMILES O=C(NCCCCCCNC(=O)c1c(C(=O)N2CCc3ccccc32)cccc1[N+](=O)[O-])c1ccc(-c2c3nc(c(-c4c(F)cccc4F)c4ccc([nH]4)c(-c4c(F)cccc4F)c4nc(c(-c5c(F)cccc5F)c5ccc2[nH]5)C=C4)C=C3)cc1
REMARK SMILES IDX 6 1 5 2 4 3 3 4 1 5 2 6 33 8 34 9 86 10 35 11 85 12 36 13
REMARK SMILES IDX 37 14 38 15 79 16 39 17 84 18 78 19 80 20 40 21 83 22 77 23
REMARK SMILES IDX 76 24 41 26 67 27 50 28 66 29 51 30 54 31 65 32 81 33 52 34
REMARK SMILES IDX 53 35 64 37 82 38 55 39 42 40 43 41 48 42 44 43 45 44 47 45
REMARK SMILES IDX 49 46 46 47 68 48 69 49 74 50 70 51 71 52 73 53 75 54 72 55
REMARK SMILES IDX 56 56 57 57 62 58 58 59 59 60 61 61 63 62 60 63 7 64 8 65
REMARK SMILES IDX 9 66 10 67 11 68 12 70 13 71 14 72 29 73 26 74 28 75 27 76
REMARK SMILES IDX 15 77 16 78 17 79 18 80 25 81 19 82 20 83 24 84 21 85 23 86
REMARK SMILES IDX 22 87 30 88 31 89 32 90
REMARK H PARENT 3 7 80 25 54 36 10 69
REMARK Flexibility Score: inf
ROOT
ATOM      1  C   UNL     1       4.162  -3.389  -1.724  1.00  0.00     0.002 C 
ENDROOT
BRANCH   1   2
ATOM      2  C   UNL     1       4.606  -2.567  -0.516  1.00  0.00     0.021 C 
BRANCH   2   3
ATOM      3  C   UNL     1       4.367  -1.067  -0.616  1.00  0.00     0.116 C 
BRANCH   3   4
ATOM      4  N   UNL     1       2.963  -0.709  -0.710  1.00  0.00    -0.352 N 
ATOM      5  O   UNL     1       1.056   0.364  -0.151  1.00  0.00    -0.269 OA
ATOM      6  C   UNL     1       2.266   0.256  -0.017  1.00  0.00     0.251 C 
ATOM      7  H   UNL     1       2.435  -1.228  -1.359  1.00  0.00     0.163 HD
BRANCH   6   8
ATOM      8  C   UNL     1       2.988   1.139   0.928  1.00  0.00     0.039 A 
ATOM      9  C   UNL     1       4.198   1.737   0.570  1.00  0.00     0.014 A 
ATOM     10  C   UNL     1       2.454   1.346   2.204  1.00  0.00     0.014 A 
ATOM     11  C   UNL     1       4.952   2.396   1.535  1.00  0.00     0.010 A 
ATOM     12  C   UNL     1       3.174   2.086   3.147  1.00  0.00     0.010 A 
ATOM     13  C   UNL     1       4.451   2.578   2.835  1.00  0.00    -0.014 A 
BRANCH  13  14
ATOM     14  C   UNL     1       5.276   3.302   3.836  1.00  0.00     0.031 A 
ATOM     15  C   UNL     1       5.797   2.608   5.065  1.00  0.00     0.074 A 
ATOM     16  C   UNL     1       5.598   4.590   3.604  1.00  0.00     0.049 A 
ATOM     17  N   UNL     1       6.575   3.078   6.010  1.00  0.00    -0.248 NA
ATOM     18  C   UNL     1       5.389   1.210   5.269  1.00  0.00     0.031 C 
ATOM     19  C   UNL     1       5.142   5.378   2.457  1.00  0.00     0.029 A 
ATOM     20  N   UNL     1       6.400   5.454   4.303  1.00  0.00    -0.354 N 
ATOM     21  C   UNL     1       6.726   2.047   6.929  1.00  0.00     0.074 A 
ATOM     22  C   UNL     1       5.943   0.932   6.442  1.00  0.00     0.031 C 
ATOM     23  C   UNL     1       5.717   6.588   2.499  1.00  0.00     0.029 A 
ATOM     24  C   UNL     1       6.537   6.681   3.702  1.00  0.00     0.049 A 
ATOM     25  H   UNL     1       6.836   5.218   5.154  1.00  0.00     0.167 HD
ATOM     26  C   UNL     1       7.456   2.030   8.071  1.00  0.00     0.037 A 
ATOM     27  C   UNL     1       7.242   7.764   4.076  1.00  0.00     0.037 A 
ATOM     28  C   UNL     1       8.259   3.130   8.540  1.00  0.00     0.049 A 
ATOM     29  C   UNL     1       8.047   7.714   5.340  1.00  0.00     0.074 A 
ATOM     30  C   UNL     1       9.068   3.192   9.663  1.00  0.00     0.029 A 
ATOM     31  N   UNL     1       8.355   4.363   7.913  1.00  0.00    -0.354 N 
ATOM     32  N   UNL     1       8.209   6.719   6.178  1.00  0.00    -0.248 NA
ATOM     33  C   UNL     1       8.768   8.939   5.711  1.00  0.00     0.031 C 
ATOM     34  C   UNL     1       9.624   4.474   9.734  1.00  0.00     0.029 A 
ATOM     35  C   UNL     1       9.196   5.197   8.633  1.00  0.00     0.049 A 
ATOM     36  H   UNL     1       7.893   4.610   7.079  1.00  0.00     0.167 HD
ATOM     37  C   UNL     1       9.065   7.189   7.164  1.00  0.00     0.074 A 
ATOM     38  C   UNL     1       9.402   8.553   6.810  1.00  0.00     0.031 C 
ATOM     39  C   UNL     1       9.528   6.549   8.265  1.00  0.00     0.037 A 
BRANCH  26  40
ATOM     40  C   UNL     1       7.411   0.783   8.907  1.00  0.00     0.057 A 
ATOM     41  C   UNL     1       8.062  -0.395   8.519  1.00  0.00     0.134 A 
ATOM     42  C   UNL     1       6.742   0.776  10.138  1.00  0.00     0.134 A 
ATOM     43  F   UNL     1       8.712  -0.458   7.347  1.00  0.00    -0.206 F 
ATOM     44  C   UNL     1       8.033  -1.541   9.317  1.00  0.00     0.040 A 
ATOM     45  C   UNL     1       6.725  -0.356  10.954  1.00  0.00     0.040 A 
ATOM     46  F   UNL     1       6.104   1.873  10.573  1.00  0.00    -0.206 F 
ATOM     47  C   UNL     1       7.368  -1.521  10.542  1.00  0.00     0.006 A 
ENDBRANCH  26  40
BRANCH  27  48
ATOM     48  C   UNL     1       7.228   8.981   3.228  1.00  0.00     0.057 A 
ATOM     49  C   UNL     1       8.361   9.371   2.507  1.00  0.00     0.134 A 
ATOM     50  C   UNL     1       6.081   9.775   3.111  1.00  0.00     0.134 A 
ATOM     51  F   UNL     1       9.494   8.659   2.592  1.00  0.00    -0.206 F 
ATOM     52  C   UNL     1       8.360  10.515   1.708  1.00  0.00     0.040 A 
ATOM     53  C   UNL     1       6.057  10.907   2.297  1.00  0.00     0.040 A 
ATOM     54  F   UNL     1       4.960   9.448   3.772  1.00  0.00    -0.206 F 
ATOM     55  C   UNL     1       7.202  11.284   1.597  1.00  0.00     0.006 A 
ENDBRANCH  27  48
BRANCH  39  56
ATOM     56  C   UNL     1      10.477   7.308   9.142  1.00  0.00     0.057 A 
ATOM     57  C   UNL     1      10.045   8.353   9.969  1.00  0.00     0.134 A 
ATOM     58  C   UNL     1      11.838   6.981   9.168  1.00  0.00     0.134 A 
ATOM     59  F   UNL     1       8.756   8.724   9.977  1.00  0.00    -0.206 F 
ATOM     60  C   UNL     1      10.939   9.063  10.772  1.00  0.00     0.040 A 
ATOM     61  C   UNL     1      12.738   7.667   9.985  1.00  0.00     0.040 A 
ATOM     62  F   UNL     1      12.315   5.986   8.404  1.00  0.00    -0.206 F 
ATOM     63  C   UNL     1      12.289   8.717  10.784  1.00  0.00     0.006 A 
ENDBRANCH  39  56
ENDBRANCH  13  14
ENDBRANCH   6   8
ENDBRANCH   3   4
ENDBRANCH   2   3
ENDBRANCH   1   2
BRANCH   1  64
ATOM     64  C   UNL     1       4.678  -2.917  -3.086  1.00  0.00     0.002 C 
BRANCH  64  65
ATOM     65  C   UNL     1       6.194  -2.723  -3.214  1.00  0.00     0.021 C 
BRANCH  65  66
ATOM     66  C   UNL     1       7.052  -3.901  -2.763  1.00  0.00     0.116 C 
BRANCH  66  67
ATOM     67  N   UNL     1       6.741  -5.121  -3.481  1.00  0.00    -0.352 N 
ATOM     68  C   UNL     1       7.571  -6.101  -3.950  1.00  0.00     0.259 C 
ATOM     69  H   UNL     1       5.783  -5.266  -3.660  1.00  0.00     0.163 HD
ATOM     70  O   UNL     1       7.109  -7.046  -4.575  1.00  0.00    -0.269 OA
BRANCH  68  71
ATOM     71  C   UNL     1       9.021  -6.003  -3.721  1.00  0.00     0.130 A 
ATOM     72  C   UNL     1       9.889  -5.909  -4.811  1.00  0.00     0.060 A 
ATOM     73  C   UNL     1       9.582  -6.062  -2.442  1.00  0.00     0.282 A 
ATOM     74  C   UNL     1      11.279  -5.857  -4.614  1.00  0.00     0.015 A 
ATOM     75  C   UNL     1      10.966  -5.947  -2.231  1.00  0.00     0.086 A 
ATOM     76  C   UNL     1      11.815  -5.835  -3.328  1.00  0.00     0.008 A 
BRANCH  72  77
ATOM     77  C   UNL     1       9.394  -6.072  -6.186  1.00  0.00     0.259 C 
ATOM     78  O   UNL     1       9.429  -7.195  -6.679  1.00  0.00    -0.269 OA
BRANCH  77  79
ATOM     79  N   UNL     1       8.979  -4.921  -6.866  1.00  0.00    -0.308 N 
ATOM     80  C   UNL     1       7.665  -5.019  -7.551  1.00  0.00     0.131 C 
ATOM     81  C   UNL     1       9.897  -4.476  -7.857  1.00  0.00     0.047 A 
ATOM     82  C   UNL     1       7.873  -4.785  -9.056  1.00  0.00     0.059 C 
ATOM     83  C   UNL     1       9.347  -4.583  -9.129  1.00  0.00    -0.022 A 
ATOM     84  C   UNL     1      11.245  -4.219  -7.674  1.00  0.00     0.026 A 
ATOM     85  C   UNL     1      10.165  -4.605 -10.247  1.00  0.00     0.006 A 
ATOM     86  C   UNL     1      12.077  -4.225  -8.791  1.00  0.00     0.002 A 
ATOM     87  C   UNL     1      11.544  -4.462 -10.066  1.00  0.00     0.000 A 
ENDBRANCH  77  79
ENDBRANCH  72  77
BRANCH  73  88
ATOM     88  N   UNL     1       8.752  -6.307  -1.281  1.00  0.00     0.063 N 
ATOM     89  O   UNL     1       8.846  -5.493  -0.352  1.00  0.00    -0.258 OA
ATOM     90  O   UNL     1       8.036  -7.313  -1.287  1.00  0.00    -0.258 OA
ENDBRANCH  73  88
ENDBRANCH  68  71
ENDBRANCH  66  67
ENDBRANCH  65  66
ENDBRANCH  64  65
ENDBRANCH   1  64
TORSDOF 16
