REMARK SMILES CC(=O)N1CCC[C@H]1COCC(=O)NCCCCCCNC(=O)c1ccc(-c2c3nc(c(-c4c(F)cccc4F)c4ccc([nH]4)c(-c4c(F)cccc4F)c4nc(c(-c5c(F)cccc5F)c5ccc2[nH]5)C=C4)C=C3)cc1
REMARK SMILES IDX 16 1 15 2 14 3 12 4 13 5 11 7 10 8 9 9 8 10 4 11 5 12 6 13
REMARK SMILES IDX 7 14 2 15 1 16 3 17 17 18 18 19 19 20 20 21 21 22 22 23
REMARK SMILES IDX 23 25 24 26 25 27 77 28 26 29 76 30 27 31 28 32 29 33 70 34
REMARK SMILES IDX 30 35 75 36 69 37 71 38 31 39 74 40 68 41 67 42 32 44 58 45
REMARK SMILES IDX 41 46 57 47 42 48 45 49 56 50 72 51 43 52 44 53 55 55 73 56
REMARK SMILES IDX 46 57 33 58 34 59 39 60 35 61 36 62 38 63 40 64 37 65 59 66
REMARK SMILES IDX 60 67 65 68 61 69 62 70 64 71 66 72 63 73 47 74 48 75 53 76
REMARK SMILES IDX 49 77 50 78 52 79 54 80 51 81
REMARK H PARENT 14 6 21 24 71 43 45 54
REMARK Flexibility Score: inf
ROOT
ATOM      1  C   UNL     1      -2.202   7.185  -1.325  1.00  0.00     0.021 C 
ENDROOT
BRANCH   1   2
ATOM      2  C   UNL     1      -3.232   6.750  -0.285  1.00  0.00     0.116 C 
BRANCH   2   3
ATOM      3  N   UNL     1      -3.595   5.356  -0.427  1.00  0.00    -0.354 N 
ATOM      4  C   UNL     1      -3.387   4.338   0.459  1.00  0.00     0.245 C 
ATOM      5  O   UNL     1      -3.854   3.226   0.216  1.00  0.00    -0.272 OA
ATOM      6  H   UNL     1      -4.048   5.111  -1.266  1.00  0.00     0.163 HD
BRANCH   4   7
ATOM      7  C   UNL     1      -2.625   4.632   1.758  1.00  0.00     0.260 C 
BRANCH   7   8
ATOM      8  O   UNL     1      -1.340   5.233   1.643  1.00  0.00    -0.370 OA
BRANCH   8   9
ATOM      9  C   UNL     1      -0.391   4.426   0.933  1.00  0.00     0.185 C 
BRANCH   9  10
ATOM     10  C   UNL     1       0.117   3.250   1.781  1.00  0.00     0.111 C 
ATOM     11  N   UNL     1       1.028   2.339   1.092  1.00  0.00    -0.338 N 
ATOM     12  C   UNL     1       2.325   2.308   1.742  1.00  0.00     0.120 C 
ATOM     13  C   UNL     1       2.011   2.700   3.174  1.00  0.00     0.024 C 
ATOM     14  C   UNL     1       0.901   3.733   3.013  1.00  0.00     0.029 C 
BRANCH  11  15
ATOM     15  C   UNL     1       0.549   1.480   0.127  1.00  0.00     0.219 C 
ATOM     16  C   UNL     1       1.369   0.252  -0.159  1.00  0.00     0.114 C 
ATOM     17  O   UNL     1      -0.535   1.652  -0.426  1.00  0.00    -0.275 OA
ENDBRANCH  11  15
ENDBRANCH   9  10
ENDBRANCH   8   9
ENDBRANCH   7   8
ENDBRANCH   4   7
ENDBRANCH   2   3
ENDBRANCH   1   2
BRANCH   1  18
ATOM     18  C   UNL     1      -2.684   7.087  -2.778  1.00  0.00     0.002 C 
BRANCH  18  19
ATOM     19  C   UNL     1      -3.998   7.813  -3.085  1.00  0.00     0.002 C 
BRANCH  19  20
ATOM     20  C   UNL     1      -4.024   9.299  -2.720  1.00  0.00     0.021 C 
BRANCH  20  21
ATOM     21  C   UNL     1      -2.963  10.147  -3.413  1.00  0.00     0.116 C 
BRANCH  21  22
ATOM     22  N   UNL     1      -3.139  10.180  -4.857  1.00  0.00    -0.352 N 
ATOM     23  C   UNL     1      -3.241  11.259  -5.698  1.00  0.00     0.251 C 
ATOM     24  H   UNL     1      -3.193   9.300  -5.294  1.00  0.00     0.163 HD
ATOM     25  O   UNL     1      -3.568  11.097  -6.873  1.00  0.00    -0.269 OA
BRANCH  23  26
ATOM     26  C   UNL     1      -2.982  12.623  -5.192  1.00  0.00     0.039 A 
ATOM     27  C   UNL     1      -3.857  13.653  -5.548  1.00  0.00     0.014 A 
ATOM     28  C   UNL     1      -1.880  12.891  -4.375  1.00  0.00     0.014 A 
ATOM     29  C   UNL     1      -3.665  14.935  -5.030  1.00  0.00     0.010 A 
ATOM     30  C   UNL     1      -1.731  14.152  -3.803  1.00  0.00     0.010 A 
ATOM     31  C   UNL     1      -2.623  15.187  -4.122  1.00  0.00    -0.014 A 
BRANCH  31  32
ATOM     32  C   UNL     1      -2.463  16.520  -3.485  1.00  0.00     0.031 A 
ATOM     33  C   UNL     1      -1.229  17.342  -3.742  1.00  0.00     0.074 A 
ATOM     34  C   UNL     1      -3.400  16.961  -2.623  1.00  0.00     0.049 A 
ATOM     35  N   UNL     1      -0.884  18.496  -3.228  1.00  0.00    -0.248 NA
ATOM     36  C   UNL     1      -0.242  16.785  -4.680  1.00  0.00     0.031 C 
ATOM     37  C   UNL     1      -4.622  16.241  -2.258  1.00  0.00     0.029 A 
ATOM     38  N   UNL     1      -3.469  18.120  -1.890  1.00  0.00    -0.354 N 
ATOM     39  C   UNL     1       0.362  18.792  -3.764  1.00  0.00     0.074 A 
ATOM     40  C   UNL     1       0.734  17.679  -4.610  1.00  0.00     0.031 C 
ATOM     41  C   UNL     1      -5.330  16.984  -1.392  1.00  0.00     0.029 A 
ATOM     42  C   UNL     1      -4.595  18.212  -1.107  1.00  0.00     0.049 A 
ATOM     43  H   UNL     1      -2.777  18.820  -1.923  1.00  0.00     0.167 HD
ATOM     44  C   UNL     1       1.119  19.900  -3.583  1.00  0.00     0.037 A 
ATOM     45  C   UNL     1      -4.986  19.173  -0.248  1.00  0.00     0.037 A 
ATOM     46  C   UNL     1       0.732  21.021  -2.766  1.00  0.00     0.049 A 
ATOM     47  C   UNL     1      -4.114  20.384  -0.055  1.00  0.00     0.074 A 
ATOM     48  C   UNL     1       1.396  22.222  -2.584  1.00  0.00     0.029 A 
ATOM     49  N   UNL     1      -0.416  21.078  -1.992  1.00  0.00    -0.354 N 
ATOM     50  N   UNL     1      -2.977  20.687  -0.632  1.00  0.00    -0.248 NA
ATOM     51  C   UNL     1      -4.583  21.389   0.911  1.00  0.00     0.031 C 
ATOM     52  C   UNL     1       0.678  22.983  -1.656  1.00  0.00     0.029 A 
ATOM     53  C   UNL     1      -0.463  22.280  -1.305  1.00  0.00     0.049 A 
ATOM     54  H   UNL     1      -1.098  20.369  -1.939  1.00  0.00     0.167 HD
ATOM     55  C   UNL     1      -2.615  21.930  -0.129  1.00  0.00     0.074 A 
ATOM     56  C   UNL     1      -3.659  22.330   0.791  1.00  0.00     0.031 C 
ATOM     57  C   UNL     1      -1.515  22.672  -0.403  1.00  0.00     0.037 A 
BRANCH  44  58
ATOM     58  C   UNL     1       2.449  19.963  -4.277  1.00  0.00     0.057 A 
ATOM     59  C   UNL     1       2.553  20.128  -5.665  1.00  0.00     0.134 A 
ATOM     60  C   UNL     1       3.640  19.923  -3.541  1.00  0.00     0.134 A 
ATOM     61  F   UNL     1       1.452  20.165  -6.430  1.00  0.00    -0.206 F 
ATOM     62  C   UNL     1       3.794  20.234  -6.296  1.00  0.00     0.040 A 
ATOM     63  C   UNL     1       4.885  20.055  -4.157  1.00  0.00     0.040 A 
ATOM     64  F   UNL     1       3.612  19.774  -2.208  1.00  0.00    -0.206 F 
ATOM     65  C   UNL     1       4.965  20.206  -5.540  1.00  0.00     0.006 A 
ENDBRANCH  44  58
BRANCH  45  66
ATOM     66  C   UNL     1      -6.269  19.046   0.490  1.00  0.00     0.057 A 
ATOM     67  C   UNL     1      -7.338  19.912   0.229  1.00  0.00     0.134 A 
ATOM     68  C   UNL     1      -6.447  18.089   1.496  1.00  0.00     0.134 A 
ATOM     69  F   UNL     1      -7.222  20.864  -0.709  1.00  0.00    -0.206 F 
ATOM     70  C   UNL     1      -8.526  19.850   0.960  1.00  0.00     0.040 A 
ATOM     71  C   UNL     1      -7.640  17.997   2.215  1.00  0.00     0.040 A 
ATOM     72  F   UNL     1      -5.465  17.225   1.791  1.00  0.00    -0.206 F 
ATOM     73  C   UNL     1      -8.680  18.888   1.955  1.00  0.00     0.006 A 
ENDBRANCH  45  66
BRANCH  57  74
ATOM     74  C   UNL     1      -1.405  24.013   0.264  1.00  0.00     0.057 A 
ATOM     75  C   UNL     1      -1.139  24.141   1.633  1.00  0.00     0.134 A 
ATOM     76  C   UNL     1      -1.530  25.191  -0.483  1.00  0.00     0.134 A 
ATOM     77  F   UNL     1      -1.022  23.052   2.408  1.00  0.00    -0.206 F 
ATOM     78  C   UNL     1      -1.027  25.393   2.240  1.00  0.00     0.040 A 
ATOM     79  C   UNL     1      -1.390  26.448   0.106  1.00  0.00     0.040 A 
ATOM     80  F   UNL     1      -1.775  25.140  -1.802  1.00  0.00    -0.206 F 
ATOM     81  C   UNL     1      -1.145  26.551   1.474  1.00  0.00     0.006 A 
ENDBRANCH  57  74
ENDBRANCH  31  32
ENDBRANCH  23  26
ENDBRANCH  21  22
ENDBRANCH  20  21
ENDBRANCH  19  20
ENDBRANCH  18  19
ENDBRANCH   1  18
TORSDOF 17
