REMARK SMILES CSc1ncc(Cl)c(C(=O)Nc2ccsc2C(=O)NCCCCCCNC(=O)c2ccc(-c3c4nc(c(-c5c(F)cccc5F)c5ccc([nH]5)c(-c5c(F)cccc5F)c5nc(c(-c6c(F)cccc6F)c6ccc3[nH]6)C=C5)C=C4)cc2)n1
REMARK SMILES IDX 22 1 21 2 20 3 19 4 17 5 18 6 16 8 12 9 13 10 14 11 15 12
REMARK SMILES IDX 11 13 9 14 10 15 8 17 3 18 4 19 83 20 5 21 6 22 7 23 2 24
REMARK SMILES IDX 1 25 23 26 24 27 25 28 26 29 27 30 28 32 29 33 30 34 82 35
REMARK SMILES IDX 31 36 81 37 32 38 33 39 34 40 75 41 35 42 80 43 74 44 76 45
REMARK SMILES IDX 36 46 79 47 73 48 72 49 37 51 63 52 46 53 62 54 47 55 50 56
REMARK SMILES IDX 61 57 77 58 48 59 49 60 60 62 78 63 51 64 38 65 39 66 44 67
REMARK SMILES IDX 40 68 41 69 43 70 45 71 42 72 64 73 65 74 70 75 66 76 67 77
REMARK SMILES IDX 69 78 71 79 68 80 52 81 53 82 58 83 54 84 55 85 57 86 59 87
REMARK SMILES IDX 56 88
REMARK H PARENT 19 7 11 16 26 31 76 50 50 61
REMARK Flexibility Score: inf
ROOT
ATOM      1  C   UNL     1      -1.638  -7.619  -6.706  1.00  0.00     0.002 C 
ENDROOT
BRANCH   1   2
ATOM      2  C   UNL     1      -1.226  -6.189  -6.363  1.00  0.00     0.021 C 
BRANCH   2   3
ATOM      3  C   UNL     1       0.227  -5.813  -6.618  1.00  0.00     0.116 C 
BRANCH   3   4
ATOM      4  N   UNL     1       0.672  -5.802  -7.989  1.00  0.00    -0.351 N 
ATOM      5  C   UNL     1       1.717  -5.139  -8.611  1.00  0.00     0.263 C 
ATOM      6  O   UNL     1       1.821  -5.406  -9.814  1.00  0.00    -0.268 OA
ATOM      7  H   UNL     1       0.138  -6.368  -8.592  1.00  0.00     0.163 HD
BRANCH   5   8
ATOM      8  C   UNL     1       2.602  -4.168  -7.943  1.00  0.00     0.115 A 
ATOM      9  C   UNL     1       3.005  -3.919  -6.631  1.00  0.00     0.065 A 
ATOM     10  C   UNL     1       3.835  -2.761  -6.504  1.00  0.00     0.038 A 
ATOM     11  C   UNL     1       4.055  -2.141  -7.708  1.00  0.00     0.068 A 
ATOM     12  S   UNL     1       3.294  -2.961  -8.991  1.00  0.00    -0.137 S 
BRANCH   9  13
ATOM     13  N   UNL     1       2.669  -4.721  -5.565  1.00  0.00    -0.319 N 
ATOM     14  C   UNL     1       2.081  -4.396  -4.358  1.00  0.00     0.276 C 
ATOM     15  O   UNL     1       1.787  -5.351  -3.630  1.00  0.00    -0.267 OA
ATOM     16  H   UNL     1       2.882  -5.675  -5.679  1.00  0.00     0.170 HD
BRANCH  14  17
ATOM     17  C   UNL     1       1.706  -3.012  -3.903  1.00  0.00     0.151 A 
ATOM     18  C   UNL     1       1.448  -1.760  -1.972  1.00  0.00     0.188 A 
ATOM     19  N   UNL     1       1.075  -0.669  -2.650  1.00  0.00    -0.230 NA
ATOM     20  N   UNL     1       1.828  -2.902  -2.551  1.00  0.00    -0.216 NA
ATOM     21  C   UNL     1       0.944  -0.812  -3.981  1.00  0.00     0.137 A 
ATOM     22  C   UNL     1       1.162  -1.992  -4.663  1.00  0.00     0.090 A 
ATOM     23  Cl  UNL     1       0.543  -2.062  -6.260  1.00  0.00    -0.080 Cl
BRANCH  18  24
ATOM     24  S   UNL     1       1.241  -1.794  -0.212  1.00  0.00    -0.090 SA
ATOM     25  C   UNL     1       1.089  -0.028   0.134  1.00  0.00     0.094 C 
ENDBRANCH  18  24
ENDBRANCH  14  17
ENDBRANCH   9  13
ENDBRANCH   5   8
ENDBRANCH   3   4
ENDBRANCH   2   3
ENDBRANCH   1   2
BRANCH   1  26
ATOM     26  C   UNL     1      -0.748  -8.749  -6.184  1.00  0.00     0.002 C 
BRANCH  26  27
ATOM     27  C   UNL     1      -0.435  -8.763  -4.685  1.00  0.00     0.021 C 
BRANCH  27  28
ATOM     28  C   UNL     1      -1.627  -8.677  -3.738  1.00  0.00     0.116 C 
BRANCH  28  29
ATOM     29  N   UNL     1      -2.597  -9.740  -3.942  1.00  0.00    -0.352 N 
ATOM     30  C   UNL     1      -3.172 -10.595  -3.037  1.00  0.00     0.251 C 
ATOM     31  H   UNL     1      -2.887  -9.865  -4.874  1.00  0.00     0.163 HD
ATOM     32  O   UNL     1      -3.890 -11.513  -3.439  1.00  0.00    -0.269 OA
BRANCH  30  33
ATOM     33  C   UNL     1      -2.922 -10.450  -1.585  1.00  0.00     0.039 A 
ATOM     34  C   UNL     1      -2.698 -11.604  -0.828  1.00  0.00     0.014 A 
ATOM     35  C   UNL     1      -2.934  -9.201  -0.960  1.00  0.00     0.014 A 
ATOM     36  C   UNL     1      -2.427 -11.501   0.539  1.00  0.00     0.010 A 
ATOM     37  C   UNL     1      -2.592  -9.093   0.388  1.00  0.00     0.010 A 
ATOM     38  C   UNL     1      -2.339 -10.241   1.153  1.00  0.00    -0.014 A 
BRANCH  38  39
ATOM     39  C   UNL     1      -1.981 -10.113   2.590  1.00  0.00     0.031 A 
ATOM     40  C   UNL     1      -2.964  -9.538   3.573  1.00  0.00     0.074 A 
ATOM     41  C   UNL     1      -0.750 -10.471   3.005  1.00  0.00     0.049 A 
ATOM     42  N   UNL     1      -2.818  -9.311   4.854  1.00  0.00    -0.248 NA
ATOM     43  C   UNL     1      -4.279  -9.144   3.042  1.00  0.00     0.031 C 
ATOM     44  C   UNL     1       0.311 -10.999   2.145  1.00  0.00     0.029 A 
ATOM     45  N   UNL     1      -0.179 -10.437   4.253  1.00  0.00    -0.354 N 
ATOM     46  C   UNL     1      -4.012  -8.741   5.278  1.00  0.00     0.074 A 
ATOM     47  C   UNL     1      -4.852  -8.606   4.107  1.00  0.00     0.031 C 
ATOM     48  C   UNL     1       1.394 -11.262   2.894  1.00  0.00     0.029 A 
ATOM     49  C   UNL     1       1.119 -10.886   4.277  1.00  0.00     0.049 A 
ATOM     50  H   UNL     1      -0.655 -10.120   5.054  1.00  0.00     0.167 HD
ATOM     51  C   UNL     1      -4.384  -8.382   6.530  1.00  0.00     0.037 A 
ATOM     52  C   UNL     1       1.993 -10.977   5.298  1.00  0.00     0.037 A 
ATOM     53  C   UNL     1      -3.552  -8.531   7.696  1.00  0.00     0.049 A 
ATOM     54  C   UNL     1       1.562 -10.558   6.676  1.00  0.00     0.074 A 
ATOM     55  C   UNL     1      -3.858  -8.248   9.016  1.00  0.00     0.029 A 
ATOM     56  N   UNL     1      -2.246  -8.998   7.681  1.00  0.00    -0.354 N 
ATOM     57  N   UNL     1       0.405 -10.087   7.074  1.00  0.00    -0.248 NA
ATOM     58  C   UNL     1       2.557 -10.690   7.750  1.00  0.00     0.031 C 
ATOM     59  C   UNL     1      -2.722  -8.496   9.793  1.00  0.00     0.029 A 
ATOM     60  C   UNL     1      -1.725  -8.988   8.965  1.00  0.00     0.049 A 
ATOM     61  H   UNL     1      -1.760  -9.292   6.877  1.00  0.00     0.167 HD
ATOM     62  C   UNL     1       0.522  -9.896   8.444  1.00  0.00     0.074 A 
ATOM     63  C   UNL     1       1.858 -10.316   8.812  1.00  0.00     0.031 C 
ATOM     64  C   UNL     1      -0.395  -9.415   9.320  1.00  0.00     0.037 A 
BRANCH  51  65
ATOM     65  C   UNL     1      -5.755  -7.794   6.704  1.00  0.00     0.057 A 
ATOM     66  C   UNL     1      -6.916  -8.564   6.548  1.00  0.00     0.134 A 
ATOM     67  C   UNL     1      -5.918  -6.451   7.066  1.00  0.00     0.134 A 
ATOM     68  F   UNL     1      -6.833  -9.855   6.193  1.00  0.00    -0.206 F 
ATOM     69  C   UNL     1      -8.188  -8.013   6.717  1.00  0.00     0.040 A 
ATOM     70  C   UNL     1      -7.184  -5.896   7.266  1.00  0.00     0.040 A 
ATOM     71  F   UNL     1      -4.851  -5.657   7.241  1.00  0.00    -0.206 F 
ATOM     72  C   UNL     1      -8.323  -6.676   7.084  1.00  0.00     0.006 A 
ENDBRANCH  51  65
BRANCH  52  73
ATOM     73  C   UNL     1       3.360 -11.508   5.062  1.00  0.00     0.057 A 
ATOM     74  C   UNL     1       3.753 -12.748   5.579  1.00  0.00     0.134 A 
ATOM     75  C   UNL     1       4.309 -10.788   4.326  1.00  0.00     0.134 A 
ATOM     76  F   UNL     1       2.896 -13.477   6.309  1.00  0.00    -0.206 F 
ATOM     77  C   UNL     1       5.045 -13.244   5.393  1.00  0.00     0.040 A 
ATOM     78  C   UNL     1       5.596 -11.283   4.109  1.00  0.00     0.040 A 
ATOM     79  F   UNL     1       3.995  -9.596   3.799  1.00  0.00    -0.206 F 
ATOM     80  C   UNL     1       5.969 -12.511   4.651  1.00  0.00     0.006 A 
ENDBRANCH  52  73
BRANCH  64  81
ATOM     81  C   UNL     1       0.000  -9.357  10.767  1.00  0.00     0.057 A 
ATOM     82  C   UNL     1       0.936  -8.431  11.245  1.00  0.00     0.134 A 
ATOM     83  C   UNL     1      -0.589 -10.220  11.700  1.00  0.00     0.134 A 
ATOM     84  F   UNL     1       1.547  -7.585  10.402  1.00  0.00    -0.206 F 
ATOM     85  C   UNL     1       1.290  -8.383  12.595  1.00  0.00     0.040 A 
ATOM     86  C   UNL     1      -0.265 -10.162  13.056  1.00  0.00     0.040 A 
ATOM     87  F   UNL     1      -1.500 -11.126  11.312  1.00  0.00    -0.206 F 
ATOM     88  C   UNL     1       0.684  -9.245  13.506  1.00  0.00     0.006 A 
ENDBRANCH  64  81
ENDBRANCH  38  39
ENDBRANCH  30  33
ENDBRANCH  28  29
ENDBRANCH  27  28
ENDBRANCH  26  27
ENDBRANCH   1  26
TORSDOF 16
