REMARK SMILES O=C(CCN1C(=O)/C(=C/c2cc(Br)cc(Br)c2O)SC1=S)NCCCCCCNC(=O)c1ccc(-c2c3nc(c(-c4c(F)cccc4F)c4ccc([nH]4)c(-c4c(F)cccc4F)c4nc(c(-c5c(F)cccc5F)c5ccc2[nH]5)C=C4)C=C3)cc1
REMARK SMILES IDX 24 1 23 2 22 3 1 4 2 5 3 7 4 8 5 9 6 10 20 11 7 12 8 13
REMARK SMILES IDX 19 14 21 15 9 16 10 17 11 18 17 19 12 20 15 21 13 22 14 23
REMARK SMILES IDX 16 24 18 25 25 27 26 28 27 29 28 30 29 31 30 32 31 34 32 35
REMARK SMILES IDX 33 36 85 37 34 38 84 39 35 40 36 41 37 42 78 43 38 44 83 45
REMARK SMILES IDX 77 46 79 47 39 48 82 49 76 50 75 51 40 53 66 54 49 55 65 56
REMARK SMILES IDX 50 57 53 58 64 59 80 60 51 61 52 62 63 64 81 65 54 66 41 67
REMARK SMILES IDX 42 68 47 69 43 70 44 71 46 72 48 73 45 74 67 75 68 76 73 77
REMARK SMILES IDX 69 78 70 79 72 80 74 81 71 82 55 83 56 84 61 85 57 86 58 87
REMARK SMILES IDX 60 88 62 89 59 90
REMARK H PARENT 22 6 18 26 29 33 79 52 53 63
REMARK Flexibility Score: inf
ROOT
ATOM      1  C   UNL     1       2.385  -3.293   0.717  1.00  0.00     0.021 C 
ENDROOT
BRANCH   1   2
ATOM      2  C   UNL     1       1.951  -1.974   1.364  1.00  0.00     0.116 C 
BRANCH   2   3
ATOM      3  N   UNL     1       2.634  -0.833   0.776  1.00  0.00    -0.356 N 
ATOM      4  O   UNL     1       0.738   0.289   0.177  1.00  0.00    -0.275 OA
ATOM      5  C   UNL     1       1.964   0.205   0.181  1.00  0.00     0.221 C 
ATOM      6  H   UNL     1       3.617  -0.804   0.807  1.00  0.00     0.163 HD
BRANCH   5   7
ATOM      7  C   UNL     1       2.805   1.189  -0.612  1.00  0.00     0.122 C 
BRANCH   7   8
ATOM      8  C   UNL     1       4.081   1.745   0.021  1.00  0.00     0.137 C 
BRANCH   8   9
ATOM      9  N   UNL     1       5.196   0.834   0.328  1.00  0.00    -0.292 N 
ATOM     10  C   UNL     1       5.964   1.127   1.452  1.00  0.00     0.266 C 
ATOM     11  C   UNL     1       5.724  -0.146  -0.484  1.00  0.00     0.148 C 
ATOM     12  O   UNL     1       5.840   2.104   2.179  1.00  0.00    -0.268 OA
ATOM     13  C   UNL     1       7.000   0.078   1.675  1.00  0.00     0.081 C 
ATOM     14  S   UNL     1       6.881  -1.096   0.436  1.00  0.00    -0.054 SA
ATOM     15  S   UNL     1       5.398  -0.502  -2.075  1.00  0.00    -0.052 S 
ATOM     16  C   UNL     1       7.807   0.107   2.749  1.00  0.00     0.033 C 
BRANCH  16  17
ATOM     17  C   UNL     1       8.676  -0.978   3.263  1.00  0.00     0.020 A 
ATOM     18  C   UNL     1       9.417  -1.795   2.395  1.00  0.00     0.027 A 
ATOM     19  C   UNL     1       8.723  -1.276   4.643  1.00  0.00     0.137 A 
ATOM     20  C   UNL     1      10.060  -2.945   2.862  1.00  0.00     0.019 A 
ATOM     21  C   UNL     1       9.403  -2.415   5.106  1.00  0.00     0.061 A 
ATOM     22  Br  UNL     1      10.907  -4.103   1.630  1.00  0.00    -0.051 Br
ATOM     23  C   UNL     1      10.048  -3.267   4.212  1.00  0.00     0.035 A 
ATOM     24  Br  UNL     1       9.455  -2.859   6.952  1.00  0.00    -0.047 Br
BRANCH  19  25
ATOM     25  O   UNL     1       8.079  -0.508   5.581  1.00  0.00    -0.506 OA
ATOM     26  H   UNL     1       7.613   0.261   5.317  1.00  0.00     0.293 HD
ENDBRANCH  19  25
ENDBRANCH  16  17
ENDBRANCH   8   9
ENDBRANCH   7   8
ENDBRANCH   5   7
ENDBRANCH   2   3
ENDBRANCH   1   2
BRANCH   1  27
ATOM     27  C   UNL     1       3.884  -3.604   0.810  1.00  0.00     0.002 C 
BRANCH  27  28
ATOM     28  C   UNL     1       4.482  -3.579   2.220  1.00  0.00     0.002 C 
BRANCH  28  29
ATOM     29  C   UNL     1       3.880  -4.591   3.195  1.00  0.00     0.021 C 
BRANCH  29  30
ATOM     30  C   UNL     1       4.055  -6.052   2.791  1.00  0.00     0.116 C 
BRANCH  30  31
ATOM     31  N   UNL     1       5.449  -6.471   2.777  1.00  0.00    -0.352 N 
ATOM     32  C   UNL     1       6.010  -7.625   3.269  1.00  0.00     0.251 C 
ATOM     33  H   UNL     1       6.077  -5.840   2.356  1.00  0.00     0.163 HD
ATOM     34  O   UNL     1       7.230  -7.755   3.296  1.00  0.00    -0.269 OA
BRANCH  32  35
ATOM     35  C   UNL     1       5.141  -8.701   3.794  1.00  0.00     0.039 A 
ATOM     36  C   UNL     1       5.477  -9.311   5.006  1.00  0.00     0.014 A 
ATOM     37  C   UNL     1       4.001  -9.111   3.096  1.00  0.00     0.014 A 
ATOM     38  C   UNL     1       4.638 -10.287   5.548  1.00  0.00     0.010 A 
ATOM     39  C   UNL     1       3.130 -10.032   3.671  1.00  0.00     0.010 A 
ATOM     40  C   UNL     1       3.441 -10.634   4.900  1.00  0.00    -0.014 A 
BRANCH  40  41
ATOM     41  C   UNL     1       2.514 -11.642   5.475  1.00  0.00     0.031 A 
ATOM     42  C   UNL     1       2.256 -12.929   4.739  1.00  0.00     0.074 A 
ATOM     43  C   UNL     1       1.857 -11.379   6.622  1.00  0.00     0.049 A 
ATOM     44  N   UNL     1       1.410 -13.888   5.019  1.00  0.00    -0.248 NA
ATOM     45  C   UNL     1       3.034 -13.155   3.510  1.00  0.00     0.031 C 
ATOM     46  C   UNL     1       1.985 -10.152   7.411  1.00  0.00     0.029 A 
ATOM     47  N   UNL     1       0.939 -12.126   7.318  1.00  0.00    -0.354 N 
ATOM     48  C   UNL     1       1.546 -14.821   3.998  1.00  0.00     0.074 A 
ATOM     49  C   UNL     1       2.514 -14.289   3.064  1.00  0.00     0.031 C 
ATOM     50  C   UNL     1       1.185 -10.236   8.487  1.00  0.00     0.029 A 
ATOM     51  C   UNL     1       0.465 -11.505   8.448  1.00  0.00     0.049 A 
ATOM     52  H   UNL     1       0.647 -13.022   7.033  1.00  0.00     0.167 HD
ATOM     53  C   UNL     1       0.941 -16.025   3.864  1.00  0.00     0.037 A 
ATOM     54  C   UNL     1      -0.453 -11.911   9.346  1.00  0.00     0.037 A 
ATOM     55  C   UNL     1      -0.001 -16.569   4.805  1.00  0.00     0.049 A 
ATOM     56  C   UNL     1      -1.103 -13.257   9.178  1.00  0.00     0.074 A 
ATOM     57  C   UNL     1      -0.652 -17.790   4.767  1.00  0.00     0.029 A 
ATOM     58  N   UNL     1      -0.415 -15.930   5.963  1.00  0.00    -0.354 N 
ATOM     59  N   UNL     1      -0.934 -14.144   8.227  1.00  0.00    -0.248 NA
ATOM     60  C   UNL     1      -2.063 -13.665  10.214  1.00  0.00     0.031 C 
ATOM     61  C   UNL     1      -1.478 -17.880   5.893  1.00  0.00     0.029 A 
ATOM     62  C   UNL     1      -1.310 -16.732   6.649  1.00  0.00     0.049 A 
ATOM     63  H   UNL     1      -0.116 -15.038   6.254  1.00  0.00     0.167 HD
ATOM     64  C   UNL     1      -1.735 -15.226   8.570  1.00  0.00     0.074 A 
ATOM     65  C   UNL     1      -2.382 -14.890   9.821  1.00  0.00     0.031 C 
ATOM     66  C   UNL     1      -1.921 -16.394   7.908  1.00  0.00     0.037 A 
BRANCH  53  67
ATOM     67  C   UNL     1       1.300 -16.848   2.662  1.00  0.00     0.057 A 
ATOM     68  C   UNL     1       2.551 -17.467   2.546  1.00  0.00     0.134 A 
ATOM     69  C   UNL     1       0.375 -17.063   1.633  1.00  0.00     0.134 A 
ATOM     70  F   UNL     1       3.487 -17.290   3.492  1.00  0.00    -0.206 F 
ATOM     71  C   UNL     1       2.878 -18.254   1.441  1.00  0.00     0.040 A 
ATOM     72  C   UNL     1       0.680 -17.868   0.534  1.00  0.00     0.040 A 
ATOM     73  F   UNL     1      -0.844 -16.504   1.684  1.00  0.00    -0.206 F 
ATOM     74  C   UNL     1       1.937 -18.463   0.434  1.00  0.00     0.006 A 
ENDBRANCH  53  67
BRANCH  54  75
ATOM     75  C   UNL     1      -0.807 -11.047  10.501  1.00  0.00     0.057 A 
ATOM     76  C   UNL     1      -0.445 -11.400  11.806  1.00  0.00     0.134 A 
ATOM     77  C   UNL     1      -1.547  -9.871  10.334  1.00  0.00     0.134 A 
ATOM     78  F   UNL     1       0.248 -12.526  12.033  1.00  0.00    -0.206 F 
ATOM     79  C   UNL     1      -0.832 -10.634  12.907  1.00  0.00     0.040 A 
ATOM     80  C   UNL     1      -1.919  -9.081  11.423  1.00  0.00     0.040 A 
ATOM     81  F   UNL     1      -1.919  -9.472   9.109  1.00  0.00    -0.206 F 
ATOM     82  C   UNL     1      -1.571  -9.468  12.716  1.00  0.00     0.006 A 
ENDBRANCH  54  75
BRANCH  66  83
ATOM     83  C   UNL     1      -2.809 -17.416   8.552  1.00  0.00     0.057 A 
ATOM     84  C   UNL     1      -4.201 -17.268   8.594  1.00  0.00     0.134 A 
ATOM     85  C   UNL     1      -2.263 -18.582   9.104  1.00  0.00     0.134 A 
ATOM     86  F   UNL     1      -4.783 -16.168   8.093  1.00  0.00    -0.206 F 
ATOM     87  C   UNL     1      -5.017 -18.235   9.183  1.00  0.00     0.040 A 
ATOM     88  C   UNL     1      -3.071 -19.566   9.674  1.00  0.00     0.040 A 
ATOM     89  F   UNL     1      -0.937 -18.787   9.087  1.00  0.00    -0.206 F 
ATOM     90  C   UNL     1      -4.452 -19.391   9.720  1.00  0.00     0.006 A 
ENDBRANCH  66  83
ENDBRANCH  40  41
ENDBRANCH  32  35
ENDBRANCH  30  31
ENDBRANCH  29  30
ENDBRANCH  28  29
ENDBRANCH  27  28
ENDBRANCH   1  27
TORSDOF 17
