REMARK SMILES Cc1ccc([C@H]2C[C@]2([NH3+])C(=O)NCCCCCCNC(=O)c2ccc(-c3c4nc(c(-c5c(F)cccc5F)c5ccc([nH]5)c(-c5c(F)cccc5F)c5nc(c(-c6c(F)cccc6F)c6ccc3[nH]6)C=C5)C=C4)cc2)cc1C
REMARK SMILES IDX 16 1 15 2 14 3 13 4 12 5 10 6 11 7 8 9 6 10 7 11 5 12 1 13
REMARK SMILES IDX 2 14 3 15 77 16 4 17 76 18 78 19 9 20 17 24 18 25 19 26
REMARK SMILES IDX 20 27 21 29 22 30 23 31 75 32 24 33 74 34 25 35 26 36 27 37
REMARK SMILES IDX 68 38 28 39 73 40 67 41 69 42 29 43 72 44 66 45 65 46 30 48
REMARK SMILES IDX 56 49 39 50 55 51 40 52 43 53 54 54 70 55 41 56 42 57 53 59
REMARK SMILES IDX 71 60 44 61 31 62 32 63 37 64 33 65 34 66 36 67 38 68 35 69
REMARK SMILES IDX 57 70 58 71 63 72 59 73 60 74 62 75 64 76 61 77 45 78 46 79
REMARK SMILES IDX 51 80 47 81 48 82 50 83 52 84 49 85
REMARK H PARENT 12 8 9 21 9 22 9 23 19 28 69 47 43 58
REMARK Flexibility Score: inf
ROOT
ATOM      1  C   UNL     1      -5.010   3.074   4.558  1.00  0.00     0.002 C 
ENDROOT
BRANCH   1   2
ATOM      2  C   UNL     1      -3.683   2.739   3.870  1.00  0.00     0.002 C 
BRANCH   2   3
ATOM      3  C   UNL     1      -3.445   1.256   3.563  1.00  0.00     0.021 C 
BRANCH   3   4
ATOM      4  C   UNL     1      -4.535   0.576   2.738  1.00  0.00     0.116 C 
BRANCH   4   5
ATOM      5  N   UNL     1      -4.706   1.175   1.433  1.00  0.00    -0.351 N 
ATOM      6  C   UNL     1      -4.719   0.581   0.197  1.00  0.00     0.281 C 
ATOM      7  O   UNL     1      -4.925   1.271  -0.799  1.00  0.00    -0.268 OA
ATOM      8  H   UNL     1      -4.832   2.151   1.432  1.00  0.00     0.163 HD
BRANCH   6   9
ATOM      9  C   UNL     1      -4.458  -0.911   0.072  1.00  0.00     0.181 C 
ATOM     10  C   UNL     1      -3.008  -1.320  -0.150  1.00  0.00     0.097 C 
ATOM     11  C   UNL     1      -4.002  -1.447  -1.271  1.00  0.00     0.095 C 
BRANCH  10  12
ATOM     12  C   UNL     1      -2.338  -2.559   0.396  1.00  0.00    -0.038 A 
ATOM     13  C   UNL     1       0.085  -5.857   1.887  1.00  0.00     0.044 C 
ATOM     14  C   UNL     1      -0.793  -4.735   1.405  1.00  0.00    -0.048 A 
ATOM     15  C   UNL     1      -0.857  -4.470   0.032  1.00  0.00     0.004 A 
ATOM     16  C   UNL     1      -1.531  -3.926   2.286  1.00  0.00    -0.048 A 
ATOM     17  C   UNL     1      -1.615  -3.404  -0.458  1.00  0.00     0.004 A 
ATOM     18  C   UNL     1      -2.284  -2.850   1.768  1.00  0.00     0.008 A 
ATOM     19  C   UNL     1      -1.541  -4.133   3.776  1.00  0.00     0.044 C 
ENDBRANCH  10  12
BRANCH   9  20
ATOM     20  N   UNL     1      -5.470  -1.774   0.736  1.00  0.00    -0.344 N 
ATOM     21  H   UNL     1      -5.220  -2.754   0.604  1.00  0.00     0.345 HD
ATOM     22  H   UNL     1      -6.388  -1.599   0.326  1.00  0.00     0.345 HD
ATOM     23  H   UNL     1      -5.497  -1.561   1.733  1.00  0.00     0.345 HD
ENDBRANCH   9  20
ENDBRANCH   6   9
ENDBRANCH   4   5
ENDBRANCH   3   4
ENDBRANCH   2   3
ENDBRANCH   1   2
BRANCH   1  24
ATOM     24  C   UNL     1      -5.288   2.325   5.863  1.00  0.00     0.021 C 
BRANCH  24  25
ATOM     25  C   UNL     1      -4.219   2.468   6.941  1.00  0.00     0.116 C 
BRANCH  25  26
ATOM     26  N   UNL     1      -4.044   3.843   7.379  1.00  0.00    -0.352 N 
ATOM     27  C   UNL     1      -4.045   4.368   8.647  1.00  0.00     0.251 C 
ATOM     28  H   UNL     1      -3.903   4.496   6.656  1.00  0.00     0.163 HD
ATOM     29  O   UNL     1      -4.034   5.586   8.804  1.00  0.00    -0.269 OA
BRANCH  27  30
ATOM     30  C   UNL     1      -4.085   3.479   9.830  1.00  0.00     0.039 A 
ATOM     31  C   UNL     1      -4.916   3.825  10.899  1.00  0.00     0.014 A 
ATOM     32  C   UNL     1      -3.295   2.328   9.906  1.00  0.00     0.014 A 
ATOM     33  C   UNL     1      -4.999   2.989  12.015  1.00  0.00     0.010 A 
ATOM     34  C   UNL     1      -3.434   1.458  10.986  1.00  0.00     0.010 A 
ATOM     35  C   UNL     1      -4.283   1.781  12.055  1.00  0.00    -0.014 A 
BRANCH  35  36
ATOM     36  C   UNL     1      -4.420   0.853  13.207  1.00  0.00     0.031 A 
ATOM     37  C   UNL     1      -3.241   0.557  14.095  1.00  0.00     0.074 A 
ATOM     38  C   UNL     1      -5.599   0.241  13.431  1.00  0.00     0.049 A 
ATOM     39  N   UNL     1      -3.167  -0.238  15.132  1.00  0.00    -0.248 NA
ATOM     40  C   UNL     1      -1.974   1.224  13.759  1.00  0.00     0.031 C 
ATOM     41  C   UNL     1      -6.803   0.401  12.614  1.00  0.00     0.029 A 
ATOM     42  N   UNL     1      -5.978  -0.642  14.411  1.00  0.00    -0.354 N 
ATOM     43  C   UNL     1      -1.849  -0.174  15.566  1.00  0.00     0.074 A 
ATOM     44  C   UNL     1      -1.145   0.693  14.645  1.00  0.00     0.031 C 
ATOM     45  C   UNL     1      -7.794  -0.334  13.144  1.00  0.00     0.029 A 
ATOM     46  C   UNL     1      -7.288  -1.044  14.314  1.00  0.00     0.049 A 
ATOM     47  H   UNL     1      -5.369  -0.958  15.117  1.00  0.00     0.167 HD
ATOM     48  C   UNL     1      -1.281  -0.761  16.647  1.00  0.00     0.037 A 
ATOM     49  C   UNL     1      -8.002  -1.889  15.082  1.00  0.00     0.037 A 
ATOM     50  C   UNL     1      -1.987  -1.608  17.573  1.00  0.00     0.049 A 
ATOM     51  C   UNL     1      -7.348  -2.532  16.273  1.00  0.00     0.074 A 
ATOM     52  C   UNL     1      -1.514  -2.202  18.731  1.00  0.00     0.029 A 
ATOM     53  N   UNL     1      -3.315  -1.986  17.445  1.00  0.00    -0.354 N 
ATOM     54  N   UNL     1      -6.120  -2.402  16.713  1.00  0.00    -0.248 NA
ATOM     55  C   UNL     1      -8.183  -3.434  17.078  1.00  0.00     0.031 C 
ATOM     56  C   UNL     1      -2.542  -2.978  19.277  1.00  0.00     0.029 A 
ATOM     57  C   UNL     1      -3.671  -2.826  18.489  1.00  0.00     0.049 A 
ATOM     58  H   UNL     1      -3.916  -1.700  16.720  1.00  0.00     0.167 HD
ATOM     59  C   UNL     1      -6.041  -3.184  17.858  1.00  0.00     0.074 A 
ATOM     60  C   UNL     1      -7.352  -3.767  18.056  1.00  0.00     0.031 C 
ATOM     61  C   UNL     1      -4.979  -3.402  18.672  1.00  0.00     0.037 A 
BRANCH  48  62
ATOM     62  C   UNL     1       0.179  -0.504  16.887  1.00  0.00     0.057 A 
ATOM     63  C   UNL     1       0.652   0.752  17.291  1.00  0.00     0.134 A 
ATOM     64  C   UNL     1       1.121  -1.532  16.746  1.00  0.00     0.134 A 
ATOM     65  F   UNL     1      -0.194   1.783  17.434  1.00  0.00    -0.206 F 
ATOM     66  C   UNL     1       2.010   0.984  17.517  1.00  0.00     0.040 A 
ATOM     67  C   UNL     1       2.478  -1.319  16.997  1.00  0.00     0.040 A 
ATOM     68  F   UNL     1       0.737  -2.761  16.369  1.00  0.00    -0.206 F 
ATOM     69  C   UNL     1       2.926  -0.056  17.377  1.00  0.00     0.006 A 
ENDBRANCH  48  62
BRANCH  49  70
ATOM     70  C   UNL     1      -9.427  -2.159  14.764  1.00  0.00     0.057 A 
ATOM     71  C   UNL     1     -10.454  -1.695  15.596  1.00  0.00     0.134 A 
ATOM     72  C   UNL     1      -9.798  -2.896  13.633  1.00  0.00     0.134 A 
ATOM     73  F   UNL     1     -10.161  -1.000  16.704  1.00  0.00    -0.206 F 
ATOM     74  C   UNL     1     -11.795  -1.973  15.327  1.00  0.00     0.040 A 
ATOM     75  C   UNL     1     -11.136  -3.159  13.338  1.00  0.00     0.040 A 
ATOM     76  F   UNL     1      -8.863  -3.362  12.792  1.00  0.00    -0.206 F 
ATOM     77  C   UNL     1     -12.139  -2.703  14.192  1.00  0.00     0.006 A 
ENDBRANCH  49  70
BRANCH  61  78
ATOM     78  C   UNL     1      -5.202  -4.289  19.863  1.00  0.00     0.057 A 
ATOM     79  C   UNL     1      -5.396  -5.670  19.732  1.00  0.00     0.134 A 
ATOM     80  C   UNL     1      -5.204  -3.757  21.159  1.00  0.00     0.134 A 
ATOM     81  F   UNL     1      -5.418  -6.241  18.518  1.00  0.00    -0.206 F 
ATOM     82  C   UNL     1      -5.615  -6.485  20.844  1.00  0.00     0.040 A 
ATOM     83  C   UNL     1      -5.393  -4.566  22.280  1.00  0.00     0.040 A 
ATOM     84  F   UNL     1      -5.014  -2.444  21.358  1.00  0.00    -0.206 F 
ATOM     85  C   UNL     1      -5.608  -5.934  22.123  1.00  0.00     0.006 A 
ENDBRANCH  61  78
ENDBRANCH  35  36
ENDBRANCH  27  30
ENDBRANCH  25  26
ENDBRANCH  24  25
ENDBRANCH   1  24
TORSDOF 15
