REMARK SMILES Nc1ccc(Cl)c(SC[C@H]2CC[C@@H](C(=O)NCCCCCCNC(=O)c3ccc(-c4c5nc(c(-c6c(F)cccc6F)c6ccc([nH]6)c(-c6c(F)cccc6F)c6nc(c(-c7c(F)cccc7F)c7ccc4[nH]7)C=C6)C=C5)cc3)O2)c1
REMARK SMILES IDX 18 1 17 2 16 3 14 4 15 5 13 7 10 8 11 9 80 10 12 11 9 12
REMARK SMILES IDX 8 13 7 14 2 15 3 16 81 17 4 18 5 19 6 20 1 21 19 24 20 25
REMARK SMILES IDX 21 26 22 27 23 28 24 29 25 31 26 32 27 33 79 34 28 35 78 36
REMARK SMILES IDX 29 37 30 38 31 39 72 40 32 41 77 42 71 43 73 44 33 45 76 46
REMARK SMILES IDX 70 47 69 48 34 50 60 51 43 52 59 53 44 54 47 55 58 56 74 57
REMARK SMILES IDX 45 58 46 59 57 61 75 62 48 63 35 64 36 65 41 66 37 67 38 68
REMARK SMILES IDX 40 69 42 70 39 71 61 72 62 73 67 74 63 75 64 76 66 77 68 78
REMARK SMILES IDX 65 79 49 80 50 81 55 82 51 83 52 84 54 85 56 86 53 87
REMARK H PARENT 16 6 1 22 1 23 23 30 73 49 47 60
REMARK Flexibility Score: inf
ROOT
ATOM      1  C   UNL     1      -4.083  -4.573   4.989  1.00  0.00     0.021 C 
ENDROOT
BRANCH   1   2
ATOM      2  C   UNL     1      -4.886  -4.059   3.792  1.00  0.00     0.116 C 
BRANCH   2   3
ATOM      3  N   UNL     1      -4.379  -2.788   3.327  1.00  0.00    -0.354 N 
ATOM      4  C   UNL     1      -3.553  -2.448   2.302  1.00  0.00     0.249 C 
ATOM      5  O   UNL     1      -3.318  -1.238   2.191  1.00  0.00    -0.272 OA
ATOM      6  H   UNL     1      -4.693  -2.019   3.855  1.00  0.00     0.163 HD
BRANCH   4   7
ATOM      7  C   UNL     1      -3.005  -3.459   1.261  1.00  0.00     0.207 C 
ATOM      8  C   UNL     1      -0.786  -4.136   0.817  1.00  0.00     0.129 C 
ATOM      9  C   UNL     1      -1.671  -5.363   0.786  1.00  0.00     0.036 C 
ATOM     10  O   UNL     1      -1.700  -3.032   0.787  1.00  0.00    -0.364 OA
ATOM     11  C   UNL     1      -2.841  -4.925   1.624  1.00  0.00     0.045 C 
BRANCH   8  12
ATOM     12  C   UNL     1       0.211  -4.113   2.004  1.00  0.00     0.107 C 
BRANCH  12  13
ATOM     13  S   UNL     1      -0.203  -3.151   3.506  1.00  0.00    -0.122 SA
BRANCH  13  14
ATOM     14  C   UNL     1      -0.080  -1.420   2.994  1.00  0.00     0.028 A 
ATOM     15  C   UNL     1       0.438   0.283   1.300  1.00  0.00     0.033 A 
ATOM     16  C   UNL     1       0.057   1.283   2.187  1.00  0.00     0.027 A 
ATOM     17  C   UNL     1       0.423  -1.047   1.735  1.00  0.00     0.042 A 
ATOM     18  C   UNL     1      -0.419   0.953   3.456  1.00  0.00     0.024 A 
ATOM     19  C   UNL     1      -0.501  -0.387   3.855  1.00  0.00     0.054 A 
ATOM     20  Cl  UNL     1      -1.132  -0.684   5.444  1.00  0.00    -0.083 Cl
BRANCH  15  21
ATOM     21  N   UNL     1       0.963   0.602   0.053  1.00  0.00    -0.399 N 
ATOM     22  H   UNL     1       0.973   1.538  -0.253  1.00  0.00     0.156 HD
ATOM     23  H   UNL     1       1.325  -0.108  -0.525  1.00  0.00     0.156 HD
ENDBRANCH  15  21
ENDBRANCH  13  14
ENDBRANCH  12  13
ENDBRANCH   8  12
ENDBRANCH   4   7
ENDBRANCH   2   3
ENDBRANCH   1   2
BRANCH   1  24
ATOM     24  C   UNL     1      -4.503  -3.955   6.328  1.00  0.00     0.002 C 
BRANCH  24  25
ATOM     25  C   UNL     1      -5.957  -4.216   6.739  1.00  0.00     0.002 C 
BRANCH  25  26
ATOM     26  C   UNL     1      -6.386  -5.686   6.726  1.00  0.00     0.021 C 
BRANCH  26  27
ATOM     27  C   UNL     1      -5.603  -6.581   7.682  1.00  0.00     0.116 C 
BRANCH  27  28
ATOM     28  N   UNL     1      -5.849  -6.230   9.072  1.00  0.00    -0.352 N 
ATOM     29  C   UNL     1      -6.326  -7.008  10.096  1.00  0.00     0.251 C 
ATOM     30  H   UNL     1      -5.644  -5.298   9.313  1.00  0.00     0.163 HD
ATOM     31  O   UNL     1      -6.686  -6.492  11.149  1.00  0.00    -0.269 OA
BRANCH  29  32
ATOM     32  C   UNL     1      -6.416  -8.475   9.930  1.00  0.00     0.039 A 
ATOM     33  C   UNL     1      -7.566  -9.136  10.371  1.00  0.00     0.014 A 
ATOM     34  C   UNL     1      -5.360  -9.199   9.369  1.00  0.00     0.014 A 
ATOM     35  C   UNL     1      -7.677 -10.518  10.204  1.00  0.00     0.010 A 
ATOM     36  C   UNL     1      -5.499 -10.566   9.145  1.00  0.00     0.010 A 
ATOM     37  C   UNL     1      -6.656 -11.239   9.565  1.00  0.00    -0.014 A 
BRANCH  37  38
ATOM     38  C   UNL     1      -6.778 -12.700   9.333  1.00  0.00     0.031 A 
ATOM     39  C   UNL     1      -5.844 -13.656  10.021  1.00  0.00     0.074 A 
ATOM     40  C   UNL     1      -7.688 -13.160   8.453  1.00  0.00     0.049 A 
ATOM     41  N   UNL     1      -5.748 -14.955   9.893  1.00  0.00    -0.248 NA
ATOM     42  C   UNL     1      -4.873 -13.071  10.959  1.00  0.00     0.031 C 
ATOM     43  C   UNL     1      -8.622 -12.330   7.689  1.00  0.00     0.029 A 
ATOM     44  N   UNL     1      -7.970 -14.439   8.045  1.00  0.00    -0.354 N 
ATOM     45  C   UNL     1      -4.700 -15.340  10.719  1.00  0.00     0.074 A 
ATOM     46  C   UNL     1      -4.160 -14.133  11.307  1.00  0.00     0.031 C 
ATOM     47  C   UNL     1      -9.386 -13.122   6.921  1.00  0.00     0.029 A 
ATOM     48  C   UNL     1      -8.974 -14.510   7.111  1.00  0.00     0.049 A 
ATOM     49  H   UNL     1      -7.497 -15.231   8.389  1.00  0.00     0.167 HD
ATOM     50  C   UNL     1      -4.243 -16.587  10.981  1.00  0.00     0.037 A 
ATOM     51  C   UNL     1      -9.500 -15.573   6.475  1.00  0.00     0.037 A 
ATOM     52  C   UNL     1      -4.799 -17.789  10.416  1.00  0.00     0.049 A 
ATOM     53  C   UNL     1      -8.975 -16.948   6.783  1.00  0.00     0.074 A 
ATOM     54  C   UNL     1      -4.444 -19.103  10.664  1.00  0.00     0.029 A 
ATOM     55  N   UNL     1      -5.829 -17.820   9.488  1.00  0.00    -0.354 N 
ATOM     56  N   UNL     1      -8.024 -17.302   7.612  1.00  0.00    -0.248 NA
ATOM     57  C   UNL     1      -9.601 -18.071   6.071  1.00  0.00     0.031 C 
ATOM     58  C   UNL     1      -5.234 -19.929   9.857  1.00  0.00     0.029 A 
ATOM     59  C   UNL     1      -6.110 -19.131   9.139  1.00  0.00     0.049 A 
ATOM     60  H   UNL     1      -6.292 -17.029   9.131  1.00  0.00     0.167 HD
ATOM     61  C   UNL     1      -7.956 -18.687   7.543  1.00  0.00     0.074 A 
ATOM     62  C   UNL     1      -8.970 -19.110   6.599  1.00  0.00     0.031 C 
ATOM     63  C   UNL     1      -7.128 -19.534   8.203  1.00  0.00     0.037 A 
BRANCH  50  64
ATOM     64  C   UNL     1      -3.085 -16.715  11.928  1.00  0.00     0.057 A 
ATOM     65  C   UNL     1      -3.225 -16.473  13.301  1.00  0.00     0.134 A 
ATOM     66  C   UNL     1      -1.824 -17.114  11.468  1.00  0.00     0.134 A 
ATOM     67  F   UNL     1      -4.404 -16.075  13.804  1.00  0.00    -0.206 F 
ATOM     68  C   UNL     1      -2.147 -16.598  14.178  1.00  0.00     0.040 A 
ATOM     69  C   UNL     1      -0.745 -17.268  12.340  1.00  0.00     0.040 A 
ATOM     70  F   UNL     1      -1.622 -17.369  10.166  1.00  0.00    -0.206 F 
ATOM     71  C   UNL     1      -0.903 -17.003  13.699  1.00  0.00     0.006 A 
ENDBRANCH  50  64
BRANCH  51  72
ATOM     72  C   UNL     1     -10.604 -15.384   5.501  1.00  0.00     0.057 A 
ATOM     73  C   UNL     1     -11.906 -15.799   5.800  1.00  0.00     0.134 A 
ATOM     74  C   UNL     1     -10.385 -14.791   4.252  1.00  0.00     0.134 A 
ATOM     75  F   UNL     1     -12.173 -16.391   6.974  1.00  0.00    -0.206 F 
ATOM     76  C   UNL     1     -12.950 -15.648   4.887  1.00  0.00     0.040 A 
ATOM     77  C   UNL     1     -11.425 -14.612   3.338  1.00  0.00     0.040 A 
ATOM     78  F   UNL     1      -9.161 -14.365   3.909  1.00  0.00    -0.206 F 
ATOM     79  C   UNL     1     -12.711 -15.047   3.652  1.00  0.00     0.006 A 
ENDBRANCH  51  72
BRANCH  63  80
ATOM     80  C   UNL     1      -7.307 -21.001   7.951  1.00  0.00     0.057 A 
ATOM     81  C   UNL     1      -6.900 -21.600   6.752  1.00  0.00     0.134 A 
ATOM     82  C   UNL     1      -7.858 -21.831   8.935  1.00  0.00     0.134 A 
ATOM     83  F   UNL     1      -6.378 -20.857   5.764  1.00  0.00    -0.206 F 
ATOM     84  C   UNL     1      -7.055 -22.970   6.533  1.00  0.00     0.040 A 
ATOM     85  C   UNL     1      -7.995 -23.205   8.738  1.00  0.00     0.040 A 
ATOM     86  F   UNL     1      -8.261 -21.321  10.109  1.00  0.00    -0.206 F 
ATOM     87  C   UNL     1      -7.598 -23.777   7.531  1.00  0.00     0.006 A 
ENDBRANCH  63  80
ENDBRANCH  37  38
ENDBRANCH  29  32
ENDBRANCH  27  28
ENDBRANCH  26  27
ENDBRANCH  25  26
ENDBRANCH  24  25
ENDBRANCH   1  24
TORSDOF 17
