REMARK SMILES C[C@]([NH3+])(C(=O)N[C@H]1CCCCC[C@@H]1C(=O)NCCCCCCNC(=O)c1ccc(-c2c3nc(c(-c4c(F)cccc4F)c4ccc([nH]4)c(-c4c(F)cccc4F)c4nc(c(-c5c(F)cccc5F)c5ccc2[nH]5)C=C4)C=C3)cc1)C(F)(F)F
REMARK SMILES IDX 18 1 17 2 16 3 14 4 15 5 13 7 7 8 6 9 4 10 5 11 2 13 1 14
REMARK SMILES IDX 80 15 81 16 82 17 83 18 3 19 8 23 9 24 10 25 11 26 12 28
REMARK SMILES IDX 19 30 20 31 21 32 22 33 23 34 24 35 25 37 26 38 27 39 79 40
REMARK SMILES IDX 28 41 78 42 29 43 30 44 31 45 72 46 32 47 77 48 71 49 73 50
REMARK SMILES IDX 33 51 76 52 70 53 69 54 34 56 60 57 43 58 59 59 44 60 47 61
REMARK SMILES IDX 58 62 74 63 45 64 46 65 57 67 75 68 48 69 35 70 36 71 41 72
REMARK SMILES IDX 37 73 38 74 40 75 42 76 39 77 61 78 62 79 67 80 63 81 64 82
REMARK SMILES IDX 66 83 68 84 65 85 49 86 50 87 55 88 51 89 52 90 54 91 56 92
REMARK SMILES IDX 53 93
REMARK H PARENT 16 6 6 12 3 20 3 21 3 22 23 36 73 55 47 66
REMARK Flexibility Score: 90.00
ROOT
ATOM      1  C   UNL     1      -0.421  -1.607  -2.096  1.00  0.00     0.021 C 
ENDROOT
BRANCH   1   2
ATOM      2  C   UNL     1      -0.101  -0.211  -1.575  1.00  0.00     0.116 C 
BRANCH   2   3
ATOM      3  N   UNL     1      -1.229   0.418  -0.859  1.00  0.00    -0.356 N 
ATOM      4  C   UNL     1      -1.813   0.787   0.295  1.00  0.00     0.225 C 
ATOM      5  O   UNL     1      -2.903   1.337   0.045  1.00  0.00    -0.275 OA
ATOM      6  H   UNL     1      -1.852   0.705  -1.565  1.00  0.00     0.163 HD
BRANCH   4   7
ATOM      7  C   UNL     1      -1.337   0.753   1.796  1.00  0.00     0.101 C 
BRANCH   7   8
ATOM      8  C   UNL     1      -0.993  -0.640   2.403  1.00  0.00     0.094 C 
BRANCH   8   9
ATOM      9  N   UNL     1       0.376  -0.864   3.019  1.00  0.00    -0.347 N 
ATOM     10  C   UNL     1       1.689  -0.473   2.926  1.00  0.00     0.290 C 
ATOM     11  O   UNL     1       2.478  -1.071   3.663  1.00  0.00    -0.267 OA
ATOM     12  H   UNL     1       0.292  -1.524   3.744  1.00  0.00     0.164 HD
BRANCH  10  13
ATOM     13  C   UNL     1       2.145   0.681   2.024  1.00  0.00     0.266 C 
ATOM     14  C   UNL     1       1.804   2.021   2.689  1.00  0.00     0.100 C 
BRANCH  13  15
ATOM     15  C   UNL     1       3.659   0.598   1.726  1.00  0.00     0.453 C 
ATOM     16  F   UNL     1       4.014  -0.590   1.181  1.00  0.00    -0.164 F 
ATOM     17  F   UNL     1       3.983   1.552   0.802  1.00  0.00    -0.164 F 
ATOM     18  F   UNL     1       4.438   0.830   2.800  1.00  0.00    -0.164 F 
ENDBRANCH  13  15
BRANCH  13  19
ATOM     19  N   UNL     1       1.442   0.524   0.749  1.00  0.00    -0.337 N 
ATOM     20  H   UNL     1       1.688  -0.374   0.333  1.00  0.00     0.345 HD
ATOM     21  H   UNL     1       1.712   1.278   0.117  1.00  0.00     0.345 HD
ATOM     22  H   UNL     1       0.435   0.559   0.910  1.00  0.00     0.345 HD
ENDBRANCH  13  19
ENDBRANCH  10  13
ENDBRANCH   8   9
BRANCH   8  23
ATOM     23  C   UNL     1      -2.014  -1.135   3.481  1.00  0.00     0.026 C 
BRANCH  23  24
ATOM     24  C   UNL     1      -1.867  -0.496   4.877  1.00  0.00     0.002 C 
BRANCH  24  25
ATOM     25  C   UNL     1      -2.528   0.863   5.043  1.00  0.00     0.000 C 
BRANCH  25  26
ATOM     26  C   UNL     1      -2.075   1.907   4.038  1.00  0.00     0.001 CG0
ATOM     27  G   UNL     1      -2.417   1.558   2.595  1.00  0.00     0.000 G0
ENDBRANCH  25  26
ENDBRANCH  24  25
ENDBRANCH  23  24
ENDBRANCH   8  23
ENDBRANCH   7   8
BRANCH   7  28
ATOM     28  C   UNL     1      -2.417   1.558   2.595  1.00  0.00     0.015 CG0
ATOM     29  G   UNL     1      -2.075   1.907   4.038  1.00  0.00     0.000 G0
ENDBRANCH   7  28
ENDBRANCH   4   7
ENDBRANCH   2   3
ENDBRANCH   1   2
BRANCH   1  30
ATOM     30  C   UNL     1       0.272  -1.876  -3.438  1.00  0.00     0.002 C 
BRANCH  30  31
ATOM     31  C   UNL     1       1.807  -1.870  -3.418  1.00  0.00     0.002 C 
BRANCH  31  32
ATOM     32  C   UNL     1       2.465  -3.045  -2.690  1.00  0.00     0.021 C 
BRANCH  32  33
ATOM     33  C   UNL     1       1.951  -4.420  -3.103  1.00  0.00     0.116 C 
BRANCH  33  34
ATOM     34  N   UNL     1       1.969  -4.598  -4.551  1.00  0.00    -0.352 N 
ATOM     35  C   UNL     1       2.535  -5.591  -5.295  1.00  0.00     0.251 C 
ATOM     36  H   UNL     1       1.505  -3.899  -5.067  1.00  0.00     0.163 HD
ATOM     37  O   UNL     1       2.658  -5.461  -6.520  1.00  0.00    -0.269 OA
BRANCH  35  38
ATOM     38  C   UNL     1       2.994  -6.824  -4.640  1.00  0.00     0.039 A 
ATOM     39  C   UNL     1       4.227  -7.372  -4.999  1.00  0.00     0.014 A 
ATOM     40  C   UNL     1       2.188  -7.447  -3.682  1.00  0.00     0.014 A 
ATOM     41  C   UNL     1       4.669  -8.533  -4.368  1.00  0.00     0.010 A 
ATOM     42  C   UNL     1       2.663  -8.558  -3.001  1.00  0.00     0.010 A 
ATOM     43  C   UNL     1       3.899  -9.121  -3.351  1.00  0.00    -0.014 A 
BRANCH  43  44
ATOM     44  C   UNL     1       4.355 -10.346  -2.656  1.00  0.00     0.031 A 
ATOM     45  C   UNL     1       3.569 -11.619  -2.794  1.00  0.00     0.074 A 
ATOM     46  C   UNL     1       5.436 -10.288  -1.857  1.00  0.00     0.049 A 
ATOM     47  N   UNL     1       3.765 -12.777  -2.219  1.00  0.00    -0.248 NA
ATOM     48  C   UNL     1       2.386 -11.576  -3.670  1.00  0.00     0.031 C 
ATOM     49  C   UNL     1       6.242  -9.091  -1.609  1.00  0.00     0.029 A 
ATOM     50  N   UNL     1       6.037 -11.258  -1.097  1.00  0.00    -0.354 N 
ATOM     51  C   UNL     1       2.725 -13.591  -2.650  1.00  0.00     0.074 A 
ATOM     52  C   UNL     1       1.868 -12.781  -3.486  1.00  0.00     0.031 C 
ATOM     53  C   UNL     1       7.246  -9.403  -0.775  1.00  0.00     0.029 A 
ATOM     54  C   UNL     1       7.132 -10.809  -0.401  1.00  0.00     0.049 A 
ATOM     55  H   UNL     1       5.715 -12.187  -1.055  1.00  0.00     0.167 HD
ATOM     56  C   UNL     1       2.519 -14.904  -2.390  1.00  0.00     0.037 A 
ATOM     57  C   UNL     1       7.947 -11.460   0.449  1.00  0.00     0.037 A 
ATOM     58  C   UNL     1       3.394 -15.706  -1.576  1.00  0.00     0.049 A 
ATOM     59  C   UNL     1       7.699 -12.918   0.718  1.00  0.00     0.074 A 
ATOM     60  C   UNL     1       3.317 -17.059  -1.301  1.00  0.00     0.029 A 
ATOM     61  N   UNL     1       4.508 -15.222  -0.905  1.00  0.00    -0.354 N 
ATOM     62  N   UNL     1       6.755 -13.697   0.247  1.00  0.00    -0.248 NA
ATOM     63  C   UNL     1       8.634 -13.591   1.630  1.00  0.00     0.031 C 
ATOM     64  C   UNL     1       4.354 -17.384  -0.422  1.00  0.00     0.029 A 
ATOM     65  C   UNL     1       5.113 -16.246  -0.195  1.00  0.00     0.049 A 
ATOM     66  H   UNL     1       4.823 -14.289  -0.930  1.00  0.00     0.167 HD
ATOM     67  C   UNL     1       6.997 -14.956   0.781  1.00  0.00     0.074 A 
ATOM     68  C   UNL     1       8.187 -14.838   1.599  1.00  0.00     0.031 C 
ATOM     69  C   UNL     1       6.300 -16.106   0.610  1.00  0.00     0.037 A 
BRANCH  56  70
ATOM     70  C   UNL     1       1.305 -15.550  -2.992  1.00  0.00     0.057 A 
ATOM     71  C   UNL     1       1.188 -15.770  -4.371  1.00  0.00     0.134 A 
ATOM     72  C   UNL     1       0.249 -15.984  -2.179  1.00  0.00     0.134 A 
ATOM     73  F   UNL     1       2.156 -15.367  -5.208  1.00  0.00    -0.206 F 
ATOM     74  C   UNL     1       0.056 -16.373  -4.923  1.00  0.00     0.040 A 
ATOM     75  C   UNL     1      -0.874 -16.616  -2.716  1.00  0.00     0.040 A 
ATOM     76  F   UNL     1       0.295 -15.809  -0.850  1.00  0.00    -0.206 F 
ATOM     77  C   UNL     1      -0.976 -16.805  -4.093  1.00  0.00     0.006 A 
ENDBRANCH  56  70
BRANCH  57  78
ATOM     78  C   UNL     1       9.083 -10.746   1.083  1.00  0.00     0.057 A 
ATOM     79  C   UNL     1      10.406 -11.038   0.733  1.00  0.00     0.134 A 
ATOM     80  C   UNL     1       8.876  -9.754   2.049  1.00  0.00     0.134 A 
ATOM     81  F   UNL     1      10.670 -11.989  -0.176  1.00  0.00    -0.206 F 
ATOM     82  C   UNL     1      11.484 -10.385   1.334  1.00  0.00     0.040 A 
ATOM     83  C   UNL     1       9.943  -9.074   2.639  1.00  0.00     0.040 A 
ATOM     84  F   UNL     1       7.632  -9.420   2.421  1.00  0.00    -0.206 F 
ATOM     85  C   UNL     1      11.252  -9.395   2.288  1.00  0.00     0.006 A 
ENDBRANCH  57  78
BRANCH  69  86
ATOM     86  C   UNL     1       6.827 -17.334   1.292  1.00  0.00     0.057 A 
ATOM     87  C   UNL     1       6.748 -17.503   2.680  1.00  0.00     0.134 A 
ATOM     88  C   UNL     1       7.384 -18.379   0.543  1.00  0.00     0.134 A 
ATOM     89  F   UNL     1       6.236 -16.534   3.455  1.00  0.00    -0.206 F 
ATOM     90  C   UNL     1       7.226 -18.657   3.302  1.00  0.00     0.040 A 
ATOM     91  C   UNL     1       7.838 -19.550   1.150  1.00  0.00     0.040 A 
ATOM     92  F   UNL     1       7.480 -18.285  -0.792  1.00  0.00    -0.206 F 
ATOM     93  C   UNL     1       7.766 -19.688   2.535  1.00  0.00     0.006 A 
ENDBRANCH  69  86
ENDBRANCH  43  44
ENDBRANCH  35  38
ENDBRANCH  33  34
ENDBRANCH  32  33
ENDBRANCH  31  32
ENDBRANCH  30  31
ENDBRANCH   1  30
TORSDOF 17
