REMARK SMILES C[C@]1(C(=O)NCc2ccc(C(=O)NCCCCCCNC(=O)c3ccc(-c4c5nc(c(-c6c(F)cccc6F)c6ccc([nH]6)c(-c6c(F)cccc6F)c6nc(c(-c7c(F)cccc7F)c7ccc4[nH]7)C=C6)C=C5)cc3)o2)CCC[NH2+]C1
REMARK SMILES IDX 16 1 15 2 14 3 13 4 11 5 12 6 10 8 7 9 8 10 77 11 9 12 6 13
REMARK SMILES IDX 5 14 3 15 4 16 2 18 1 19 78 20 82 21 79 22 81 23 80 24 17 27
REMARK SMILES IDX 18 28 19 29 20 30 21 31 22 33 23 34 24 35 76 36 25 37 75 38
REMARK SMILES IDX 26 39 27 40 28 41 69 42 29 43 74 44 68 45 70 46 30 47 73 48
REMARK SMILES IDX 67 49 66 50 31 52 57 53 40 54 56 55 41 56 44 57 55 58 71 59
REMARK SMILES IDX 42 60 43 61 54 63 72 64 45 65 32 66 33 67 38 68 34 69 35 70
REMARK SMILES IDX 37 71 39 72 36 73 58 74 59 75 64 76 60 77 61 78 63 79 65 80
REMARK SMILES IDX 62 81 46 82 47 83 52 84 48 85 49 86 51 87 53 88 50 89
REMARK H PARENT 13 7 5 17 81 25 81 26 20 32 70 51 44 62
REMARK Flexibility Score: inf
ROOT
ATOM      1  C   UNL     1       5.083   4.875  -8.014  1.00  0.00     0.002 C 
ENDROOT
BRANCH   1   2
ATOM      2  C   UNL     1       5.050   3.538  -7.263  1.00  0.00     0.021 C 
BRANCH   2   3
ATOM      3  C   UNL     1       5.660   3.629  -5.866  1.00  0.00     0.116 C 
BRANCH   3   4
ATOM      4  N   UNL     1       4.728   4.248  -4.952  1.00  0.00    -0.349 N 
ATOM      5  C   UNL     1       3.997   3.718  -3.916  1.00  0.00     0.286 C 
ATOM      6  O   UNL     1       3.330   4.519  -3.263  1.00  0.00    -0.266 OA
ATOM      7  H   UNL     1       4.593   5.213  -5.096  1.00  0.00     0.163 HD
BRANCH   5   8
ATOM      8  C   UNL     1       4.060   2.301  -3.613  1.00  0.00     0.191 A 
ATOM      9  C   UNL     1       3.915   0.599  -2.213  1.00  0.00     0.124 A 
ATOM     10  C   UNL     1       4.290   0.066  -3.424  1.00  0.00     0.048 A 
ATOM     11  O   UNL     1       3.783   1.947  -2.317  1.00  0.00    -0.454 OA
ATOM     12  C   UNL     1       4.334   1.150  -4.332  1.00  0.00     0.056 A 
BRANCH   9  13
ATOM     13  C   UNL     1       3.696   0.007  -0.878  1.00  0.00     0.191 C 
BRANCH  13  14
ATOM     14  N   UNL     1       2.462   0.478  -0.299  1.00  0.00    -0.348 N 
ATOM     15  C   UNL     1       1.231  -0.038  -0.101  1.00  0.00     0.232 C 
ATOM     16  O   UNL     1       0.521   0.637   0.662  1.00  0.00    -0.274 OA
ATOM     17  H   UNL     1       2.535   1.402   0.032  1.00  0.00     0.163 HD
BRANCH  15  18
ATOM     18  C   UNL     1       0.606  -1.243  -0.845  1.00  0.00     0.095 C 
ATOM     19  C   UNL     1      -0.355  -0.601  -1.884  1.00  0.00     0.028 C 
ATOM     20  C   UNL     1       1.497  -2.245  -1.600  1.00  0.00     0.028 C 
ATOM     21  C   UNL     1      -0.246  -2.039   0.185  1.00  0.00     0.277 C 
ATOM     22  C   UNL     1       2.238  -3.222  -0.686  1.00  0.00     0.063 C 
ATOM     23  N   UNL     1       0.570  -2.889   1.066  1.00  0.00    -0.345 N 
ATOM     24  C   UNL     1       1.302  -3.895   0.306  1.00  0.00     0.260 C 
ATOM     25  H   UNL     1       1.236  -2.302   1.568  1.00  0.00     0.346 HD
ATOM     26  H   UNL     1      -0.052  -3.368   1.716  1.00  0.00     0.346 HD
ENDBRANCH  15  18
ENDBRANCH  13  14
ENDBRANCH   9  13
ENDBRANCH   5   8
ENDBRANCH   3   4
ENDBRANCH   2   3
ENDBRANCH   1   2
BRANCH   1  27
ATOM     27  C   UNL     1       6.488   5.461  -8.211  1.00  0.00     0.002 C 
BRANCH  27  28
ATOM     28  C   UNL     1       7.491   4.506  -8.863  1.00  0.00     0.021 C 
BRANCH  28  29
ATOM     29  C   UNL     1       7.087   4.051 -10.260  1.00  0.00     0.116 C 
BRANCH  29  30
ATOM     30  N   UNL     1       7.022   5.171 -11.186  1.00  0.00    -0.352 N 
ATOM     31  C   UNL     1       7.695   5.360 -12.365  1.00  0.00     0.251 C 
ATOM     32  H   UNL     1       6.407   5.896 -10.930  1.00  0.00     0.163 HD
ATOM     33  O   UNL     1       7.720   6.465 -12.896  1.00  0.00    -0.269 OA
BRANCH  31  34
ATOM     34  C   UNL     1       8.399   4.222 -12.989  1.00  0.00     0.039 A 
ATOM     35  C   UNL     1       9.679   4.419 -13.510  1.00  0.00     0.014 A 
ATOM     36  C   UNL     1       7.789   2.966 -13.064  1.00  0.00     0.014 A 
ATOM     37  C   UNL     1      10.370   3.341 -14.062  1.00  0.00     0.010 A 
ATOM     38  C   UNL     1       8.509   1.877 -13.541  1.00  0.00     0.010 A 
ATOM     39  C   UNL     1       9.802   2.055 -14.054  1.00  0.00    -0.014 A 
BRANCH  39  40
ATOM     40  C   UNL     1      10.546   0.885 -14.581  1.00  0.00     0.031 A 
ATOM     41  C   UNL     1      10.021   0.131 -15.771  1.00  0.00     0.074 A 
ATOM     42  C   UNL     1      11.658   0.466 -13.949  1.00  0.00     0.049 A 
ATOM     43  N   UNL     1      10.495  -0.949 -16.340  1.00  0.00    -0.248 NA
ATOM     44  C   UNL     1       8.785   0.640 -16.386  1.00  0.00     0.031 C 
ATOM     45  C   UNL     1      12.238   1.086 -12.756  1.00  0.00     0.029 A 
ATOM     46  N   UNL     1      12.495  -0.588 -14.216  1.00  0.00    -0.354 N 
ATOM     47  C   UNL     1       9.612  -1.252 -17.368  1.00  0.00     0.074 A 
ATOM     48  C   UNL     1       8.541  -0.281 -17.306  1.00  0.00     0.031 C 
ATOM     49  C   UNL     1      13.350   0.418 -12.411  1.00  0.00     0.029 A 
ATOM     50  C   UNL     1      13.537  -0.701 -13.329  1.00  0.00     0.049 A 
ATOM     51  H   UNL     1      12.361  -1.205 -14.971  1.00  0.00     0.167 HD
ATOM     52  C   UNL     1       9.697  -2.235 -18.295  1.00  0.00     0.037 A 
ATOM     53  C   UNL     1      14.528  -1.609 -13.258  1.00  0.00     0.037 A 
ATOM     54  C   UNL     1      10.773  -3.190 -18.359  1.00  0.00     0.049 A 
ATOM     55  C   UNL     1      14.593  -2.703 -14.287  1.00  0.00     0.074 A 
ATOM     56  C   UNL     1      10.983  -4.191 -19.291  1.00  0.00     0.029 A 
ATOM     57  N   UNL     1      11.817  -3.267 -17.448  1.00  0.00    -0.354 N 
ATOM     58  N   UNL     1      13.789  -2.938 -15.297  1.00  0.00    -0.248 NA
ATOM     59  C   UNL     1      15.706  -3.656 -14.172  1.00  0.00     0.031 C 
ATOM     60  C   UNL     1      12.122  -4.909 -18.912  1.00  0.00     0.029 A 
ATOM     61  C   UNL     1      12.658  -4.317 -17.780  1.00  0.00     0.049 A 
ATOM     62  H   UNL     1      11.941  -2.665 -16.679  1.00  0.00     0.167 HD
ATOM     63  C   UNL     1      14.315  -4.043 -15.954  1.00  0.00     0.074 A 
ATOM     64  C   UNL     1      15.514  -4.423 -15.235  1.00  0.00     0.031 C 
ATOM     65  C   UNL     1      13.850  -4.682 -17.055  1.00  0.00     0.037 A 
BRANCH  52  66
ATOM     66  C   UNL     1       8.593  -2.328 -19.309  1.00  0.00     0.057 A 
ATOM     67  C   UNL     1       8.406  -1.347 -20.294  1.00  0.00     0.134 A 
ATOM     68  C   UNL     1       7.717  -3.421 -19.316  1.00  0.00     0.134 A 
ATOM     69  F   UNL     1       9.202  -0.268 -20.339  1.00  0.00    -0.206 F 
ATOM     70  C   UNL     1       7.369  -1.433 -21.225  1.00  0.00     0.040 A 
ATOM     71  C   UNL     1       6.696  -3.534 -20.262  1.00  0.00     0.040 A 
ATOM     72  F   UNL     1       7.841  -4.400 -18.407  1.00  0.00    -0.206 F 
ATOM     73  C   UNL     1       6.514  -2.533 -21.214  1.00  0.00     0.006 A 
ENDBRANCH  52  66
BRANCH  53  74
ATOM     74  C   UNL     1      15.550  -1.508 -12.186  1.00  0.00     0.057 A 
ATOM     75  C   UNL     1      16.874  -1.160 -12.481  1.00  0.00     0.134 A 
ATOM     76  C   UNL     1      15.231  -1.751 -10.845  1.00  0.00     0.134 A 
ATOM     77  F   UNL     1      17.245  -0.930 -13.749  1.00  0.00    -0.206 F 
ATOM     78  C   UNL     1      17.847  -1.075 -11.484  1.00  0.00     0.040 A 
ATOM     79  C   UNL     1      16.188  -1.644  -9.834  1.00  0.00     0.040 A 
ATOM     80  F   UNL     1      13.979  -2.079 -10.495  1.00  0.00    -0.206 F 
ATOM     81  C   UNL     1      17.503  -1.312 -10.155  1.00  0.00     0.006 A 
ENDBRANCH  53  74
BRANCH  65  82
ATOM     82  C   UNL     1      14.658  -5.837 -17.574  1.00  0.00     0.057 A 
ATOM     83  C   UNL     1      14.727  -7.060 -16.896  1.00  0.00     0.134 A 
ATOM     84  C   UNL     1      15.343  -5.734 -18.792  1.00  0.00     0.134 A 
ATOM     85  F   UNL     1      14.104  -7.222 -15.718  1.00  0.00    -0.206 F 
ATOM     86  C   UNL     1      15.468  -8.132 -17.398  1.00  0.00     0.040 A 
ATOM     87  C   UNL     1      16.061  -6.807 -19.319  1.00  0.00     0.040 A 
ATOM     88  F   UNL     1      15.310  -4.593 -19.498  1.00  0.00    -0.206 F 
ATOM     89  C   UNL     1      16.131  -8.009 -18.617  1.00  0.00     0.006 A 
ENDBRANCH  65  82
ENDBRANCH  39  40
ENDBRANCH  31  34
ENDBRANCH  29  30
ENDBRANCH  28  29
ENDBRANCH  27  28
ENDBRANCH   1  27
TORSDOF 16
