REMARK SMILES C[C@H]1[C@H]([NH+]2CCC(CC(=O)NCCCCCCNC(=O)c3ccc(-c4c5nc(c(-c6c(F)cccc6F)c6ccc([nH]6)c(-c6c(F)cccc6F)c6nc(c(-c7c(F)cccc7F)c7ccc4[nH]7)C=C6)C=C5)cc3)CC2)CCC[C@@H]1C
REMARK SMILES IDX 14 1 13 2 12 3 11 4 9 5 10 6 8 8 7 9 4 10 5 11 76 12 6 14
REMARK SMILES IDX 75 15 3 16 1 17 2 18 80 19 77 20 79 21 81 22 78 23 15 24
REMARK SMILES IDX 16 25 17 26 18 27 19 28 20 30 21 31 22 32 74 33 23 34 73 35
REMARK SMILES IDX 24 36 25 37 26 38 67 39 27 40 72 41 66 42 68 43 28 44 71 45
REMARK SMILES IDX 65 46 64 47 29 49 55 50 38 51 54 52 39 53 42 54 53 55 69 56
REMARK SMILES IDX 40 57 41 58 52 60 70 61 43 62 30 63 31 64 36 65 32 66 33 67
REMARK SMILES IDX 35 68 37 69 34 70 56 71 57 72 62 73 58 74 59 75 61 76 63 77
REMARK SMILES IDX 60 78 44 79 45 80 50 81 46 82 47 83 49 84 51 85 48 86
REMARK H PARENT 11 7 4 13 18 29 68 48 42 59
REMARK Flexibility Score: inf
ROOT
ATOM      1  C   UNL     1      -0.913   0.351  -6.710  1.00  0.00     0.002 C 
ENDROOT
BRANCH   1   2
ATOM      2  C   UNL     1      -0.145   0.316  -5.389  1.00  0.00     0.021 C 
BRANCH   2   3
ATOM      3  C   UNL     1      -0.222  -1.028  -4.652  1.00  0.00     0.116 C 
BRANCH   3   4
ATOM      4  N   UNL     1       0.980  -1.815  -4.878  1.00  0.00    -0.356 N 
ATOM      5  C   UNL     1       2.071  -2.027  -4.087  1.00  0.00     0.220 C 
ATOM      6  O   UNL     1       3.017  -2.662  -4.558  1.00  0.00    -0.275 OA
ATOM      7  H   UNL     1       1.012  -2.273  -5.749  1.00  0.00     0.163 HD
BRANCH   5   8
ATOM      8  C   UNL     1       2.120  -1.514  -2.661  1.00  0.00     0.104 C 
BRANCH   8   9
ATOM      9  C   UNL     1       2.985  -0.246  -2.478  1.00  0.00     0.009 C 
ATOM     10  N   UNL     1       2.669   2.381  -1.097  1.00  0.00    -0.332 N 
ATOM     11  C   UNL     1       3.619   1.384  -0.604  1.00  0.00     0.262 C 
ATOM     12  C   UNL     1       2.626   2.341  -2.550  1.00  0.00     0.262 C 
ATOM     13  H   UNL     1       3.055   3.284  -0.824  1.00  0.00     0.348 HD
ATOM     14  C   UNL     1       3.271  -0.050  -0.980  1.00  0.00     0.066 C 
ATOM     15  C   UNL     1       2.311   0.966  -3.136  1.00  0.00     0.066 C 
BRANCH  10  16
ATOM     16  C   UNL     1       1.422   2.675  -0.341  1.00  0.00     0.187 C 
ATOM     17  C   UNL     1      -0.599   1.773  -1.681  1.00  0.00     0.014 C 
ATOM     18  C   UNL     1       0.246   1.633  -0.393  1.00  0.00     0.047 C 
ATOM     19  C   UNL     1      -0.760   1.655   0.800  1.00  0.00    -0.006 C 
ATOM     20  C   UNL     1       1.815   3.108   1.093  1.00  0.00     0.065 C 
ATOM     21  C   UNL     1      -0.136   2.023   2.141  1.00  0.00     0.004 C 
ATOM     22  C   UNL     1      -1.490   0.309   0.924  1.00  0.00     0.008 C 
ATOM     23  C   UNL     1       0.628   3.327   2.011  1.00  0.00     0.006 C 
ENDBRANCH  10  16
ENDBRANCH   8   9
ENDBRANCH   5   8
ENDBRANCH   3   4
ENDBRANCH   2   3
ENDBRANCH   1   2
BRANCH   1  24
ATOM     24  C   UNL     1      -2.435   0.438  -6.561  1.00  0.00     0.002 C 
BRANCH  24  25
ATOM     25  C   UNL     1      -2.972   1.681  -5.838  1.00  0.00     0.021 C 
BRANCH  25  26
ATOM     26  C   UNL     1      -2.499   3.031  -6.382  1.00  0.00     0.116 C 
BRANCH  26  27
ATOM     27  N   UNL     1      -2.791   3.193  -7.797  1.00  0.00    -0.352 N 
ATOM     28  C   UNL     1      -3.518   4.145  -8.462  1.00  0.00     0.251 C 
ATOM     29  H   UNL     1      -2.399   2.500  -8.376  1.00  0.00     0.163 HD
ATOM     30  O   UNL     1      -3.780   3.977  -9.650  1.00  0.00    -0.269 OA
BRANCH  28  31
ATOM     31  C   UNL     1      -4.004   5.366  -7.780  1.00  0.00     0.039 A 
ATOM     32  C   UNL     1      -5.283   5.836  -8.099  1.00  0.00     0.014 A 
ATOM     33  C   UNL     1      -3.199   6.095  -6.899  1.00  0.00     0.014 A 
ATOM     34  C   UNL     1      -5.769   7.004  -7.507  1.00  0.00     0.010 A 
ATOM     35  C   UNL     1      -3.706   7.233  -6.265  1.00  0.00     0.010 A 
ATOM     36  C   UNL     1      -4.993   7.702  -6.568  1.00  0.00    -0.014 A 
BRANCH  36  37
ATOM     37  C   UNL     1      -5.536   8.913  -5.900  1.00  0.00     0.031 A 
ATOM     38  C   UNL     1      -4.951  10.272  -6.171  1.00  0.00     0.074 A 
ATOM     39  C   UNL     1      -6.546   8.782  -5.019  1.00  0.00     0.049 A 
ATOM     40  N   UNL     1      -5.315  11.437  -5.695  1.00  0.00    -0.248 NA
ATOM     41  C   UNL     1      -3.793  10.330  -7.076  1.00  0.00     0.031 C 
ATOM     42  C   UNL     1      -7.159   7.514  -4.619  1.00  0.00     0.029 A 
ATOM     43  N   UNL     1      -7.235   9.726  -4.300  1.00  0.00    -0.354 N 
ATOM     44  C   UNL     1      -4.427  12.361  -6.230  1.00  0.00     0.074 A 
ATOM     45  C   UNL     1      -3.481  11.618  -7.035  1.00  0.00     0.031 C 
ATOM     46  C   UNL     1      -8.147   7.761  -3.744  1.00  0.00     0.029 A 
ATOM     47  C   UNL     1      -8.226   9.199  -3.508  1.00  0.00     0.049 A 
ATOM     48  H   UNL     1      -7.038  10.689  -4.346  1.00  0.00     0.167 HD
ATOM     49  C   UNL     1      -4.412  13.707  -6.080  1.00  0.00     0.037 A 
ATOM     50  C   UNL     1      -9.106   9.806  -2.689  1.00  0.00     0.037 A 
ATOM     51  C   UNL     1      -5.373  14.451  -5.307  1.00  0.00     0.049 A 
ATOM     52  C   UNL     1      -9.099  11.304  -2.579  1.00  0.00     0.074 A 
ATOM     53  C   UNL     1      -5.489  15.824  -5.164  1.00  0.00     0.029 A 
ATOM     54  N   UNL     1      -6.383  13.884  -4.545  1.00  0.00    -0.354 N 
ATOM     55  N   UNL     1      -8.308  12.171  -3.163  1.00  0.00    -0.248 NA
ATOM     56  C   UNL     1     -10.116  11.909  -1.707  1.00  0.00     0.031 C 
ATOM     57  C   UNL     1      -6.548  16.086  -4.288  1.00  0.00     0.029 A 
ATOM     58  C   UNL     1      -7.114  14.878  -3.915  1.00  0.00     0.049 A 
ATOM     59  H   UNL     1      -6.555  12.918  -4.465  1.00  0.00     0.167 HD
ATOM     60  C   UNL     1      -8.741  13.422  -2.743  1.00  0.00     0.074 A 
ATOM     61  C   UNL     1      -9.878  13.202  -1.874  1.00  0.00     0.031 C 
ATOM     62  C   UNL     1      -8.240  14.643  -3.048  1.00  0.00     0.037 A 
BRANCH  49  63
ATOM     63  C   UNL     1      -3.325  14.472  -6.775  1.00  0.00     0.057 A 
ATOM     64  C   UNL     1      -3.329  14.660  -8.163  1.00  0.00     0.134 A 
ATOM     65  C   UNL     1      -2.291  15.070  -6.045  1.00  0.00     0.134 A 
ATOM     66  F   UNL     1      -4.287  14.105  -8.921  1.00  0.00    -0.206 F 
ATOM     67  C   UNL     1      -2.332  15.399  -8.803  1.00  0.00     0.040 A 
ATOM     68  C   UNL     1      -1.301  15.830  -6.670  1.00  0.00     0.040 A 
ATOM     69  F   UNL     1      -2.232  14.935  -4.711  1.00  0.00    -0.206 F 
ATOM     70  C   UNL     1      -1.318  15.993  -8.054  1.00  0.00     0.006 A 
ENDBRANCH  49  63
BRANCH  50  71
ATOM     71  C   UNL     1     -10.093   8.997  -1.934  1.00  0.00     0.057 A 
ATOM     72  C   UNL     1     -11.448   9.000  -2.284  1.00  0.00     0.134 A 
ATOM     73  C   UNL     1      -9.707   8.209  -0.844  1.00  0.00     0.134 A 
ATOM     74  F   UNL     1     -11.878   9.750  -3.309  1.00  0.00    -0.206 F 
ATOM     75  C   UNL     1     -12.389   8.262  -1.565  1.00  0.00     0.040 A 
ATOM     76  C   UNL     1     -10.634   7.449  -0.129  1.00  0.00     0.040 A 
ATOM     77  F   UNL     1      -8.422   8.159  -0.465  1.00  0.00    -0.206 F 
ATOM     78  C   UNL     1     -11.981   7.480  -0.486  1.00  0.00     0.006 A 
ENDBRANCH  50  71
BRANCH  62  79
ATOM     79  C   UNL     1      -8.927  15.830  -2.442  1.00  0.00     0.057 A 
ATOM     80  C   UNL     1      -8.789  16.145  -1.084  1.00  0.00     0.134 A 
ATOM     81  C   UNL     1      -9.722  16.674  -3.226  1.00  0.00     0.134 A 
ATOM     82  F   UNL     1      -8.052  15.367  -0.278  1.00  0.00    -0.206 F 
ATOM     83  C   UNL     1      -9.439  17.244  -0.522  1.00  0.00     0.040 A 
ATOM     84  C   UNL     1     -10.359  17.790  -2.680  1.00  0.00     0.040 A 
ATOM     85  F   UNL     1      -9.890  16.431  -4.535  1.00  0.00    -0.206 F 
ATOM     86  C   UNL     1     -10.224  18.073  -1.322  1.00  0.00     0.006 A 
ENDBRANCH  62  79
ENDBRANCH  36  37
ENDBRANCH  28  31
ENDBRANCH  26  27
ENDBRANCH  25  26
ENDBRANCH  24  25
ENDBRANCH   1  24
TORSDOF 15
