REMARK SMILES O=C(C[C@@H]1COc2ccccc2N1Cc1ccccc1)NCCCCCCNC(=O)c1ccc(-c2c3nc(c(-c4c(F)cccc4F)c4ccc([nH]4)c(-c4c(F)cccc4F)c4nc(c(-c5c(F)cccc5F)c5ccc2[nH]5)C=C4)C=C3)cc1
REMARK SMILES IDX 24 1 23 2 22 3 21 4 1 5 2 6 3 8 4 9 5 10 13 11 6 12 12 13
REMARK SMILES IDX 7 14 11 15 8 16 10 17 9 18 14 19 15 20 16 21 20 22 17 23
REMARK SMILES IDX 19 24 18 25 25 26 26 27 27 28 28 29 29 30 30 32 31 33 32 34
REMARK SMILES IDX 84 35 33 36 83 37 34 38 35 39 36 40 77 41 37 42 82 43 76 44
REMARK SMILES IDX 78 45 38 46 81 47 75 48 74 49 39 51 65 52 48 53 64 54 49 55
REMARK SMILES IDX 52 56 63 57 79 58 50 59 51 60 62 62 80 63 53 64 40 65 41 66
REMARK SMILES IDX 46 67 42 68 43 69 45 70 47 71 44 72 66 73 67 74 72 75 68 76
REMARK SMILES IDX 69 77 71 78 73 79 70 80 54 81 55 82 60 83 56 84 57 85 59 86
REMARK SMILES IDX 61 87 58 88
REMARK H PARENT 21 7 28 31 78 50 52 61
REMARK Flexibility Score: inf
ROOT
ATOM      1  C   UNL     1       3.592  -3.935   1.020  1.00  0.00     0.002 C 
ENDROOT
BRANCH   1   2
ATOM      2  C   UNL     1       2.108  -3.652   0.751  1.00  0.00     0.021 C 
BRANCH   2   3
ATOM      3  C   UNL     1       1.634  -2.240   1.105  1.00  0.00     0.116 C 
BRANCH   3   4
ATOM      4  N   UNL     1       2.384  -1.227   0.401  1.00  0.00    -0.356 N 
ATOM      5  O   UNL     1       0.686   0.319   0.178  1.00  0.00    -0.275 OA
ATOM      6  C   UNL     1       1.858  -0.010   0.033  1.00  0.00     0.222 C 
ATOM      7  H   UNL     1       3.322  -1.417   0.172  1.00  0.00     0.163 HD
BRANCH   6   8
ATOM      8  C   UNL     1       2.860   0.868  -0.672  1.00  0.00     0.128 C 
BRANCH   8   9
ATOM      9  C   UNL     1       3.735   1.766   0.218  1.00  0.00     0.129 C 
ATOM     10  C   UNL     1       5.101   1.977  -0.465  1.00  0.00     0.255 C 
ATOM     11  N   UNL     1       3.984   1.254   1.583  1.00  0.00    -0.357 N 
ATOM     12  O   UNL     1       5.814   0.735  -0.597  1.00  0.00    -0.489 OA
ATOM     13  C   UNL     1       5.041   0.342   1.696  1.00  0.00     0.080 A 
ATOM     14  C   UNL     1       5.891   0.064   0.604  1.00  0.00     0.142 A 
ATOM     15  C   UNL     1       5.285  -0.376   2.873  1.00  0.00     0.030 A 
ATOM     16  C   UNL     1       6.878  -0.926   0.673  1.00  0.00     0.048 A 
ATOM     17  C   UNL     1       6.303  -1.330   2.966  1.00  0.00     0.002 A 
ATOM     18  C   UNL     1       7.087  -1.623   1.859  1.00  0.00     0.004 A 
BRANCH  11  19
ATOM     19  C   UNL     1       3.613   2.104   2.729  1.00  0.00     0.152 C 
BRANCH  19  20
ATOM     20  C   UNL     1       2.353   1.659   3.442  1.00  0.00    -0.029 A 
ATOM     21  C   UNL     1       1.087   2.007   2.950  1.00  0.00     0.005 A 
ATOM     22  C   UNL     1       2.415   0.932   4.642  1.00  0.00     0.005 A 
ATOM     23  C   UNL     1      -0.075   1.620   3.625  1.00  0.00     0.000 A 
ATOM     24  C   UNL     1       1.255   0.518   5.300  1.00  0.00     0.000 A 
ATOM     25  C   UNL     1       0.008   0.864   4.792  1.00  0.00     0.000 A 
ENDBRANCH  19  20
ENDBRANCH  11  19
ENDBRANCH   8   9
ENDBRANCH   6   8
ENDBRANCH   3   4
ENDBRANCH   2   3
ENDBRANCH   1   2
BRANCH   1  26
ATOM     26  C   UNL     1       4.031  -3.759   2.474  1.00  0.00     0.002 C 
BRANCH  26  27
ATOM     27  C   UNL     1       3.457  -4.760   3.466  1.00  0.00     0.021 C 
BRANCH  27  28
ATOM     28  C   UNL     1       3.867  -6.202   3.214  1.00  0.00     0.116 C 
BRANCH  28  29
ATOM     29  N   UNL     1       5.306  -6.429   3.322  1.00  0.00    -0.352 N 
ATOM     30  C   UNL     1       5.975  -7.443   3.964  1.00  0.00     0.251 C 
ATOM     31  H   UNL     1       5.875  -5.763   2.874  1.00  0.00     0.163 HD
ATOM     32  O   UNL     1       7.199  -7.431   4.051  1.00  0.00    -0.269 OA
BRANCH  30  33
ATOM     33  C   UNL     1       5.199  -8.536   4.589  1.00  0.00     0.039 A 
ATOM     34  C   UNL     1       5.508  -8.940   5.890  1.00  0.00     0.014 A 
ATOM     35  C   UNL     1       4.126  -9.114   3.908  1.00  0.00     0.014 A 
ATOM     36  C   UNL     1       4.688  -9.867   6.536  1.00  0.00     0.010 A 
ATOM     37  C   UNL     1       3.251  -9.949   4.589  1.00  0.00     0.010 A 
ATOM     38  C   UNL     1       3.527 -10.345   5.907  1.00  0.00    -0.014 A 
BRANCH  38  39
ATOM     39  C   UNL     1       2.602 -11.295   6.577  1.00  0.00     0.031 A 
ATOM     40  C   UNL     1       2.349 -12.642   5.952  1.00  0.00     0.074 A 
ATOM     41  C   UNL     1       1.931 -10.925   7.685  1.00  0.00     0.049 A 
ATOM     42  N   UNL     1       1.476 -13.559   6.281  1.00  0.00    -0.248 NA
ATOM     43  C   UNL     1       3.157 -12.983   4.768  1.00  0.00     0.031 C 
ATOM     44  C   UNL     1       2.039  -9.627   8.355  1.00  0.00     0.029 A 
ATOM     45  N   UNL     1       1.007 -11.607   8.437  1.00  0.00    -0.354 N 
ATOM     46  C   UNL     1       1.611 -14.564   5.332  1.00  0.00     0.074 A 
ATOM     47  C   UNL     1       2.599 -14.117   4.376  1.00  0.00     0.031 C 
ATOM     48  C   UNL     1       1.233  -9.617   9.430  1.00  0.00     0.029 A 
ATOM     49  C   UNL     1       0.524 -10.890   9.505  1.00  0.00     0.049 A 
ATOM     50  H   UNL     1       0.717 -12.525   8.230  1.00  0.00     0.167 HD
ATOM     51  C   UNL     1       0.998 -15.770   5.280  1.00  0.00     0.037 A 
ATOM     52  C   UNL     1      -0.390 -11.224  10.436  1.00  0.00     0.037 A 
ATOM     53  C   UNL     1       0.056 -16.235   6.260  1.00  0.00     0.049 A 
ATOM     54  C   UNL     1      -1.025 -12.587  10.380  1.00  0.00     0.074 A 
ATOM     55  C   UNL     1      -0.600 -17.452   6.320  1.00  0.00     0.029 A 
ATOM     56  N   UNL     1      -0.346 -15.506   7.369  1.00  0.00    -0.354 N 
ATOM     57  N   UNL     1      -0.857 -13.543   9.498  1.00  0.00    -0.248 NA
ATOM     58  C   UNL     1      -1.966 -12.925  11.458  1.00  0.00     0.031 C 
ATOM     59  C   UNL     1      -1.410 -17.454   7.460  1.00  0.00     0.029 A 
ATOM     60  C   UNL     1      -1.231 -16.253   8.127  1.00  0.00     0.049 A 
ATOM     61  H   UNL     1      -0.046 -14.594   7.585  1.00  0.00     0.167 HD
ATOM     62  C   UNL     1      -1.638 -14.605   9.934  1.00  0.00     0.074 A 
ATOM     63  C   UNL     1      -2.271 -14.181  11.165  1.00  0.00     0.031 C 
ATOM     64  C   UNL     1      -1.819 -15.822   9.367  1.00  0.00     0.037 A 
BRANCH  51  65
ATOM     65  C   UNL     1       1.359 -16.679   4.142  1.00  0.00     0.057 A 
ATOM     66  C   UNL     1       2.620 -17.287   4.063  1.00  0.00     0.134 A 
ATOM     67  C   UNL     1       0.436 -16.971   3.131  1.00  0.00     0.134 A 
ATOM     68  F   UNL     1       3.555 -17.035   4.991  1.00  0.00    -0.206 F 
ATOM     69  C   UNL     1       2.958 -18.132   3.005  1.00  0.00     0.040 A 
ATOM     70  C   UNL     1       0.754 -17.837   2.083  1.00  0.00     0.040 A 
ATOM     71  F   UNL     1      -0.789 -16.425   3.147  1.00  0.00    -0.206 F 
ATOM     72  C   UNL     1       2.020 -18.415   2.015  1.00  0.00     0.006 A 
ENDBRANCH  51  65
BRANCH  52  73
ATOM     73  C   UNL     1      -0.744 -10.273  11.521  1.00  0.00     0.057 A 
ATOM     74  C   UNL     1      -0.370 -10.521  12.848  1.00  0.00     0.134 A 
ATOM     75  C   UNL     1      -1.492  -9.118  11.269  1.00  0.00     0.134 A 
ATOM     76  F   UNL     1       0.334 -11.621  13.156  1.00  0.00    -0.206 F 
ATOM     77  C   UNL     1      -0.756  -9.675  13.889  1.00  0.00     0.040 A 
ATOM     78  C   UNL     1      -1.863  -8.249  12.297  1.00  0.00     0.040 A 
ATOM     79  F   UNL     1      -1.873  -8.816  10.019  1.00  0.00    -0.206 F 
ATOM     80  C   UNL     1      -1.505  -8.533  13.613  1.00  0.00     0.006 A 
ENDBRANCH  52  73
BRANCH  64  81
ATOM     81  C   UNL     1      -2.681 -16.802  10.105  1.00  0.00     0.057 A 
ATOM     82  C   UNL     1      -4.073 -16.671  10.160  1.00  0.00     0.134 A 
ATOM     83  C   UNL     1      -2.106 -17.915  10.733  1.00  0.00     0.134 A 
ATOM     84  F   UNL     1      -4.681 -15.621   9.587  1.00  0.00    -0.206 F 
ATOM     85  C   UNL     1      -4.864 -17.602  10.835  1.00  0.00     0.040 A 
ATOM     86  C   UNL     1      -2.889 -18.865  11.389  1.00  0.00     0.040 A 
ATOM     87  F   UNL     1      -0.778 -18.102  10.707  1.00  0.00    -0.206 F 
ATOM     88  C   UNL     1      -4.272 -18.706  11.447  1.00  0.00     0.006 A 
ENDBRANCH  64  81
ENDBRANCH  38  39
ENDBRANCH  30  33
ENDBRANCH  28  29
ENDBRANCH  27  28
ENDBRANCH  26  27
ENDBRANCH   1  26
TORSDOF 16
