REMARK SMILES O=C(NCCCCCCNC(=O)[C@H](CO)NC(=O)[C@H](CS)NC(=O)c1ccc(F)cc1)c1ccc(-c2c3nc(c(-c4c(F)cccc4F)c4ccc([nH]4)c(-c4c(F)cccc4F)c4nc(c(-c5c(F)cccc5F)c5ccc2[nH]5)C=C4)C=C3)cc1
REMARK SMILES IDX 7 1 6 2 5 3 4 4 3 5 1 6 2 7 32 9 33 10 85 11 34 12 84 13
REMARK SMILES IDX 35 14 36 15 37 16 78 17 38 18 83 19 77 20 79 21 39 22 82 23
REMARK SMILES IDX 76 24 75 25 40 27 66 28 49 29 65 30 50 31 53 32 64 33 80 34
REMARK SMILES IDX 51 35 52 36 63 38 81 39 54 40 41 41 42 42 47 43 43 44 44 45
REMARK SMILES IDX 46 46 48 47 45 48 67 49 68 50 73 51 69 52 70 53 72 54 74 55
REMARK SMILES IDX 71 56 55 57 56 58 61 59 57 60 58 61 60 62 62 63 59 64 8 65
REMARK SMILES IDX 9 66 10 67 11 68 12 70 13 71 16 72 17 73 18 75 19 76 22 77
REMARK SMILES IDX 23 78 24 80 25 81 26 82 31 83 27 84 30 85 28 86 29 87 20 88
REMARK SMILES IDX 21 89 14 91 15 92
REMARK H PARENT 3 8 79 26 53 37 10 69 16 74 22 79 21 90 15 93
REMARK Flexibility Score: inf
ROOT
ATOM      1  C   UNL     1       6.892   1.520  -4.381  1.00  0.00     0.002 C 
ENDROOT
BRANCH   1   2
ATOM      2  C   UNL     1       5.949   0.759  -5.323  1.00  0.00     0.002 C 
BRANCH   2   3
ATOM      3  C   UNL     1       6.633  -0.125  -6.369  1.00  0.00     0.021 C 
BRANCH   3   4
ATOM      4  C   UNL     1       7.533  -1.212  -5.792  1.00  0.00     0.116 C 
BRANCH   4   5
ATOM      5  N   UNL     1       6.777  -2.209  -5.051  1.00  0.00    -0.352 N 
ATOM      6  O   UNL     1       5.833  -4.216  -4.653  1.00  0.00    -0.269 OA
ATOM      7  C   UNL     1       6.678  -3.562  -5.257  1.00  0.00     0.251 C 
ATOM      8  H   UNL     1       6.261  -1.861  -4.288  1.00  0.00     0.163 HD
BRANCH   7   9
ATOM      9  C   UNL     1       7.583  -4.236  -6.215  1.00  0.00     0.039 A 
ATOM     10  C   UNL     1       8.943  -3.925  -6.247  1.00  0.00     0.014 A 
ATOM     11  C   UNL     1       7.071  -5.224  -7.063  1.00  0.00     0.014 A 
ATOM     12  C   UNL     1       9.763  -4.508  -7.205  1.00  0.00     0.010 A 
ATOM     13  C   UNL     1       7.916  -5.872  -7.971  1.00  0.00     0.010 A 
ATOM     14  C   UNL     1       9.266  -5.505  -8.062  1.00  0.00    -0.014 A 
BRANCH  14  15
ATOM     15  C   UNL     1      10.214  -6.201  -8.967  1.00  0.00     0.031 A 
ATOM     16  C   UNL     1      10.132  -6.053 -10.459  1.00  0.00     0.074 A 
ATOM     17  C   UNL     1      11.210  -6.919  -8.411  1.00  0.00     0.049 A 
ATOM     18  N   UNL     1      10.947  -6.515 -11.374  1.00  0.00    -0.248 NA
ATOM     19  C   UNL     1       8.993  -5.295 -11.000  1.00  0.00     0.031 C 
ATOM     20  C   UNL     1      11.378  -7.145  -6.972  1.00  0.00     0.029 A 
ATOM     21  N   UNL     1      12.289  -7.550  -8.973  1.00  0.00    -0.354 N 
ATOM     22  C   UNL     1      10.418  -6.116 -12.594  1.00  0.00     0.074 A 
ATOM     23  C   UNL     1       9.198  -5.391 -12.308  1.00  0.00     0.031 C 
ATOM     24  C   UNL     1      12.533  -7.791  -6.760  1.00  0.00     0.029 A 
ATOM     25  C   UNL     1      13.157  -8.077  -8.047  1.00  0.00     0.049 A 
ATOM     26  H   UNL     1      12.429  -7.620  -9.945  1.00  0.00     0.167 HD
ATOM     27  C   UNL     1      10.915  -6.329 -13.836  1.00  0.00     0.037 A 
ATOM     28  C   UNL     1      14.329  -8.716  -8.211  1.00  0.00     0.037 A 
ATOM     29  C   UNL     1      12.139  -7.036 -14.114  1.00  0.00     0.049 A 
ATOM     30  C   UNL     1      14.849  -8.939  -9.600  1.00  0.00     0.074 A 
ATOM     31  C   UNL     1      12.731  -7.282 -15.341  1.00  0.00     0.029 A 
ATOM     32  N   UNL     1      12.961  -7.605 -13.153  1.00  0.00    -0.354 N 
ATOM     33  N   UNL     1      14.343  -8.542 -10.741  1.00  0.00    -0.248 NA
ATOM     34  C   UNL     1      16.094  -9.709  -9.725  1.00  0.00     0.031 C 
ATOM     35  C   UNL     1      13.893  -8.029 -15.126  1.00  0.00     0.029 A 
ATOM     36  C   UNL     1      14.045  -8.216 -13.762  1.00  0.00     0.049 A 
ATOM     37  H   UNL     1      12.798  -7.579 -12.182  1.00  0.00     0.167 HD
ATOM     38  C   UNL     1      15.203  -9.015 -11.721  1.00  0.00     0.074 A 
ATOM     39  C   UNL     1      16.282  -9.700 -11.037  1.00  0.00     0.031 C 
ATOM     40  C   UNL     1      15.102  -8.903 -13.067  1.00  0.00     0.037 A 
BRANCH  27  41
ATOM     41  C   UNL     1      10.143  -5.794 -15.005  1.00  0.00     0.057 A 
ATOM     42  C   UNL     1       9.455  -6.662 -15.864  1.00  0.00     0.134 A 
ATOM     43  C   UNL     1      10.168  -4.436 -15.341  1.00  0.00     0.134 A 
ATOM     44  F   UNL     1       9.400  -7.976 -15.602  1.00  0.00    -0.206 F 
ATOM     45  C   UNL     1       8.835  -6.198 -17.026  1.00  0.00     0.040 A 
ATOM     46  C   UNL     1       9.537  -3.958 -16.491  1.00  0.00     0.040 A 
ATOM     47  F   UNL     1      10.802  -3.553 -14.555  1.00  0.00    -0.206 F 
ATOM     48  C   UNL     1       8.878  -4.842 -17.343  1.00  0.00     0.006 A 
ENDBRANCH  27  41
BRANCH  28  49
ATOM     49  C   UNL     1      15.090  -9.178  -7.024  1.00  0.00     0.057 A 
ATOM     50  C   UNL     1      14.621 -10.221  -6.217  1.00  0.00     0.134 A 
ATOM     51  C   UNL     1      16.295  -8.568  -6.658  1.00  0.00     0.134 A 
ATOM     52  F   UNL     1      13.469 -10.840  -6.513  1.00  0.00    -0.206 F 
ATOM     53  C   UNL     1      15.312 -10.629  -5.076  1.00  0.00     0.040 A 
ATOM     54  C   UNL     1      17.010  -8.983  -5.533  1.00  0.00     0.040 A 
ATOM     55  F   UNL     1      16.803  -7.575  -7.402  1.00  0.00    -0.206 F 
ATOM     56  C   UNL     1      16.513 -10.011  -4.734  1.00  0.00     0.006 A 
ENDBRANCH  28  49
BRANCH  40  57
ATOM     57  C   UNL     1      16.182  -9.541 -13.885  1.00  0.00     0.057 A 
ATOM     58  C   UNL     1      17.142  -8.762 -14.541  1.00  0.00     0.134 A 
ATOM     59  C   UNL     1      16.246 -10.930 -14.052  1.00  0.00     0.134 A 
ATOM     60  F   UNL     1      17.130  -7.425 -14.426  1.00  0.00    -0.206 F 
ATOM     61  C   UNL     1      18.128  -9.343 -15.338  1.00  0.00     0.040 A 
ATOM     62  C   UNL     1      17.241 -11.524 -14.829  1.00  0.00     0.040 A 
ATOM     63  F   UNL     1      15.361 -11.730 -13.438  1.00  0.00    -0.206 F 
ATOM     64  C   UNL     1      18.182 -10.729 -15.480  1.00  0.00     0.006 A 
ENDBRANCH  40  57
ENDBRANCH  14  15
ENDBRANCH   7   9
ENDBRANCH   4   5
ENDBRANCH   3   4
ENDBRANCH   2   3
ENDBRANCH   1   2
BRANCH   1  65
ATOM     65  C   UNL     1       8.019   2.293  -5.071  1.00  0.00     0.021 C 
BRANCH  65  66
ATOM     66  C   UNL     1       7.530   3.341  -6.068  1.00  0.00     0.116 C 
BRANCH  66  67
ATOM     67  N   UNL     1       7.199   4.591  -5.420  1.00  0.00    -0.354 N 
ATOM     68  C   UNL     1       7.916   5.753  -5.344  1.00  0.00     0.244 C 
ATOM     69  H   UNL     1       6.325   4.609  -4.967  1.00  0.00     0.163 HD
ATOM     70  O   UNL     1       7.473   6.644  -4.616  1.00  0.00    -0.273 OA
BRANCH  68  71
ATOM     71  C   UNL     1       9.286   5.875  -6.049  1.00  0.00     0.197 C 
BRANCH  71  72
ATOM     72  N   UNL     1       9.181   5.578  -7.487  1.00  0.00    -0.340 N 
ATOM     73  C   UNL     1       9.990   4.891  -8.340  1.00  0.00     0.244 C 
ATOM     74  H   UNL     1       8.373   5.947  -7.913  1.00  0.00     0.164 HD
ATOM     75  O   UNL     1       9.544   4.701  -9.478  1.00  0.00    -0.273 OA
BRANCH  73  76
ATOM     76  C   UNL     1      11.296   4.182  -7.911  1.00  0.00     0.181 C 
BRANCH  76  77
ATOM     77  N   UNL     1      12.202   5.066  -7.178  1.00  0.00    -0.339 N 
ATOM     78  C   UNL     1      13.550   5.253  -7.312  1.00  0.00     0.251 C 
ATOM     79  H   UNL     1      11.774   5.612  -6.480  1.00  0.00     0.164 HD
ATOM     80  O   UNL     1      14.167   5.970  -6.528  1.00  0.00    -0.269 OA
BRANCH  78  81
ATOM     81  C   UNL     1      14.267   4.596  -8.417  1.00  0.00     0.040 A 
ATOM     82  C   UNL     1      13.909   4.860  -9.745  1.00  0.00     0.017 A 
ATOM     83  C   UNL     1      15.309   3.715  -8.117  1.00  0.00     0.017 A 
ATOM     84  C   UNL     1      14.546   4.173 -10.776  1.00  0.00     0.040 A 
ATOM     85  C   UNL     1      15.949   3.038  -9.153  1.00  0.00     0.040 A 
ATOM     86  C   UNL     1      15.553   3.262 -10.470  1.00  0.00     0.123 A 
ATOM     87  F   UNL     1      16.151   2.589 -11.461  1.00  0.00    -0.207 F 
ENDBRANCH  78  81
ENDBRANCH  76  77
BRANCH  76  88
ATOM     88  C   UNL     1      10.963   2.887  -7.156  1.00  0.00     0.101 C 
BRANCH  88  89
ATOM     89  S   UNL     1      12.348   1.710  -7.012  1.00  0.00    -0.177 SA
ATOM     90  H   UNL     1      12.724   1.299  -8.252  1.00  0.00     0.102 HD
ENDBRANCH  88  89
ENDBRANCH  76  88
ENDBRANCH  73  76
ENDBRANCH  71  72
BRANCH  71  91
ATOM     91  C   UNL     1       9.841   7.294  -5.828  1.00  0.00     0.191 C 
BRANCH  91  92
ATOM     92  O   UNL     1      11.135   7.391  -6.418  1.00  0.00    -0.394 OA
ATOM     93  H   UNL     1      11.727   6.742  -6.008  1.00  0.00     0.210 HD
ENDBRANCH  91  92
ENDBRANCH  71  91
ENDBRANCH  68  71
ENDBRANCH  66  67
ENDBRANCH  65  66
ENDBRANCH   1  65
TORSDOF 21
