REMARK SMILES CC[C@H]1CC[C@](C(=O)NCCCCCCNC(=O)c2ccc(-c3c4nc(c(-c5c(F)cccc5F)c5ccc([nH]5)c(-c5c(F)cccc5F)c5nc(c(-c6c(F)cccc6F)c6ccc3[nH]6)C=C5)C=C4)cc2)([C@H]2CCC[C@@H](S(C)(=O)=O)C2)CC1
REMARK SMILES IDX 12 1 11 2 10 3 9 4 7 5 8 6 6 8 3 9 84 10 4 11 83 12 5 13
REMARK SMILES IDX 2 14 1 15 73 16 74 17 82 18 75 19 77 20 76 21 78 22 79 23
REMARK SMILES IDX 80 24 81 25 13 26 14 27 15 28 16 29 17 30 18 32 19 33 20 34
REMARK SMILES IDX 72 35 21 36 71 37 22 38 23 39 24 40 65 41 25 42 70 43 64 44
REMARK SMILES IDX 66 45 26 46 69 47 63 48 62 49 27 51 53 52 36 53 52 54 37 55
REMARK SMILES IDX 40 56 51 57 67 58 38 59 39 60 50 62 68 63 41 64 28 65 29 66
REMARK SMILES IDX 34 67 30 68 31 69 33 70 35 71 32 72 54 73 55 74 60 75 56 76
REMARK SMILES IDX 57 77 59 78 61 79 58 80 42 81 43 82 48 83 44 84 45 85 47 86
REMARK SMILES IDX 49 87 46 88
REMARK H PARENT 9 7 16 31 66 50 40 61
REMARK Flexibility Score: inf
ROOT
ATOM      1  C   UNL     1      -0.261   4.233  11.230  1.00  0.00     0.002 C 
ENDROOT
BRANCH   1   2
ATOM      2  C   UNL     1      -0.795   3.500  10.000  1.00  0.00     0.021 C 
BRANCH   2   3
ATOM      3  C   UNL     1       0.298   3.115   9.019  1.00  0.00     0.116 C 
BRANCH   3   4
ATOM      4  N   UNL     1       0.611   1.712   9.034  1.00  0.00    -0.356 N 
ATOM      5  C   UNL     1       1.341   1.206   8.002  1.00  0.00     0.226 C 
ATOM      6  O   UNL     1       2.567   1.307   8.049  1.00  0.00    -0.274 OA
ATOM      7  H   UNL     1       0.305   1.134   9.770  1.00  0.00     0.163 HD
BRANCH   5   8
ATOM      8  C   UNL     1       0.612   0.565   6.805  1.00  0.00     0.052 C 
ATOM      9  C   UNL     1      -0.834   2.962   5.492  1.00  0.00    -0.011 C 
ATOM     10  C   UNL     1       0.690   2.776   5.484  1.00  0.00     0.005 C 
ATOM     11  C   UNL     1      -1.583   2.018   6.449  1.00  0.00     0.005 C 
ATOM     12  C   UNL     1       1.137   1.311   5.545  1.00  0.00     0.017 C 
ATOM     13  C   UNL     1      -0.937   0.669   6.760  1.00  0.00     0.017 C 
BRANCH   9  14
ATOM     14  C   UNL     1      -1.282   4.420   5.789  1.00  0.00    -0.000 C 
ATOM     15  C   UNL     1      -0.491   5.512   5.089  1.00  0.00     0.004 C 
ENDBRANCH   9  14
BRANCH   8  16
ATOM     16  C   UNL     1       0.996  -0.990   6.727  1.00  0.00     0.006 C 
ATOM     17  C   UNL     1       2.487  -1.375   6.668  1.00  0.00     0.005 C 
ATOM     18  C   UNL     1       0.259  -1.971   7.672  1.00  0.00     0.024 C 
ATOM     19  C   UNL     1       3.175  -1.654   8.004  1.00  0.00     0.002 C 
ATOM     20  C   UNL     1       0.874  -2.272   9.043  1.00  0.00     0.108 C 
ATOM     21  C   UNL     1       2.385  -2.496   9.003  1.00  0.00     0.020 C 
BRANCH  20  22
ATOM     22  S   UNL     1       0.302  -1.181  10.366  1.00  0.00     0.150 S 
ATOM     23  C   UNL     1      -0.016  -2.272  11.728  1.00  0.00     0.158 C 
ATOM     24  O   UNL     1       1.378  -0.295  10.784  1.00  0.00    -0.229 OA
ATOM     25  O   UNL     1      -0.991  -0.640  10.009  1.00  0.00    -0.229 OA
ENDBRANCH  20  22
ENDBRANCH   8  16
ENDBRANCH   5   8
ENDBRANCH   3   4
ENDBRANCH   2   3
ENDBRANCH   1   2
BRANCH   1  26
ATOM     26  C   UNL     1       0.623   5.454  10.934  1.00  0.00     0.002 C 
BRANCH  26  27
ATOM     27  C   UNL     1       0.051   6.453   9.925  1.00  0.00     0.021 C 
BRANCH  27  28
ATOM     28  C   UNL     1      -1.316   7.014  10.298  1.00  0.00     0.116 C 
BRANCH  28  29
ATOM     29  N   UNL     1      -1.296   7.653  11.603  1.00  0.00    -0.352 N 
ATOM     30  C   UNL     1      -1.580   8.947  11.947  1.00  0.00     0.251 C 
ATOM     31  H   UNL     1      -1.039   7.068  12.352  1.00  0.00     0.163 HD
ATOM     32  O   UNL     1      -1.276   9.374  13.056  1.00  0.00    -0.269 OA
BRANCH  30  33
ATOM     33  C   UNL     1      -2.255   9.833  10.977  1.00  0.00     0.039 A 
ATOM     34  C   UNL     1      -1.813  11.151  10.847  1.00  0.00     0.014 A 
ATOM     35  C   UNL     1      -3.339   9.373  10.224  1.00  0.00     0.014 A 
ATOM     36  C   UNL     1      -2.432  11.997   9.926  1.00  0.00     0.010 A 
ATOM     37  C   UNL     1      -3.904  10.193   9.253  1.00  0.00     0.010 A 
ATOM     38  C   UNL     1      -3.465  11.516   9.104  1.00  0.00    -0.014 A 
BRANCH  38  39
ATOM     39  C   UNL     1      -4.103  12.390   8.089  1.00  0.00     0.031 A 
ATOM     40  C   UNL     1      -5.559  12.746   8.208  1.00  0.00     0.074 A 
ATOM     41  C   UNL     1      -3.383  12.816   7.034  1.00  0.00     0.049 A 
ATOM     42  N   UNL     1      -6.306  13.450   7.396  1.00  0.00    -0.248 NA
ATOM     43  C   UNL     1      -6.277  12.221   9.381  1.00  0.00     0.031 C 
ATOM     44  C   UNL     1      -1.975  12.500   6.787  1.00  0.00     0.029 A 
ATOM     45  N   UNL     1      -3.740  13.601   5.967  1.00  0.00    -0.354 N 
ATOM     46  C   UNL     1      -7.579  13.442   7.952  1.00  0.00     0.074 A 
ATOM     47  C   UNL     1      -7.517  12.617   9.139  1.00  0.00     0.031 C 
ATOM     48  C   UNL     1      -1.581  13.105   5.655  1.00  0.00     0.029 A 
ATOM     49  C   UNL     1      -2.716  13.816   5.076  1.00  0.00     0.049 A 
ATOM     50  H   UNL     1      -4.643  13.975   5.851  1.00  0.00     0.167 HD
ATOM     51  C   UNL     1      -8.693  14.083   7.524  1.00  0.00     0.037 A 
ATOM     52  C   UNL     1      -2.699  14.502   3.918  1.00  0.00     0.037 A 
ATOM     53  C   UNL     1      -8.743  14.917   6.352  1.00  0.00     0.049 A 
ATOM     54  C   UNL     1      -3.953  15.191   3.457  1.00  0.00     0.074 A 
ATOM     55  C   UNL     1      -9.806  15.656   5.865  1.00  0.00     0.029 A 
ATOM     56  N   UNL     1      -7.683  15.118   5.480  1.00  0.00    -0.354 N 
ATOM     57  N   UNL     1      -5.132  15.233   4.029  1.00  0.00    -0.248 NA
ATOM     58  C   UNL     1      -3.873  15.933   2.191  1.00  0.00     0.031 C 
ATOM     59  C   UNL     1      -9.407  16.261   4.670  1.00  0.00     0.029 A 
ATOM     60  C   UNL     1      -8.076  15.947   4.442  1.00  0.00     0.049 A 
ATOM     61  H   UNL     1      -6.785  14.728   5.583  1.00  0.00     0.167 HD
ATOM     62  C   UNL     1      -5.924  16.029   3.212  1.00  0.00     0.074 A 
ATOM     63  C   UNL     1      -5.086  16.461   2.112  1.00  0.00     0.031 C 
ATOM     64  C   UNL     1      -7.228  16.373   3.358  1.00  0.00     0.037 A 
BRANCH  51  65
ATOM     65  C   UNL     1      -9.949  13.905   8.329  1.00  0.00     0.057 A 
ATOM     66  C   UNL     1     -10.090  14.449   9.613  1.00  0.00     0.134 A 
ATOM     67  C   UNL     1     -11.044  13.210   7.800  1.00  0.00     0.134 A 
ATOM     68  F   UNL     1      -9.076  15.117  10.184  1.00  0.00    -0.206 F 
ATOM     69  C   UNL     1     -11.263  14.285  10.352  1.00  0.00     0.040 A 
ATOM     70  C   UNL     1     -12.233  13.065   8.517  1.00  0.00     0.040 A 
ATOM     71  F   UNL     1     -10.982  12.669   6.574  1.00  0.00    -0.206 F 
ATOM     72  C   UNL     1     -12.342  13.598   9.800  1.00  0.00     0.006 A 
ENDBRANCH  51  65
BRANCH  52  73
ATOM     73  C   UNL     1      -1.448  14.587   3.122  1.00  0.00     0.057 A 
ATOM     74  C   UNL     1      -0.755  15.796   2.991  1.00  0.00     0.134 A 
ATOM     75  C   UNL     1      -0.919  13.468   2.468  1.00  0.00     0.134 A 
ATOM     76  F   UNL     1      -1.220  16.908   3.580  1.00  0.00    -0.206 F 
ATOM     77  C   UNL     1       0.404  15.896   2.220  1.00  0.00     0.040 A 
ATOM     78  C   UNL     1       0.254  13.546   1.716  1.00  0.00     0.040 A 
ATOM     79  F   UNL     1      -1.530  12.277   2.561  1.00  0.00    -0.206 F 
ATOM     80  C   UNL     1       0.914  14.766   1.583  1.00  0.00     0.006 A 
ENDBRANCH  52  73
BRANCH  64  81
ATOM     81  C   UNL     1      -7.817  17.290   2.326  1.00  0.00     0.057 A 
ATOM     82  C   UNL     1      -8.080  16.864   1.018  1.00  0.00     0.134 A 
ATOM     83  C   UNL     1      -8.161  18.607   2.659  1.00  0.00     0.134 A 
ATOM     84  F   UNL     1      -7.763  15.619   0.630  1.00  0.00    -0.206 F 
ATOM     85  C   UNL     1      -8.641  17.722   0.071  1.00  0.00     0.040 A 
ATOM     86  C   UNL     1      -8.751  19.464   1.730  1.00  0.00     0.040 A 
ATOM     87  F   UNL     1      -7.945  19.076   3.897  1.00  0.00    -0.206 F 
ATOM     88  C   UNL     1      -8.986  19.025   0.429  1.00  0.00     0.006 A 
ENDBRANCH  64  81
ENDBRANCH  38  39
ENDBRANCH  30  33
ENDBRANCH  28  29
ENDBRANCH  27  28
ENDBRANCH  26  27
ENDBRANCH   1  26
TORSDOF 16
