REMARK SMILES [NH3+]CCOCC(=O)N[C@H](C(=O)NCCCCCCNC(=O)c1ccc(-c2c3nc(c(-c4c(F)cccc4F)c4ccc([nH]4)c(-c4c(F)cccc4F)c4nc(c(-c5c(F)cccc5F)c5ccc2[nH]5)C=C4)C=C3)cc1)c1ccccc1
REMARK SMILES IDX 13 1 12 2 10 3 11 4 9 6 8 7 6 8 7 9 5 11 4 12 3 13 2 14 1 15
REMARK SMILES IDX 76 19 77 20 81 21 78 22 80 23 79 24 14 25 15 26 16 27 17 28
REMARK SMILES IDX 18 29 19 30 20 31 21 33 22 34 23 35 75 36 24 37 74 38 25 39
REMARK SMILES IDX 26 40 27 41 68 42 28 43 73 44 67 45 69 46 29 47 72 48 66 49
REMARK SMILES IDX 65 50 30 52 56 53 39 54 55 55 40 56 43 57 54 58 70 59 41 60
REMARK SMILES IDX 42 61 53 63 71 64 44 65 31 66 32 67 37 68 33 69 34 70 36 71
REMARK SMILES IDX 38 72 35 73 57 74 58 75 63 76 59 77 60 78 62 79 64 80 61 81
REMARK SMILES IDX 45 82 46 83 51 84 47 85 48 86 50 87 52 88 49 89
REMARK H PARENT 12 5 8 10 1 16 1 17 1 18 19 32 69 51 43 62
REMARK Flexibility Score: inf
ROOT
ATOM      1  C   UNL     1       2.570  -2.188  -4.612  1.00  0.00     0.116 C 
ENDROOT
BRANCH   1   2
ATOM      2  N   UNL     1       2.098  -2.446  -3.240  1.00  0.00    -0.354 N 
ATOM      3  C   UNL     1       2.089  -3.570  -2.431  1.00  0.00     0.247 C 
ATOM      4  O   UNL     1       1.347  -3.582  -1.448  1.00  0.00    -0.272 OA
ATOM      5  H   UNL     1       1.706  -1.653  -2.808  1.00  0.00     0.163 HD
BRANCH   3   6
ATOM      6  C   UNL     1       3.031  -4.700  -2.782  1.00  0.00     0.202 C 
BRANCH   6   7
ATOM      7  N   UNL     1       4.388  -4.172  -2.872  1.00  0.00    -0.339 N 
ATOM      8  C   UNL     1       5.052  -3.148  -2.258  1.00  0.00     0.246 C 
ATOM      9  O   UNL     1       6.251  -3.079  -2.566  1.00  0.00    -0.272 OA
ATOM     10  H   UNL     1       4.948  -4.660  -3.518  1.00  0.00     0.164 HD
BRANCH   8  11
ATOM     11  C   UNL     1       4.426  -2.058  -1.269  1.00  0.00     0.260 C 
BRANCH  11  12
ATOM     12  O   UNL     1       4.336  -0.681  -1.665  1.00  0.00    -0.366 OA
BRANCH  12  13
ATOM     13  C   UNL     1       3.113   0.059  -1.585  1.00  0.00     0.222 C 
BRANCH  13  14
ATOM     14  C   UNL     1       3.132   1.337  -2.503  1.00  0.00     0.287 C 
BRANCH  14  15
ATOM     15  N   UNL     1       2.399   1.307  -3.782  1.00  0.00    -0.356 N 
ATOM     16  H   UNL     1       2.507   2.203  -4.258  1.00  0.00     0.344 HD
ATOM     17  H   UNL     1       1.410   1.134  -3.603  1.00  0.00     0.344 HD
ATOM     18  H   UNL     1       2.772   0.562  -4.370  1.00  0.00     0.344 HD
ENDBRANCH  14  15
ENDBRANCH  13  14
ENDBRANCH  12  13
ENDBRANCH  11  12
ENDBRANCH   8  11
ENDBRANCH   6   7
BRANCH   6  19
ATOM     19  C   UNL     1       2.970  -6.042  -2.049  1.00  0.00    -0.016 A 
ATOM     20  C   UNL     1       2.549  -7.201  -2.744  1.00  0.00     0.006 A 
ATOM     21  C   UNL     1       3.434  -6.217  -0.737  1.00  0.00     0.006 A 
ATOM     22  C   UNL     1       2.633  -8.479  -2.171  1.00  0.00     0.000 A 
ATOM     23  C   UNL     1       3.519  -7.498  -0.164  1.00  0.00     0.000 A 
ATOM     24  C   UNL     1       3.132  -8.629  -0.883  1.00  0.00     0.000 A 
ENDBRANCH   6  19
ENDBRANCH   3   6
ENDBRANCH   1   2
BRANCH   1  25
ATOM     25  C   UNL     1       4.050  -1.930  -5.088  1.00  0.00     0.021 C 
BRANCH  25  26
ATOM     26  C   UNL     1       4.931  -0.776  -4.574  1.00  0.00     0.002 C 
BRANCH  26  27
ATOM     27  C   UNL     1       6.445  -0.837  -4.859  1.00  0.00     0.002 C 
BRANCH  27  28
ATOM     28  C   UNL     1       6.870  -0.456  -6.264  1.00  0.00     0.021 C 
BRANCH  28  29
ATOM     29  C   UNL     1       6.506   0.959  -6.680  1.00  0.00     0.116 C 
BRANCH  29  30
ATOM     30  N   UNL     1       7.221   2.013  -5.975  1.00  0.00    -0.352 N 
ATOM     31  C   UNL     1       7.686   3.211  -6.498  1.00  0.00     0.251 C 
ATOM     32  H   UNL     1       7.393   1.859  -5.018  1.00  0.00     0.163 HD
ATOM     33  O   UNL     1       8.317   3.997  -5.835  1.00  0.00    -0.269 OA
BRANCH  31  34
ATOM     34  C   UNL     1       7.432   3.471  -7.938  1.00  0.00     0.039 A 
ATOM     35  C   UNL     1       8.522   3.719  -8.770  1.00  0.00     0.014 A 
ATOM     36  C   UNL     1       6.145   3.339  -8.468  1.00  0.00     0.014 A 
ATOM     37  C   UNL     1       8.329   3.754 -10.151  1.00  0.00     0.010 A 
ATOM     38  C   UNL     1       5.973   3.276  -9.847  1.00  0.00     0.010 A 
ATOM     39  C   UNL     1       7.063   3.485 -10.704  1.00  0.00    -0.014 A 
BRANCH  39  40
ATOM     40  C   UNL     1       6.899   3.413 -12.178  1.00  0.00     0.031 A 
ATOM     41  C   UNL     1       6.035   4.407 -12.901  1.00  0.00     0.074 A 
ATOM     42  C   UNL     1       7.541   2.450 -12.869  1.00  0.00     0.049 A 
ATOM     43  N   UNL     1       5.881   4.580 -14.190  1.00  0.00    -0.248 NA
ATOM     44  C   UNL     1       5.218   5.309 -12.075  1.00  0.00     0.031 C 
ATOM     45  C   UNL     1       8.341   1.374 -12.277  1.00  0.00     0.029 A 
ATOM     46  N   UNL     1       7.643   2.232 -14.220  1.00  0.00    -0.354 N 
ATOM     47  C   UNL     1       4.965   5.615 -14.325  1.00  0.00     0.074 A 
ATOM     48  C   UNL     1       4.537   5.979 -12.992  1.00  0.00     0.031 C 
ATOM     49  C   UNL     1       8.899   0.650 -13.259  1.00  0.00     0.029 A 
ATOM     50  C   UNL     1       8.480   1.192 -14.548  1.00  0.00     0.049 A 
ATOM     51  H   UNL     1       7.162   2.769 -14.890  1.00  0.00     0.167 HD
ATOM     52  C   UNL     1       4.543   6.231 -15.454  1.00  0.00     0.037 A 
ATOM     53  C   UNL     1       8.884   0.743 -15.751  1.00  0.00     0.037 A 
ATOM     54  C   UNL     1       4.975   5.870 -16.779  1.00  0.00     0.049 A 
ATOM     55  C   UNL     1       8.413   1.453 -16.991  1.00  0.00     0.074 A 
ATOM     56  C   UNL     1       4.652   6.467 -17.985  1.00  0.00     0.029 A 
ATOM     57  N   UNL     1       5.818   4.808 -17.072  1.00  0.00    -0.354 N 
ATOM     58  N   UNL     1       7.628   2.498 -17.100  1.00  0.00    -0.248 NA
ATOM     59  C   UNL     1       8.899   0.930 -18.275  1.00  0.00     0.031 C 
ATOM     60  C   UNL     1       5.256   5.733 -19.012  1.00  0.00     0.029 A 
ATOM     61  C   UNL     1       6.003   4.714 -18.442  1.00  0.00     0.049 A 
ATOM     62  H   UNL     1       6.225   4.209 -16.405  1.00  0.00     0.167 HD
ATOM     63  C   UNL     1       7.542   2.769 -18.459  1.00  0.00     0.074 A 
ATOM     64  C   UNL     1       8.381   1.798 -19.131  1.00  0.00     0.031 C 
ATOM     65  C   UNL     1       6.829   3.731 -19.097  1.00  0.00     0.037 A 
BRANCH  52  66
ATOM     66  C   UNL     1       3.569   7.364 -15.300  1.00  0.00     0.057 A 
ATOM     67  C   UNL     1       3.941   8.585 -14.721  1.00  0.00     0.134 A 
ATOM     68  C   UNL     1       2.251   7.243 -15.757  1.00  0.00     0.134 A 
ATOM     69  F   UNL     1       5.184   8.764 -14.248  1.00  0.00    -0.206 F 
ATOM     70  C   UNL     1       3.031   9.635 -14.578  1.00  0.00     0.040 A 
ATOM     71  C   UNL     1       1.341   8.296 -15.647  1.00  0.00     0.040 A 
ATOM     72  F   UNL     1       1.828   6.103 -16.324  1.00  0.00    -0.206 F 
ATOM     73  C   UNL     1       1.728   9.493 -15.050  1.00  0.00     0.006 A 
ENDBRANCH  52  66
BRANCH  53  74
ATOM     74  C   UNL     1       9.816  -0.411 -15.844  1.00  0.00     0.057 A 
ATOM     75  C   UNL     1      11.131  -0.249 -16.296  1.00  0.00     0.134 A 
ATOM     76  C   UNL     1       9.410  -1.705 -15.497  1.00  0.00     0.134 A 
ATOM     77  F   UNL     1      11.576   0.962 -16.661  1.00  0.00    -0.206 F 
ATOM     78  C   UNL     1      12.001  -1.334 -16.422  1.00  0.00     0.040 A 
ATOM     79  C   UNL     1      10.277  -2.795 -15.592  1.00  0.00     0.040 A 
ATOM     80  F   UNL     1       8.165  -1.927 -15.050  1.00  0.00    -0.206 F 
ATOM     81  C   UNL     1      11.575  -2.612 -16.065  1.00  0.00     0.006 A 
ENDBRANCH  53  74
BRANCH  65  82
ATOM     82  C   UNL     1       6.942   3.780 -20.594  1.00  0.00     0.057 A 
ATOM     83  C   UNL     1       6.402   2.777 -21.410  1.00  0.00     0.134 A 
ATOM     84  C   UNL     1       7.598   4.843 -21.228  1.00  0.00     0.134 A 
ATOM     85  F   UNL     1       5.770   1.725 -20.867  1.00  0.00    -0.206 F 
ATOM     86  C   UNL     1       6.548   2.807 -22.798  1.00  0.00     0.040 A 
ATOM     87  C   UNL     1       7.722   4.901 -22.616  1.00  0.00     0.040 A 
ATOM     88  F   UNL     1       8.128   5.844 -20.509  1.00  0.00    -0.206 F 
ATOM     89  C   UNL     1       7.207   3.874 -23.405  1.00  0.00     0.006 A 
ENDBRANCH  65  82
ENDBRANCH  39  40
ENDBRANCH  31  34
ENDBRANCH  29  30
ENDBRANCH  28  29
ENDBRANCH  27  28
ENDBRANCH  26  27
ENDBRANCH  25  26
ENDBRANCH   1  25
TORSDOF 20
