REMARK SMILES COC(=O)c1ccc([C@H]2CC(=O)Nc3c(C(=O)NCCCCCCNC(=O)c4ccc(-c5c6nc(c(-c7c(F)cccc7F)c7ccc([nH]7)c(-c7c(F)cccc7F)c7nc(c(-c8c(F)cccc8F)c8ccc5[nH]8)C=C7)C=C6)cc4)cn(-c4ccccc4)c32)cc1
REMARK SMILES IDX 21 1 20 2 19 3 18 4 16 5 17 6 15 8 9 9 10 10 90 11 11 12
REMARK SMILES IDX 14 13 83 14 12 15 13 16 82 17 8 19 5 20 6 21 92 22 7 23
REMARK SMILES IDX 91 24 3 25 4 26 2 27 1 28 84 29 85 30 89 31 86 32 88 33
REMARK SMILES IDX 87 34 22 35 23 36 24 37 25 38 26 39 27 41 28 42 29 43 81 44
REMARK SMILES IDX 30 45 80 46 31 47 32 48 33 49 74 50 34 51 79 52 73 53 75 54
REMARK SMILES IDX 35 55 78 56 72 57 71 58 36 60 62 61 45 62 61 63 46 64 49 65
REMARK SMILES IDX 60 66 76 67 47 68 48 69 59 71 77 72 50 73 37 74 38 75 43 76
REMARK SMILES IDX 39 77 40 78 42 79 44 80 41 81 63 82 64 83 69 84 65 85 66 86
REMARK SMILES IDX 68 87 70 88 67 89 51 90 52 91 57 92 53 93 54 94 56 95 58 96
REMARK SMILES IDX 55 97
REMARK H PARENT 18 7 13 18 25 40 75 59 49 70
REMARK Flexibility Score: inf
ROOT
ATOM      1  C   UNL     1      -8.340  -1.971   8.601  1.00  0.00     0.002 C 
ENDROOT
BRANCH   1   2
ATOM      2  C   UNL     1      -6.868  -2.187   8.241  1.00  0.00     0.021 C 
BRANCH   2   3
ATOM      3  C   UNL     1      -6.191  -0.925   7.689  1.00  0.00     0.116 C 
BRANCH   3   4
ATOM      4  N   UNL     1      -5.482  -0.247   8.739  1.00  0.00    -0.352 N 
ATOM      5  C   UNL     1      -4.186  -0.269   9.162  1.00  0.00     0.254 C 
ATOM      6  O   UNL     1      -3.943   0.488  10.107  1.00  0.00    -0.269 OA
ATOM      7  H   UNL     1      -6.052   0.362   9.262  1.00  0.00     0.163 HD
BRANCH   5   8
ATOM      8  C   UNL     1      -3.112  -1.075   8.565  1.00  0.00     0.081 A 
ATOM      9  C   UNL     1      -1.083  -3.747   6.884  1.00  0.00     0.078 C 
ATOM     10  C   UNL     1      -2.203  -4.717   6.486  1.00  0.00     0.115 C 
ATOM     11  C   UNL     1      -1.628  -2.521   7.578  1.00  0.00     0.055 A 
ATOM     12  C   UNL     1      -3.569  -4.111   6.327  1.00  0.00     0.225 C 
ATOM     13  C   UNL     1      -2.971  -2.226   7.728  1.00  0.00     0.076 A 
ATOM     14  N   UNL     1      -0.902  -1.522   8.203  1.00  0.00    -0.317 N 
ATOM     15  O   UNL     1      -4.435  -4.637   5.626  1.00  0.00    -0.275 OA
ATOM     16  N   UNL     1      -3.884  -3.033   7.097  1.00  0.00    -0.324 N 
ATOM     17  C   UNL     1      -1.798  -0.728   8.872  1.00  0.00     0.107 A 
ATOM     18  H   UNL     1      -4.838  -2.817   7.211  1.00  0.00     0.170 HD
BRANCH   9  19
ATOM     19  C   UNL     1      -0.044  -4.564   7.660  1.00  0.00    -0.038 A 
ATOM     20  C   UNL     1       2.027  -5.962   8.968  1.00  0.00     0.060 A 
ATOM     21  C   UNL     1       1.788  -6.169   7.606  1.00  0.00     0.016 A 
ATOM     22  C   UNL     1       1.177  -5.123   9.693  1.00  0.00     0.016 A 
ATOM     23  C   UNL     1       0.770  -5.467   6.956  1.00  0.00     0.005 A 
ATOM     24  C   UNL     1       0.125  -4.467   9.050  1.00  0.00     0.005 A 
BRANCH  20  25
ATOM     25  C   UNL     1       3.214  -6.616   9.582  1.00  0.00     0.337 C 
ATOM     26  O   UNL     1       4.027  -7.262   8.951  1.00  0.00    -0.246 OA
BRANCH  25  27
ATOM     27  O   UNL     1       3.261  -6.353  10.914  1.00  0.00    -0.465 OA
ATOM     28  C   UNL     1       4.423  -6.867  11.565  1.00  0.00     0.282 C 
ENDBRANCH  25  27
ENDBRANCH  20  25
ENDBRANCH   9  19
BRANCH  14  29
ATOM     29  C   UNL     1       0.506  -1.390   8.293  1.00  0.00     0.045 A 
ATOM     30  C   UNL     1       1.310  -1.584   7.168  1.00  0.00     0.026 A 
ATOM     31  C   UNL     1       1.085  -1.184   9.554  1.00  0.00     0.026 A 
ATOM     32  C   UNL     1       2.695  -1.642   7.315  1.00  0.00     0.002 A 
ATOM     33  C   UNL     1       2.469  -1.278   9.695  1.00  0.00     0.002 A 
ATOM     34  C   UNL     1       3.271  -1.517   8.580  1.00  0.00     0.000 A 
ENDBRANCH  14  29
ENDBRANCH   5   8
ENDBRANCH   3   4
ENDBRANCH   2   3
ENDBRANCH   1   2
BRANCH   1  35
ATOM     35  C   UNL     1      -9.228  -1.567   7.413  1.00  0.00     0.002 C 
BRANCH  35  36
ATOM     36  C   UNL     1      -9.200  -2.517   6.205  1.00  0.00     0.021 C 
BRANCH  36  37
ATOM     37  C   UNL     1      -9.923  -3.827   6.472  1.00  0.00     0.116 C 
BRANCH  37  38
ATOM     38  N   UNL     1     -11.353  -3.604   6.683  1.00  0.00    -0.352 N 
ATOM     39  C   UNL     1     -12.340  -4.509   6.997  1.00  0.00     0.251 C 
ATOM     40  H   UNL     1     -11.652  -2.671   6.586  1.00  0.00     0.163 HD
ATOM     41  O   UNL     1     -13.520  -4.235   6.831  1.00  0.00    -0.269 OA
BRANCH  39  42
ATOM     42  C   UNL     1     -11.950  -5.818   7.538  1.00  0.00     0.039 A 
ATOM     43  C   UNL     1     -12.600  -6.982   7.120  1.00  0.00     0.014 A 
ATOM     44  C   UNL     1     -10.911  -5.868   8.464  1.00  0.00     0.014 A 
ATOM     45  C   UNL     1     -12.143  -8.209   7.589  1.00  0.00     0.010 A 
ATOM     46  C   UNL     1     -10.369  -7.079   8.808  1.00  0.00     0.010 A 
ATOM     47  C   UNL     1     -11.015  -8.248   8.422  1.00  0.00    -0.014 A 
BRANCH  47  48
ATOM     48  C   UNL     1     -10.429  -9.522   8.816  1.00  0.00     0.031 A 
ATOM     49  C   UNL     1     -10.029 -10.398   7.680  1.00  0.00     0.074 A 
ATOM     50  C   UNL     1     -10.060  -9.785  10.088  1.00  0.00     0.049 A 
ATOM     51  N   UNL     1     -10.507 -11.556   7.364  1.00  0.00    -0.248 NA
ATOM     52  C   UNL     1      -9.067  -9.865   6.699  1.00  0.00     0.031 C 
ATOM     53  C   UNL     1     -10.088  -8.886  11.249  1.00  0.00     0.029 A 
ATOM     54  N   UNL     1      -9.466 -10.899  10.591  1.00  0.00    -0.354 N 
ATOM     55  C   UNL     1      -9.764 -11.993   6.269  1.00  0.00     0.074 A 
ATOM     56  C   UNL     1      -9.030 -10.849   5.798  1.00  0.00     0.031 C 
ATOM     57  C   UNL     1      -9.325  -9.400  12.239  1.00  0.00     0.029 A 
ATOM     58  C   UNL     1      -8.907 -10.734  11.852  1.00  0.00     0.049 A 
ATOM     59  H   UNL     1      -9.435 -11.753  10.103  1.00  0.00     0.167 HD
ATOM     60  C   UNL     1      -9.626 -13.322   5.999  1.00  0.00     0.037 A 
ATOM     61  C   UNL     1      -8.130 -11.625  12.516  1.00  0.00     0.037 A 
ATOM     62  C   UNL     1     -10.626 -14.096   6.692  1.00  0.00     0.049 A 
ATOM     63  C   UNL     1      -8.349 -12.951  11.890  1.00  0.00     0.074 A 
ATOM     64  C   UNL     1     -12.007 -14.122   6.701  1.00  0.00     0.029 A 
ATOM     65  N   UNL     1     -10.236 -14.766   7.826  1.00  0.00    -0.354 N 
ATOM     66  N   UNL     1      -9.470 -13.613  11.963  1.00  0.00    -0.248 NA
ATOM     67  C   UNL     1      -7.468 -13.334  10.798  1.00  0.00     0.031 C 
ATOM     68  C   UNL     1     -12.361 -14.356   8.063  1.00  0.00     0.029 A 
ATOM     69  C   UNL     1     -11.181 -14.529   8.789  1.00  0.00     0.049 A 
ATOM     70  H   UNL     1      -9.426 -15.316   7.928  1.00  0.00     0.167 HD
ATOM     71  C   UNL     1      -9.634 -14.167  10.703  1.00  0.00     0.074 A 
ATOM     72  C   UNL     1      -8.326 -14.042  10.060  1.00  0.00     0.031 C 
ATOM     73  C   UNL     1     -10.879 -14.407  10.196  1.00  0.00     0.037 A 
BRANCH  60  74
ATOM     74  C   UNL     1      -8.369 -13.958   5.447  1.00  0.00     0.057 A 
ATOM     75  C   UNL     1      -8.379 -15.333   5.142  1.00  0.00     0.134 A 
ATOM     76  C   UNL     1      -7.088 -13.371   5.495  1.00  0.00     0.134 A 
ATOM     77  F   UNL     1      -9.533 -16.014   5.066  1.00  0.00    -0.206 F 
ATOM     78  C   UNL     1      -7.204 -16.082   4.996  1.00  0.00     0.040 A 
ATOM     79  C   UNL     1      -5.911 -14.100   5.300  1.00  0.00     0.040 A 
ATOM     80  F   UNL     1      -6.891 -12.093   5.834  1.00  0.00    -0.206 F 
ATOM     81  C   UNL     1      -5.963 -15.467   5.087  1.00  0.00     0.006 A 
ENDBRANCH  60  74
BRANCH  61  82
ATOM     82  C   UNL     1      -7.011 -11.368  13.448  1.00  0.00     0.057 A 
ATOM     83  C   UNL     1      -6.530 -12.376  14.295  1.00  0.00     0.134 A 
ATOM     84  C   UNL     1      -6.205 -10.223  13.329  1.00  0.00     0.134 A 
ATOM     85  F   UNL     1      -7.211 -13.521  14.446  1.00  0.00    -0.206 F 
ATOM     86  C   UNL     1      -5.302 -12.266  14.960  1.00  0.00     0.040 A 
ATOM     87  C   UNL     1      -4.979 -10.098  13.991  1.00  0.00     0.040 A 
ATOM     88  F   UNL     1      -6.535  -9.227  12.493  1.00  0.00    -0.206 F 
ATOM     89  C   UNL     1      -4.515 -11.129  14.798  1.00  0.00     0.006 A 
ENDBRANCH  61  82
BRANCH  73  90
ATOM     90  C   UNL     1     -12.052 -14.302  11.134  1.00  0.00     0.057 A 
ATOM     91  C   UNL     1     -12.451 -13.118  11.774  1.00  0.00     0.134 A 
ATOM     92  C   UNL     1     -12.895 -15.408  11.277  1.00  0.00     0.134 A 
ATOM     93  F   UNL     1     -11.766 -11.979  11.619  1.00  0.00    -0.206 F 
ATOM     94  C   UNL     1     -13.610 -13.052  12.553  1.00  0.00     0.040 A 
ATOM     95  C   UNL     1     -14.074 -15.347  12.024  1.00  0.00     0.040 A 
ATOM     96  F   UNL     1     -12.610 -16.560  10.649  1.00  0.00    -0.206 F 
ATOM     97  C   UNL     1     -14.430 -14.169  12.675  1.00  0.00     0.006 A 
ENDBRANCH  73  90
ENDBRANCH  47  48
ENDBRANCH  39  42
ENDBRANCH  37  38
ENDBRANCH  36  37
ENDBRANCH  35  36
ENDBRANCH   1  35
TORSDOF 17
