REMARK SMILES Cc1cccc(C(=O)NCCCCCCNC(=O)c2ccc(-c3c4nc(c(-c5c(F)cccc5F)c5ccc([nH]5)c(-c5c(F)cccc5F)c5nc(c(-c6c(F)cccc6F)c6ccc3[nH]6)C=C5)C=C4)cc2)c1NC(=O)N[C@@H]1CCCC1(C)C
REMARK SMILES IDX 12 1 11 2 10 3 9 4 7 5 8 6 6 8 1 9 2 10 3 11 73 12 4 13 5 14
REMARK SMILES IDX 74 15 75 16 76 18 77 19 78 21 79 22 82 23 80 24 81 25 83 26
REMARK SMILES IDX 84 27 13 28 14 29 15 30 16 31 17 32 18 34 19 35 20 36 72 37
REMARK SMILES IDX 21 38 71 39 22 40 23 41 24 42 65 43 25 44 70 45 64 46 66 47
REMARK SMILES IDX 26 48 69 49 63 50 62 51 27 53 53 54 36 55 52 56 37 57 40 58
REMARK SMILES IDX 51 59 67 60 38 61 39 62 50 64 68 65 41 66 28 67 29 68 34 69
REMARK SMILES IDX 30 70 31 71 33 72 35 73 32 74 54 75 55 76 60 77 56 78 57 79
REMARK SMILES IDX 59 80 61 81 58 82 42 83 43 84 48 85 44 86 45 87 47 88 49 89
REMARK SMILES IDX 46 90
REMARK H PARENT 9 7 74 17 77 20 16 33 66 52 40 63
REMARK Flexibility Score: inf
ROOT
ATOM      1  C   UNL     1       0.863   6.086  -0.689  1.00  0.00     0.002 C 
ENDROOT
BRANCH   1   2
ATOM      2  C   UNL     1       1.851   4.914  -0.708  1.00  0.00     0.021 C 
BRANCH   2   3
ATOM      3  C   UNL     1       1.958   3.991   0.507  1.00  0.00     0.116 C 
BRANCH   3   4
ATOM      4  N   UNL     1       0.748   3.841   1.290  1.00  0.00    -0.352 N 
ATOM      5  C   UNL     1       0.115   2.711   1.750  1.00  0.00     0.253 C 
ATOM      6  O   UNL     1      -0.533   2.811   2.790  1.00  0.00    -0.269 OA
ATOM      7  H   UNL     1       0.307   4.687   1.533  1.00  0.00     0.163 HD
BRANCH   5   8
ATOM      8  C   UNL     1       0.273   1.385   1.100  1.00  0.00     0.063 A 
ATOM      9  C   UNL     1       2.511   0.226  -1.481  1.00  0.00     0.046 C 
ATOM     10  C   UNL     1       1.276   0.098  -0.627  1.00  0.00    -0.027 A 
ATOM     11  C   UNL     1       1.118  -1.076   0.119  1.00  0.00     0.005 A 
ATOM     12  C   UNL     1       0.539   1.226  -0.253  1.00  0.00     0.058 A 
ATOM     13  C   UNL     1       0.481  -1.021   1.352  1.00  0.00     0.001 A 
ATOM     14  C   UNL     1       0.180   0.229   1.893  1.00  0.00     0.016 A 
BRANCH  12  15
ATOM     15  N   UNL     1       0.003   2.037  -1.275  1.00  0.00    -0.307 N 
ATOM     16  C   UNL     1      -1.095   2.837  -1.303  1.00  0.00     0.319 C 
ATOM     17  H   UNL     1       0.514   2.021  -2.116  1.00  0.00     0.171 HD
ATOM     18  O   UNL     1      -1.153   3.730  -2.152  1.00  0.00    -0.248 OA
ATOM     19  N   UNL     1      -2.177   2.646  -0.508  1.00  0.00    -0.335 N 
ATOM     20  H   UNL     1      -2.636   3.465  -0.211  1.00  0.00     0.165 HD
BRANCH  19  21
ATOM     21  C   UNL     1      -2.755   1.395  -0.033  1.00  0.00     0.089 C 
ATOM     22  C   UNL     1      -3.488   0.631  -1.138  1.00  0.00     0.025 C 
ATOM     23  C   UNL     1      -3.838   1.484   1.081  1.00  0.00    -0.015 C 
ATOM     24  C   UNL     1      -4.245  -0.457  -0.378  1.00  0.00     0.003 C 
ATOM     25  C   UNL     1      -4.379   0.037   1.068  1.00  0.00     0.008 C 
ATOM     26  C   UNL     1      -3.284   1.821   2.464  1.00  0.00     0.013 C 
ATOM     27  C   UNL     1      -4.981   2.474   0.787  1.00  0.00     0.013 C 
ENDBRANCH  19  21
ENDBRANCH  12  15
ENDBRANCH   5   8
ENDBRANCH   3   4
ENDBRANCH   2   3
ENDBRANCH   1   2
BRANCH   1  28
ATOM     28  C   UNL     1       0.804   7.048   0.505  1.00  0.00     0.002 C 
BRANCH  28  29
ATOM     29  C   UNL     1       2.099   7.413   1.226  1.00  0.00     0.021 C 
BRANCH  29  30
ATOM     30  C   UNL     1       3.182   7.982   0.321  1.00  0.00     0.116 C 
BRANCH  30  31
ATOM     31  N   UNL     1       3.627   9.324   0.684  1.00  0.00    -0.352 N 
ATOM     32  C   UNL     1       4.502  10.155   0.010  1.00  0.00     0.251 C 
ATOM     33  H   UNL     1       3.254   9.686   1.520  1.00  0.00     0.163 HD
ATOM     34  O   UNL     1       4.732  11.288   0.433  1.00  0.00    -0.269 OA
BRANCH  32  35
ATOM     35  C   UNL     1       5.045   9.729  -1.302  1.00  0.00     0.039 A 
ATOM     36  C   UNL     1       4.943  10.625  -2.370  1.00  0.00     0.014 A 
ATOM     37  C   UNL     1       5.409   8.404  -1.533  1.00  0.00     0.014 A 
ATOM     38  C   UNL     1       4.919  10.131  -3.671  1.00  0.00     0.010 A 
ATOM     39  C   UNL     1       5.293   7.896  -2.812  1.00  0.00     0.010 A 
ATOM     40  C   UNL     1       4.969   8.750  -3.868  1.00  0.00    -0.014 A 
BRANCH  40  41
ATOM     41  C   UNL     1       4.571   8.125  -5.122  1.00  0.00     0.031 A 
ATOM     42  C   UNL     1       5.584   7.661  -6.085  1.00  0.00     0.074 A 
ATOM     43  C   UNL     1       3.260   7.984  -5.424  1.00  0.00     0.049 A 
ATOM     44  N   UNL     1       5.400   7.652  -7.362  1.00  0.00    -0.248 NA
ATOM     45  C   UNL     1       6.905   7.193  -5.680  1.00  0.00     0.031 C 
ATOM     46  C   UNL     1       2.687   7.269  -6.561  1.00  0.00     0.029 A 
ATOM     47  N   UNL     1       2.179   8.680  -4.868  1.00  0.00    -0.354 N 
ATOM     48  C   UNL     1       6.447   6.970  -7.925  1.00  0.00     0.074 A 
ATOM     49  C   UNL     1       7.387   6.751  -6.847  1.00  0.00     0.031 C 
ATOM     50  C   UNL     1       1.474   7.780  -6.820  1.00  0.00     0.029 A 
ATOM     51  C   UNL     1       1.274   8.910  -5.931  1.00  0.00     0.049 A 
ATOM     52  H   UNL     1       2.070   8.953  -3.929  1.00  0.00     0.167 HD
ATOM     53  C   UNL     1       6.371   6.556  -9.219  1.00  0.00     0.037 A 
ATOM     54  C   UNL     1       0.958  10.179  -6.315  1.00  0.00     0.037 A 
ATOM     55  C   UNL     1       5.117   6.939  -9.855  1.00  0.00     0.049 A 
ATOM     56  C   UNL     1       1.368  10.533  -7.730  1.00  0.00     0.074 A 
ATOM     57  C   UNL     1       3.918   6.290 -10.101  1.00  0.00     0.029 A 
ATOM     58  N   UNL     1       4.870   8.281 -10.070  1.00  0.00    -0.354 N 
ATOM     59  N   UNL     1       1.981   9.725  -8.551  1.00  0.00    -0.248 NA
ATOM     60  C   UNL     1       1.206  11.876  -8.291  1.00  0.00     0.031 C 
ATOM     61  C   UNL     1       2.948   7.267 -10.468  1.00  0.00     0.029 A 
ATOM     62  C   UNL     1       3.563   8.505 -10.452  1.00  0.00     0.049 A 
ATOM     63  H   UNL     1       5.545   8.991  -9.965  1.00  0.00     0.167 HD
ATOM     64  C   UNL     1       2.361  10.421  -9.670  1.00  0.00     0.074 A 
ATOM     65  C   UNL     1       1.842  11.760  -9.469  1.00  0.00     0.031 C 
ATOM     66  C   UNL     1       3.123   9.873 -10.660  1.00  0.00     0.037 A 
BRANCH  53  67
ATOM     67  C   UNL     1       7.371   5.605  -9.807  1.00  0.00     0.057 A 
ATOM     68  C   UNL     1       6.970   4.554 -10.650  1.00  0.00     0.134 A 
ATOM     69  C   UNL     1       8.749   5.664  -9.538  1.00  0.00     0.134 A 
ATOM     70  F   UNL     1       5.698   4.416 -11.044  1.00  0.00    -0.206 F 
ATOM     71  C   UNL     1       7.859   3.576 -11.109  1.00  0.00     0.040 A 
ATOM     72  C   UNL     1       9.641   4.665  -9.947  1.00  0.00     0.040 A 
ATOM     73  F   UNL     1       9.281   6.702  -8.874  1.00  0.00    -0.206 F 
ATOM     74  C   UNL     1       9.193   3.607 -10.727  1.00  0.00     0.006 A 
ENDBRANCH  53  67
BRANCH  54  75
ATOM     75  C   UNL     1       0.913  11.130  -5.173  1.00  0.00     0.057 A 
ATOM     76  C   UNL     1      -0.055  10.935  -4.172  1.00  0.00     0.134 A 
ATOM     77  C   UNL     1       1.987  11.968  -4.867  1.00  0.00     0.134 A 
ATOM     78  F   UNL     1      -1.116  10.146  -4.404  1.00  0.00    -0.206 F 
ATOM     79  C   UNL     1       0.099  11.454  -2.885  1.00  0.00     0.040 A 
ATOM     80  C   UNL     1       2.143  12.508  -3.586  1.00  0.00     0.040 A 
ATOM     81  F   UNL     1       2.959  12.190  -5.764  1.00  0.00    -0.206 F 
ATOM     82  C   UNL     1       1.222  12.217  -2.581  1.00  0.00     0.006 A 
ENDBRANCH  54  75
BRANCH  66  83
ATOM     83  C   UNL     1       3.532  10.608 -11.906  1.00  0.00     0.057 A 
ATOM     84  C   UNL     1       2.634  11.384 -12.652  1.00  0.00     0.134 A 
ATOM     85  C   UNL     1       4.816  10.455 -12.469  1.00  0.00     0.134 A 
ATOM     86  F   UNL     1       1.364  11.545 -12.253  1.00  0.00    -0.206 F 
ATOM     87  C   UNL     1       3.002  12.004 -13.853  1.00  0.00     0.040 A 
ATOM     88  C   UNL     1       5.179  11.026 -13.691  1.00  0.00     0.040 A 
ATOM     89  F   UNL     1       5.780   9.761 -11.848  1.00  0.00    -0.206 F 
ATOM     90  C   UNL     1       4.274  11.816 -14.383  1.00  0.00     0.006 A 
ENDBRANCH  66  83
ENDBRANCH  40  41
ENDBRANCH  32  35
ENDBRANCH  30  31
ENDBRANCH  29  30
ENDBRANCH  28  29
ENDBRANCH   1  28
TORSDOF 15
