REMARK SMILES C[C@@H](Oc1ccc(I)cc1)C(=O)NCc1ccc(C(=O)NCCCCCCNC(=O)c2ccc(-c3c4nc(c(-c5c(F)cccc5F)c5ccc([nH]5)c(-c5c(F)cccc5F)c5nc(c(-c6c(F)cccc6F)c6ccc3[nH]6)C=C5)C=C4)cc2)cc1
REMARK SMILES IDX 23 1 22 2 21 3 19 4 20 5 18 7 15 8 16 9 86 10 17 11 85 12
REMARK SMILES IDX 14 13 13 14 11 15 12 16 2 18 1 19 3 20 4 21 5 22 10 23 6 24
REMARK SMILES IDX 9 25 7 26 8 27 24 28 25 29 26 30 27 31 28 32 29 33 30 35
REMARK SMILES IDX 31 36 32 37 84 38 33 39 83 40 34 41 35 42 36 43 77 44 37 45
REMARK SMILES IDX 82 46 76 47 78 48 38 49 81 50 75 51 74 52 39 54 65 55 48 56
REMARK SMILES IDX 64 57 49 58 52 59 63 60 79 61 50 62 51 63 62 65 80 66 53 67
REMARK SMILES IDX 40 68 41 69 46 70 42 71 43 72 45 73 47 74 44 75 66 76 67 77
REMARK SMILES IDX 72 78 68 79 69 80 71 81 73 82 70 83 54 84 55 85 60 86 56 87
REMARK SMILES IDX 57 88 59 89 61 90 58 91
REMARK H PARENT 21 6 13 17 28 34 78 53 52 64
REMARK Flexibility Score: inf
ROOT
ATOM      1  C   UNL     1      -2.214   4.205   7.144  1.00  0.00     0.021 C 
ENDROOT
BRANCH   1   2
ATOM      2  C   UNL     1      -3.029   4.145   5.851  1.00  0.00     0.116 C 
BRANCH   2   3
ATOM      3  N   UNL     1      -2.385   4.932   4.816  1.00  0.00    -0.352 N 
ATOM      4  C   UNL     1      -1.707   4.564   3.684  1.00  0.00     0.251 C 
ATOM      5  O   UNL     1      -1.278   5.446   2.942  1.00  0.00    -0.269 OA
ATOM      6  H   UNL     1      -2.446   5.906   4.952  1.00  0.00     0.163 HD
BRANCH   4   7
ATOM      7  C   UNL     1      -1.530   3.142   3.296  1.00  0.00     0.039 A 
ATOM      8  C   UNL     1      -1.276   0.477   2.406  1.00  0.00    -0.029 A 
ATOM      9  C   UNL     1      -1.498   1.513   1.492  1.00  0.00     0.006 A 
ATOM     10  C   UNL     1      -1.132   0.802   3.765  1.00  0.00     0.006 A 
ATOM     11  C   UNL     1      -1.624   2.833   1.934  1.00  0.00     0.014 A 
ATOM     12  C   UNL     1      -1.235   2.125   4.204  1.00  0.00     0.014 A 
BRANCH   8  13
ATOM     13  C   UNL     1      -1.111  -0.968   2.003  1.00  0.00     0.151 C 
BRANCH  13  14
ATOM     14  N   UNL     1      -1.509  -1.271   0.643  1.00  0.00    -0.349 N 
ATOM     15  C   UNL     1      -0.752  -1.617  -0.440  1.00  0.00     0.261 C 
ATOM     16  O   UNL     1      -1.349  -1.921  -1.478  1.00  0.00    -0.271 OA
ATOM     17  H   UNL     1      -2.477  -1.219   0.472  1.00  0.00     0.163 HD
BRANCH  15  18
ATOM     18  C   UNL     1       0.786  -1.532  -0.414  1.00  0.00     0.258 C 
ATOM     19  C   UNL     1       1.173  -0.059  -0.532  1.00  0.00     0.064 C 
BRANCH  18  20
ATOM     20  O   UNL     1       1.274  -2.174   0.766  1.00  0.00    -0.481 OA
BRANCH  20  21
ATOM     21  C   UNL     1       2.609  -2.445   0.783  1.00  0.00     0.120 A 
ATOM     22  C   UNL     1       3.539  -1.452   1.088  1.00  0.00     0.047 A 
ATOM     23  C   UNL     1       3.011  -3.775   0.685  1.00  0.00     0.047 A 
ATOM     24  C   UNL     1       4.887  -1.779   1.236  1.00  0.00     0.018 A 
ATOM     25  C   UNL     1       4.357  -4.109   0.848  1.00  0.00     0.018 A 
ATOM     26  C   UNL     1       5.292  -3.108   1.118  1.00  0.00     0.013 A 
ATOM     27  I   UNL     1       7.292  -3.601   1.389  1.00  0.00    -0.044 I 
ENDBRANCH  20  21
ENDBRANCH  18  20
ENDBRANCH  15  18
ENDBRANCH  13  14
ENDBRANCH   8  13
ENDBRANCH   4   7
ENDBRANCH   2   3
ENDBRANCH   1   2
BRANCH   1  28
ATOM     28  C   UNL     1      -2.384   5.524   7.909  1.00  0.00     0.002 C 
BRANCH  28  29
ATOM     29  C   UNL     1      -3.797   5.779   8.446  1.00  0.00     0.002 C 
BRANCH  29  30
ATOM     30  C   UNL     1      -4.359   4.673   9.345  1.00  0.00     0.021 C 
BRANCH  30  31
ATOM     31  C   UNL     1      -3.529   4.386  10.593  1.00  0.00     0.116 C 
BRANCH  31  32
ATOM     32  N   UNL     1      -3.488   5.532  11.486  1.00  0.00    -0.352 N 
ATOM     33  C   UNL     1      -3.818   5.616  12.814  1.00  0.00     0.251 C 
ATOM     34  H   UNL     1      -3.179   6.372  11.077  1.00  0.00     0.163 HD
ATOM     35  O   UNL     1      -3.936   6.715  13.347  1.00  0.00    -0.269 OA
BRANCH  33  36
ATOM     36  C   UNL     1      -4.036   4.388  13.610  1.00  0.00     0.039 A 
ATOM     37  C   UNL     1      -5.089   4.363  14.528  1.00  0.00     0.014 A 
ATOM     38  C   UNL     1      -3.178   3.290  13.498  1.00  0.00     0.014 A 
ATOM     39  C   UNL     1      -5.300   3.228  15.312  1.00  0.00     0.010 A 
ATOM     40  C   UNL     1      -3.427   2.134  14.234  1.00  0.00     0.010 A 
ATOM     41  C   UNL     1      -4.479   2.098  15.161  1.00  0.00    -0.014 A 
BRANCH  41  42
ATOM     42  C   UNL     1      -4.696   0.889  15.992  1.00  0.00     0.031 A 
ATOM     43  C   UNL     1      -3.673   0.477  17.014  1.00  0.00     0.074 A 
ATOM     44  C   UNL     1      -5.802   0.143  15.806  1.00  0.00     0.049 A 
ATOM     45  N   UNL     1      -3.683  -0.547  17.829  1.00  0.00    -0.248 NA
ATOM     46  C   UNL     1      -2.466   1.313  17.117  1.00  0.00     0.031 C 
ATOM     47  C   UNL     1      -6.842   0.408  14.811  1.00  0.00     0.029 A 
ATOM     48  N   UNL     1      -6.233  -0.990  16.446  1.00  0.00    -0.354 N 
ATOM     49  C   UNL     1      -2.486  -0.486  18.530  1.00  0.00     0.074 A 
ATOM     50  C   UNL     1      -1.749   0.645  18.009  1.00  0.00     0.031 C 
ATOM     51  C   UNL     1      -7.805  -0.521  14.926  1.00  0.00     0.029 A 
ATOM     52  C   UNL     1      -7.439  -1.457  15.985  1.00  0.00     0.049 A 
ATOM     53  H   UNL     1      -5.726  -1.427  17.168  1.00  0.00     0.167 HD
ATOM     54  C   UNL     1      -2.049  -1.283  19.534  1.00  0.00     0.037 A 
ATOM     55  C   UNL     1      -8.171  -2.515  16.379  1.00  0.00     0.037 A 
ATOM     56  C   UNL     1      -2.795  -2.390  20.072  1.00  0.00     0.049 A 
ATOM     57  C   UNL     1      -7.677  -3.369  17.513  1.00  0.00     0.074 A 
ATOM     58  C   UNL     1      -2.466  -3.223  21.127  1.00  0.00     0.029 A 
ATOM     59  N   UNL     1      -4.025  -2.817  19.594  1.00  0.00    -0.354 N 
ATOM     60  N   UNL     1      -6.574  -3.259  18.212  1.00  0.00    -0.248 NA
ATOM     61  C   UNL     1      -8.539  -4.488  17.921  1.00  0.00     0.031 C 
ATOM     62  C   UNL     1      -3.482  -4.175  21.267  1.00  0.00     0.029 A 
ATOM     63  C   UNL     1      -4.462  -3.911  20.324  1.00  0.00     0.049 A 
ATOM     64  H   UNL     1      -4.515  -2.405  18.847  1.00  0.00     0.167 HD
ATOM     65  C   UNL     1      -6.618  -4.277  19.155  1.00  0.00     0.074 A 
ATOM     66  C   UNL     1      -7.867  -4.982  18.951  1.00  0.00     0.031 C 
ATOM     67  C   UNL     1      -5.707  -4.601  20.105  1.00  0.00     0.037 A 
BRANCH  54  68
ATOM     68  C   UNL     1      -0.701  -0.977  20.120  1.00  0.00     0.057 A 
ATOM     69  C   UNL     1      -0.483   0.154  20.917  1.00  0.00     0.134 A 
ATOM     70  C   UNL     1       0.386  -1.833  19.903  1.00  0.00     0.134 A 
ATOM     71  F   UNL     1      -1.479   1.022  21.152  1.00  0.00    -0.206 F 
ATOM     72  C   UNL     1       0.773   0.438  21.455  1.00  0.00     0.040 A 
ATOM     73  C   UNL     1       1.641  -1.573  20.457  1.00  0.00     0.040 A 
ATOM     74  F   UNL     1       0.246  -2.937  19.153  1.00  0.00    -0.206 F 
ATOM     75  C   UNL     1       1.839  -0.431  21.230  1.00  0.00     0.006 A 
ENDBRANCH  54  68
BRANCH  55  76
ATOM     76  C   UNL     1      -9.469  -2.804  15.723  1.00  0.00     0.057 A 
ATOM     77  C   UNL     1     -10.679  -2.584  16.392  1.00  0.00     0.134 A 
ATOM     78  C   UNL     1      -9.534  -3.308  14.419  1.00  0.00     0.134 A 
ATOM     79  F   UNL     1     -10.679  -2.119  17.650  1.00  0.00    -0.206 F 
ATOM     80  C   UNL     1     -11.907  -2.873  15.796  1.00  0.00     0.040 A 
ATOM     81  C   UNL     1     -10.756  -3.580  13.802  1.00  0.00     0.040 A 
ATOM     82  F   UNL     1      -8.409  -3.531  13.723  1.00  0.00    -0.206 F 
ATOM     83  C   UNL     1     -11.947  -3.369  14.494  1.00  0.00     0.006 A 
ENDBRANCH  55  76
BRANCH  67  84
ATOM     84  C   UNL     1      -6.043  -5.753  21.004  1.00  0.00     0.057 A 
ATOM     85  C   UNL     1      -6.011  -7.077  20.549  1.00  0.00     0.134 A 
ATOM     86  C   UNL     1      -6.390  -5.537  22.343  1.00  0.00     0.134 A 
ATOM     87  F   UNL     1      -5.700  -7.350  19.272  1.00  0.00    -0.206 F 
ATOM     88  C   UNL     1      -6.340  -8.144  21.387  1.00  0.00     0.040 A 
ATOM     89  C   UNL     1      -6.697  -6.596  23.197  1.00  0.00     0.040 A 
ATOM     90  F   UNL     1      -6.432  -4.293  22.844  1.00  0.00    -0.206 F 
ATOM     91  C   UNL     1      -6.680  -7.904  22.717  1.00  0.00     0.006 A 
ENDBRANCH  67  84
ENDBRANCH  41  42
ENDBRANCH  33  36
ENDBRANCH  31  32
ENDBRANCH  30  31
ENDBRANCH  29  30
ENDBRANCH  28  29
ENDBRANCH   1  28
TORSDOF 18
