REMARK SMILES C[NH2+][C@H](CC(=O)NCCCCCCNC(=O)c1ccc(-c2c3nc(c(-c4c(F)cccc4F)c4ccc([nH]4)c(-c4c(F)cccc4F)c4nc(c(-c5c(F)cccc5F)c5ccc2[nH]5)C=C4)C=C3)cc1)c1cccc(C2CC2)c1
REMARK SMILES IDX 10 1 9 2 8 3 7 4 5 5 6 6 4 8 3 9 2 10 1 11 71 14 72 15 79 16
REMARK SMILES IDX 73 17 75 18 74 19 76 20 77 21 78 22 11 23 12 24 13 25 14 26
REMARK SMILES IDX 15 27 16 29 17 30 18 31 70 32 19 33 69 34 20 35 21 36 22 37
REMARK SMILES IDX 63 38 23 39 68 40 62 41 64 42 24 43 67 44 61 45 60 46 25 48
REMARK SMILES IDX 51 49 34 50 50 51 35 52 38 53 49 54 65 55 36 56 37 57 48 59
REMARK SMILES IDX 66 60 39 61 26 62 27 63 32 64 28 65 29 66 31 67 33 68 30 69
REMARK SMILES IDX 52 70 53 71 58 72 54 73 55 74 57 75 59 76 56 77 40 78 41 79
REMARK SMILES IDX 46 80 42 81 43 82 45 83 47 84 44 85
REMARK H PARENT 7 7 2 12 2 13 14 28 64 47 38 58
REMARK Flexibility Score: inf
ROOT
ATOM      1  C   UNL     1      -0.854   4.796   2.685  1.00  0.00     0.002 C 
ENDROOT
BRANCH   1   2
ATOM      2  C   UNL     1      -1.098   3.879   1.474  1.00  0.00     0.021 C 
BRANCH   2   3
ATOM      3  C   UNL     1       0.161   3.200   0.921  1.00  0.00     0.116 C 
BRANCH   3   4
ATOM      4  N   UNL     1       0.991   2.626   1.963  1.00  0.00    -0.356 N 
ATOM      5  C   UNL     1       1.206   1.340   2.351  1.00  0.00     0.226 C 
ATOM      6  O   UNL     1       1.993   1.153   3.281  1.00  0.00    -0.275 OA
ATOM      7  H   UNL     1       1.493   3.291   2.488  1.00  0.00     0.163 HD
BRANCH   5   8
ATOM      8  C   UNL     1       0.567   0.180   1.621  1.00  0.00     0.170 C 
BRANCH   8   9
ATOM      9  C   UNL     1      -0.959   0.033   1.762  1.00  0.00     0.222 C 
BRANCH   9  10
ATOM     10  N   UNL     1      -1.478  -1.159   1.045  1.00  0.00    -0.342 N 
ATOM     11  C   UNL     1      -1.025  -1.314  -0.327  1.00  0.00     0.331 C 
ATOM     12  H   UNL     1      -1.192  -1.988   1.565  1.00  0.00     0.346 HD
ATOM     13  H   UNL     1      -2.490  -1.035   0.992  1.00  0.00     0.346 HD
ENDBRANCH   9  10
BRANCH   9  14
ATOM     14  C   UNL     1      -1.429   0.020   3.222  1.00  0.00     0.010 A 
ATOM     15  C   UNL     1      -1.544   1.218   3.937  1.00  0.00     0.010 A 
ATOM     16  C   UNL     1      -1.750  -1.165   3.906  1.00  0.00     0.014 A 
ATOM     17  C   UNL     1      -1.977   1.253   5.256  1.00  0.00     0.001 A 
ATOM     18  C   UNL     1      -2.188  -1.173   5.248  1.00  0.00    -0.044 A 
ATOM     19  C   UNL     1      -2.299   0.066   5.899  1.00  0.00     0.004 A 
BRANCH  18  20
ATOM     20  C   UNL     1      -2.499  -2.432   6.026  1.00  0.00     0.019 C 
ATOM     21  C   UNL     1      -2.464  -3.822   5.449  1.00  0.00     0.009 C 
ATOM     22  C   UNL     1      -1.347  -3.359   6.338  1.00  0.00     0.009 C 
ENDBRANCH  18  20
ENDBRANCH   9  14
ENDBRANCH   8   9
ENDBRANCH   5   8
ENDBRANCH   3   4
ENDBRANCH   2   3
ENDBRANCH   1   2
BRANCH   1  23
ATOM     23  C   UNL     1      -0.035   6.051   2.379  1.00  0.00     0.002 C 
BRANCH  23  24
ATOM     24  C   UNL     1      -0.626   6.939   1.286  1.00  0.00     0.021 C 
BRANCH  24  25
ATOM     25  C   UNL     1      -2.050   7.403   1.564  1.00  0.00     0.116 C 
BRANCH  25  26
ATOM     26  N   UNL     1      -2.102   8.400   2.621  1.00  0.00    -0.352 N 
ATOM     27  C   UNL     1      -2.759   9.610   2.595  1.00  0.00     0.251 C 
ATOM     28  H   UNL     1      -1.614   8.186   3.449  1.00  0.00     0.163 HD
ATOM     29  O   UNL     1      -2.586  10.452   3.461  1.00  0.00    -0.269 OA
BRANCH  27  30
ATOM     30  C   UNL     1      -3.676   9.869   1.467  1.00  0.00     0.039 A 
ATOM     31  C   UNL     1      -3.482  10.996   0.668  1.00  0.00     0.014 A 
ATOM     32  C   UNL     1      -4.677   8.940   1.170  1.00  0.00     0.014 A 
ATOM     33  C   UNL     1      -4.270  11.170  -0.472  1.00  0.00     0.010 A 
ATOM     34  C   UNL     1      -5.411   9.080   0.001  1.00  0.00     0.010 A 
ATOM     35  C   UNL     1      -5.222  10.201  -0.825  1.00  0.00    -0.014 A 
BRANCH  35  36
ATOM     36  C   UNL     1      -6.077  10.340  -2.029  1.00  0.00     0.031 A 
ATOM     37  C   UNL     1      -7.563  10.472  -1.857  1.00  0.00     0.074 A 
ATOM     38  C   UNL     1      -5.542  10.237  -3.259  1.00  0.00     0.049 A 
ATOM     39  N   UNL     1      -8.510  10.424  -2.757  1.00  0.00    -0.248 NA
ATOM     40  C   UNL     1      -8.048  10.639  -0.478  1.00  0.00     0.031 C 
ATOM     41  C   UNL     1      -4.118  10.074  -3.555  1.00  0.00     0.029 A 
ATOM     42  N   UNL     1      -6.144  10.224  -4.493  1.00  0.00    -0.354 N 
ATOM     43  C   UNL     1      -9.702  10.518  -2.050  1.00  0.00     0.074 A 
ATOM     44  C   UNL     1      -9.359  10.577  -0.646  1.00  0.00     0.031 C 
ATOM     45  C   UNL     1      -3.956   9.976  -4.885  1.00  0.00     0.029 A 
ATOM     46  C   UNL     1      -5.265  10.027  -5.530  1.00  0.00     0.049 A 
ATOM     47  H   UNL     1      -7.112  10.344  -4.622  1.00  0.00     0.167 HD
ATOM     48  C   UNL     1     -10.967  10.567  -2.529  1.00  0.00     0.037 A 
ATOM     49  C   UNL     1      -5.493   9.881  -6.850  1.00  0.00     0.037 A 
ATOM     50  C   UNL     1     -11.297  10.539  -3.929  1.00  0.00     0.049 A 
ATOM     51  C   UNL     1      -6.904   9.944  -7.365  1.00  0.00     0.074 A 
ATOM     52  C   UNL     1     -12.541  10.650  -4.524  1.00  0.00     0.029 A 
ATOM     53  N   UNL     1     -10.373  10.389  -4.952  1.00  0.00    -0.354 N 
ATOM     54  N   UNL     1      -8.021  10.088  -6.694  1.00  0.00    -0.248 NA
ATOM     55  C   UNL     1      -7.088   9.831  -8.819  1.00  0.00     0.031 C 
ATOM     56  C   UNL     1     -12.374  10.521  -5.906  1.00  0.00     0.029 A 
ATOM     57  C   UNL     1     -11.021  10.384  -6.176  1.00  0.00     0.049 A 
ATOM     58  H   UNL     1      -9.401  10.299  -4.828  1.00  0.00     0.167 HD
ATOM     59  C   UNL     1      -9.036  10.117  -7.642  1.00  0.00     0.074 A 
ATOM     60  C   UNL     1      -8.402   9.973  -8.937  1.00  0.00     0.031 C 
ATOM     61  C   UNL     1     -10.371  10.258  -7.456  1.00  0.00     0.037 A 
BRANCH  48  62
ATOM     62  C   UNL     1     -12.079  10.642  -1.523  1.00  0.00     0.057 A 
ATOM     63  C   UNL     1     -12.284  11.775  -0.724  1.00  0.00     0.134 A 
ATOM     64  C   UNL     1     -12.952   9.561  -1.345  1.00  0.00     0.134 A 
ATOM     65  F   UNL     1     -11.475  12.840  -0.834  1.00  0.00    -0.206 F 
ATOM     66  C   UNL     1     -13.287  11.813   0.246  1.00  0.00     0.040 A 
ATOM     67  C   UNL     1     -13.979   9.600  -0.401  1.00  0.00     0.040 A 
ATOM     68  F   UNL     1     -12.818   8.447  -2.081  1.00  0.00    -0.206 F 
ATOM     69  C   UNL     1     -14.141  10.724   0.407  1.00  0.00     0.006 A 
ENDBRANCH  48  62
BRANCH  49  70
ATOM     70  C   UNL     1      -4.348   9.679  -7.772  1.00  0.00     0.057 A 
ATOM     71  C   UNL     1      -3.926  10.701  -8.630  1.00  0.00     0.134 A 
ATOM     72  C   UNL     1      -3.628   8.479  -7.793  1.00  0.00     0.134 A 
ATOM     73  F   UNL     1      -4.586  11.867  -8.666  1.00  0.00    -0.206 F 
ATOM     74  C   UNL     1      -2.833  10.534  -9.483  1.00  0.00     0.040 A 
ATOM     75  C   UNL     1      -2.520   8.306  -8.625  1.00  0.00     0.040 A 
ATOM     76  F   UNL     1      -3.976   7.465  -6.987  1.00  0.00    -0.206 F 
ATOM     77  C   UNL     1      -2.122   9.336  -9.476  1.00  0.00     0.006 A 
ENDBRANCH  49  70
BRANCH  61  78
ATOM     78  C   UNL     1     -11.242  10.318  -8.676  1.00  0.00     0.057 A 
ATOM     79  C   UNL     1     -11.548   9.177  -9.427  1.00  0.00     0.134 A 
ATOM     80  C   UNL     1     -11.850  11.524  -9.050  1.00  0.00     0.134 A 
ATOM     81  F   UNL     1     -10.989   7.995  -9.126  1.00  0.00    -0.206 F 
ATOM     82  C   UNL     1     -12.424   9.234 -10.512  1.00  0.00     0.040 A 
ATOM     83  C   UNL     1     -12.746  11.589 -10.118  1.00  0.00     0.040 A 
ATOM     84  F   UNL     1     -11.604  12.651  -8.366  1.00  0.00    -0.206 F 
ATOM     85  C   UNL     1     -13.034  10.441 -10.853  1.00  0.00     0.006 A 
ENDBRANCH  61  78
ENDBRANCH  35  36
ENDBRANCH  27  30
ENDBRANCH  25  26
ENDBRANCH  24  25
ENDBRANCH  23  24
ENDBRANCH   1  23
TORSDOF 17
