REMARK SMILES Cc1ccc(C(=O)[C@@H](C)[C@H](C)C(=O)NCCCCCCNC(=O)c2ccc(-c3c4nc(c(-c5c(F)cccc5F)c5ccc([nH]5)c(-c5c(F)cccc5F)c5nc(c(-c6c(F)cccc6F)c6ccc3[nH]6)C=C5)C=C4)cc2)cc1
REMARK SMILES IDX 17 1 16 2 15 3 14 4 12 5 13 6 10 8 11 9 8 10 9 11 6 12 7 13
REMARK SMILES IDX 5 14 1 15 2 16 3 17 79 18 4 19 78 20 18 21 19 22 20 23 21 24
REMARK SMILES IDX 22 25 23 27 24 28 25 29 77 30 26 31 76 32 27 33 28 34 29 35
REMARK SMILES IDX 70 36 30 37 75 38 69 39 71 40 31 41 74 42 68 43 67 44 32 46
REMARK SMILES IDX 58 47 41 48 57 49 42 50 45 51 56 52 72 53 43 54 44 55 55 57
REMARK SMILES IDX 73 58 46 59 33 60 34 61 39 62 35 63 36 64 38 65 40 66 37 67
REMARK SMILES IDX 59 68 60 69 65 70 61 71 62 72 64 73 66 74 63 75 47 76 48 77
REMARK SMILES IDX 53 78 49 79 50 80 52 81 54 82 51 83
REMARK H PARENT 14 7 21 26 71 45 45 56
REMARK Flexibility Score: inf
ROOT
ATOM      1  C   UNL     1      -8.852   4.524  -0.404  1.00  0.00     0.002 C 
ENDROOT
BRANCH   1   2
ATOM      2  C   UNL     1      -7.416   3.972  -0.277  1.00  0.00     0.021 C 
BRANCH   2   3
ATOM      3  C   UNL     1      -6.606   3.772  -1.562  1.00  0.00     0.116 C 
BRANCH   3   4
ATOM      4  N   UNL     1      -5.207   4.140  -1.407  1.00  0.00    -0.356 N 
ATOM      5  C   UNL     1      -3.998   3.542  -1.433  1.00  0.00     0.223 C 
ATOM      6  O   UNL     1      -3.047   4.340  -1.455  1.00  0.00    -0.275 OA
ATOM      7  H   UNL     1      -5.116   5.104  -1.233  1.00  0.00     0.163 HD
BRANCH   5   8
ATOM      8  C   UNL     1      -3.674   2.044  -1.338  1.00  0.00     0.086 C 
ATOM      9  C   UNL     1      -3.667   1.589   0.125  1.00  0.00     0.019 C 
BRANCH   8  10
ATOM     10  C   UNL     1      -4.131   1.038  -2.429  1.00  0.00     0.070 C 
ATOM     11  C   UNL     1      -4.880   1.589  -3.638  1.00  0.00     0.017 C 
BRANCH  10  12
ATOM     12  C   UNL     1      -4.644  -0.365  -2.050  1.00  0.00     0.166 C 
ATOM     13  O   UNL     1      -4.003  -1.357  -2.412  1.00  0.00    -0.294 OA
BRANCH  12  14
ATOM     14  C   UNL     1      -5.924  -0.617  -1.323  1.00  0.00     0.018 A 
ATOM     15  C   UNL     1      -9.460  -1.553   0.974  1.00  0.00     0.044 C 
ATOM     16  C   UNL     1      -8.253  -1.228   0.152  1.00  0.00    -0.051 A 
ATOM     17  C   UNL     1      -7.629  -2.210  -0.620  1.00  0.00     0.004 A 
ATOM     18  C   UNL     1      -7.715   0.057   0.171  1.00  0.00     0.004 A 
ATOM     19  C   UNL     1      -6.471  -1.908  -1.346  1.00  0.00     0.012 A 
ATOM     20  C   UNL     1      -6.567   0.353  -0.566  1.00  0.00     0.012 A 
ENDBRANCH  12  14
ENDBRANCH  10  12
ENDBRANCH   8  10
ENDBRANCH   5   8
ENDBRANCH   3   4
ENDBRANCH   2   3
ENDBRANCH   1   2
BRANCH   1  21
ATOM     21  C   UNL     1      -9.637   4.322  -1.707  1.00  0.00     0.002 C 
BRANCH  21  22
ATOM     22  C   UNL     1      -9.919   2.875  -2.101  1.00  0.00     0.021 C 
BRANCH  22  23
ATOM     23  C   UNL     1     -11.122   2.252  -1.394  1.00  0.00     0.116 C 
BRANCH  23  24
ATOM     24  N   UNL     1     -12.409   2.580  -2.007  1.00  0.00    -0.352 N 
ATOM     25  C   UNL     1     -13.697   2.227  -1.620  1.00  0.00     0.251 C 
ATOM     26  H   UNL     1     -12.354   3.135  -2.818  1.00  0.00     0.163 HD
ATOM     27  O   UNL     1     -14.659   2.626  -2.237  1.00  0.00    -0.269 OA
BRANCH  25  28
ATOM     28  C   UNL     1     -13.883   1.470  -0.355  1.00  0.00     0.039 A 
ATOM     29  C   UNL     1     -14.798   1.976   0.577  1.00  0.00     0.014 A 
ATOM     30  C   UNL     1     -13.020   0.441  -0.003  1.00  0.00     0.014 A 
ATOM     31  C   UNL     1     -14.630   1.673   1.926  1.00  0.00     0.010 A 
ATOM     32  C   UNL     1     -12.805   0.199   1.338  1.00  0.00     0.010 A 
ATOM     33  C   UNL     1     -13.536   0.899   2.301  1.00  0.00    -0.014 A 
BRANCH  33  34
ATOM     34  C   UNL     1     -12.949   0.942   3.637  1.00  0.00     0.031 A 
ATOM     35  C   UNL     1     -13.031  -0.212   4.550  1.00  0.00     0.074 A 
ATOM     36  C   UNL     1     -12.200   2.018   3.971  1.00  0.00     0.049 A 
ATOM     37  N   UNL     1     -12.860  -0.148   5.827  1.00  0.00    -0.248 NA
ATOM     38  C   UNL     1     -13.366  -1.549   4.083  1.00  0.00     0.031 C 
ATOM     39  C   UNL     1     -11.275   2.150   5.093  1.00  0.00     0.029 A 
ATOM     40  N   UNL     1     -12.295   3.314   3.445  1.00  0.00    -0.354 N 
ATOM     41  C   UNL     1     -12.778  -1.435   6.311  1.00  0.00     0.074 A 
ATOM     42  C   UNL     1     -13.190  -2.261   5.200  1.00  0.00     0.031 C 
ATOM     43  C   UNL     1     -11.105   3.454   5.362  1.00  0.00     0.029 A 
ATOM     44  C   UNL     1     -12.031   4.191   4.519  1.00  0.00     0.049 A 
ATOM     45  H   UNL     1     -12.503   3.563   2.516  1.00  0.00     0.167 HD
ATOM     46  C   UNL     1     -12.238  -1.642   7.550  1.00  0.00     0.037 A 
ATOM     47  C   UNL     1     -12.989   5.047   4.980  1.00  0.00     0.037 A 
ATOM     48  C   UNL     1     -11.988  -0.365   8.227  1.00  0.00     0.049 A 
ATOM     49  C   UNL     1     -13.374   4.821   6.423  1.00  0.00     0.074 A 
ATOM     50  C   UNL     1     -10.842   0.392   8.418  1.00  0.00     0.029 A 
ATOM     51  N   UNL     1     -13.059   0.455   8.571  1.00  0.00    -0.354 N 
ATOM     52  N   UNL     1     -13.102   3.732   7.088  1.00  0.00    -0.248 NA
ATOM     53  C   UNL     1     -14.122   5.788   7.223  1.00  0.00     0.031 C 
ATOM     54  C   UNL     1     -11.236   1.697   8.807  1.00  0.00     0.029 A 
ATOM     55  C   UNL     1     -12.617   1.728   8.878  1.00  0.00     0.049 A 
ATOM     56  H   UNL     1     -14.000   0.168   8.593  1.00  0.00     0.167 HD
ATOM     57  C   UNL     1     -13.642   3.814   8.344  1.00  0.00     0.074 A 
ATOM     58  C   UNL     1     -14.246   5.132   8.390  1.00  0.00     0.031 C 
ATOM     59  C   UNL     1     -13.559   2.780   9.233  1.00  0.00     0.037 A 
BRANCH  46  60
ATOM     60  C   UNL     1     -11.653  -2.964   8.032  1.00  0.00     0.057 A 
ATOM     61  C   UNL     1     -10.673  -2.989   9.048  1.00  0.00     0.134 A 
ATOM     62  C   UNL     1     -11.936  -4.234   7.498  1.00  0.00     0.134 A 
ATOM     63  F   UNL     1     -10.364  -1.897   9.759  1.00  0.00    -0.206 F 
ATOM     64  C   UNL     1      -9.953  -4.142   9.399  1.00  0.00     0.040 A 
ATOM     65  C   UNL     1     -11.197  -5.387   7.807  1.00  0.00     0.040 A 
ATOM     66  F   UNL     1     -12.985  -4.452   6.702  1.00  0.00    -0.206 F 
ATOM     67  C   UNL     1     -10.185  -5.342   8.749  1.00  0.00     0.006 A 
ENDBRANCH  46  60
BRANCH  47  68
ATOM     68  C   UNL     1     -13.905   5.532   3.915  1.00  0.00     0.057 A 
ATOM     69  C   UNL     1     -13.380   6.355   2.903  1.00  0.00     0.134 A 
ATOM     70  C   UNL     1     -15.134   4.918   3.661  1.00  0.00     0.134 A 
ATOM     71  F   UNL     1     -12.201   6.973   3.082  1.00  0.00    -0.206 F 
ATOM     72  C   UNL     1     -13.992   6.473   1.653  1.00  0.00     0.040 A 
ATOM     73  C   UNL     1     -15.762   5.037   2.415  1.00  0.00     0.040 A 
ATOM     74  F   UNL     1     -15.684   4.094   4.564  1.00  0.00    -0.206 F 
ATOM     75  C   UNL     1     -15.172   5.783   1.395  1.00  0.00     0.006 A 
ENDBRANCH  47  68
BRANCH  59  76
ATOM     76  C   UNL     1     -14.291   2.691  10.549  1.00  0.00     0.057 A 
ATOM     77  C   UNL     1     -15.550   3.259  10.792  1.00  0.00     0.134 A 
ATOM     78  C   UNL     1     -13.791   1.875  11.589  1.00  0.00     0.134 A 
ATOM     79  F   UNL     1     -16.193   3.967   9.853  1.00  0.00    -0.206 F 
ATOM     80  C   UNL     1     -16.237   3.075  12.000  1.00  0.00     0.040 A 
ATOM     81  C   UNL     1     -14.491   1.642  12.776  1.00  0.00     0.040 A 
ATOM     82  F   UNL     1     -12.608   1.251  11.485  1.00  0.00    -0.206 F 
ATOM     83  C   UNL     1     -15.714   2.255  12.992  1.00  0.00     0.006 A 
ENDBRANCH  59  76
ENDBRANCH  33  34
ENDBRANCH  25  28
ENDBRANCH  23  24
ENDBRANCH  22  23
ENDBRANCH  21  22
ENDBRANCH   1  21
TORSDOF 16
