REMARK SMILES COc1ccc(-c2nc(NCC(=O)NCCCCCCNC(=O)c3ccc(-c4c5nc(c(-c6c(F)cccc6F)c6ccc([nH]6)c(-c6c(F)cccc6F)c6nc(c(-c7c(F)cccc7F)c7ccc4[nH]7)C=C6)C=C5)cc3)sc2-c2ccc(OC)cc2)cc1
REMARK SMILES IDX 16 1 15 2 14 3 12 4 13 5 11 7 10 8 9 10 7 11 8 12 79 13
REMARK SMILES IDX 78 14 6 15 3 16 4 17 89 18 5 19 88 20 2 21 1 22 80 23 81 24
REMARK SMILES IDX 87 25 82 26 86 27 83 28 84 29 85 30 17 31 18 32 19 33 20 34
REMARK SMILES IDX 21 35 22 36 23 38 24 39 25 40 77 41 26 42 76 43 27 44 28 45
REMARK SMILES IDX 29 46 70 47 30 48 75 49 69 50 71 51 31 52 74 53 68 54 67 55
REMARK SMILES IDX 32 57 58 58 41 59 57 60 42 61 45 62 56 63 72 64 43 65 44 66
REMARK SMILES IDX 55 68 73 69 46 70 33 71 34 72 39 73 35 74 36 75 38 76 40 77
REMARK SMILES IDX 37 78 59 79 60 80 65 81 61 82 62 83 64 84 66 85 63 86 47 87
REMARK SMILES IDX 48 88 53 89 49 90 50 91 52 92 54 93 51 94
REMARK H PARENT 14 6 10 9 21 37 71 56 45 67
REMARK Flexibility Score: inf
ROOT
ATOM      1  C   UNL     1       6.035   5.098   6.587  1.00  0.00     0.021 C 
ENDROOT
BRANCH   1   2
ATOM      2  C   UNL     1       5.372   6.226   7.377  1.00  0.00     0.116 C 
BRANCH   2   3
ATOM      3  N   UNL     1       6.074   7.478   7.187  1.00  0.00    -0.355 N 
ATOM      4  C   UNL     1       5.694   8.567   6.452  1.00  0.00     0.239 C 
ATOM      5  O   UNL     1       6.490   9.501   6.337  1.00  0.00    -0.273 OA
ATOM      6  H   UNL     1       6.940   7.557   7.649  1.00  0.00     0.163 HD
BRANCH   4   7
ATOM      7  C   UNL     1       4.285   8.634   5.850  1.00  0.00     0.215 C 
BRANCH   7   8
ATOM      8  N   UNL     1       4.090   7.642   4.804  1.00  0.00    -0.352 N 
ATOM      9  H   UNL     1       4.769   7.601   4.092  1.00  0.00     0.163 HD
BRANCH   8  10
ATOM     10  C   UNL     1       3.059   6.774   4.727  1.00  0.00     0.184 A 
ATOM     11  C   UNL     1       1.893   5.057   3.941  1.00  0.00     0.091 A 
ATOM     12  N   UNL     1       2.987   5.888   3.760  1.00  0.00    -0.220 NA
ATOM     13  C   UNL     1       1.189   5.251   5.120  1.00  0.00     0.064 A 
ATOM     14  S   UNL     1       1.771   6.673   5.872  1.00  0.00    -0.096 S 
BRANCH  11  15
ATOM     15  C   UNL     1       1.542   4.048   2.953  1.00  0.00     0.002 A 
ATOM     16  C   UNL     1       0.825   2.081   1.079  1.00  0.00     0.118 A 
ATOM     17  C   UNL     1      -0.105   3.035   1.490  1.00  0.00     0.047 A 
ATOM     18  C   UNL     1       2.125   2.126   1.587  1.00  0.00     0.047 A 
ATOM     19  C   UNL     1       0.246   4.009   2.424  1.00  0.00     0.014 A 
ATOM     20  C   UNL     1       2.486   3.113   2.516  1.00  0.00     0.014 A 
BRANCH  16  21
ATOM     21  O   UNL     1       0.357   1.193   0.151  1.00  0.00    -0.497 OA
ATOM     22  C   UNL     1       1.039  -0.052   0.070  1.00  0.00     0.278 C 
ENDBRANCH  16  21
ENDBRANCH  11  15
BRANCH  13  23
ATOM     23  C   UNL     1       0.134   4.457   5.754  1.00  0.00    -0.006 A 
ATOM     24  C   UNL     1      -1.085   5.023   6.139  1.00  0.00     0.013 A 
ATOM     25  C   UNL     1       0.342   3.088   5.983  1.00  0.00     0.013 A 
ATOM     26  C   UNL     1      -2.076   4.229   6.725  1.00  0.00     0.047 A 
ATOM     27  C   UNL     1      -0.652   2.296   6.568  1.00  0.00     0.047 A 
ATOM     28  C   UNL     1      -1.870   2.863   6.934  1.00  0.00     0.118 A 
BRANCH  28  29
ATOM     29  O   UNL     1      -2.924   2.201   7.501  1.00  0.00    -0.497 OA
ATOM     30  C   UNL     1      -2.820   0.783   7.576  1.00  0.00     0.278 C 
ENDBRANCH  28  29
ENDBRANCH  13  23
ENDBRANCH   8  10
ENDBRANCH   7   8
ENDBRANCH   4   7
ENDBRANCH   2   3
ENDBRANCH   1   2
BRANCH   1  31
ATOM     31  C   UNL     1       7.346   4.607   7.215  1.00  0.00     0.002 C 
BRANCH  31  32
ATOM     32  C   UNL     1       7.213   4.052   8.638  1.00  0.00     0.002 C 
BRANCH  32  33
ATOM     33  C   UNL     1       6.197   2.919   8.800  1.00  0.00     0.021 C 
BRANCH  33  34
ATOM     34  C   UNL     1       6.497   1.678   7.965  1.00  0.00     0.116 C 
BRANCH  34  35
ATOM     35  N   UNL     1       7.746   1.044   8.360  1.00  0.00    -0.352 N 
ATOM     36  C   UNL     1       7.985  -0.257   8.716  1.00  0.00     0.251 C 
ATOM     37  H   UNL     1       8.533   1.635   8.372  1.00  0.00     0.163 HD
ATOM     38  O   UNL     1       9.067  -0.574   9.213  1.00  0.00    -0.269 OA
BRANCH  36  39
ATOM     39  C   UNL     1       6.941  -1.283   8.521  1.00  0.00     0.039 A 
ATOM     40  C   UNL     1       6.695  -2.203   9.544  1.00  0.00     0.014 A 
ATOM     41  C   UNL     1       6.216  -1.349   7.327  1.00  0.00     0.014 A 
ATOM     42  C   UNL     1       5.683  -3.153   9.393  1.00  0.00     0.010 A 
ATOM     43  C   UNL     1       5.164  -2.252   7.205  1.00  0.00     0.010 A 
ATOM     44  C   UNL     1       4.889  -3.165   8.234  1.00  0.00    -0.014 A 
BRANCH  44  45
ATOM     45  C   UNL     1       3.770  -4.129   8.078  1.00  0.00     0.031 A 
ATOM     46  C   UNL     1       3.821  -5.174   6.998  1.00  0.00     0.074 A 
ATOM     47  C   UNL     1       2.685  -4.027   8.870  1.00  0.00     0.049 A 
ATOM     48  N   UNL     1       2.910  -6.046   6.648  1.00  0.00    -0.248 NA
ATOM     49  C   UNL     1       5.048  -5.230   6.187  1.00  0.00     0.031 C 
ATOM     50  C   UNL     1       2.500  -3.035   9.932  1.00  0.00     0.029 A 
ATOM     51  N   UNL     1       1.526  -4.762   8.898  1.00  0.00    -0.354 N 
ATOM     52  C   UNL     1       3.450  -6.748   5.577  1.00  0.00     0.074 A 
ATOM     53  C   UNL     1       4.744  -6.164   5.298  1.00  0.00     0.031 C 
ATOM     54  C   UNL     1       1.310  -3.237  10.520  1.00  0.00     0.029 A 
ATOM     55  C   UNL     1       0.631  -4.344   9.854  1.00  0.00     0.049 A 
ATOM     56  H   UNL     1       1.353  -5.517   8.291  1.00  0.00     0.167 HD
ATOM     57  C   UNL     1       2.927  -7.800   4.904  1.00  0.00     0.037 A 
ATOM     58  C   UNL     1      -0.600  -4.798  10.152  1.00  0.00     0.037 A 
ATOM     59  C   UNL     1       1.650  -8.396   5.198  1.00  0.00     0.049 A 
ATOM     60  C   UNL     1      -1.165  -5.957   9.375  1.00  0.00     0.074 A 
ATOM     61  C   UNL     1       1.047  -9.485   4.594  1.00  0.00     0.029 A 
ATOM     62  N   UNL     1       0.782  -7.955   6.185  1.00  0.00    -0.354 N 
ATOM     63  N   UNL     1      -0.623  -6.637   8.395  1.00  0.00    -0.248 NA
ATOM     64  C   UNL     1      -2.511  -6.412   9.750  1.00  0.00     0.031 C 
ATOM     65  C   UNL     1      -0.202  -9.682   5.191  1.00  0.00     0.029 A 
ATOM     66  C   UNL     1      -0.357  -8.742   6.197  1.00  0.00     0.049 A 
ATOM     67  H   UNL     1       0.950  -7.194   6.787  1.00  0.00     0.167 HD
ATOM     68  C   UNL     1      -1.545  -7.622   8.061  1.00  0.00     0.074 A 
ATOM     69  C   UNL     1      -2.675  -7.456   8.950  1.00  0.00     0.031 C 
ATOM     70  C   UNL     1      -1.464  -8.576   7.102  1.00  0.00     0.037 A 
BRANCH  57  71
ATOM     71  C   UNL     1       3.743  -8.388   3.791  1.00  0.00     0.057 A 
ATOM     72  C   UNL     1       4.903  -9.132   4.045  1.00  0.00     0.134 A 
ATOM     73  C   UNL     1       3.339  -8.257   2.457  1.00  0.00     0.134 A 
ATOM     74  F   UNL     1       5.351  -9.284   5.301  1.00  0.00    -0.206 F 
ATOM     75  C   UNL     1       5.642  -9.709   3.011  1.00  0.00     0.040 A 
ATOM     76  C   UNL     1       4.055  -8.852   1.416  1.00  0.00     0.040 A 
ATOM     77  F   UNL     1       2.235  -7.562   2.144  1.00  0.00    -0.206 F 
ATOM     78  C   UNL     1       5.213  -9.576   1.692  1.00  0.00     0.006 A 
ENDBRANCH  57  71
BRANCH  58  79
ATOM     79  C   UNL     1      -1.387  -4.174  11.246  1.00  0.00     0.057 A 
ATOM     80  C   UNL     1      -1.658  -4.875  12.428  1.00  0.00     0.134 A 
ATOM     81  C   UNL     1      -1.917  -2.884  11.125  1.00  0.00     0.134 A 
ATOM     82  F   UNL     1      -1.194  -6.122  12.594  1.00  0.00    -0.206 F 
ATOM     83  C   UNL     1      -2.453  -4.328  13.437  1.00  0.00     0.040 A 
ATOM     84  C   UNL     1      -2.690  -2.314  12.138  1.00  0.00     0.040 A 
ATOM     85  F   UNL     1      -1.690  -2.158  10.020  1.00  0.00    -0.206 F 
ATOM     86  C   UNL     1      -2.969  -3.042  13.294  1.00  0.00     0.006 A 
ENDBRANCH  58  79
BRANCH  70  87
ATOM     87  C   UNL     1      -2.607  -9.543   6.998  1.00  0.00     0.057 A 
ATOM     88  C   UNL     1      -3.852  -9.164   6.481  1.00  0.00     0.134 A 
ATOM     89  C   UNL     1      -2.445 -10.879   7.386  1.00  0.00     0.134 A 
ATOM     90  F   UNL     1      -4.075  -7.896   6.104  1.00  0.00    -0.206 F 
ATOM     91  C   UNL     1      -4.904 -10.076   6.375  1.00  0.00     0.040 A 
ATOM     92  C   UNL     1      -3.481 -11.805   7.261  1.00  0.00     0.040 A 
ATOM     93  F   UNL     1      -1.274 -11.307   7.881  1.00  0.00    -0.206 F 
ATOM     94  C   UNL     1      -4.717 -11.402   6.760  1.00  0.00     0.006 A 
ENDBRANCH  70  87
ENDBRANCH  44  45
ENDBRANCH  36  39
ENDBRANCH  34  35
ENDBRANCH  33  34
ENDBRANCH  32  33
ENDBRANCH  31  32
ENDBRANCH   1  31
TORSDOF 19
