REMARK SMILES C[C@H]1CC[C@@](Nc2ccc(C(N)=O)nn2)(C(=O)NCCCCCCNC(=O)c2ccc(-c3c4nc(c(-c5c(F)cccc5F)c5ccc([nH]5)c(-c5c(F)cccc5F)c5nc(c(-c6c(F)cccc6F)c6ccc3[nH]6)C=C5)C=C4)cc2)CC1
REMARK SMILES IDX 21 1 20 2 19 3 18 4 16 5 17 6 5 8 1 9 2 10 83 11 3 12 82 13
REMARK SMILES IDX 4 14 6 15 7 17 8 18 15 19 9 20 14 21 10 22 11 23 12 24 13 25
REMARK SMILES IDX 22 28 23 29 24 30 25 31 26 32 27 34 28 35 29 36 81 37 30 38
REMARK SMILES IDX 80 39 31 40 32 41 33 42 74 43 34 44 79 45 73 46 75 47 35 48
REMARK SMILES IDX 78 49 72 50 71 51 36 53 62 54 45 55 61 56 46 57 49 58 60 59
REMARK SMILES IDX 76 60 47 61 48 62 59 64 77 65 50 66 37 67 38 68 43 69 39 70
REMARK SMILES IDX 40 71 42 72 44 73 41 74 63 75 64 76 69 77 65 78 66 79 68 80
REMARK SMILES IDX 70 81 67 82 51 83 52 84 57 85 53 86 54 87 56 88 58 89 55 90
REMARK H PARENT 18 7 6 16 12 26 12 27 25 33 75 52 49 63
REMARK Flexibility Score: inf
ROOT
ATOM      1  C   UNL     1      -2.583   3.799  -3.980  1.00  0.00     0.002 C 
ENDROOT
BRANCH   1   2
ATOM      2  C   UNL     1      -2.403   3.572  -2.474  1.00  0.00     0.021 C 
BRANCH   2   3
ATOM      3  C   UNL     1      -3.056   2.287  -1.984  1.00  0.00     0.116 C 
BRANCH   3   4
ATOM      4  N   UNL     1      -2.334   1.133  -2.479  1.00  0.00    -0.354 N 
ATOM      5  C   UNL     1      -1.834   0.044  -1.833  1.00  0.00     0.245 C 
ATOM      6  O   UNL     1      -1.379  -0.845  -2.561  1.00  0.00    -0.272 OA
ATOM      7  H   UNL     1      -2.178   1.137  -3.451  1.00  0.00     0.163 HD
BRANCH   5   8
ATOM      8  C   UNL     1      -1.887  -0.101  -0.269  1.00  0.00     0.118 C 
ATOM      9  C   UNL     1       2.507  -0.144  -0.038  1.00  0.00     0.007 C 
ATOM     10  C   UNL     1       1.057  -0.182   0.445  1.00  0.00    -0.014 C 
ATOM     11  C   UNL     1       0.332  -1.422  -0.096  1.00  0.00     0.006 C 
ATOM     12  C   UNL     1       0.343   1.110   0.049  1.00  0.00     0.006 C 
ATOM     13  C   UNL     1      -1.184  -1.413   0.169  1.00  0.00     0.039 C 
ATOM     14  C   UNL     1      -1.132   1.060   0.431  1.00  0.00     0.039 C 
BRANCH   8  15
ATOM     15  N   UNL     1      -3.287  -0.136   0.251  1.00  0.00    -0.354 N 
ATOM     16  H   UNL     1      -3.426  -0.033   1.220  1.00  0.00     0.163 HD
BRANCH  15  17
ATOM     17  C   UNL     1      -4.397  -0.304  -0.555  1.00  0.00     0.149 A 
ATOM     18  C   UNL     1      -4.489  -1.266  -1.550  1.00  0.00     0.051 A 
ATOM     19  N   UNL     1      -5.383   0.614  -0.417  1.00  0.00    -0.132 NA
ATOM     20  C   UNL     1      -5.526  -1.202  -2.481  1.00  0.00     0.040 A 
ATOM     21  N   UNL     1      -6.404   0.702  -1.336  1.00  0.00    -0.143 NA
ATOM     22  C   UNL     1      -6.446  -0.179  -2.361  1.00  0.00     0.150 A 
BRANCH  22  23
ATOM     23  C   UNL     1      -7.480   0.051  -3.409  1.00  0.00     0.269 C 
ATOM     24  N   UNL     1      -8.254   1.171  -3.268  1.00  0.00    -0.364 N 
ATOM     25  O   UNL     1      -7.616  -0.701  -4.369  1.00  0.00    -0.268 OA
ATOM     26  H   UNL     1      -8.129   1.762  -2.490  1.00  0.00     0.160 HD
ATOM     27  H   UNL     1      -8.935   1.387  -3.946  1.00  0.00     0.160 HD
ENDBRANCH  22  23
ENDBRANCH  15  17
ENDBRANCH   8  15
ENDBRANCH   5   8
ENDBRANCH   3   4
ENDBRANCH   2   3
ENDBRANCH   1   2
BRANCH   1  28
ATOM     28  C   UNL     1      -4.041   3.813  -4.455  1.00  0.00     0.002 C 
BRANCH  28  29
ATOM     29  C   UNL     1      -4.947   4.804  -3.718  1.00  0.00     0.021 C 
BRANCH  29  30
ATOM     30  C   UNL     1      -4.458   6.249  -3.752  1.00  0.00     0.116 C 
BRANCH  30  31
ATOM     31  N   UNL     1      -4.308   6.738  -5.111  1.00  0.00    -0.352 N 
ATOM     32  C   UNL     1      -4.744   7.905  -5.676  1.00  0.00     0.251 C 
ATOM     33  H   UNL     1      -3.817   6.138  -5.718  1.00  0.00     0.163 HD
ATOM     34  O   UNL     1      -4.692   8.049  -6.894  1.00  0.00    -0.269 OA
BRANCH  32  35
ATOM     35  C   UNL     1      -5.292   8.986  -4.831  1.00  0.00     0.039 A 
ATOM     36  C   UNL     1      -6.406   9.688  -5.296  1.00  0.00     0.014 A 
ATOM     37  C   UNL     1      -4.699   9.338  -3.614  1.00  0.00     0.014 A 
ATOM     38  C   UNL     1      -6.946  10.717  -4.524  1.00  0.00     0.010 A 
ATOM     39  C   UNL     1      -5.283  10.315  -2.811  1.00  0.00     0.010 A 
ATOM     40  C   UNL     1      -6.405  11.022  -3.264  1.00  0.00    -0.014 A 
BRANCH  40  41
ATOM     41  C   UNL     1      -7.028  12.074  -2.424  1.00  0.00     0.031 A 
ATOM     42  C   UNL     1      -6.290  13.342  -2.101  1.00  0.00     0.074 A 
ATOM     43  C   UNL     1      -8.271  11.875  -1.944  1.00  0.00     0.049 A 
ATOM     44  N   UNL     1      -6.707  14.395  -1.443  1.00  0.00    -0.248 NA
ATOM     45  C   UNL     1      -4.894  13.436  -2.555  1.00  0.00     0.031 C 
ATOM     46  C   UNL     1      -9.063  10.658  -2.133  1.00  0.00     0.029 A 
ATOM     47  N   UNL     1      -9.091  12.695  -1.212  1.00  0.00    -0.354 N 
ATOM     48  C   UNL     1      -5.631  15.271  -1.405  1.00  0.00     0.074 A 
ATOM     49  C   UNL     1      -4.522  14.604  -2.052  1.00  0.00     0.031 C 
ATOM     50  C   UNL     1     -10.271  10.829  -1.573  1.00  0.00     0.029 A 
ATOM     51  C   UNL     1     -10.328  12.153  -0.964  1.00  0.00     0.049 A 
ATOM     52  H   UNL     1      -8.819  13.587  -0.896  1.00  0.00     0.167 HD
ATOM     53  C   UNL     1      -5.579  16.528  -0.902  1.00  0.00     0.037 A 
ATOM     54  C   UNL     1     -11.395  12.672  -0.328  1.00  0.00     0.037 A 
ATOM     55  C   UNL     1      -6.690  17.193  -0.271  1.00  0.00     0.049 A 
ATOM     56  C   UNL     1     -11.316  14.073   0.208  1.00  0.00     0.074 A 
ATOM     57  C   UNL     1      -6.758  18.486   0.218  1.00  0.00     0.029 A 
ATOM     58  N   UNL     1      -7.928  16.613  -0.037  1.00  0.00    -0.354 N 
ATOM     59  N   UNL     1     -10.319  14.923   0.159  1.00  0.00    -0.248 NA
ATOM     60  C   UNL     1     -12.517  14.591   0.876  1.00  0.00     0.031 C 
ATOM     61  C   UNL     1      -8.021  18.673   0.791  1.00  0.00     0.029 A 
ATOM     62  C   UNL     1      -8.758  17.513   0.612  1.00  0.00     0.049 A 
ATOM     63  H   UNL     1      -8.180  15.697  -0.294  1.00  0.00     0.167 HD
ATOM     64  C   UNL     1     -10.777  16.082   0.772  1.00  0.00     0.074 A 
ATOM     65  C   UNL     1     -12.152  15.833   1.157  1.00  0.00     0.031 C 
ATOM     66  C   UNL     1     -10.120  17.246   1.001  1.00  0.00     0.037 A 
BRANCH  53  67
ATOM     67  C   UNL     1      -4.277  17.268  -1.021  1.00  0.00     0.057 A 
ATOM     68  C   UNL     1      -3.792  17.716  -2.257  1.00  0.00     0.134 A 
ATOM     69  C   UNL     1      -3.516  17.569   0.116  1.00  0.00     0.134 A 
ATOM     70  F   UNL     1      -4.465  17.453  -3.388  1.00  0.00    -0.206 F 
ATOM     71  C   UNL     1      -2.586  18.412  -2.362  1.00  0.00     0.040 A 
ATOM     72  C   UNL     1      -2.323  18.288   0.028  1.00  0.00     0.040 A 
ATOM     73  F   UNL     1      -3.924  17.176   1.332  1.00  0.00    -0.206 F 
ATOM     74  C   UNL     1      -1.851  18.706  -1.215  1.00  0.00     0.006 A 
ENDBRANCH  53  67
BRANCH  54  75
ATOM     75  C   UNL     1     -12.641  11.876  -0.199  1.00  0.00     0.057 A 
ATOM     76  C   UNL     1     -13.799  12.227  -0.902  1.00  0.00     0.134 A 
ATOM     77  C   UNL     1     -12.707  10.752   0.632  1.00  0.00     0.134 A 
ATOM     78  F   UNL     1     -13.803  13.304  -1.702  1.00  0.00    -0.206 F 
ATOM     79  C   UNL     1     -14.984  11.502  -0.768  1.00  0.00     0.040 A 
ATOM     80  C   UNL     1     -13.877  10.002   0.756  1.00  0.00     0.040 A 
ATOM     81  F   UNL     1     -11.628  10.358   1.325  1.00  0.00    -0.206 F 
ATOM     82  C   UNL     1     -15.023  10.382   0.061  1.00  0.00     0.006 A 
ENDBRANCH  54  75
BRANCH  66  83
ATOM     83  C   UNL     1     -10.891  18.335   1.687  1.00  0.00     0.057 A 
ATOM     84  C   UNL     1     -11.254  18.245   3.038  1.00  0.00     0.134 A 
ATOM     85  C   UNL     1     -11.275  19.489   0.991  1.00  0.00     0.134 A 
ATOM     86  F   UNL     1     -10.929  17.161   3.758  1.00  0.00    -0.206 F 
ATOM     87  C   UNL     1     -12.004  19.244   3.661  1.00  0.00     0.040 A 
ATOM     88  C   UNL     1     -11.998  20.508   1.611  1.00  0.00     0.040 A 
ATOM     89  F   UNL     1     -10.952  19.644  -0.301  1.00  0.00    -0.206 F 
ATOM     90  C   UNL     1     -12.374  20.382   2.947  1.00  0.00     0.006 A 
ENDBRANCH  66  83
ENDBRANCH  40  41
ENDBRANCH  32  35
ENDBRANCH  30  31
ENDBRANCH  29  30
ENDBRANCH  28  29
ENDBRANCH   1  28
TORSDOF 16
