REMARK SMILES CCOc1ccc2c(c1)=N[C@H](SCC(=O)NCCCCCCNC(=O)c1ccc(-c3c4nc(c(-c5c(F)cccc5F)c5ccc([nH]5)c(-c5c(F)cccc5F)c5nc(c(-c6c(F)cccc6F)c6ccc3[nH]6)C=C5)C=C4)cc1)N=2
REMARK SMILES IDX 18 1 17 2 16 3 14 4 15 5 13 7 12 8 11 9 4 10 5 11 9 12 6 13
REMARK SMILES IDX 8 14 7 15 10 16 80 17 3 18 2 19 1 20 19 21 20 22 21 23 22 24
REMARK SMILES IDX 23 25 24 26 25 28 26 29 27 30 79 31 28 32 78 33 29 34 30 35
REMARK SMILES IDX 31 36 72 37 32 38 77 39 71 40 73 41 33 42 76 43 70 44 69 45
REMARK SMILES IDX 34 47 60 48 43 49 59 50 44 51 47 52 58 53 74 54 45 55 46 56
REMARK SMILES IDX 57 58 75 59 48 60 35 61 36 62 41 63 37 64 38 65 40 66 42 67
REMARK SMILES IDX 39 68 61 69 62 70 67 71 63 72 64 73 66 74 68 75 65 76 49 77
REMARK SMILES IDX 50 78 55 79 51 80 52 81 54 82 56 83 53 84
REMARK H PARENT 16 6 23 27 73 46 47 57
REMARK Flexibility Score: inf
ROOT
ATOM      1  C   UNL     1       6.314   7.666  -5.239  1.00  0.00     0.021 C 
ENDROOT
BRANCH   1   2
ATOM      2  C   UNL     1       7.670   7.094  -5.664  1.00  0.00     0.116 C 
BRANCH   2   3
ATOM      3  N   UNL     1       8.503   6.819  -4.508  1.00  0.00    -0.355 N 
ATOM      4  C   UNL     1       8.782   5.628  -3.903  1.00  0.00     0.230 C 
ATOM      5  O   UNL     1       9.405   5.652  -2.839  1.00  0.00    -0.274 OA
ATOM      6  H   UNL     1       8.929   7.607  -4.099  1.00  0.00     0.163 HD
BRANCH   4   7
ATOM      7  C   UNL     1       8.406   4.313  -4.561  1.00  0.00     0.173 C 
BRANCH   7   8
ATOM      8  S   UNL     1       6.619   4.056  -4.697  1.00  0.00    -0.102 SA
BRANCH   8   9
ATOM      9  C   UNL     1       6.169   4.028  -2.911  1.00  0.00     0.281 C 
ATOM     10  C   UNL     1       2.415   1.907  -1.647  1.00  0.00     0.121 A 
ATOM     11  C   UNL     1       3.377   0.838  -1.445  1.00  0.00     0.049 A 
ATOM     12  C   UNL     1       2.761   3.133  -2.065  1.00  0.00     0.076 A 
ATOM     13  C   UNL     1       4.699   0.995  -1.601  1.00  0.00     0.034 A 
ATOM     14  C   UNL     1       4.184   3.378  -2.310  1.00  0.00     0.090 A 
ATOM     15  C   UNL     1       5.165   2.300  -2.071  1.00  0.00     0.087 A 
ATOM     16  N   UNL     1       4.749   4.454  -2.729  1.00  0.00    -0.246 NA
ATOM     17  N   UNL     1       6.368   2.672  -2.330  1.00  0.00    -0.246 NA
BRANCH  10  18
ATOM     18  O   UNL     1       1.091   1.547  -1.540  1.00  0.00    -0.494 OA
BRANCH  18  19
ATOM     19  C   UNL     1       0.600   1.535  -0.195  1.00  0.00     0.226 C 
ATOM     20  C   UNL     1       0.546   0.112   0.334  1.00  0.00     0.049 C 
ENDBRANCH  18  19
ENDBRANCH  10  18
ENDBRANCH   8   9
ENDBRANCH   7   8
ENDBRANCH   4   7
ENDBRANCH   2   3
ENDBRANCH   1   2
BRANCH   1  21
ATOM     21  C   UNL     1       6.389   9.070  -4.621  1.00  0.00     0.002 C 
BRANCH  21  22
ATOM     22  C   UNL     1       6.976  10.156  -5.528  1.00  0.00     0.002 C 
BRANCH  22  23
ATOM     23  C   UNL     1       6.306  10.296  -6.895  1.00  0.00     0.021 C 
BRANCH  23  24
ATOM     24  C   UNL     1       4.816  10.615  -6.848  1.00  0.00     0.116 C 
BRANCH  24  25
ATOM     25  N   UNL     1       4.539  11.945  -6.325  1.00  0.00    -0.352 N 
ATOM     26  C   UNL     1       3.714  12.920  -6.838  1.00  0.00     0.251 C 
ATOM     27  H   UNL     1       5.005  12.179  -5.490  1.00  0.00     0.163 HD
ATOM     28  O   UNL     1       3.695  14.045  -6.348  1.00  0.00    -0.269 OA
BRANCH  26  29
ATOM     29  C   UNL     1       2.877  12.613  -8.017  1.00  0.00     0.039 A 
ATOM     30  C   UNL     1       2.126  11.437  -8.066  1.00  0.00     0.014 A 
ATOM     31  C   UNL     1       2.886  13.489  -9.106  1.00  0.00     0.014 A 
ATOM     32  C   UNL     1       1.529  11.052  -9.262  1.00  0.00     0.010 A 
ATOM     33  C   UNL     1       2.219  13.137 -10.283  1.00  0.00     0.010 A 
ATOM     34  C   UNL     1       1.584  11.889 -10.389  1.00  0.00    -0.014 A 
BRANCH  34  35
ATOM     35  C   UNL     1       1.002  11.421 -11.673  1.00  0.00     0.031 A 
ATOM     36  C   UNL     1       1.886  11.143 -12.860  1.00  0.00     0.074 A 
ATOM     37  C   UNL     1      -0.321  11.182 -11.752  1.00  0.00     0.049 A 
ATOM     38  N   UNL     1       1.559  10.699 -14.049  1.00  0.00    -0.248 NA
ATOM     39  C   UNL     1       3.325  11.400 -12.694  1.00  0.00     0.031 C 
ATOM     40  C   UNL     1      -1.282  11.400 -10.670  1.00  0.00     0.029 A 
ATOM     41  N   UNL     1      -1.079  10.679 -12.778  1.00  0.00    -0.354 N 
ATOM     42  C   UNL     1       2.743  10.641 -14.774  1.00  0.00     0.074 A 
ATOM     43  C   UNL     1       3.793  11.124 -13.903  1.00  0.00     0.031 C 
ATOM     44  C   UNL     1      -2.494  10.988 -11.072  1.00  0.00     0.029 A 
ATOM     45  C   UNL     1      -2.405  10.528 -12.454  1.00  0.00     0.049 A 
ATOM     46  H   UNL     1      -0.709  10.449 -13.660  1.00  0.00     0.167 HD
ATOM     47  C   UNL     1       2.941  10.213 -16.044  1.00  0.00     0.037 A 
ATOM     48  C   UNL     1      -3.437  10.079 -13.191  1.00  0.00     0.037 A 
ATOM     49  C   UNL     1       1.902   9.713 -16.907  1.00  0.00     0.049 A 
ATOM     50  C   UNL     1      -3.197   9.648 -14.608  1.00  0.00     0.074 A 
ATOM     51  C   UNL     1       2.009   9.232 -18.201  1.00  0.00     0.029 A 
ATOM     52  N   UNL     1       0.562   9.629 -16.561  1.00  0.00    -0.354 N 
ATOM     53  N   UNL     1      -2.070   9.590 -15.275  1.00  0.00    -0.248 NA
ATOM     54  C   UNL     1      -4.376   9.228 -15.378  1.00  0.00     0.031 C 
ATOM     55  C   UNL     1       0.727   8.892 -18.650  1.00  0.00     0.029 A 
ATOM     56  C   UNL     1      -0.172   9.125 -17.623  1.00  0.00     0.049 A 
ATOM     57  H   UNL     1       0.187   9.890 -15.688  1.00  0.00     0.167 HD
ATOM     58  C   UNL     1      -2.402   9.122 -16.539  1.00  0.00     0.074 A 
ATOM     59  C   UNL     1      -3.832   8.887 -16.537  1.00  0.00     0.031 C 
ATOM     60  C   UNL     1      -1.596   8.910 -17.608  1.00  0.00     0.037 A 
BRANCH  47  61
ATOM     61  C   UNL     1       4.341  10.284 -16.582  1.00  0.00     0.057 A 
ATOM     62  C   UNL     1       4.686  11.236 -17.550  1.00  0.00     0.134 A 
ATOM     63  C   UNL     1       5.343   9.402 -16.158  1.00  0.00     0.134 A 
ATOM     64  F   UNL     1       3.773  12.107 -18.005  1.00  0.00    -0.206 F 
ATOM     65  C   UNL     1       5.979  11.311 -18.072  1.00  0.00     0.040 A 
ATOM     66  C   UNL     1       6.645   9.482 -16.656  1.00  0.00     0.040 A 
ATOM     67  F   UNL     1       5.082   8.475 -15.223  1.00  0.00    -0.206 F 
ATOM     68  C   UNL     1       6.965  10.437 -17.619  1.00  0.00     0.006 A 
ENDBRANCH  47  61
BRANCH  48  69
ATOM     69  C   UNL     1      -4.795  10.022 -12.600  1.00  0.00     0.057 A 
ATOM     70  C   UNL     1      -5.515  11.188 -12.317  1.00  0.00     0.134 A 
ATOM     71  C   UNL     1      -5.402   8.797 -12.301  1.00  0.00     0.134 A 
ATOM     72  F   UNL     1      -4.984  12.392 -12.578  1.00  0.00    -0.206 F 
ATOM     73  C   UNL     1      -6.786  11.141 -11.744  1.00  0.00     0.040 A 
ATOM     74  C   UNL     1      -6.683   8.734 -11.750  1.00  0.00     0.040 A 
ATOM     75  F   UNL     1      -4.768   7.646 -12.569  1.00  0.00    -0.206 F 
ATOM     76  C   UNL     1      -7.376   9.909 -11.465  1.00  0.00     0.006 A 
ENDBRANCH  48  69
BRANCH  60  77
ATOM     77  C   UNL     1      -2.249   8.391 -18.854  1.00  0.00     0.057 A 
ATOM     78  C   UNL     1      -2.076   7.061 -19.253  1.00  0.00     0.134 A 
ATOM     79  C   UNL     1      -3.045   9.213 -19.661  1.00  0.00     0.134 A 
ATOM     80  F   UNL     1      -1.321   6.223 -18.526  1.00  0.00    -0.206 F 
ATOM     81  C   UNL     1      -2.676   6.564 -20.411  1.00  0.00     0.040 A 
ATOM     82  C   UNL     1      -3.668   8.722 -20.809  1.00  0.00     0.040 A 
ATOM     83  F   UNL     1      -3.263  10.493 -19.323  1.00  0.00    -0.206 F 
ATOM     84  C   UNL     1      -3.481   7.394 -21.189  1.00  0.00     0.006 A 
ENDBRANCH  60  77
ENDBRANCH  34  35
ENDBRANCH  26  29
ENDBRANCH  24  25
ENDBRANCH  23  24
ENDBRANCH  22  23
ENDBRANCH  21  22
ENDBRANCH   1  21
TORSDOF 17
