REMARK SMILES CCOC(=O)c1ccc(NC(=O)[C@H]2CC(C)=C(C)C[C@@H]2C(=O)NCCCCCCNC(=O)c2ccc(-c3c4nc(c(-c5c(F)cccc5F)c5ccc([nH]5)c(-c5c(F)cccc5F)c5nc(c(-c6c(F)cccc6F)c6ccc3[nH]6)C=C5)C=C4)cc2)cc1
REMARK SMILES IDX 25 1 24 2 23 3 21 4 22 5 20 7 13 8 14 9 15 10 19 11 16 12
REMARK SMILES IDX 17 13 18 14 11 15 10 16 12 18 9 19 6 20 7 21 88 22 8 23
REMARK SMILES IDX 87 24 4 25 5 26 3 27 2 28 1 29 26 30 27 31 28 32 29 33 30 34
REMARK SMILES IDX 31 35 32 37 33 38 34 39 86 40 35 41 85 42 36 43 37 44 38 45
REMARK SMILES IDX 79 46 39 47 84 48 78 49 80 50 40 51 83 52 77 53 76 54 41 56
REMARK SMILES IDX 67 57 50 58 66 59 51 60 54 61 65 62 81 63 52 64 53 65 64 67
REMARK SMILES IDX 82 68 55 69 42 70 43 71 48 72 44 73 45 74 47 75 49 76 46 77
REMARK SMILES IDX 68 78 69 79 74 80 70 81 71 82 73 83 75 84 72 85 56 86 57 87
REMARK SMILES IDX 62 88 58 89 59 90 61 91 63 92 60 93
REMARK H PARENT 23 6 10 17 30 36 80 55 54 66
REMARK Flexibility Score: inf
ROOT
ATOM      1  C   UNL     1       8.328   9.756   1.393  1.00  0.00     0.021 C 
ENDROOT
BRANCH   1   2
ATOM      2  C   UNL     1       6.955   9.863   0.721  1.00  0.00     0.116 C 
BRANCH   2   3
ATOM      3  N   UNL     1       6.971   9.143  -0.529  1.00  0.00    -0.356 N 
ATOM      4  C   UNL     1       6.675   7.855  -0.827  1.00  0.00     0.224 C 
ATOM      5  O   UNL     1       7.154   7.470  -1.899  1.00  0.00    -0.275 OA
ATOM      6  H   UNL     1       7.246   9.685  -1.304  1.00  0.00     0.163 HD
BRANCH   4   7
ATOM      7  C   UNL     1       5.702   6.984   0.019  1.00  0.00     0.095 C 
ATOM      8  C   UNL     1       6.121   6.726   1.485  1.00  0.00     0.095 C 
ATOM      9  C   UNL     1       6.617   5.329   1.873  1.00  0.00     0.045 C 
ATOM     10  C   UNL     1       6.263   4.177   0.979  1.00  0.00    -0.074 C 
ATOM     11  C   UNL     1       5.401   5.705  -0.818  1.00  0.00     0.045 C 
ATOM     12  C   UNL     1       6.621   2.837   1.576  1.00  0.00     0.039 C 
ATOM     13  C   UNL     1       5.711   4.348  -0.236  1.00  0.00    -0.074 C 
ATOM     14  C   UNL     1       5.359   3.202  -1.153  1.00  0.00     0.039 C 
BRANCH   8  15
ATOM     15  C   UNL     1       5.218   7.330   2.593  1.00  0.00     0.228 C 
ATOM     16  N   UNL     1       4.092   6.799   3.136  1.00  0.00    -0.326 N 
ATOM     17  H   UNL     1       3.731   7.342   3.874  1.00  0.00     0.169 HD
ATOM     18  O   UNL     1       5.599   8.367   3.163  1.00  0.00    -0.274 OA
BRANCH  16  19
ATOM     19  C   UNL     1       3.332   5.657   2.884  1.00  0.00     0.041 A 
ATOM     20  C   UNL     1       2.092   3.186   2.550  1.00  0.00     0.060 A 
ATOM     21  C   UNL     1       2.539   3.892   1.436  1.00  0.00     0.018 A 
ATOM     22  C   UNL     1       2.141   3.761   3.819  1.00  0.00     0.018 A 
ATOM     23  C   UNL     1       3.134   5.140   1.616  1.00  0.00     0.027 A 
ATOM     24  C   UNL     1       2.739   5.014   3.978  1.00  0.00     0.027 A 
BRANCH  20  25
ATOM     25  C   UNL     1       1.698   1.780   2.405  1.00  0.00     0.338 C 
ATOM     26  O   UNL     1       2.341   0.860   2.879  1.00  0.00    -0.246 OA
BRANCH  25  27
ATOM     27  O   UNL     1       0.575   1.712   1.656  1.00  0.00    -0.462 OA
BRANCH  27  28
ATOM     28  C   UNL     1       0.164   0.382   1.307  1.00  0.00     0.230 C 
ATOM     29  C   UNL     1       0.735   0.043  -0.057  1.00  0.00     0.049 C 
ENDBRANCH  27  28
ENDBRANCH  25  27
ENDBRANCH  20  25
ENDBRANCH  16  19
ENDBRANCH   8  15
ENDBRANCH   4   7
ENDBRANCH   2   3
ENDBRANCH   1   2
BRANCH   1  30
ATOM     30  C   UNL     1       9.421  10.552   0.665  1.00  0.00     0.002 C 
BRANCH  30  31
ATOM     31  C   UNL     1       9.179  12.063   0.612  1.00  0.00     0.002 C 
BRANCH  31  32
ATOM     32  C   UNL     1       8.978  12.723   1.978  1.00  0.00     0.021 C 
BRANCH  32  33
ATOM     33  C   UNL     1      10.150  12.542   2.939  1.00  0.00     0.116 C 
BRANCH  33  34
ATOM     34  N   UNL     1      11.361  13.171   2.434  1.00  0.00    -0.352 N 
ATOM     35  C   UNL     1      12.168  14.103   3.032  1.00  0.00     0.251 C 
ATOM     36  H   UNL     1      11.640  12.885   1.534  1.00  0.00     0.163 HD
ATOM     37  O   UNL     1      13.023  14.693   2.379  1.00  0.00    -0.269 OA
BRANCH  35  38
ATOM     38  C   UNL     1      12.000  14.405   4.468  1.00  0.00     0.039 A 
ATOM     39  C   UNL     1      12.006  15.740   4.880  1.00  0.00     0.014 A 
ATOM     40  C   UNL     1      11.859  13.377   5.405  1.00  0.00     0.014 A 
ATOM     41  C   UNL     1      11.820  16.046   6.229  1.00  0.00     0.010 A 
ATOM     42  C   UNL     1      11.611  13.685   6.739  1.00  0.00     0.010 A 
ATOM     43  C   UNL     1      11.595  15.021   7.163  1.00  0.00    -0.014 A 
BRANCH  43  44
ATOM     44  C   UNL     1      11.331  15.340   8.587  1.00  0.00     0.031 A 
ATOM     45  C   UNL     1      12.312  14.944   9.652  1.00  0.00     0.074 A 
ATOM     46  C   UNL     1      10.173  15.940   8.923  1.00  0.00     0.049 A 
ATOM     47  N   UNL     1      12.244  15.126  10.947  1.00  0.00    -0.248 NA
ATOM     48  C   UNL     1      13.516  14.225   9.208  1.00  0.00     0.031 C 
ATOM     49  C   UNL     1       9.113  16.314   7.986  1.00  0.00     0.029 A 
ATOM     50  N   UNL     1       9.693  16.333  10.146  1.00  0.00    -0.354 N 
ATOM     51  C   UNL     1      13.385  14.534  11.472  1.00  0.00     0.074 A 
ATOM     52  C   UNL     1      14.104  13.945  10.362  1.00  0.00     0.031 C 
ATOM     53  C   UNL     1       8.117  16.905   8.665  1.00  0.00     0.029 A 
ATOM     54  C   UNL     1       8.457  16.928  10.084  1.00  0.00     0.049 A 
ATOM     55  H   UNL     1      10.187  16.202  10.987  1.00  0.00     0.167 HD
ATOM     56  C   UNL     1      13.806  14.504  12.759  1.00  0.00     0.037 A 
ATOM     57  C   UNL     1       7.687  17.439  11.062  1.00  0.00     0.037 A 
ATOM     58  C   UNL     1      13.100  15.112  13.856  1.00  0.00     0.049 A 
ATOM     59  C   UNL     1       8.187  17.419  12.477  1.00  0.00     0.074 A 
ATOM     60  C   UNL     1      13.481  15.204  15.183  1.00  0.00     0.029 A 
ATOM     61  N   UNL     1      11.861  15.728  13.752  1.00  0.00    -0.354 N 
ATOM     62  N   UNL     1       9.308  16.931  12.950  1.00  0.00    -0.248 NA
ATOM     63  C   UNL     1       7.319  18.029  13.493  1.00  0.00     0.031 C 
ATOM     64  C   UNL     1      12.454  15.842  15.890  1.00  0.00     0.029 A 
ATOM     65  C   UNL     1      11.453  16.182  14.995  1.00  0.00     0.049 A 
ATOM     66  H   UNL     1      11.349  15.827  12.918  1.00  0.00     0.167 HD
ATOM     67  C   UNL     1       9.290  17.189  14.313  1.00  0.00     0.074 A 
ATOM     68  C   UNL     1       8.053  17.893  14.589  1.00  0.00     0.031 C 
ATOM     69  C   UNL     1      10.214  16.872  15.253  1.00  0.00     0.037 A 
BRANCH  56  70
ATOM     70  C   UNL     1      15.095  13.790  13.043  1.00  0.00     0.057 A 
ATOM     71  C   UNL     1      16.332  14.307  12.637  1.00  0.00     0.134 A 
ATOM     72  C   UNL     1      15.102  12.578  13.745  1.00  0.00     0.134 A 
ATOM     73  F   UNL     1      16.395  15.458  11.950  1.00  0.00    -0.206 F 
ATOM     74  C   UNL     1      17.526  13.630  12.890  1.00  0.00     0.040 A 
ATOM     75  C   UNL     1      16.292  11.904  14.027  1.00  0.00     0.040 A 
ATOM     76  F   UNL     1      13.953  12.028  14.168  1.00  0.00    -0.206 F 
ATOM     77  C   UNL     1      17.508  12.426  13.591  1.00  0.00     0.006 A 
ENDBRANCH  56  70
BRANCH  57  78
ATOM     78  C   UNL     1       6.379  18.049  10.721  1.00  0.00     0.057 A 
ATOM     79  C   UNL     1       6.204  19.437  10.749  1.00  0.00     0.134 A 
ATOM     80  C   UNL     1       5.286  17.266  10.336  1.00  0.00     0.134 A 
ATOM     81  F   UNL     1       7.212  20.237  11.125  1.00  0.00    -0.206 F 
ATOM     82  C   UNL     1       4.983  20.025  10.416  1.00  0.00     0.040 A 
ATOM     83  C   UNL     1       4.065  17.841   9.980  1.00  0.00     0.040 A 
ATOM     84  F   UNL     1       5.396  15.930  10.281  1.00  0.00    -0.206 F 
ATOM     85  C   UNL     1       3.911  19.226  10.023  1.00  0.00     0.006 A 
ENDBRANCH  57  78
BRANCH  69  86
ATOM     86  C   UNL     1       9.923  17.295  16.662  1.00  0.00     0.057 A 
ATOM     87  C   UNL     1       8.954  16.648  17.439  1.00  0.00     0.134 A 
ATOM     88  C   UNL     1      10.636  18.344  17.256  1.00  0.00     0.134 A 
ATOM     89  F   UNL     1       8.227  15.645  16.923  1.00  0.00    -0.206 F 
ATOM     90  C   UNL     1       8.687  17.045  18.750  1.00  0.00     0.040 A 
ATOM     91  C   UNL     1      10.395  18.735  18.573  1.00  0.00     0.040 A 
ATOM     92  F   UNL     1      11.582  19.000  16.568  1.00  0.00    -0.206 F 
ATOM     93  C   UNL     1       9.413  18.089  19.322  1.00  0.00     0.006 A 
ENDBRANCH  69  86
ENDBRANCH  43  44
ENDBRANCH  35  38
ENDBRANCH  33  34
ENDBRANCH  32  33
ENDBRANCH  31  32
ENDBRANCH  30  31
ENDBRANCH   1  30
TORSDOF 18
