REMARK SMILES COc1ccc(C(F)(F)F)cc1-c1cc(N)cc(C(=O)NCCCCCCNC(=O)c2ccc(-c3c4nc(c(-c5c(F)cccc5F)c5ccc([nH]5)c(-c5c(F)cccc5F)c5nc(c(-c6c(F)cccc6F)c6ccc3[nH]6)C=C5)C=C4)cc2)c1
REMARK SMILES IDX 24 1 23 2 22 3 21 4 19 5 20 6 18 8 13 9 14 10 85 11 15 12
REMARK SMILES IDX 17 13 12 14 3 15 4 16 5 17 11 18 6 19 2 20 1 21 7 22 8 23
REMARK SMILES IDX 9 24 10 25 16 26 25 29 26 30 27 31 28 32 29 33 30 35 31 36
REMARK SMILES IDX 32 37 84 38 33 39 83 40 34 41 35 42 36 43 77 44 37 45 82 46
REMARK SMILES IDX 76 47 78 48 38 49 81 50 75 51 74 52 39 54 65 55 48 56 64 57
REMARK SMILES IDX 49 58 52 59 63 60 79 61 50 62 51 63 62 65 80 66 53 67 40 68
REMARK SMILES IDX 41 69 46 70 42 71 43 72 45 73 47 74 44 75 66 76 67 77 72 78
REMARK SMILES IDX 68 79 69 80 71 81 73 82 70 83 54 84 55 85 60 86 56 87 57 88
REMARK SMILES IDX 59 89 61 90 58 91
REMARK H PARENT 21 7 16 27 16 28 28 34 78 53 52 64
REMARK Flexibility Score: inf
ROOT
ATOM      1  C   UNL     1       3.209  -5.818   2.126  1.00  0.00     0.002 C 
ENDROOT
BRANCH   1   2
ATOM      2  C   UNL     1       3.047  -4.681   1.107  1.00  0.00     0.021 C 
BRANCH   2   3
ATOM      3  C   UNL     1       2.835  -3.315   1.767  1.00  0.00     0.116 C 
BRANCH   3   4
ATOM      4  N   UNL     1       4.110  -2.752   2.172  1.00  0.00    -0.352 N 
ATOM      5  C   UNL     1       4.966  -1.846   1.600  1.00  0.00     0.251 C 
ATOM      6  O   UNL     1       6.005  -1.595   2.214  1.00  0.00    -0.269 OA
ATOM      7  H   UNL     1       4.427  -3.092   3.040  1.00  0.00     0.163 HD
BRANCH   5   8
ATOM      8  C   UNL     1       4.688  -1.116   0.330  1.00  0.00     0.042 A 
ATOM      9  C   UNL     1       3.405  -0.691  -1.697  1.00  0.00    -0.012 A 
ATOM     10  C   UNL     1       4.124   0.496  -1.893  1.00  0.00     0.034 A 
ATOM     11  C   UNL     1       3.771  -1.526  -0.632  1.00  0.00     0.022 A 
ATOM     12  C   UNL     1       5.171   0.850  -1.039  1.00  0.00     0.033 A 
ATOM     13  C   UNL     1       5.395   0.075   0.102  1.00  0.00     0.039 A 
BRANCH   9  14
ATOM     14  C   UNL     1       2.268  -1.073  -2.550  1.00  0.00     0.024 A 
ATOM     15  C   UNL     1       0.973  -1.306  -2.034  1.00  0.00     0.126 A 
ATOM     16  C   UNL     1      -0.045  -1.804  -2.852  1.00  0.00     0.047 A 
ATOM     17  C   UNL     1       0.201  -2.068  -4.198  1.00  0.00     0.017 A 
ATOM     18  C   UNL     1       2.487  -1.325  -3.916  1.00  0.00     0.025 A 
ATOM     19  C   UNL     1       1.473  -1.840  -4.742  1.00  0.00     0.056 A 
BRANCH  15  20
ATOM     20  O   UNL     1       0.652  -1.201  -0.702  1.00  0.00    -0.496 OA
ATOM     21  C   UNL     1       0.667   0.147  -0.229  1.00  0.00     0.278 C 
ENDBRANCH  15  20
BRANCH  19  22
ATOM     22  C   UNL     1       1.753  -2.202  -6.180  1.00  0.00     0.416 C 
ATOM     23  F   UNL     1       1.504  -3.515  -6.440  1.00  0.00    -0.166 F 
ATOM     24  F   UNL     1       0.990  -1.494  -7.056  1.00  0.00    -0.166 F 
ATOM     25  F   UNL     1       3.046  -1.989  -6.552  1.00  0.00    -0.166 F 
ENDBRANCH  19  22
ENDBRANCH   9  14
BRANCH  12  26
ATOM     26  N   UNL     1       5.867   2.036  -1.226  1.00  0.00    -0.399 N 
ATOM     27  H   UNL     1       5.707   2.579  -2.031  1.00  0.00     0.156 HD
ATOM     28  H   UNL     1       6.521   2.334  -0.554  1.00  0.00     0.156 HD
ENDBRANCH  12  26
ENDBRANCH   5   8
ENDBRANCH   3   4
ENDBRANCH   2   3
ENDBRANCH   1   2
BRANCH   1  29
ATOM     29  C   UNL     1       1.981  -6.062   3.013  1.00  0.00     0.002 C 
BRANCH  29  30
ATOM     30  C   UNL     1       0.677  -6.316   2.252  1.00  0.00     0.021 C 
BRANCH  30  31
ATOM     31  C   UNL     1       0.705  -7.554   1.363  1.00  0.00     0.116 C 
BRANCH  31  32
ATOM     32  N   UNL     1       0.868  -8.771   2.144  1.00  0.00    -0.352 N 
ATOM     33  C   UNL     1       0.057  -9.875   2.215  1.00  0.00     0.251 C 
ATOM     34  H   UNL     1       1.678  -8.807   2.703  1.00  0.00     0.163 HD
ATOM     35  O   UNL     1       0.217 -10.705   3.103  1.00  0.00    -0.269 OA
BRANCH  33  36
ATOM     36  C   UNL     1      -1.020 -10.058   1.220  1.00  0.00     0.039 A 
ATOM     37  C   UNL     1      -2.279 -10.479   1.653  1.00  0.00     0.014 A 
ATOM     38  C   UNL     1      -0.779  -9.836  -0.139  1.00  0.00     0.014 A 
ATOM     39  C   UNL     1      -3.313 -10.627   0.728  1.00  0.00     0.010 A 
ATOM     40  C   UNL     1      -1.828  -9.916  -1.050  1.00  0.00     0.010 A 
ATOM     41  C   UNL     1      -3.103 -10.318  -0.626  1.00  0.00    -0.014 A 
BRANCH  41  42
ATOM     42  C   UNL     1      -4.203 -10.420  -1.618  1.00  0.00     0.031 A 
ATOM     43  C   UNL     1      -4.117 -11.422  -2.736  1.00  0.00     0.074 A 
ATOM     44  C   UNL     1      -5.250  -9.577  -1.541  1.00  0.00     0.049 A 
ATOM     45  N   UNL     1      -4.936 -11.614  -3.739  1.00  0.00    -0.248 NA
ATOM     46  C   UNL     1      -2.946 -12.313  -2.739  1.00  0.00     0.031 C 
ATOM     47  C   UNL     1      -5.432  -8.541  -0.522  1.00  0.00     0.029 A 
ATOM     48  N   UNL     1      -6.358  -9.453  -2.341  1.00  0.00    -0.354 N 
ATOM     49  C   UNL     1      -4.378 -12.641  -4.490  1.00  0.00     0.074 A 
ATOM     50  C   UNL     1      -3.123 -12.991  -3.863  1.00  0.00     0.031 C 
ATOM     51  C   UNL     1      -6.594  -7.905  -0.744  1.00  0.00     0.029 A 
ATOM     52  C   UNL     1      -7.218  -8.458  -1.942  1.00  0.00     0.049 A 
ATOM     53  H   UNL     1      -6.522 -10.023  -3.127  1.00  0.00     0.167 HD
ATOM     54  C   UNL     1      -4.881 -13.257  -5.586  1.00  0.00     0.037 A 
ATOM     55  C   UNL     1      -8.374  -8.036  -2.486  1.00  0.00     0.037 A 
ATOM     56  C   UNL     1      -6.137 -12.916  -6.201  1.00  0.00     0.049 A 
ATOM     57  C   UNL     1      -8.888  -8.712  -3.728  1.00  0.00     0.074 A 
ATOM     58  C   UNL     1      -6.744 -13.496  -7.301  1.00  0.00     0.029 A 
ATOM     59  N   UNL     1      -6.979 -11.905  -5.765  1.00  0.00    -0.354 N 
ATOM     60  N   UNL     1      -8.373  -9.713  -4.400  1.00  0.00    -0.248 NA
ATOM     61  C   UNL     1     -10.148  -8.200  -4.286  1.00  0.00     0.031 C 
ATOM     62  C   UNL     1      -7.938 -12.811  -7.553  1.00  0.00     0.029 A 
ATOM     63  C   UNL     1      -8.095 -11.836  -6.582  1.00  0.00     0.049 A 
ATOM     64  H   UNL     1      -6.809 -11.323  -4.989  1.00  0.00     0.167 HD
ATOM     65  C   UNL     1      -9.263  -9.974  -5.434  1.00  0.00     0.074 A 
ATOM     66  C   UNL     1     -10.356  -9.035  -5.294  1.00  0.00     0.031 C 
ATOM     67  C   UNL     1      -9.184 -10.908  -6.413  1.00  0.00     0.037 A 
BRANCH  54  68
ATOM     68  C   UNL     1      -4.077 -14.377  -6.181  1.00  0.00     0.057 A 
ATOM     69  C   UNL     1      -3.943 -15.610  -5.529  1.00  0.00     0.134 A 
ATOM     70  C   UNL     1      -3.466 -14.239  -7.433  1.00  0.00     0.134 A 
ATOM     71  F   UNL     1      -4.494 -15.804  -4.321  1.00  0.00    -0.206 F 
ATOM     72  C   UNL     1      -3.213 -16.658  -6.091  1.00  0.00     0.040 A 
ATOM     73  C   UNL     1      -2.755 -15.289  -8.018  1.00  0.00     0.040 A 
ATOM     74  F   UNL     1      -3.558 -13.087  -8.115  1.00  0.00    -0.206 F 
ATOM     75  C   UNL     1      -2.623 -16.502  -7.343  1.00  0.00     0.006 A 
ENDBRANCH  54  68
BRANCH  55  76
ATOM     76  C   UNL     1      -9.142  -6.929  -1.860  1.00  0.00     0.057 A 
ATOM     77  C   UNL     1     -10.389  -7.163  -1.268  1.00  0.00     0.134 A 
ATOM     78  C   UNL     1      -8.673  -5.611  -1.872  1.00  0.00     0.134 A 
ATOM     79  F   UNL     1     -10.902  -8.402  -1.242  1.00  0.00    -0.206 F 
ATOM     80  C   UNL     1     -11.156  -6.123  -0.739  1.00  0.00     0.040 A 
ATOM     81  C   UNL     1      -9.416  -4.565  -1.322  1.00  0.00     0.040 A 
ATOM     82  F   UNL     1      -7.482  -5.319  -2.417  1.00  0.00    -0.206 F 
ATOM     83  C   UNL     1     -10.667  -4.819  -0.764  1.00  0.00     0.006 A 
ENDBRANCH  55  76
BRANCH  67  84
ATOM     84  C   UNL     1     -10.332 -10.992  -7.376  1.00  0.00     0.057 A 
ATOM     85  C   UNL     1     -10.554 -10.014  -8.353  1.00  0.00     0.134 A 
ATOM     86  C   UNL     1     -11.205 -12.087  -7.344  1.00  0.00     0.134 A 
ATOM     87  F   UNL     1      -9.762  -8.934  -8.427  1.00  0.00    -0.206 F 
ATOM     88  C   UNL     1     -11.620 -10.109  -9.249  1.00  0.00     0.040 A 
ATOM     89  C   UNL     1     -12.257 -12.207  -8.252  1.00  0.00     0.040 A 
ATOM     90  F   UNL     1     -11.042 -13.063  -6.439  1.00  0.00    -0.206 F 
ATOM     91  C   UNL     1     -12.471 -11.213  -9.204  1.00  0.00     0.006 A 
ENDBRANCH  67  84
ENDBRANCH  41  42
ENDBRANCH  33  36
ENDBRANCH  31  32
ENDBRANCH  30  31
ENDBRANCH  29  30
ENDBRANCH   1  29
TORSDOF 17
