REMARK SMILES O=C(NCCCCCCNC(=O)[C@H](CCc1ccccn1)c1ccccc1Br)c1ccc(-c2c3nc(c(-c4c(F)cccc4F)c4ccc([nH]4)c(-c4c(F)cccc4F)c4nc(c(-c5c(F)cccc5F)c5ccc2[nH]5)C=C4)C=C3)cc1
REMARK SMILES IDX 7 1 6 2 5 3 4 4 3 5 1 6 2 7 29 9 30 10 82 11 31 12 81 13
REMARK SMILES IDX 32 14 33 15 34 16 75 17 35 18 80 19 74 20 76 21 36 22 79 23
REMARK SMILES IDX 73 24 72 25 37 27 63 28 46 29 62 30 47 31 50 32 61 33 77 34
REMARK SMILES IDX 48 35 49 36 60 38 78 39 51 40 38 41 39 42 44 43 40 44 41 45
REMARK SMILES IDX 43 46 45 47 42 48 64 49 65 50 70 51 66 52 67 53 69 54 71 55
REMARK SMILES IDX 68 56 52 57 53 58 58 59 54 60 55 61 57 62 59 63 56 64 8 65
REMARK SMILES IDX 9 66 10 67 11 68 12 70 13 71 22 72 23 73 27 74 24 75 26 76
REMARK SMILES IDX 28 77 25 78 14 79 15 80 16 81 17 82 21 83 18 84 20 85 19 86
REMARK H PARENT 3 8 76 26 50 37 10 69
REMARK Flexibility Score: inf
ROOT
ATOM      1  C   UNL     1       6.356   5.500  -4.490  1.00  0.00     0.002 C 
ENDROOT
BRANCH   1   2
ATOM      2  C   UNL     1       6.028   6.984  -4.658  1.00  0.00     0.002 C 
BRANCH   2   3
ATOM      3  C   UNL     1       4.691   7.283  -5.338  1.00  0.00     0.021 C 
BRANCH   3   4
ATOM      4  C   UNL     1       3.500   6.524  -4.764  1.00  0.00     0.116 C 
BRANCH   4   5
ATOM      5  N   UNL     1       3.068   7.067  -3.485  1.00  0.00    -0.352 N 
ATOM      6  O   UNL     1       1.792   8.371  -2.139  1.00  0.00    -0.269 OA
ATOM      7  C   UNL     1       1.929   7.787  -3.209  1.00  0.00     0.251 C 
ATOM      8  H   UNL     1       3.666   6.897  -2.722  1.00  0.00     0.163 HD
BRANCH   7   9
ATOM      9  C   UNL     1       0.872   7.858  -4.237  1.00  0.00     0.039 A 
ATOM     10  C   UNL     1       0.429   6.682  -4.845  1.00  0.00     0.014 A 
ATOM     11  C   UNL     1       0.359   9.096  -4.629  1.00  0.00     0.014 A 
ATOM     12  C   UNL     1      -0.404   6.757  -5.951  1.00  0.00     0.010 A 
ATOM     13  C   UNL     1      -0.565   9.159  -5.678  1.00  0.00     0.010 A 
ATOM     14  C   UNL     1      -0.932   7.993  -6.366  1.00  0.00    -0.014 A 
BRANCH  14  15
ATOM     15  C   UNL     1      -1.927   8.000  -7.469  1.00  0.00     0.031 A 
ATOM     16  C   UNL     1      -1.659   8.689  -8.777  1.00  0.00     0.074 A 
ATOM     17  C   UNL     1      -3.071   7.309  -7.289  1.00  0.00     0.049 A 
ATOM     18  N   UNL     1      -2.408   8.732  -9.850  1.00  0.00    -0.248 NA
ATOM     19  C   UNL     1      -0.395   9.431  -8.900  1.00  0.00     0.031 C 
ATOM     20  C   UNL     1      -3.448   6.619  -6.051  1.00  0.00     0.029 A 
ATOM     21  N   UNL     1      -4.106   7.040  -8.145  1.00  0.00    -0.354 N 
ATOM     22  C   UNL     1      -1.717   9.510 -10.770  1.00  0.00     0.074 A 
ATOM     23  C   UNL     1      -0.499   9.945 -10.119  1.00  0.00     0.031 C 
ATOM     24  C   UNL     1      -4.593   5.954  -6.249  1.00  0.00     0.029 A 
ATOM     25  C   UNL     1      -5.070   6.229  -7.598  1.00  0.00     0.049 A 
ATOM     26  H   UNL     1      -4.154   7.394  -9.062  1.00  0.00     0.167 HD
ATOM     27  C   UNL     1      -2.066   9.824 -12.042  1.00  0.00     0.037 A 
ATOM     28  C   UNL     1      -6.222   5.768  -8.115  1.00  0.00     0.037 A 
ATOM     29  C   UNL     1      -3.280   9.384 -12.684  1.00  0.00     0.049 A 
ATOM     30  C   UNL     1      -6.582   6.138  -9.522  1.00  0.00     0.074 A 
ATOM     31  C   UNL     1      -3.723   9.649 -13.969  1.00  0.00     0.029 A 
ATOM     32  N   UNL     1      -4.245   8.584 -12.088  1.00  0.00    -0.354 N 
ATOM     33  N   UNL     1      -5.910   6.865 -10.380  1.00  0.00    -0.248 NA
ATOM     34  C   UNL     1      -7.861   5.627 -10.031  1.00  0.00     0.031 C 
ATOM     35  C   UNL     1      -4.971   9.038 -14.139  1.00  0.00     0.029 A 
ATOM     36  C   UNL     1      -5.285   8.355 -12.976  1.00  0.00     0.049 A 
ATOM     37  H   UNL     1      -4.198   8.231 -11.171  1.00  0.00     0.167 HD
ATOM     38  C   UNL     1      -6.681   6.898 -11.533  1.00  0.00     0.074 A 
ATOM     39  C   UNL     1      -7.854   6.086 -11.274  1.00  0.00     0.031 C 
ATOM     40  C   UNL     1      -6.447   7.550 -12.697  1.00  0.00     0.037 A 
BRANCH  27  41
ATOM     41  C   UNL     1      -1.127  10.694 -12.829  1.00  0.00     0.057 A 
ATOM     42  C   UNL     1       0.093  10.209 -13.317  1.00  0.00     0.134 A 
ATOM     43  C   UNL     1      -1.474  12.011 -13.157  1.00  0.00     0.134 A 
ATOM     44  F   UNL     1       0.491   8.959 -13.032  1.00  0.00    -0.206 F 
ATOM     45  C   UNL     1       0.941  11.006 -14.090  1.00  0.00     0.040 A 
ATOM     46  C   UNL     1      -0.645  12.811 -13.947  1.00  0.00     0.040 A 
ATOM     47  F   UNL     1      -2.631  12.537 -12.729  1.00  0.00    -0.206 F 
ATOM     48  C   UNL     1       0.568  12.309 -14.413  1.00  0.00     0.006 A 
ENDBRANCH  27  41
BRANCH  28  49
ATOM     49  C   UNL     1      -7.118   4.926  -7.285  1.00  0.00     0.057 A 
ATOM     50  C   UNL     1      -7.329   3.575  -7.578  1.00  0.00     0.134 A 
ATOM     51  C   UNL     1      -7.778   5.455  -6.168  1.00  0.00     0.134 A 
ATOM     52  F   UNL     1      -6.736   3.014  -8.643  1.00  0.00    -0.206 F 
ATOM     53  C   UNL     1      -8.177   2.783  -6.802  1.00  0.00     0.040 A 
ATOM     54  C   UNL     1      -8.603   4.668  -5.365  1.00  0.00     0.040 A 
ATOM     55  F   UNL     1      -7.608   6.741  -5.827  1.00  0.00    -0.206 F 
ATOM     56  C   UNL     1      -8.811   3.329  -5.687  1.00  0.00     0.006 A 
ENDBRANCH  28  49
BRANCH  40  57
ATOM     57  C   UNL     1      -7.478   7.391 -13.775  1.00  0.00     0.057 A 
ATOM     58  C   UNL     1      -8.736   8.001 -13.686  1.00  0.00     0.134 A 
ATOM     59  C   UNL     1      -7.210   6.616 -14.910  1.00  0.00     0.134 A 
ATOM     60  F   UNL     1      -9.058   8.742 -12.615  1.00  0.00    -0.206 F 
ATOM     61  C   UNL     1      -9.704   7.819 -14.675  1.00  0.00     0.040 A 
ATOM     62  C   UNL     1      -8.161   6.449 -15.917  1.00  0.00     0.040 A 
ATOM     63  F   UNL     1      -6.023   6.010 -15.058  1.00  0.00    -0.206 F 
ATOM     64  C   UNL     1      -9.415   7.044 -15.796  1.00  0.00     0.006 A 
ENDBRANCH  40  57
ENDBRANCH  14  15
ENDBRANCH   7   9
ENDBRANCH   4   5
ENDBRANCH   3   4
ENDBRANCH   2   3
ENDBRANCH   1   2
BRANCH   1  65
ATOM     65  C   UNL     1       6.265   4.668  -5.774  1.00  0.00     0.021 C 
BRANCH  65  66
ATOM     66  C   UNL     1       7.559   4.578  -6.585  1.00  0.00     0.116 C 
BRANCH  66  67
ATOM     67  N   UNL     1       8.616   3.873  -5.889  1.00  0.00    -0.356 N 
ATOM     68  C   UNL     1       9.202   2.652  -6.064  1.00  0.00     0.227 C 
ATOM     69  H   UNL     1       8.989   4.381  -5.133  1.00  0.00     0.163 HD
ATOM     70  O   UNL     1      10.340   2.612  -5.582  1.00  0.00    -0.274 OA
BRANCH  68  71
ATOM     71  C   UNL     1       8.560   1.489  -6.901  1.00  0.00     0.110 C 
BRANCH  71  72
ATOM     72  C   UNL     1       9.251   0.093  -6.855  1.00  0.00    -0.021 A 
ATOM     73  C   UNL     1      10.268  -0.203  -5.923  1.00  0.00     0.006 A 
ATOM     74  C   UNL     1       8.850  -0.990  -7.675  1.00  0.00     0.021 A 
ATOM     75  C   UNL     1      10.790  -1.491  -5.750  1.00  0.00     0.000 A 
ATOM     76  C   UNL     1       9.316  -2.298  -7.445  1.00  0.00     0.016 A 
ATOM     77  Br  UNL     1       7.733  -0.814  -9.210  1.00  0.00    -0.051 Br
ATOM     78  C   UNL     1      10.279  -2.550  -6.477  1.00  0.00     0.001 A 
ENDBRANCH  71  72
BRANCH  71  79
ATOM     79  C   UNL     1       7.029   1.341  -6.663  1.00  0.00     0.025 C 
BRANCH  79  80
ATOM     80  C   UNL     1       6.537   0.586  -5.421  1.00  0.00     0.057 C 
BRANCH  80  81
ATOM     81  C   UNL     1       6.965   1.172  -4.106  1.00  0.00     0.040 A 
ATOM     82  C   UNL     1       6.111   1.969  -3.350  1.00  0.00     0.024 A 
ATOM     83  N   UNL     1       8.223   0.891  -3.707  1.00  0.00    -0.261 NA
ATOM     84  C   UNL     1       6.585   2.527  -2.166  1.00  0.00     0.003 A 
ATOM     85  C   UNL     1       8.662   1.444  -2.559  1.00  0.00     0.111 A 
ATOM     86  C   UNL     1       7.888   2.267  -1.763  1.00  0.00     0.020 A 
ENDBRANCH  80  81
ENDBRANCH  79  80
ENDBRANCH  71  79
ENDBRANCH  68  71
ENDBRANCH  66  67
ENDBRANCH  65  66
ENDBRANCH   1  65
TORSDOF 17
