REMARK SMILES CC(C)(C(=O)NCCCCCCNC(=O)c1ccc(-c2c3nc(c(-c4c(F)cccc4F)c4ccc([nH]4)c(-c4c(F)cccc4F)c4nc(c(-c5c(F)cccc5F)c5ccc2[nH]5)C=C4)C=C3)cc1)c1ccc(NS(=O)(=O)c2c(F)cc(F)cc2F)cc1
REMARK SMILES IDX 8 1 7 2 6 3 4 4 5 5 2 7 1 8 3 9 70 10 71 11 88 12 72 13
REMARK SMILES IDX 87 14 73 15 74 16 75 18 76 19 77 20 78 21 79 22 85 23 80 24
REMARK SMILES IDX 81 25 84 26 86 27 82 28 83 29 9 30 10 31 11 32 12 33 13 34
REMARK SMILES IDX 14 35 15 37 16 38 17 39 69 40 18 41 68 42 19 43 20 44 21 45
REMARK SMILES IDX 62 46 22 47 67 48 61 49 63 50 23 51 66 52 60 53 59 54 24 56
REMARK SMILES IDX 50 57 33 58 49 59 34 60 37 61 48 62 64 63 35 64 36 65 47 67
REMARK SMILES IDX 65 68 38 69 25 70 26 71 31 72 27 73 28 74 30 75 32 76 29 77
REMARK SMILES IDX 51 78 52 79 57 80 53 81 54 82 56 83 58 84 55 85 39 86 40 87
REMARK SMILES IDX 45 88 41 89 42 90 44 91 46 92 43 93
REMARK H PARENT 6 6 74 17 13 36 63 55 37 66
REMARK Flexibility Score: inf
ROOT
ATOM      1  C   UNL     1      -1.651  -1.474  -2.188  1.00  0.00     0.021 C 
ENDROOT
BRANCH   1   2
ATOM      2  C   UNL     1      -1.180  -0.055  -2.506  1.00  0.00     0.116 C 
BRANCH   2   3
ATOM      3  N   UNL     1      -1.578   0.862  -1.463  1.00  0.00    -0.355 N 
ATOM      4  C   UNL     1      -0.901   1.500  -0.477  1.00  0.00     0.230 C 
ATOM      5  O   UNL     1      -1.628   2.117   0.312  1.00  0.00    -0.274 OA
ATOM      6  H   UNL     1      -2.541   1.065  -1.470  1.00  0.00     0.163 HD
BRANCH   4   7
ATOM      7  C   UNL     1       0.660   1.512  -0.358  1.00  0.00     0.068 C 
ATOM      8  C   UNL     1       1.226   0.071  -0.312  1.00  0.00     0.026 C 
ATOM      9  C   UNL     1       1.273   2.237  -1.571  1.00  0.00     0.026 C 
BRANCH   7  10
ATOM     10  C   UNL     1       1.034   2.282   0.942  1.00  0.00    -0.033 A 
ATOM     11  C   UNL     1       1.475   1.606   2.083  1.00  0.00     0.007 A 
ATOM     12  C   UNL     1       0.813   3.668   1.068  1.00  0.00     0.007 A 
ATOM     13  C   UNL     1       1.637   2.266   3.299  1.00  0.00     0.027 A 
ATOM     14  C   UNL     1       0.945   4.321   2.305  1.00  0.00     0.027 A 
ATOM     15  C   UNL     1       1.337   3.615   3.439  1.00  0.00     0.049 A 
BRANCH  15  16
ATOM     16  N   UNL     1       1.226   4.245   4.711  1.00  0.00    -0.279 N 
ATOM     17  H   UNL     1       0.457   4.841   4.855  1.00  0.00     0.180 HD
BRANCH  16  18
ATOM     18  S   UNL     1       2.301   4.053   5.983  1.00  0.00     0.267 S 
ATOM     19  O   UNL     1       3.629   4.300   5.446  1.00  0.00    -0.201 OA
ATOM     20  O   UNL     1       1.796   4.841   7.078  1.00  0.00    -0.201 OA
BRANCH  18  21
ATOM     21  C   UNL     1       2.169   2.370   6.459  1.00  0.00     0.159 A 
ATOM     22  C   UNL     1       0.908   1.817   6.667  1.00  0.00     0.149 A 
ATOM     23  C   UNL     1       3.288   1.543   6.445  1.00  0.00     0.149 A 
ATOM     24  F   UNL     1      -0.192   2.580   6.679  1.00  0.00    -0.205 F 
ATOM     25  C   UNL     1       0.755   0.437   6.786  1.00  0.00     0.080 A 
ATOM     26  C   UNL     1       3.146   0.163   6.557  1.00  0.00     0.080 A 
ATOM     27  F   UNL     1       4.521   2.025   6.257  1.00  0.00    -0.205 F 
ATOM     28  C   UNL     1       1.877  -0.380   6.708  1.00  0.00     0.129 A 
ATOM     29  F   UNL     1       1.731  -1.710   6.753  1.00  0.00    -0.207 F 
ENDBRANCH  18  21
ENDBRANCH  16  18
ENDBRANCH  15  16
ENDBRANCH   7  10
ENDBRANCH   4   7
ENDBRANCH   2   3
ENDBRANCH   1   2
BRANCH   1  30
ATOM     30  C   UNL     1      -3.174  -1.663  -2.268  1.00  0.00     0.002 C 
BRANCH  30  31
ATOM     31  C   UNL     1      -3.817  -1.254  -3.598  1.00  0.00     0.002 C 
BRANCH  31  32
ATOM     32  C   UNL     1      -3.162  -1.842  -4.850  1.00  0.00     0.021 C 
BRANCH  32  33
ATOM     33  C   UNL     1      -3.125  -3.365  -4.895  1.00  0.00     0.116 C 
BRANCH  33  34
ATOM     34  N   UNL     1      -4.454  -3.944  -4.995  1.00  0.00    -0.352 N 
ATOM     35  C   UNL     1      -4.939  -4.842  -5.913  1.00  0.00     0.251 C 
ATOM     36  H   UNL     1      -5.096  -3.652  -4.308  1.00  0.00     0.163 HD
ATOM     37  O   UNL     1      -6.138  -5.096  -5.960  1.00  0.00    -0.269 OA
BRANCH  35  38
ATOM     38  C   UNL     1      -4.013  -5.487  -6.867  1.00  0.00     0.039 A 
ATOM     39  C   UNL     1      -4.351  -5.514  -8.223  1.00  0.00     0.014 A 
ATOM     40  C   UNL     1      -2.816  -6.061  -6.426  1.00  0.00     0.014 A 
ATOM     41  C   UNL     1      -3.459  -6.060  -9.148  1.00  0.00     0.010 A 
ATOM     42  C   UNL     1      -1.904  -6.554  -7.355  1.00  0.00     0.010 A 
ATOM     43  C   UNL     1      -2.215  -6.555  -8.723  1.00  0.00    -0.014 A 
BRANCH  43  44
ATOM     44  C   UNL     1      -1.218  -7.064  -9.696  1.00  0.00     0.031 A 
ATOM     45  C   UNL     1      -0.841  -8.517  -9.702  1.00  0.00     0.074 A 
ATOM     46  C   UNL     1      -0.592  -6.200 -10.517  1.00  0.00     0.049 A 
ATOM     47  N   UNL     1       0.074  -9.130 -10.408  1.00  0.00    -0.248 NA
ATOM     48  C   UNL     1      -1.572  -9.391  -8.772  1.00  0.00     0.031 C 
ATOM     49  C   UNL     1      -0.832  -4.757 -10.569  1.00  0.00     0.029 A 
ATOM     50  N   UNL     1       0.392  -6.408 -11.450  1.00  0.00    -0.354 N 
ATOM     51  C   UNL     1       0.041 -10.456  -9.998  1.00  0.00     0.074 A 
ATOM     52  C   UNL     1      -0.956 -10.550  -8.953  1.00  0.00     0.031 C 
ATOM     53  C   UNL     1      -0.020  -4.210 -11.488  1.00  0.00     0.029 A 
ATOM     54  C   UNL     1       0.816  -5.258 -12.067  1.00  0.00     0.049 A 
ATOM     55  H   UNL     1       0.759  -7.298 -11.656  1.00  0.00     0.167 HD
ATOM     56  C   UNL     1       0.762 -11.503 -10.464  1.00  0.00     0.037 A 
ATOM     57  C   UNL     1       1.780  -5.066 -12.987  1.00  0.00     0.037 A 
ATOM     58  C   UNL     1       1.734 -11.413 -11.521  1.00  0.00     0.049 A 
ATOM     59  C   UNL     1       2.559  -6.243 -13.497  1.00  0.00     0.074 A 
ATOM     60  C   UNL     1       2.464 -12.431 -12.112  1.00  0.00     0.029 A 
ATOM     61  N   UNL     1       2.115 -10.235 -12.144  1.00  0.00    -0.354 N 
ATOM     62  N   UNL     1       2.472  -7.503 -13.147  1.00  0.00    -0.248 NA
ATOM     63  C   UNL     1       3.568  -5.973 -14.531  1.00  0.00     0.031 C 
ATOM     64  C   UNL     1       3.310 -11.862 -13.071  1.00  0.00     0.029 A 
ATOM     65  C   UNL     1       3.083 -10.495 -13.099  1.00  0.00     0.049 A 
ATOM     66  H   UNL     1       1.750  -9.344 -11.938  1.00  0.00     0.167 HD
ATOM     67  C   UNL     1       3.402  -8.179 -13.925  1.00  0.00     0.074 A 
ATOM     68  C   UNL     1       4.033  -7.191 -14.776  1.00  0.00     0.031 C 
ATOM     69  C   UNL     1       3.706  -9.499 -13.932  1.00  0.00     0.037 A 
BRANCH  56  70
ATOM     70  C   UNL     1       0.519 -12.839  -9.828  1.00  0.00     0.057 A 
ATOM     71  C   UNL     1      -0.657 -13.562 -10.062  1.00  0.00     0.134 A 
ATOM     72  C   UNL     1       1.477 -13.415  -8.984  1.00  0.00     0.134 A 
ATOM     73  F   UNL     1      -1.619 -13.058 -10.850  1.00  0.00    -0.206 F 
ATOM     74  C   UNL     1      -0.885 -14.800  -9.459  1.00  0.00     0.040 A 
ATOM     75  C   UNL     1       1.270 -14.663  -8.393  1.00  0.00     0.040 A 
ATOM     76  F   UNL     1       2.627 -12.776  -8.721  1.00  0.00    -0.206 F 
ATOM     77  C   UNL     1       0.083 -15.355  -8.624  1.00  0.00     0.006 A 
ENDBRANCH  56  70
BRANCH  57  78
ATOM     78  C   UNL     1       2.048  -3.698 -13.491  1.00  0.00     0.057 A 
ATOM     79  C   UNL     1       1.640  -3.308 -14.771  1.00  0.00     0.134 A 
ATOM     80  C   UNL     1       2.700  -2.745 -12.700  1.00  0.00     0.134 A 
ATOM     81  F   UNL     1       1.027  -4.185 -15.579  1.00  0.00    -0.206 F 
ATOM     82  C   UNL     1       1.877  -2.020 -15.251  1.00  0.00     0.040 A 
ATOM     83  C   UNL     1       2.927  -1.447 -13.160  1.00  0.00     0.040 A 
ATOM     84  F   UNL     1       3.107  -3.058 -11.461  1.00  0.00    -0.206 F 
ATOM     85  C   UNL     1       2.518  -1.083 -14.442  1.00  0.00     0.006 A 
ENDBRANCH  57  78
BRANCH  69  86
ATOM     86  C   UNL     1       4.762  -9.950 -14.895  1.00  0.00     0.057 A 
ATOM     87  C   UNL     1       6.121  -9.714 -14.655  1.00  0.00     0.134 A 
ATOM     88  C   UNL     1       4.419 -10.660 -16.052  1.00  0.00     0.134 A 
ATOM     89  F   UNL     1       6.511  -9.027 -13.570  1.00  0.00    -0.206 F 
ATOM     90  C   UNL     1       7.104 -10.158 -15.541  1.00  0.00     0.040 A 
ATOM     91  C   UNL     1       5.394 -11.125 -16.935  1.00  0.00     0.040 A 
ATOM     92  F   UNL     1       3.135 -10.922 -16.335  1.00  0.00    -0.206 F 
ATOM     93  C   UNL     1       6.741 -10.871 -16.682  1.00  0.00     0.006 A 
ENDBRANCH  69  86
ENDBRANCH  43  44
ENDBRANCH  35  38
ENDBRANCH  33  34
ENDBRANCH  32  33
ENDBRANCH  31  32
ENDBRANCH  30  31
ENDBRANCH   1  30
TORSDOF 17
