REMARK SMILES COc1cc(OC)cc(-c2ccc([C@@H](C)C(=O)NCCCCCCNC(=O)c3ccc(-c4c5nc(c(-c6c(F)cccc6F)c6ccc([nH]6)c(-c6c(F)cccc6F)c6nc(c(-c7c(F)cccc7F)c7ccc4[nH]7)C=C6)C=C5)cc3)cc2F)c1
REMARK SMILES IDX 21 1 20 2 19 3 18 4 16 5 17 6 14 8 15 9 13 10 10 11 11 12
REMARK SMILES IDX 83 13 12 14 82 15 84 16 9 17 3 18 4 19 85 20 5 21 8 22 2 23
REMARK SMILES IDX 1 24 6 25 7 26 22 27 23 28 24 29 25 30 26 31 27 33 28 34
REMARK SMILES IDX 29 35 81 36 30 37 80 38 31 39 32 40 33 41 74 42 34 43 79 44
REMARK SMILES IDX 73 45 75 46 35 47 78 48 72 49 71 50 36 52 62 53 45 54 61 55
REMARK SMILES IDX 46 56 49 57 60 58 76 59 47 60 48 61 59 63 77 64 50 65 37 66
REMARK SMILES IDX 38 67 43 68 39 69 40 70 42 71 44 72 41 73 63 74 64 75 69 76
REMARK SMILES IDX 65 77 66 78 68 79 70 80 67 81 51 82 52 83 57 84 53 85 54 86
REMARK SMILES IDX 56 87 58 88 55 89
REMARK H PARENT 18 7 25 32 75 51 49 62
REMARK Flexibility Score: inf
ROOT
ATOM      1  C   UNL     1       6.028  -7.817   0.806  1.00  0.00     0.002 C 
ENDROOT
BRANCH   1   2
ATOM      2  C   UNL     1       6.026  -6.836   1.983  1.00  0.00     0.021 C 
BRANCH   2   3
ATOM      3  C   UNL     1       7.356  -6.764   2.735  1.00  0.00     0.116 C 
BRANCH   3   4
ATOM      4  N   UNL     1       8.248  -5.779   2.160  1.00  0.00    -0.356 N 
ATOM      5  C   UNL     1       8.566  -4.512   2.542  1.00  0.00     0.227 C 
ATOM      6  O   UNL     1       9.314  -3.881   1.785  1.00  0.00    -0.274 OA
ATOM      7  H   UNL     1       8.709  -6.081   1.344  1.00  0.00     0.163 HD
BRANCH   5   8
ATOM      8  C   UNL     1       8.058  -3.857   3.834  1.00  0.00     0.105 C 
ATOM      9  C   UNL     1       8.478  -4.586   5.111  1.00  0.00     0.023 C 
BRANCH   8  10
ATOM     10  C   UNL     1       6.601  -3.426   3.759  1.00  0.00    -0.033 A 
ATOM     11  C   UNL     1       3.879  -2.574   3.490  1.00  0.00     0.018 A 
ATOM     12  C   UNL     1       4.215  -3.843   3.994  1.00  0.00     0.012 A 
ATOM     13  C   UNL     1       4.949  -1.743   3.131  1.00  0.00     0.131 A 
ATOM     14  C   UNL     1       5.544  -4.246   4.158  1.00  0.00     0.005 A 
ATOM     15  C   UNL     1       6.280  -2.160   3.244  1.00  0.00     0.044 A 
ATOM     16  F   UNL     1       4.724  -0.500   2.676  1.00  0.00    -0.206 F 
BRANCH  11  17
ATOM     17  C   UNL     1       2.460  -2.161   3.387  1.00  0.00    -0.008 A 
ATOM     18  C   UNL     1       0.629  -1.031   2.229  1.00  0.00     0.123 A 
ATOM     19  C   UNL     1      -0.251  -1.431   3.236  1.00  0.00     0.092 A 
ATOM     20  C   UNL     1       1.976  -1.400   2.305  1.00  0.00     0.055 A 
ATOM     21  C   UNL     1       0.193  -2.189   4.316  1.00  0.00     0.123 A 
ATOM     22  C   UNL     1       1.541  -2.538   4.388  1.00  0.00     0.055 A 
BRANCH  18  23
ATOM     23  O   UNL     1       0.053  -0.277   1.244  1.00  0.00    -0.497 OA
ATOM     24  C   UNL     1       0.837  -0.008   0.089  1.00  0.00     0.278 C 
ENDBRANCH  18  23
BRANCH  21  25
ATOM     25  O   UNL     1      -0.769  -2.527   5.228  1.00  0.00    -0.497 OA
ATOM     26  C   UNL     1      -0.347  -3.275   6.362  1.00  0.00     0.278 C 
ENDBRANCH  21  25
ENDBRANCH  11  17
ENDBRANCH   8  10
ENDBRANCH   5   8
ENDBRANCH   3   4
ENDBRANCH   2   3
ENDBRANCH   1   2
BRANCH   1  27
ATOM     27  C   UNL     1       6.239  -9.289   1.182  1.00  0.00     0.002 C 
BRANCH  27  28
ATOM     28  C   UNL     1       5.266  -9.854   2.222  1.00  0.00     0.021 C 
BRANCH  28  29
ATOM     29  C   UNL     1       3.794  -9.804   1.819  1.00  0.00     0.116 C 
BRANCH  29  30
ATOM     30  N   UNL     1       3.525 -10.615   0.643  1.00  0.00    -0.352 N 
ATOM     31  C   UNL     1       2.677 -11.681   0.483  1.00  0.00     0.251 C 
ATOM     32  H   UNL     1       4.030 -10.360  -0.163  1.00  0.00     0.163 HD
ATOM     33  O   UNL     1       2.751 -12.378  -0.524  1.00  0.00    -0.269 OA
BRANCH  31  34
ATOM     34  C   UNL     1       1.675 -12.003   1.523  1.00  0.00     0.039 A 
ATOM     35  C   UNL     1       1.471 -13.341   1.872  1.00  0.00     0.014 A 
ATOM     36  C   UNL     1       0.902 -10.999   2.115  1.00  0.00     0.014 A 
ATOM     37  C   UNL     1       0.529 -13.669   2.850  1.00  0.00     0.010 A 
ATOM     38  C   UNL     1       0.007 -11.321   3.134  1.00  0.00     0.010 A 
ATOM     39  C   UNL     1      -0.193 -12.659   3.506  1.00  0.00    -0.014 A 
BRANCH  39  40
ATOM     40  C   UNL     1      -1.172 -12.986   4.574  1.00  0.00     0.031 A 
ATOM     41  C   UNL     1      -2.637 -12.719   4.364  1.00  0.00     0.074 A 
ATOM     42  C   UNL     1      -0.736 -13.469   5.752  1.00  0.00     0.049 A 
ATOM     43  N   UNL     1      -3.633 -12.870   5.199  1.00  0.00    -0.248 NA
ATOM     44  C   UNL     1      -3.031 -12.189   3.049  1.00  0.00     0.031 C 
ATOM     45  C   UNL     1       0.663 -13.735   6.094  1.00  0.00     0.029 A 
ATOM     46  N   UNL     1      -1.426 -13.815   6.887  1.00  0.00    -0.354 N 
ATOM     47  C   UNL     1      -4.766 -12.443   4.519  1.00  0.00     0.074 A 
ATOM     48  C   UNL     1      -4.329 -11.981   3.219  1.00  0.00     0.031 C 
ATOM     49  C   UNL     1       0.725 -14.219   7.345  1.00  0.00     0.029 A 
ATOM     50  C   UNL     1      -0.622 -14.268   7.904  1.00  0.00     0.049 A 
ATOM     51  H   UNL     1      -2.405 -13.744   6.965  1.00  0.00     0.167 HD
ATOM     52  C   UNL     1      -6.056 -12.453   4.931  1.00  0.00     0.037 A 
ATOM     53  C   UNL     1      -0.936 -14.672   9.149  1.00  0.00     0.037 A 
ATOM     54  C   UNL     1      -6.494 -12.938   6.213  1.00  0.00     0.049 A 
ATOM     55  C   UNL     1      -2.376 -14.677   9.581  1.00  0.00     0.074 A 
ATOM     56  C   UNL     1      -7.784 -13.035   6.705  1.00  0.00     0.029 A 
ATOM     57  N   UNL     1      -5.651 -13.411   7.207  1.00  0.00    -0.354 N 
ATOM     58  N   UNL     1      -3.442 -14.319   8.907  1.00  0.00    -0.248 NA
ATOM     59  C   UNL     1      -2.657 -15.147  10.945  1.00  0.00     0.031 C 
ATOM     60  C   UNL     1      -7.719 -13.537   8.009  1.00  0.00     0.029 A 
ATOM     61  C   UNL     1      -6.392 -13.789   8.314  1.00  0.00     0.049 A 
ATOM     62  H   UNL     1      -4.671 -13.469   7.136  1.00  0.00     0.167 HD
ATOM     63  C   UNL     1      -4.520 -14.549   9.751  1.00  0.00     0.074 A 
ATOM     64  C   UNL     1      -3.981 -15.088  10.983  1.00  0.00     0.031 C 
ATOM     65  C   UNL     1      -5.839 -14.334   9.527  1.00  0.00     0.037 A 
BRANCH  52  66
ATOM     66  C   UNL     1      -7.091 -11.931   3.977  1.00  0.00     0.057 A 
ATOM     67  C   UNL     1      -7.458 -12.643   2.828  1.00  0.00     0.134 A 
ATOM     68  C   UNL     1      -7.753 -10.723   4.228  1.00  0.00     0.134 A 
ATOM     69  F   UNL     1      -6.853 -13.801   2.523  1.00  0.00    -0.206 F 
ATOM     70  C   UNL     1      -8.430 -12.161   1.950  1.00  0.00     0.040 A 
ATOM     71  C   UNL     1      -8.744 -10.243   3.371  1.00  0.00     0.040 A 
ATOM     72  F   UNL     1      -7.454  -9.995   5.314  1.00  0.00    -0.206 F 
ATOM     73  C   UNL     1      -9.081 -10.960   2.224  1.00  0.00     0.006 A 
ENDBRANCH  52  66
BRANCH  53  74
ATOM     74  C   UNL     1       0.130 -15.135  10.073  1.00  0.00     0.057 A 
ATOM     75  C   UNL     1       0.245 -16.486  10.420  1.00  0.00     0.134 A 
ATOM     76  C   UNL     1       1.046 -14.242  10.639  1.00  0.00     0.134 A 
ATOM     77  F   UNL     1      -0.616 -17.385   9.922  1.00  0.00    -0.206 F 
ATOM     78  C   UNL     1       1.220 -16.930  11.314  1.00  0.00     0.040 A 
ATOM     79  C   UNL     1       2.041 -14.676  11.517  1.00  0.00     0.040 A 
ATOM     80  F   UNL     1       0.993 -12.935  10.341  1.00  0.00    -0.206 F 
ATOM     81  C   UNL     1       2.124 -16.023  11.863  1.00  0.00     0.006 A 
ENDBRANCH  53  74
BRANCH  65  82
ATOM     82  C   UNL     1      -6.790 -14.718  10.621  1.00  0.00     0.057 A 
ATOM     83  C   UNL     1      -6.910 -13.964  11.795  1.00  0.00     0.134 A 
ATOM     84  C   UNL     1      -7.620 -15.838  10.482  1.00  0.00     0.134 A 
ATOM     85  F   UNL     1      -6.133 -12.888  11.994  1.00  0.00    -0.206 F 
ATOM     86  C   UNL     1      -7.806 -14.323  12.802  1.00  0.00     0.040 A 
ATOM     87  C   UNL     1      -8.537 -16.193  11.472  1.00  0.00     0.040 A 
ATOM     88  F   UNL     1      -7.560 -16.598   9.378  1.00  0.00    -0.206 F 
ATOM     89  C   UNL     1      -8.627 -15.438  12.639  1.00  0.00     0.006 A 
ENDBRANCH  65  82
ENDBRANCH  39  40
ENDBRANCH  31  34
ENDBRANCH  29  30
ENDBRANCH  28  29
ENDBRANCH  27  28
ENDBRANCH   1  27
TORSDOF 17
