REMARK SMILES C[C@@H](C(=O)NCCCCCCNC(=O)c1ccc(-c2c3nc(c(-c4c(F)cccc4F)c4ccc([nH]4)c(-c4c(F)cccc4F)c4nc(c(-c5c(F)cccc5F)c5ccc2[nH]5)C=C4)C=C3)cc1)c1ccc(C[C@H]2CCCC2=O)c(Br)c1
REMARK SMILES IDX 8 1 7 2 6 3 5 4 3 5 4 6 2 8 1 9 69 10 70 11 82 12 71 13
REMARK SMILES IDX 80 14 72 15 81 16 73 17 74 18 75 19 78 20 76 21 77 22 79 23
REMARK SMILES IDX 9 24 10 25 11 26 12 27 13 28 14 30 15 31 16 32 68 33 17 34
REMARK SMILES IDX 67 35 18 36 19 37 20 38 61 39 21 40 66 41 60 42 62 43 22 44
REMARK SMILES IDX 65 45 59 46 58 47 23 49 49 50 32 51 48 52 33 53 36 54 47 55
REMARK SMILES IDX 63 56 34 57 35 58 46 60 64 61 37 62 24 63 25 64 30 65 26 66
REMARK SMILES IDX 27 67 29 68 31 69 28 70 50 71 51 72 56 73 52 74 53 75 55 76
REMARK SMILES IDX 57 77 54 78 38 79 39 80 44 81 40 82 41 83 43 84 45 85 42 86
REMARK H PARENT 5 7 12 29 62 48 36 59
REMARK Flexibility Score: inf
ROOT
ATOM      1  C   UNL     1       5.053  -1.774   2.308  1.00  0.00     0.002 C 
ENDROOT
BRANCH   1   2
ATOM      2  C   UNL     1       4.326  -1.079   1.149  1.00  0.00     0.021 C 
BRANCH   2   3
ATOM      3  C   UNL     1       3.483  -2.025   0.287  1.00  0.00     0.116 C 
BRANCH   3   4
ATOM      4  N   UNL     1       2.366  -2.530   1.058  1.00  0.00    -0.356 N 
ATOM      5  C   UNL     1       1.071  -2.100   1.095  1.00  0.00     0.227 C 
ATOM      6  O   UNL     1       0.396  -2.469   2.058  1.00  0.00    -0.274 OA
ATOM      7  H   UNL     1       2.571  -3.296   1.641  1.00  0.00     0.163 HD
BRANCH   5   8
ATOM      8  C   UNL     1       0.511  -1.239  -0.057  1.00  0.00     0.105 C 
ATOM      9  C   UNL     1       1.027   0.200   0.081  1.00  0.00     0.023 C 
BRANCH   8  10
ATOM     10  C   UNL     1      -1.019  -1.320  -0.153  1.00  0.00    -0.035 A 
ATOM     11  C   UNL     1      -1.820  -0.188  -0.336  1.00  0.00     0.005 A 
ATOM     12  C   UNL     1      -1.670  -2.564  -0.064  1.00  0.00     0.020 A 
ATOM     13  C   UNL     1      -3.211  -0.282  -0.324  1.00  0.00     0.005 A 
ATOM     14  C   UNL     1      -3.069  -2.656  -0.013  1.00  0.00     0.021 A 
ATOM     15  C   UNL     1      -3.862  -1.503  -0.094  1.00  0.00    -0.033 A 
ATOM     16  Br  UNL     1      -3.802  -4.399   0.190  1.00  0.00    -0.051 Br
BRANCH  15  17
ATOM     17  C   UNL     1      -5.363  -1.479   0.090  1.00  0.00     0.048 C 
BRANCH  17  18
ATOM     18  C   UNL     1      -5.873  -0.929   1.434  1.00  0.00     0.060 C 
ATOM     19  C   UNL     1      -5.342  -1.600   2.705  1.00  0.00     0.012 C 
ATOM     20  C   UNL     1      -5.492   0.517   1.666  1.00  0.00     0.136 C 
ATOM     21  C   UNL     1      -4.201  -0.725   3.211  1.00  0.00     0.009 C 
ATOM     22  C   UNL     1      -4.598   0.702   2.864  1.00  0.00     0.076 C 
ATOM     23  O   UNL     1      -5.878   1.444   0.962  1.00  0.00    -0.299 OA
ENDBRANCH  17  18
ENDBRANCH  15  17
ENDBRANCH   8  10
ENDBRANCH   5   8
ENDBRANCH   3   4
ENDBRANCH   2   3
ENDBRANCH   1   2
BRANCH   1  24
ATOM     24  C   UNL     1       6.022  -2.882   1.887  1.00  0.00     0.002 C 
BRANCH  24  25
ATOM     25  C   UNL     1       7.071  -2.454   0.860  1.00  0.00     0.021 C 
BRANCH  25  26
ATOM     26  C   UNL     1       7.967  -1.313   1.323  1.00  0.00     0.116 C 
BRANCH  26  27
ATOM     27  N   UNL     1       8.824  -1.708   2.431  1.00  0.00    -0.352 N 
ATOM     28  C   UNL     1      10.190  -1.615   2.532  1.00  0.00     0.251 C 
ATOM     29  H   UNL     1       8.363  -2.094   3.211  1.00  0.00     0.163 HD
ATOM     30  O   UNL     1      10.794  -2.168   3.444  1.00  0.00    -0.269 OA
BRANCH  28  31
ATOM     31  C   UNL     1      10.929  -0.851   1.508  1.00  0.00     0.039 A 
ATOM     32  C   UNL     1      12.034  -1.433   0.882  1.00  0.00     0.014 A 
ATOM     33  C   UNL     1      10.498   0.429   1.147  1.00  0.00     0.014 A 
ATOM     34  C   UNL     1      12.672  -0.754  -0.157  1.00  0.00     0.010 A 
ATOM     35  C   UNL     1      11.088   1.070   0.066  1.00  0.00     0.010 A 
ATOM     36  C   UNL     1      12.183   0.487  -0.594  1.00  0.00    -0.014 A 
BRANCH  36  37
ATOM     37  C   UNL     1      12.796   1.219  -1.729  1.00  0.00     0.031 A 
ATOM     38  C   UNL     1      13.412   2.567  -1.492  1.00  0.00     0.074 A 
ATOM     39  C   UNL     1      12.691   0.732  -2.979  1.00  0.00     0.049 A 
ATOM     40  N   UNL     1      13.838   3.448  -2.359  1.00  0.00    -0.248 NA
ATOM     41  C   UNL     1      13.525   2.996  -0.089  1.00  0.00     0.031 C 
ATOM     42  C   UNL     1      12.077  -0.546  -3.342  1.00  0.00     0.029 A 
ATOM     43  N   UNL     1      13.070   1.274  -4.182  1.00  0.00    -0.354 N 
ATOM     44  C   UNL     1      14.239   4.547  -1.610  1.00  0.00     0.074 A 
ATOM     45  C   UNL     1      13.959   4.240  -0.224  1.00  0.00     0.031 C 
ATOM     46  C   UNL     1      12.116  -0.687  -4.676  1.00  0.00     0.029 A 
ATOM     47  C   UNL     1      12.716   0.507  -5.265  1.00  0.00     0.049 A 
ATOM     48  H   UNL     1      13.549   2.131  -4.261  1.00  0.00     0.167 HD
ATOM     49  C   UNL     1      14.802   5.702  -2.038  1.00  0.00     0.037 A 
ATOM     50  C   UNL     1      12.836   0.750  -6.584  1.00  0.00     0.037 A 
ATOM     51  C   UNL     1      15.100   5.987  -3.416  1.00  0.00     0.049 A 
ATOM     52  C   UNL     1      13.467   2.035  -7.043  1.00  0.00     0.074 A 
ATOM     53  C   UNL     1      15.739   7.092  -3.948  1.00  0.00     0.029 A 
ATOM     54  N   UNL     1      14.772   5.161  -4.481  1.00  0.00    -0.354 N 
ATOM     55  N   UNL     1      13.905   3.039  -6.323  1.00  0.00    -0.248 NA
ATOM     56  C   UNL     1      13.625   2.220  -8.492  1.00  0.00     0.031 C 
ATOM     57  C   UNL     1      15.752   6.959  -5.340  1.00  0.00     0.029 A 
ATOM     58  C   UNL     1      15.171   5.745  -5.672  1.00  0.00     0.049 A 
ATOM     59  H   UNL     1      14.322   4.289  -4.403  1.00  0.00     0.167 HD
ATOM     60  C   UNL     1      14.417   3.962  -7.226  1.00  0.00     0.074 A 
ATOM     61  C   UNL     1      14.235   3.398  -8.548  1.00  0.00     0.031 C 
ATOM     62  C   UNL     1      14.992   5.165  -6.980  1.00  0.00     0.037 A 
BRANCH  49  63
ATOM     63  C   UNL     1      15.111   6.741  -1.000  1.00  0.00     0.057 A 
ATOM     64  C   UNL     1      16.107   6.553  -0.031  1.00  0.00     0.134 A 
ATOM     65  C   UNL     1      14.399   7.947  -0.965  1.00  0.00     0.134 A 
ATOM     66  F   UNL     1      16.819   5.416  -0.000  1.00  0.00    -0.206 F 
ATOM     67  C   UNL     1      16.351   7.504   0.961  1.00  0.00     0.040 A 
ATOM     68  C   UNL     1      14.656   8.920   0.002  1.00  0.00     0.040 A 
ATOM     69  F   UNL     1      13.438   8.198  -1.867  1.00  0.00    -0.206 F 
ATOM     70  C   UNL     1      15.626   8.694   0.976  1.00  0.00     0.006 A 
ENDBRANCH  49  63
BRANCH  50  71
ATOM     71  C   UNL     1      12.351  -0.260  -7.557  1.00  0.00     0.057 A 
ATOM     72  C   UNL     1      13.247  -1.045  -8.291  1.00  0.00     0.134 A 
ATOM     73  C   UNL     1      10.983  -0.494  -7.744  1.00  0.00     0.134 A 
ATOM     74  F   UNL     1      14.568  -0.856  -8.165  1.00  0.00    -0.206 F 
ATOM     75  C   UNL     1      12.801  -2.025  -9.179  1.00  0.00     0.040 A 
ATOM     76  C   UNL     1      10.523  -1.486  -8.613  1.00  0.00     0.040 A 
ATOM     77  F   UNL     1      10.074   0.218  -7.062  1.00  0.00    -0.206 F 
ATOM     78  C   UNL     1      11.435  -2.253  -9.335  1.00  0.00     0.006 A 
ENDBRANCH  50  71
BRANCH  62  79
ATOM     79  C   UNL     1      15.509   5.944  -8.153  1.00  0.00     0.057 A 
ATOM     80  C   UNL     1      14.652   6.622  -9.027  1.00  0.00     0.134 A 
ATOM     81  C   UNL     1      16.888   6.090  -8.352  1.00  0.00     0.134 A 
ATOM     82  F   UNL     1      13.322   6.513  -8.897  1.00  0.00    -0.206 F 
ATOM     83  C   UNL     1      15.149   7.416 -10.063  1.00  0.00     0.040 A 
ATOM     84  C   UNL     1      17.397   6.899  -9.368  1.00  0.00     0.040 A 
ATOM     85  F   UNL     1      17.762   5.472  -7.543  1.00  0.00    -0.206 F 
ATOM     86  C   UNL     1      16.526   7.565 -10.227  1.00  0.00     0.006 A 
ENDBRANCH  62  79
ENDBRANCH  36  37
ENDBRANCH  28  31
ENDBRANCH  26  27
ENDBRANCH  25  26
ENDBRANCH  24  25
ENDBRANCH   1  24
TORSDOF 16
