REMARK SMILES C[C@H](CC(=O)NCCCCCCNC(=O)c1ccc(-c2c3nc(c(-c4c(F)cccc4F)c4ccc([nH]4)c(-c4c(F)cccc4F)c4nc(c(-c5c(F)cccc5F)c5ccc2[nH]5)C=C4)C=C3)cc1)NC(=O)Cn1nc2ccccn2c1=O
REMARK SMILES IDX 8 1 7 2 6 3 4 4 5 5 3 7 2 8 1 9 70 10 71 11 72 13 73 14
REMARK SMILES IDX 74 15 75 16 82 17 76 18 81 19 83 20 77 21 80 22 78 23 79 24
REMARK SMILES IDX 9 25 10 26 11 27 12 28 13 29 14 30 15 32 16 33 17 34 69 35
REMARK SMILES IDX 18 36 68 37 19 38 20 39 21 40 62 41 22 42 67 43 61 44 63 45
REMARK SMILES IDX 23 46 66 47 60 48 59 49 24 51 50 52 33 53 49 54 34 55 37 56
REMARK SMILES IDX 48 57 64 58 35 59 36 60 47 62 65 63 38 64 25 65 26 66 31 67
REMARK SMILES IDX 27 68 28 69 30 70 32 71 29 72 51 73 52 74 57 75 53 76 54 77
REMARK SMILES IDX 56 78 58 79 55 80 39 81 40 82 45 83 41 84 42 85 44 86 46 87
REMARK SMILES IDX 43 88
REMARK H PARENT 6 6 70 12 13 31 63 50 37 61
REMARK Flexibility Score: inf
ROOT
ATOM      1  C   UNL     1      -1.032   1.842  -2.849  1.00  0.00     0.021 C 
ENDROOT
BRANCH   1   2
ATOM      2  C   UNL     1      -0.647   0.408  -2.475  1.00  0.00     0.116 C 
BRANCH   2   3
ATOM      3  N   UNL     1       0.792   0.242  -2.431  1.00  0.00    -0.356 N 
ATOM      4  C   UNL     1       1.630   0.145  -1.364  1.00  0.00     0.222 C 
ATOM      5  O   UNL     1       2.842   0.077  -1.577  1.00  0.00    -0.275 OA
ATOM      6  H   UNL     1       1.231   0.191  -3.310  1.00  0.00     0.163 HD
BRANCH   4   7
ATOM      7  C   UNL     1       1.088   0.105   0.049  1.00  0.00     0.124 C 
BRANCH   7   8
ATOM      8  C   UNL     1       0.716   1.452   0.692  1.00  0.00     0.088 C 
ATOM      9  C   UNL     1       1.351   2.684   0.051  1.00  0.00     0.031 C 
BRANCH   8  10
ATOM     10  N   UNL     1      -0.737   1.613   0.778  1.00  0.00    -0.352 N 
ATOM     11  C   UNL     1      -1.596   1.508   1.833  1.00  0.00     0.242 C 
ATOM     12  H   UNL     1      -1.171   1.837  -0.077  1.00  0.00     0.163 HD
ATOM     13  O   UNL     1      -2.782   1.771   1.595  1.00  0.00    -0.273 OA
BRANCH  11  14
ATOM     14  C   UNL     1      -1.134   1.308   3.280  1.00  0.00     0.249 C 
BRANCH  14  15
ATOM     15  N   UNL     1      -0.103   0.328   3.492  1.00  0.00    -0.203 N 
ATOM     16  N   UNL     1       0.967   0.546   4.340  1.00  0.00    -0.149 NA
ATOM     17  C   UNL     1      -0.122  -1.005   3.059  1.00  0.00     0.350 A 
ATOM     18  C   UNL     1       1.605  -0.582   4.309  1.00  0.00     0.161 A 
ATOM     19  N   UNL     1       1.045  -1.543   3.536  1.00  0.00    -0.250 N 
ATOM     20  O   UNL     1      -0.964  -1.541   2.350  1.00  0.00    -0.246 OA
ATOM     21  C   UNL     1       2.879  -0.903   4.984  1.00  0.00     0.050 A 
ATOM     22  C   UNL     1       1.630  -2.744   3.250  1.00  0.00     0.098 A 
ATOM     23  C   UNL     1       3.552  -1.953   4.478  1.00  0.00     0.005 A 
ATOM     24  C   UNL     1       2.881  -2.961   3.678  1.00  0.00     0.019 A 
ENDBRANCH  14  15
ENDBRANCH  11  14
ENDBRANCH   8  10
ENDBRANCH   7   8
ENDBRANCH   4   7
ENDBRANCH   2   3
ENDBRANCH   1   2
BRANCH   1  25
ATOM     25  C   UNL     1      -0.591   2.266  -4.255  1.00  0.00     0.002 C 
BRANCH  25  26
ATOM     26  C   UNL     1      -1.231   1.466  -5.393  1.00  0.00     0.002 C 
BRANCH  26  27
ATOM     27  C   UNL     1      -2.762   1.467  -5.394  1.00  0.00     0.021 C 
BRANCH  27  28
ATOM     28  C   UNL     1      -3.397   2.853  -5.471  1.00  0.00     0.116 C 
BRANCH  28  29
ATOM     29  N   UNL     1      -3.074   3.529  -6.717  1.00  0.00    -0.352 N 
ATOM     30  C   UNL     1      -3.909   4.061  -7.665  1.00  0.00     0.251 C 
ATOM     31  H   UNL     1      -2.112   3.617  -6.908  1.00  0.00     0.163 HD
ATOM     32  O   UNL     1      -3.460   4.391  -8.759  1.00  0.00    -0.269 OA
BRANCH  30  33
ATOM     33  C   UNL     1      -5.351   4.226  -7.383  1.00  0.00     0.039 A 
ATOM     34  C   UNL     1      -6.269   3.911  -8.388  1.00  0.00     0.014 A 
ATOM     35  C   UNL     1      -5.802   4.714  -6.153  1.00  0.00     0.014 A 
ATOM     36  C   UNL     1      -7.636   4.038  -8.142  1.00  0.00     0.010 A 
ATOM     37  C   UNL     1      -7.168   4.769  -5.883  1.00  0.00     0.010 A 
ATOM     38  C   UNL     1      -8.100   4.437  -6.876  1.00  0.00    -0.014 A 
BRANCH  38  39
ATOM     39  C   UNL     1      -9.557   4.479  -6.590  1.00  0.00     0.031 A 
ATOM     40  C   UNL     1     -10.247   5.777  -6.278  1.00  0.00     0.074 A 
ATOM     41  C   UNL     1     -10.257   3.327  -6.587  1.00  0.00     0.049 A 
ATOM     42  N   UNL     1     -11.516   6.001  -6.044  1.00  0.00    -0.248 NA
ATOM     43  C   UNL     1      -9.402   6.978  -6.195  1.00  0.00     0.031 C 
ATOM     44  C   UNL     1      -9.690   1.995  -6.808  1.00  0.00     0.029 A 
ATOM     45  N   UNL     1     -11.595   3.091  -6.396  1.00  0.00    -0.354 N 
ATOM     46  C   UNL     1     -11.621   7.361  -5.783  1.00  0.00     0.074 A 
ATOM     47  C   UNL     1     -10.280   7.902  -5.831  1.00  0.00     0.031 C 
ATOM     48  C   UNL     1     -10.678   1.087  -6.778  1.00  0.00     0.029 A 
ATOM     49  C   UNL     1     -11.940   1.766  -6.503  1.00  0.00     0.049 A 
ATOM     50  H   UNL     1     -12.245   3.804  -6.201  1.00  0.00     0.167 HD
ATOM     51  C   UNL     1     -12.735   8.096  -5.549  1.00  0.00     0.037 A 
ATOM     52  C   UNL     1     -13.139   1.164  -6.396  1.00  0.00     0.037 A 
ATOM     53  C   UNL     1     -14.069   7.555  -5.513  1.00  0.00     0.049 A 
ATOM     54  C   UNL     1     -14.360   2.002  -6.144  1.00  0.00     0.074 A 
ATOM     55  C   UNL     1     -15.269   8.228  -5.352  1.00  0.00     0.029 A 
ATOM     56  N   UNL     1     -14.381   6.208  -5.629  1.00  0.00    -0.354 N 
ATOM     57  N   UNL     1     -14.455   3.301  -5.993  1.00  0.00    -0.248 NA
ATOM     58  C   UNL     1     -15.643   1.292  -6.057  1.00  0.00     0.031 C 
ATOM     59  C   UNL     1     -16.300   7.282  -5.316  1.00  0.00     0.029 A 
ATOM     60  C   UNL     1     -15.750   6.026  -5.512  1.00  0.00     0.049 A 
ATOM     61  H   UNL     1     -13.725   5.488  -5.774  1.00  0.00     0.167 HD
ATOM     62  C   UNL     1     -15.806   3.566  -5.812  1.00  0.00     0.074 A 
ATOM     63  C   UNL     1     -16.495   2.294  -5.901  1.00  0.00     0.031 C 
ATOM     64  C   UNL     1     -16.422   4.753  -5.589  1.00  0.00     0.037 A 
BRANCH  51  65
ATOM     65  C   UNL     1     -12.557   9.570  -5.312  1.00  0.00     0.057 A 
ATOM     66  C   UNL     1     -12.161  10.442  -6.335  1.00  0.00     0.134 A 
ATOM     67  C   UNL     1     -12.823  10.130  -4.056  1.00  0.00     0.134 A 
ATOM     68  F   UNL     1     -11.881   9.972  -7.560  1.00  0.00    -0.206 F 
ATOM     69  C   UNL     1     -12.008  11.812  -6.110  1.00  0.00     0.040 A 
ATOM     70  C   UNL     1     -12.702  11.502  -3.827  1.00  0.00     0.040 A 
ATOM     71  F   UNL     1     -13.214   9.356  -3.033  1.00  0.00    -0.206 F 
ATOM     72  C   UNL     1     -12.287  12.346  -4.854  1.00  0.00     0.006 A 
ENDBRANCH  51  65
BRANCH  52  73
ATOM     73  C   UNL     1     -13.245  -0.309  -6.555  1.00  0.00     0.057 A 
ATOM     74  C   UNL     1     -13.877  -0.875  -7.669  1.00  0.00     0.134 A 
ATOM     75  C   UNL     1     -12.720  -1.185  -5.598  1.00  0.00     0.134 A 
ATOM     76  F   UNL     1     -14.415  -0.087  -8.611  1.00  0.00    -0.206 F 
ATOM     77  C   UNL     1     -14.000  -2.257  -7.816  1.00  0.00     0.040 A 
ATOM     78  C   UNL     1     -12.811  -2.570  -5.745  1.00  0.00     0.040 A 
ATOM     79  F   UNL     1     -12.095  -0.706  -4.512  1.00  0.00    -0.206 F 
ATOM     80  C   UNL     1     -13.460  -3.109  -6.854  1.00  0.00     0.006 A 
ENDBRANCH  52  73
BRANCH  64  81
ATOM     81  C   UNL     1     -17.916   4.728  -5.440  1.00  0.00     0.057 A 
ATOM     82  C   UNL     1     -18.539   4.163  -4.319  1.00  0.00     0.134 A 
ATOM     83  C   UNL     1     -18.743   5.283  -6.426  1.00  0.00     0.134 A 
ATOM     84  F   UNL     1     -17.806   3.603  -3.344  1.00  0.00    -0.206 F 
ATOM     85  C   UNL     1     -19.929   4.120  -4.200  1.00  0.00     0.040 A 
ATOM     86  C   UNL     1     -20.133   5.273  -6.303  1.00  0.00     0.040 A 
ATOM     87  F   UNL     1     -18.213   5.848  -7.521  1.00  0.00    -0.206 F 
ATOM     88  C   UNL     1     -20.730   4.681  -5.192  1.00  0.00     0.006 A 
ENDBRANCH  64  81
ENDBRANCH  38  39
ENDBRANCH  30  33
ENDBRANCH  28  29
ENDBRANCH  27  28
ENDBRANCH  26  27
ENDBRANCH  25  26
ENDBRANCH   1  25
TORSDOF 17
