REMARK SMILES C[C@H](C(=O)NCCCCCCNC(=O)c1ccc(-c2c3nc(c(-c4c(F)cccc4F)c4ccc([nH]4)c(-c4c(F)cccc4F)c4nc(c(-c5c(F)cccc5F)c5ccc2[nH]5)C=C4)C=C3)cc1)N1C(=O)C[C@@H](N2C(=O)/C(=C/c3ccccc3)SC2=S)C1=O
REMARK SMILES IDX 8 1 7 2 6 3 5 4 3 5 4 6 2 8 1 9 69 10 70 11 88 12 71 13
REMARK SMILES IDX 72 14 73 15 89 16 74 17 75 18 86 19 76 20 77 21 85 22 87 23
REMARK SMILES IDX 78 24 79 25 80 26 84 27 81 28 83 29 82 30 9 31 10 32 11 33
REMARK SMILES IDX 12 34 13 35 14 37 15 38 16 39 68 40 17 41 67 42 18 43 19 44
REMARK SMILES IDX 20 45 61 46 21 47 66 48 60 49 62 50 22 51 65 52 59 53 58 54
REMARK SMILES IDX 23 56 49 57 32 58 48 59 33 60 36 61 47 62 63 63 34 64 35 65
REMARK SMILES IDX 46 67 64 68 37 69 24 70 25 71 30 72 26 73 27 74 29 75 31 76
REMARK SMILES IDX 28 77 50 78 51 79 56 80 52 81 53 82 55 83 57 84 54 85 38 86
REMARK SMILES IDX 39 87 44 88 40 89 41 90 43 91 45 92 42 93
REMARK H PARENT 5 7 12 36 62 55 36 66
REMARK Flexibility Score: inf
ROOT
ATOM      1  C   UNL     1      -0.953   3.784  -1.138  1.00  0.00     0.002 C 
ENDROOT
BRANCH   1   2
ATOM      2  C   UNL     1      -1.182   2.602  -0.194  1.00  0.00     0.021 C 
BRANCH   2   3
ATOM      3  C   UNL     1      -0.884   1.251  -0.836  1.00  0.00     0.116 C 
BRANCH   3   4
ATOM      4  N   UNL     1       0.483   0.829  -0.645  1.00  0.00    -0.354 N 
ATOM      5  C   UNL     1       1.062  -0.125   0.125  1.00  0.00     0.243 C 
ATOM      6  O   UNL     1       2.287  -0.242  -0.030  1.00  0.00    -0.273 OA
ATOM      7  H   UNL     1       1.128   1.339  -1.186  1.00  0.00     0.163 HD
BRANCH   5   8
ATOM      8  C   UNL     1       0.371  -0.952   1.245  1.00  0.00     0.179 C 
ATOM      9  C   UNL     1       0.945  -0.523   2.597  1.00  0.00     0.042 C 
BRANCH   8  10
ATOM     10  N   UNL     1      -1.084  -1.110   1.266  1.00  0.00    -0.268 N 
ATOM     11  C   UNL     1      -1.984  -0.212   1.769  1.00  0.00     0.232 C 
ATOM     12  C   UNL     1      -1.702  -2.230   0.778  1.00  0.00     0.253 C 
ATOM     13  O   UNL     1      -1.743   0.803   2.398  1.00  0.00    -0.274 OA
ATOM     14  C   UNL     1      -3.372  -0.604   1.335  1.00  0.00     0.136 C 
ATOM     15  C   UNL     1      -3.205  -2.050   0.908  1.00  0.00     0.191 C 
ATOM     16  O   UNL     1      -1.168  -3.238   0.336  1.00  0.00    -0.272 OA
BRANCH  15  17
ATOM     17  N   UNL     1      -3.895  -2.445  -0.329  1.00  0.00    -0.280 N 
ATOM     18  C   UNL     1      -3.443  -1.960  -1.543  1.00  0.00     0.266 C 
ATOM     19  C   UNL     1      -5.022  -3.236  -0.385  1.00  0.00     0.149 C 
ATOM     20  O   UNL     1      -2.555  -1.133  -1.692  1.00  0.00    -0.268 OA
ATOM     21  C   UNL     1      -4.208  -2.542  -2.670  1.00  0.00     0.081 C 
ATOM     22  S   UNL     1      -5.485  -3.509  -2.062  1.00  0.00    -0.054 SA
ATOM     23  S   UNL     1      -5.910  -3.844   0.888  1.00  0.00    -0.052 S 
ATOM     24  C   UNL     1      -3.861  -2.298  -3.941  1.00  0.00     0.029 C 
BRANCH  24  25
ATOM     25  C   UNL     1      -4.554  -2.777  -5.140  1.00  0.00    -0.024 A 
ATOM     26  C   UNL     1      -3.858  -3.532  -6.091  1.00  0.00     0.008 A 
ATOM     27  C   UNL     1      -5.891  -2.437  -5.381  1.00  0.00     0.008 A 
ATOM     28  C   UNL     1      -4.502  -3.968  -7.252  1.00  0.00     0.001 A 
ATOM     29  C   UNL     1      -6.533  -2.875  -6.539  1.00  0.00     0.001 A 
ATOM     30  C   UNL     1      -5.840  -3.643  -7.472  1.00  0.00     0.000 A 
ENDBRANCH  24  25
ENDBRANCH  15  17
ENDBRANCH   8  10
ENDBRANCH   5   8
ENDBRANCH   3   4
ENDBRANCH   2   3
ENDBRANCH   1   2
BRANCH   1  31
ATOM     31  C   UNL     1      -1.833   3.785  -2.397  1.00  0.00     0.002 C 
BRANCH  31  32
ATOM     32  C   UNL     1      -3.342   3.734  -2.139  1.00  0.00     0.021 C 
BRANCH  32  33
ATOM     33  C   UNL     1      -3.880   4.912  -1.333  1.00  0.00     0.116 C 
BRANCH  33  34
ATOM     34  N   UNL     1      -3.647   6.178  -2.013  1.00  0.00    -0.352 N 
ATOM     35  C   UNL     1      -4.549   7.103  -2.473  1.00  0.00     0.251 C 
ATOM     36  H   UNL     1      -2.701   6.404  -2.166  1.00  0.00     0.163 HD
ATOM     37  O   UNL     1      -4.194   7.984  -3.248  1.00  0.00    -0.269 OA
BRANCH  35  38
ATOM     38  C   UNL     1      -5.958   7.029  -2.036  1.00  0.00     0.039 A 
ATOM     39  C   UNL     1      -6.973   7.208  -2.978  1.00  0.00     0.014 A 
ATOM     40  C   UNL     1      -6.272   6.796  -0.695  1.00  0.00     0.014 A 
ATOM     41  C   UNL     1      -8.307   7.088  -2.585  1.00  0.00     0.010 A 
ATOM     42  C   UNL     1      -7.597   6.602  -0.320  1.00  0.00     0.010 A 
ATOM     43  C   UNL     1      -8.627   6.746  -1.261  1.00  0.00    -0.014 A 
BRANCH  43  44
ATOM     44  C   UNL     1     -10.033   6.522  -0.841  1.00  0.00     0.031 A 
ATOM     45  C   UNL     1     -10.663   7.409   0.196  1.00  0.00     0.074 A 
ATOM     46  C   UNL     1     -10.712   5.470  -1.337  1.00  0.00     0.049 A 
ATOM     47  N   UNL     1     -11.843   7.317   0.754  1.00  0.00    -0.248 NA
ATOM     48  C   UNL     1      -9.850   8.532   0.690  1.00  0.00     0.031 C 
ATOM     49  C   UNL     1     -10.192   4.512  -2.316  1.00  0.00     0.029 A 
ATOM     50  N   UNL     1     -11.982   5.019  -1.076  1.00  0.00    -0.354 N 
ATOM     51  C   UNL     1     -11.908   8.357   1.673  1.00  0.00     0.074 A 
ATOM     52  C   UNL     1     -10.631   9.036   1.635  1.00  0.00     0.031 C 
ATOM     53  C   UNL     1     -11.139   3.599  -2.584  1.00  0.00     0.029 A 
ATOM     54  C   UNL     1     -12.314   3.878  -1.765  1.00  0.00     0.049 A 
ATOM     55  H   UNL     1     -12.597   5.471  -0.454  1.00  0.00     0.167 HD
ATOM     56  C   UNL     1     -12.946   8.724   2.461  1.00  0.00     0.037 A 
ATOM     57  C   UNL     1     -13.433   3.130  -1.727  1.00  0.00     0.037 A 
ATOM     58  C   UNL     1     -14.221   8.056   2.479  1.00  0.00     0.049 A 
ATOM     59  C   UNL     1     -14.562   3.546  -0.825  1.00  0.00     0.074 A 
ATOM     60  C   UNL     1     -15.358   8.392   3.192  1.00  0.00     0.029 A 
ATOM     61  N   UNL     1     -14.523   6.910   1.759  1.00  0.00    -0.354 N 
ATOM     62  N   UNL     1     -14.639   4.579  -0.020  1.00  0.00    -0.248 NA
ATOM     63  C   UNL     1     -15.761   2.695  -0.825  1.00  0.00     0.031 C 
ATOM     64  C   UNL     1     -16.329   7.415   2.950  1.00  0.00     0.029 A 
ATOM     65  C   UNL     1     -15.818   6.505   2.038  1.00  0.00     0.049 A 
ATOM     66  H   UNL     1     -13.908   6.452   1.141  1.00  0.00     0.167 HD
ATOM     67  C   UNL     1     -15.901   4.518   0.558  1.00  0.00     0.074 A 
ATOM     68  C   UNL     1     -16.561   3.356  -0.001  1.00  0.00     0.031 C 
ATOM     69  C   UNL     1     -16.463   5.349   1.470  1.00  0.00     0.037 A 
BRANCH  56  70
ATOM     70  C   UNL     1     -12.746   9.899   3.376  1.00  0.00     0.057 A 
ATOM     71  C   UNL     1     -12.623  11.207   2.888  1.00  0.00     0.134 A 
ATOM     72  C   UNL     1     -12.723   9.725   4.766  1.00  0.00     0.134 A 
ATOM     73  F   UNL     1     -12.627  11.444   1.568  1.00  0.00    -0.206 F 
ATOM     74  C   UNL     1     -12.458  12.295   3.748  1.00  0.00     0.040 A 
ATOM     75  C   UNL     1     -12.589  10.808   5.636  1.00  0.00     0.040 A 
ATOM     76  F   UNL     1     -12.843   8.501   5.302  1.00  0.00    -0.206 F 
ATOM     77  C   UNL     1     -12.449  12.097   5.127  1.00  0.00     0.006 A 
ENDBRANCH  56  70
BRANCH  57  78
ATOM     78  C   UNL     1     -13.545   1.911  -2.570  1.00  0.00     0.057 A 
ATOM     79  C   UNL     1     -14.450   1.849  -3.636  1.00  0.00     0.134 A 
ATOM     80  C   UNL     1     -12.764   0.776  -2.323  1.00  0.00     0.134 A 
ATOM     81  F   UNL     1     -15.239   2.898  -3.914  1.00  0.00    -0.206 F 
ATOM     82  C   UNL     1     -14.594   0.695  -4.408  1.00  0.00     0.040 A 
ATOM     83  C   UNL     1     -12.877  -0.375  -3.105  1.00  0.00     0.040 A 
ATOM     84  F   UNL     1     -11.869   0.773  -1.324  1.00  0.00    -0.206 F 
ATOM     85  C   UNL     1     -13.802  -0.420  -4.145  1.00  0.00     0.006 A 
ENDBRANCH  57  78
BRANCH  69  86
ATOM     86  C   UNL     1     -17.871   5.053   1.897  1.00  0.00     0.057 A 
ATOM     87  C   UNL     1     -18.183   3.961   2.716  1.00  0.00     0.134 A 
ATOM     88  C   UNL     1     -18.921   5.904   1.527  1.00  0.00     0.134 A 
ATOM     89  F   UNL     1     -17.227   3.100   3.095  1.00  0.00    -0.206 F 
ATOM     90  C   UNL     1     -19.492   3.714   3.135  1.00  0.00     0.040 A 
ATOM     91  C   UNL     1     -20.228   5.686   1.964  1.00  0.00     0.040 A 
ATOM     92  F   UNL     1     -18.689   6.975   0.751  1.00  0.00    -0.206 F 
ATOM     93  C   UNL     1     -20.517   4.584   2.766  1.00  0.00     0.006 A 
ENDBRANCH  69  86
ENDBRANCH  43  44
ENDBRANCH  35  38
ENDBRANCH  33  34
ENDBRANCH  32  33
ENDBRANCH  31  32
ENDBRANCH   1  31
TORSDOF 16
