REMARK SMILES NS(=O)(=O)c1ccc(-n2nc(C(=O)NCCCC(=O)NCCCCCCNC(=O)c3ccc(-c4c5nc(c(-c6c(F)cccc6F)c6ccc([nH]6)c(-c6c(F)cccc6F)c6nc(c(-c7c(F)cccc7F)c7ccc4[nH]7)C=C6)C=C5)cc3)cc2-c2ccccc2)cc1
REMARK SMILES IDX 21 1 20 2 18 3 19 4 17 6 16 7 15 8 14 9 12 10 13 11 11 13
REMARK SMILES IDX 9 14 10 15 85 16 84 17 8 18 5 19 6 20 93 21 7 22 92 23 2 24
REMARK SMILES IDX 3 25 4 26 1 27 86 30 87 31 91 32 88 33 90 34 89 35 22 36
REMARK SMILES IDX 23 37 24 38 25 39 26 40 27 41 28 42 29 44 30 45 31 46 83 47
REMARK SMILES IDX 32 48 82 49 33 50 34 51 35 52 76 53 36 54 81 55 75 56 77 57
REMARK SMILES IDX 37 58 80 59 74 60 73 61 38 63 64 64 47 65 63 66 48 67 51 68
REMARK SMILES IDX 62 69 78 70 49 71 50 72 61 74 79 75 52 76 39 77 40 78 45 79
REMARK SMILES IDX 41 80 42 81 44 82 46 83 43 84 65 85 66 86 71 87 67 88 68 89
REMARK SMILES IDX 70 90 72 91 69 92 53 93 54 94 59 95 55 96 56 97 58 98 60 99
REMARK SMILES IDX 57 100
REMARK H PARENT 20 5 14 12 1 28 1 29 27 43 77 62 51 73
REMARK Flexibility Score: inf
ROOT
ATOM      1  C   UNL     1       1.067  -7.929  10.521  1.00  0.00     0.116 C 
ENDROOT
BRANCH   1   2
ATOM      2  N   UNL     1       2.171  -8.739  10.987  1.00  0.00    -0.356 N 
ATOM      3  C   UNL     1       3.363  -8.361  11.519  1.00  0.00     0.220 C 
ATOM      4  O   UNL     1       4.214  -9.227  11.723  1.00  0.00    -0.275 OA
ATOM      5  H   UNL     1       2.039  -9.712  10.907  1.00  0.00     0.163 HD
BRANCH   3   6
ATOM      6  C   UNL     1       3.620  -6.909  11.882  1.00  0.00     0.102 C 
BRANCH   6   7
ATOM      7  C   UNL     1       4.279  -6.068  10.784  1.00  0.00     0.031 C 
BRANCH   7   8
ATOM      8  C   UNL     1       3.343  -5.419   9.758  1.00  0.00     0.116 C 
BRANCH   8   9
ATOM      9  N   UNL     1       2.300  -4.567  10.327  1.00  0.00    -0.351 N 
ATOM     10  C   UNL     1       1.406  -3.696   9.711  1.00  0.00     0.271 C 
ATOM     11  O   UNL     1       0.656  -3.046  10.439  1.00  0.00    -0.267 OA
ATOM     12  H   UNL     1       2.216  -4.618  11.306  1.00  0.00     0.163 HD
BRANCH  10  13
ATOM     13  C   UNL     1       1.371  -3.601   8.238  1.00  0.00     0.151 A 
ATOM     14  N   UNL     1       1.431  -2.788   6.245  1.00  0.00    -0.232 N 
ATOM     15  N   UNL     1       1.260  -2.435   7.552  1.00  0.00    -0.162 NA
ATOM     16  C   UNL     1       1.853  -4.104   6.153  1.00  0.00     0.075 A 
ATOM     17  C   UNL     1       1.507  -4.686   7.346  1.00  0.00     0.065 A 
BRANCH  14  18
ATOM     18  C   UNL     1       1.288  -1.898   5.137  1.00  0.00     0.065 A 
ATOM     19  C   UNL     1       1.198  -0.273   2.850  1.00  0.00     0.082 A 
ATOM     20  C   UNL     1       0.987  -1.643   2.730  1.00  0.00     0.024 A 
ATOM     21  C   UNL     1       1.392   0.298   4.117  1.00  0.00     0.024 A 
ATOM     22  C   UNL     1       1.054  -2.450   3.864  1.00  0.00     0.030 A 
ATOM     23  C   UNL     1       1.412  -0.512   5.270  1.00  0.00     0.030 A 
BRANCH  19  24
ATOM     24  S   UNL     1       1.129   0.723   1.387  1.00  0.00     0.238 S 
ATOM     25  O   UNL     1       1.225   2.124   1.748  1.00  0.00    -0.207 OA
ATOM     26  O   UNL     1       0.107   0.216   0.512  1.00  0.00    -0.207 OA
BRANCH  24  27
ATOM     27  N   UNL     1       2.562   0.373   0.585  1.00  0.00    -0.225 NA
ATOM     28  H   UNL     1       2.607   0.910  -0.281  1.00  0.00     0.137 HD
ATOM     29  H   UNL     1       2.597  -0.623   0.369  1.00  0.00     0.137 HD
ENDBRANCH  24  27
ENDBRANCH  19  24
ENDBRANCH  14  18
BRANCH  16  30
ATOM     30  C   UNL     1       2.921  -4.604   5.295  1.00  0.00     0.000 A 
ATOM     31  C   UNL     1       4.128  -3.894   5.260  1.00  0.00     0.010 A 
ATOM     32  C   UNL     1       2.858  -5.895   4.771  1.00  0.00     0.010 A 
ATOM     33  C   UNL     1       5.279  -4.509   4.787  1.00  0.00     0.001 A 
ATOM     34  C   UNL     1       4.004  -6.492   4.254  1.00  0.00     0.001 A 
ATOM     35  C   UNL     1       5.219  -5.811   4.289  1.00  0.00     0.000 A 
ENDBRANCH  16  30
ENDBRANCH  10  13
ENDBRANCH   8   9
ENDBRANCH   7   8
ENDBRANCH   6   7
ENDBRANCH   3   6
ENDBRANCH   1   2
BRANCH   1  36
ATOM     36  C   UNL     1       0.882  -8.104   9.013  1.00  0.00     0.021 C 
BRANCH  36  37
ATOM     37  C   UNL     1       0.075  -9.342   8.623  1.00  0.00     0.002 C 
BRANCH  37  38
ATOM     38  C   UNL     1      -1.362  -9.377   9.165  1.00  0.00     0.002 C 
BRANCH  38  39
ATOM     39  C   UNL     1      -2.229  -8.142   8.872  1.00  0.00     0.021 C 
BRANCH  39  40
ATOM     40  C   UNL     1      -2.492  -7.928   7.392  1.00  0.00     0.116 C 
BRANCH  40  41
ATOM     41  N   UNL     1      -3.296  -8.999   6.799  1.00  0.00    -0.352 N 
ATOM     42  C   UNL     1      -3.779  -9.088   5.506  1.00  0.00     0.251 C 
ATOM     43  H   UNL     1      -3.521  -9.750   7.396  1.00  0.00     0.163 HD
ATOM     44  O   UNL     1      -4.706  -9.836   5.223  1.00  0.00    -0.269 OA
BRANCH  42  45
ATOM     45  C   UNL     1      -3.131  -8.271   4.466  1.00  0.00     0.039 A 
ATOM     46  C   UNL     1      -3.850  -7.632   3.455  1.00  0.00     0.014 A 
ATOM     47  C   UNL     1      -1.751  -8.124   4.552  1.00  0.00     0.014 A 
ATOM     48  C   UNL     1      -3.159  -6.799   2.574  1.00  0.00     0.010 A 
ATOM     49  C   UNL     1      -1.127  -7.137   3.843  1.00  0.00     0.010 A 
ATOM     50  C   UNL     1      -1.790  -6.544   2.785  1.00  0.00    -0.014 A 
BRANCH  50  51
ATOM     51  C   UNL     1      -1.043  -5.583   1.973  1.00  0.00     0.031 A 
ATOM     52  C   UNL     1      -1.713  -4.253   1.875  1.00  0.00     0.074 A 
ATOM     53  C   UNL     1       0.201  -5.831   1.488  1.00  0.00     0.049 A 
ATOM     54  N   UNL     1      -2.159  -3.666   0.817  1.00  0.00    -0.248 NA
ATOM     55  C   UNL     1      -2.072  -3.562   3.124  1.00  0.00     0.031 C 
ATOM     56  C   UNL     1       1.091  -6.975   1.742  1.00  0.00     0.029 A 
ATOM     57  N   UNL     1       0.966  -5.060   0.661  1.00  0.00    -0.354 N 
ATOM     58  C   UNL     1      -2.745  -2.466   1.232  1.00  0.00     0.074 A 
ATOM     59  C   UNL     1      -2.757  -2.513   2.668  1.00  0.00     0.031 C 
ATOM     60  C   UNL     1       2.328  -6.729   1.246  1.00  0.00     0.029 A 
ATOM     61  C   UNL     1       2.281  -5.502   0.475  1.00  0.00     0.049 A 
ATOM     62  H   UNL     1       0.617  -4.249   0.226  1.00  0.00     0.167 HD
ATOM     63  C   UNL     1      -3.050  -1.486   0.332  1.00  0.00     0.037 A 
ATOM     64  C   UNL     1       3.245  -4.923  -0.294  1.00  0.00     0.037 A 
ATOM     65  C   UNL     1      -3.060  -2.044  -1.003  1.00  0.00     0.049 A 
ATOM     66  C   UNL     1       2.562  -4.007  -1.221  1.00  0.00     0.074 A 
ATOM     67  C   UNL     1      -3.913  -2.873  -1.701  1.00  0.00     0.029 A 
ATOM     68  N   UNL     1      -1.868  -2.054  -1.690  1.00  0.00    -0.354 N 
ATOM     69  N   UNL     1       1.808  -4.400  -2.204  1.00  0.00    -0.248 NA
ATOM     70  C   UNL     1       2.325  -2.662  -0.735  1.00  0.00     0.031 C 
ATOM     71  C   UNL     1      -3.069  -3.675  -2.524  1.00  0.00     0.029 A 
ATOM     72  C   UNL     1      -1.750  -3.256  -2.346  1.00  0.00     0.049 A 
ATOM     73  H   UNL     1      -1.209  -1.322  -1.708  1.00  0.00     0.167 HD
ATOM     74  C   UNL     1       0.731  -3.526  -2.183  1.00  0.00     0.074 A 
ATOM     75  C   UNL     1       1.139  -2.439  -1.305  1.00  0.00     0.031 C 
ATOM     76  C   UNL     1      -0.494  -3.909  -2.638  1.00  0.00     0.037 A 
BRANCH  63  77
ATOM     77  C   UNL     1      -3.022   0.012   0.588  1.00  0.00     0.057 A 
ATOM     78  C   UNL     1      -3.126   0.885  -0.519  1.00  0.00     0.134 A 
ATOM     79  C   UNL     1      -2.614   0.642   1.781  1.00  0.00     0.134 A 
ATOM     80  F   UNL     1      -3.563   0.450  -1.711  1.00  0.00    -0.206 F 
ATOM     81  C   UNL     1      -2.708   2.223  -0.478  1.00  0.00     0.040 A 
ATOM     82  C   UNL     1      -2.231   1.990   1.841  1.00  0.00     0.040 A 
ATOM     83  F   UNL     1      -2.451  -0.016   2.931  1.00  0.00    -0.206 F 
ATOM     84  C   UNL     1      -2.227   2.772   0.699  1.00  0.00     0.006 A 
ENDBRANCH  63  77
BRANCH  64  85
ATOM     85  C   UNL     1       4.698  -4.776  -0.040  1.00  0.00     0.057 A 
ATOM     86  C   UNL     1       5.668  -4.679  -1.044  1.00  0.00     0.134 A 
ATOM     87  C   UNL     1       5.114  -4.377   1.234  1.00  0.00     0.134 A 
ATOM     88  F   UNL     1       5.331  -4.860  -2.328  1.00  0.00    -0.206 F 
ATOM     89  C   UNL     1       6.998  -4.307  -0.770  1.00  0.00     0.040 A 
ATOM     90  C   UNL     1       6.439  -4.030   1.531  1.00  0.00     0.040 A 
ATOM     91  F   UNL     1       4.190  -4.172   2.180  1.00  0.00    -0.206 F 
ATOM     92  C   UNL     1       7.395  -4.010   0.529  1.00  0.00     0.006 A 
ENDBRANCH  64  85
BRANCH  76  93
ATOM     93  C   UNL     1      -0.542  -5.234  -3.346  1.00  0.00     0.057 A 
ATOM     94  C   UNL     1      -0.372  -6.476  -2.710  1.00  0.00     0.134 A 
ATOM     95  C   UNL     1      -0.854  -5.256  -4.706  1.00  0.00     0.134 A 
ATOM     96  F   UNL     1      -0.138  -6.553  -1.395  1.00  0.00    -0.206 F 
ATOM     97  C   UNL     1      -0.475  -7.683  -3.408  1.00  0.00     0.040 A 
ATOM     98  C   UNL     1      -0.988  -6.455  -5.409  1.00  0.00     0.040 A 
ATOM     99  F   UNL     1      -1.066  -4.108  -5.366  1.00  0.00    -0.206 F 
ATOM    100  C   UNL     1      -0.790  -7.673  -4.763  1.00  0.00     0.006 A 
ENDBRANCH  76  93
ENDBRANCH  50  51
ENDBRANCH  42  45
ENDBRANCH  40  41
ENDBRANCH  39  40
ENDBRANCH  38  39
ENDBRANCH  37  38
ENDBRANCH  36  37
ENDBRANCH   1  36
TORSDOF 21
