REMARK SMILES O=C(NCCCCCCNC(=O)c1cc(-c2ccc(F)c(C(F)(F)F)c2)cnc1O)c1ccc(-c2c3nc(c(-c4c(F)cccc4F)c4ccc([nH]4)c(-c4c(F)cccc4F)c4nc(c(-c5c(F)cccc5F)c5ccc2[nH]5)C=C4)C=C3)cc1
REMARK SMILES IDX 6 1 5 2 4 3 3 4 1 5 2 6 31 8 32 9 84 10 33 11 83 12 34 13
REMARK SMILES IDX 35 14 36 15 77 16 37 17 82 18 76 19 78 20 38 21 81 22 75 23
REMARK SMILES IDX 74 24 39 26 65 27 48 28 64 29 49 30 52 31 63 32 79 33 50 34
REMARK SMILES IDX 51 35 62 37 80 38 53 39 40 40 41 41 46 42 42 43 43 44 45 45
REMARK SMILES IDX 47 46 44 47 66 48 67 49 72 50 68 51 69 52 71 53 73 54 70 55
REMARK SMILES IDX 54 56 55 57 60 58 56 59 57 60 59 61 61 62 58 63 7 64 8 65
REMARK SMILES IDX 9 66 10 67 11 68 12 70 13 71 14 72 29 73 15 74 28 75 27 76
REMARK SMILES IDX 30 77 16 79 17 80 26 81 18 82 21 83 19 84 20 85 22 86 23 87
REMARK SMILES IDX 24 88 25 89
REMARK H PARENT 3 7 78 25 52 36 10 69 30 78
REMARK Flexibility Score: inf
ROOT
ATOM      1  C   UNL     1       4.300  -3.227  -2.356  1.00  0.00     0.002 C 
ENDROOT
BRANCH   1   2
ATOM      2  C   UNL     1       4.780  -2.601  -1.046  1.00  0.00     0.021 C 
BRANCH   2   3
ATOM      3  C   UNL     1       4.566  -1.098  -0.922  1.00  0.00     0.116 C 
BRANCH   3   4
ATOM      4  N   UNL     1       3.164  -0.730  -0.968  1.00  0.00    -0.352 N 
ATOM      5  O   UNL     1       1.201   0.082  -0.240  1.00  0.00    -0.269 OA
ATOM      6  C   UNL     1       2.419   0.017  -0.092  1.00  0.00     0.251 C 
ATOM      7  H   UNL     1       2.671  -1.068  -1.750  1.00  0.00     0.163 HD
BRANCH   6   8
ATOM      8  C   UNL     1       3.057   0.739   1.034  1.00  0.00     0.039 A 
ATOM      9  C   UNL     1       2.369   0.813   2.249  1.00  0.00     0.014 A 
ATOM     10  C   UNL     1       4.278   1.405   0.889  1.00  0.00     0.014 A 
ATOM     11  C   UNL     1       2.904   1.544   3.312  1.00  0.00     0.010 A 
ATOM     12  C   UNL     1       4.853   2.062   1.976  1.00  0.00     0.010 A 
ATOM     13  C   UNL     1       4.150   2.176   3.184  1.00  0.00    -0.014 A 
BRANCH  13  14
ATOM     14  C   UNL     1       4.667   3.055   4.264  1.00  0.00     0.031 A 
ATOM     15  C   UNL     1       4.797   4.537   4.020  1.00  0.00     0.074 A 
ATOM     16  C   UNL     1       5.012   2.538   5.458  1.00  0.00     0.049 A 
ATOM     17  N   UNL     1       5.226   5.478   4.823  1.00  0.00    -0.248 NA
ATOM     18  C   UNL     1       4.417   5.022   2.683  1.00  0.00     0.031 C 
ATOM     19  C   UNL     1       4.972   1.119   5.813  1.00  0.00     0.029 A 
ATOM     20  N   UNL     1       5.461   3.155   6.599  1.00  0.00    -0.354 N 
ATOM     21  C   UNL     1       5.170   6.656   4.089  1.00  0.00     0.074 A 
ATOM     22  C   UNL     1       4.741   6.303   2.754  1.00  0.00     0.031 C 
ATOM     23  C   UNL     1       5.350   0.977   7.095  1.00  0.00     0.029 A 
ATOM     24  C   UNL     1       5.679   2.290   7.643  1.00  0.00     0.049 A 
ATOM     25  H   UNL     1       5.613   4.125   6.662  1.00  0.00     0.167 HD
ATOM     26  C   UNL     1       5.413   7.926   4.493  1.00  0.00     0.037 A 
ATOM     27  C   UNL     1       6.087   2.534   8.902  1.00  0.00     0.037 A 
ATOM     28  C   UNL     1       5.819   8.287   5.824  1.00  0.00     0.049 A 
ATOM     29  C   UNL     1       6.346   3.953   9.330  1.00  0.00     0.074 A 
ATOM     30  C   UNL     1       6.082   9.544   6.339  1.00  0.00     0.029 A 
ATOM     31  N   UNL     1       6.008   7.383   6.858  1.00  0.00    -0.354 N 
ATOM     32  N   UNL     1       6.253   5.060   8.634  1.00  0.00    -0.248 NA
ATOM     33  C   UNL     1       6.751   4.155  10.728  1.00  0.00     0.031 C 
ATOM     34  C   UNL     1       6.451   9.398   7.682  1.00  0.00     0.029 A 
ATOM     35  C   UNL     1       6.383   8.054   8.010  1.00  0.00     0.049 A 
ATOM     36  H   UNL     1       5.893   6.408   6.784  1.00  0.00     0.167 HD
ATOM     37  C   UNL     1       6.563   6.090   9.513  1.00  0.00     0.074 A 
ATOM     38  C   UNL     1       6.823   5.476  10.799  1.00  0.00     0.031 C 
ATOM     39  C   UNL     1       6.633   7.423   9.280  1.00  0.00     0.037 A 
BRANCH  26  40
ATOM     40  C   UNL     1       5.223   9.011   3.473  1.00  0.00     0.057 A 
ATOM     41  C   UNL     1       6.317   9.698   2.936  1.00  0.00     0.134 A 
ATOM     42  C   UNL     1       3.947   9.365   3.010  1.00  0.00     0.134 A 
ATOM     43  F   UNL     1       7.566   9.412   3.335  1.00  0.00    -0.206 F 
ATOM     44  C   UNL     1       6.151  10.693   1.969  1.00  0.00     0.040 A 
ATOM     45  C   UNL     1       3.770  10.337   2.024  1.00  0.00     0.040 A 
ATOM     46  F   UNL     1       2.858   8.731   3.470  1.00  0.00    -0.206 F 
ATOM     47  C   UNL     1       4.875  11.007   1.504  1.00  0.00     0.006 A 
ENDBRANCH  26  40
BRANCH  27  48
ATOM     48  C   UNL     1       6.246   1.419   9.868  1.00  0.00     0.057 A 
ATOM     49  C   UNL     1       7.302   0.506   9.761  1.00  0.00     0.134 A 
ATOM     50  C   UNL     1       5.367   1.265  10.947  1.00  0.00     0.134 A 
ATOM     51  F   UNL     1       8.175   0.596   8.747  1.00  0.00    -0.206 F 
ATOM     52  C   UNL     1       7.481  -0.515  10.695  1.00  0.00     0.040 A 
ATOM     53  C   UNL     1       5.548   0.264  11.902  1.00  0.00     0.040 A 
ATOM     54  F   UNL     1       4.348   2.121  11.113  1.00  0.00    -0.206 F 
ATOM     55  C   UNL     1       6.608  -0.631  11.776  1.00  0.00     0.006 A 
ENDBRANCH  27  48
BRANCH  39  56
ATOM     56  C   UNL     1       6.972   8.297  10.451  1.00  0.00     0.057 A 
ATOM     57  C   UNL     1       5.995   9.111  11.040  1.00  0.00     0.134 A 
ATOM     58  C   UNL     1       8.260   8.330  11.001  1.00  0.00     0.134 A 
ATOM     59  F   UNL     1       4.744   9.132  10.557  1.00  0.00    -0.206 F 
ATOM     60  C   UNL     1       6.286   9.918  12.140  1.00  0.00     0.040 A 
ATOM     61  C   UNL     1       8.556   9.114  12.117  1.00  0.00     0.040 A 
ATOM     62  F   UNL     1       9.236   7.563  10.491  1.00  0.00    -0.206 F 
ATOM     63  C   UNL     1       7.567   9.913  12.688  1.00  0.00     0.006 A 
ENDBRANCH  39  56
ENDBRANCH  13  14
ENDBRANCH   6   8
ENDBRANCH   3   4
ENDBRANCH   2   3
ENDBRANCH   1   2
BRANCH   1  64
ATOM     64  C   UNL     1       4.846  -2.592  -3.638  1.00  0.00     0.002 C 
BRANCH  64  65
ATOM     65  C   UNL     1       6.370  -2.458  -3.724  1.00  0.00     0.021 C 
BRANCH  65  66
ATOM     66  C   UNL     1       7.155  -3.743  -3.470  1.00  0.00     0.116 C 
BRANCH  66  67
ATOM     67  N   UNL     1       6.840  -4.779  -4.443  1.00  0.00    -0.352 N 
ATOM     68  C   UNL     1       7.686  -5.454  -5.280  1.00  0.00     0.256 C 
ATOM     69  H   UNL     1       5.889  -5.027  -4.506  1.00  0.00     0.163 HD
ATOM     70  O   UNL     1       7.240  -6.163  -6.179  1.00  0.00    -0.269 OA
BRANCH  68  71
ATOM     71  C   UNL     1       9.137  -5.348  -5.096  1.00  0.00     0.102 A 
ATOM     72  C   UNL     1       9.925  -4.947  -6.179  1.00  0.00     0.029 A 
ATOM     73  C   UNL     1       9.762  -5.669  -3.896  1.00  0.00     0.223 A 
ATOM     74  C   UNL     1      11.311  -4.839  -6.027  1.00  0.00     0.001 A 
ATOM     75  N   UNL     1      11.088  -5.549  -3.704  1.00  0.00    -0.221 NA
ATOM     76  C   UNL     1      11.826  -5.141  -4.764  1.00  0.00     0.124 A 
BRANCH  73  77
ATOM     77  O   UNL     1       9.094  -6.132  -2.800  1.00  0.00    -0.493 OA
ATOM     78  H   UNL     1       8.165  -6.250  -2.833  1.00  0.00     0.295 HD
ENDBRANCH  73  77
BRANCH  74  79
ATOM     79  C   UNL     1      12.186  -4.442  -7.133  1.00  0.00    -0.016 A 
ATOM     80  C   UNL     1      13.188  -5.313  -7.595  1.00  0.00     0.012 A 
ATOM     81  C   UNL     1      12.060  -3.184  -7.748  1.00  0.00     0.025 A 
ATOM     82  C   UNL     1      14.043  -4.934  -8.630  1.00  0.00     0.040 A 
ATOM     83  C   UNL     1      12.921  -2.793  -8.790  1.00  0.00     0.092 A 
ATOM     84  C   UNL     1      13.905  -3.680  -9.212  1.00  0.00     0.135 A 
ATOM     85  F   UNL     1      14.747  -3.329 -10.194  1.00  0.00    -0.206 F 
BRANCH  83  86
ATOM     86  C   UNL     1      12.828  -1.444  -9.435  1.00  0.00     0.419 C 
ATOM     87  F   UNL     1      13.909  -0.659  -9.171  1.00  0.00    -0.166 F 
ATOM     88  F   UNL     1      12.717  -1.502 -10.790  1.00  0.00    -0.166 F 
ATOM     89  F   UNL     1      11.746  -0.727  -9.013  1.00  0.00    -0.166 F 
ENDBRANCH  83  86
ENDBRANCH  74  79
ENDBRANCH  68  71
ENDBRANCH  66  67
ENDBRANCH  65  66
ENDBRANCH  64  65
ENDBRANCH   1  64
TORSDOF 16
