REMARK SMILES C[C@H]1[C@@H](C(=O)NCCCCCCNC(=O)c2ccc(-c3c4nc(c(-c5c(F)cccc5F)c5ccc([nH]5)c(-c5c(F)cccc5F)c5nc(c(-c6c(F)cccc6F)c6ccc3[nH]6)C=C5)C=C4)cc2)CCN1C(=O)NC1CCCCC1
REMARK SMILES IDX 9 1 8 2 7 3 6 4 4 5 5 6 3 8 1 9 2 10 72 11 70 12 71 13 73 14
REMARK SMILES IDX 74 15 75 16 76 18 77 19 81 20 78 21 80 22 79 23 10 24 11 25
REMARK SMILES IDX 12 26 13 27 14 28 15 30 16 31 17 32 69 33 18 34 68 35 19 36
REMARK SMILES IDX 20 37 21 38 62 39 22 40 67 41 61 42 63 43 23 44 66 45 60 46
REMARK SMILES IDX 59 47 24 49 50 50 33 51 49 52 34 53 37 54 48 55 64 56 35 57
REMARK SMILES IDX 36 58 47 60 65 61 38 62 25 63 26 64 31 65 27 66 28 67 30 68
REMARK SMILES IDX 32 69 29 70 51 71 52 72 57 73 53 74 54 75 56 76 58 77 55 78
REMARK SMILES IDX 39 79 40 80 45 81 41 82 42 83 44 84 46 85 43 86
REMARK H PARENT 6 7 75 17 13 29 63 48 37 59
REMARK Flexibility Score: inf
ROOT
ATOM      1  C   UNL     1       4.352   1.478  -3.263  1.00  0.00     0.002 C 
ENDROOT
BRANCH   1   2
ATOM      2  C   UNL     1       3.370   0.907  -2.238  1.00  0.00     0.021 C 
BRANCH   2   3
ATOM      3  C   UNL     1       2.466   1.948  -1.567  1.00  0.00     0.116 C 
BRANCH   3   4
ATOM      4  N   UNL     1       1.206   2.075  -2.281  1.00  0.00    -0.356 N 
ATOM      5  C   UNL     1      -0.042   1.587  -2.019  1.00  0.00     0.225 C 
ATOM      6  O   UNL     1      -0.915   1.817  -2.858  1.00  0.00    -0.275 OA
ATOM      7  H   UNL     1       1.263   2.612  -3.104  1.00  0.00     0.163 HD
BRANCH   5   8
ATOM      8  C   UNL     1      -0.360   0.886  -0.705  1.00  0.00     0.102 C 
ATOM      9  C   UNL     1       0.993  -1.256  -1.426  1.00  0.00     0.032 C 
ATOM     10  C   UNL     1       0.462  -0.350  -0.323  1.00  0.00     0.096 C 
ATOM     11  N   UNL     1      -0.420  -1.099   0.540  1.00  0.00    -0.321 N 
ATOM     12  C   UNL     1      -1.831   0.422  -0.574  1.00  0.00     0.037 C 
ATOM     13  C   UNL     1      -1.771  -0.978   0.024  1.00  0.00     0.122 C 
BRANCH  11  14
ATOM     14  C   UNL     1      -0.126  -2.012   1.487  1.00  0.00     0.317 C 
ATOM     15  O   UNL     1      -0.972  -2.832   1.862  1.00  0.00    -0.249 OA
ATOM     16  N   UNL     1       1.064  -2.105   2.095  1.00  0.00    -0.335 N 
ATOM     17  H   UNL     1       1.045  -2.878   2.704  1.00  0.00     0.165 HD
BRANCH  16  18
ATOM     18  C   UNL     1       2.404  -1.466   2.184  1.00  0.00     0.083 C 
ATOM     19  C   UNL     1       2.397   0.052   2.474  1.00  0.00     0.025 C 
ATOM     20  C   UNL     1       3.147  -2.229   3.313  1.00  0.00     0.025 C 
ATOM     21  C   UNL     1       3.705   0.628   3.013  1.00  0.00     0.002 C 
ATOM     22  C   UNL     1       4.454  -1.601   3.774  1.00  0.00     0.002 C 
ATOM     23  C   UNL     1       4.236  -0.157   4.191  1.00  0.00     0.000 C 
ENDBRANCH  16  18
ENDBRANCH  11  14
ENDBRANCH   5   8
ENDBRANCH   3   4
ENDBRANCH   2   3
ENDBRANCH   1   2
BRANCH   1  24
ATOM     24  C   UNL     1       5.622   2.094  -2.671  1.00  0.00     0.002 C 
BRANCH  24  25
ATOM     25  C   UNL     1       6.475   1.172  -1.790  1.00  0.00     0.021 C 
BRANCH  25  26
ATOM     26  C   UNL     1       6.827  -0.191  -2.387  1.00  0.00     0.116 C 
BRANCH  26  27
ATOM     27  N   UNL     1       7.579  -0.079  -3.627  1.00  0.00    -0.352 N 
ATOM     28  C   UNL     1       8.870  -0.435  -3.914  1.00  0.00     0.251 C 
ATOM     29  H   UNL     1       7.081   0.314  -4.380  1.00  0.00     0.163 HD
ATOM     30  O   UNL     1       9.379  -0.075  -4.981  1.00  0.00    -0.269 OA
BRANCH  28  31
ATOM     31  C   UNL     1       9.674  -1.229  -2.962  1.00  0.00     0.039 A 
ATOM     32  C   UNL     1      11.000  -0.855  -2.724  1.00  0.00     0.014 A 
ATOM     33  C   UNL     1       9.149  -2.366  -2.342  1.00  0.00     0.014 A 
ATOM     34  C   UNL     1      11.778  -1.582  -1.820  1.00  0.00     0.010 A 
ATOM     35  C   UNL     1       9.906  -3.055  -1.395  1.00  0.00     0.010 A 
ATOM     36  C   UNL     1      11.229  -2.671  -1.125  1.00  0.00    -0.014 A 
BRANCH  36  37
ATOM     37  C   UNL     1      12.022  -3.412  -0.110  1.00  0.00     0.031 A 
ATOM     38  C   UNL     1      12.391  -4.852  -0.333  1.00  0.00     0.074 A 
ATOM     39  C   UNL     1      12.360  -2.803   1.044  1.00  0.00     0.049 A 
ATOM     40  N   UNL     1      13.023  -5.678   0.464  1.00  0.00    -0.248 NA
ATOM     41  C   UNL     1      11.976  -5.451  -1.611  1.00  0.00     0.031 C 
ATOM     42  C   UNL     1      12.029  -1.423   1.400  1.00  0.00     0.029 A 
ATOM     43  N   UNL     1      13.050  -3.271   2.134  1.00  0.00    -0.354 N 
ATOM     44  C   UNL     1      13.069  -6.892  -0.209  1.00  0.00     0.074 A 
ATOM     45  C   UNL     1      12.361  -6.710  -1.458  1.00  0.00     0.031 C 
ATOM     46  C   UNL     1      12.531  -1.150   2.615  1.00  0.00     0.029 A 
ATOM     47  C   UNL     1      13.189  -2.344   3.138  1.00  0.00     0.049 A 
ATOM     48  H   UNL     1      13.411  -4.185   2.192  1.00  0.00     0.167 HD
ATOM     49  C   UNL     1      13.666  -8.049   0.169  1.00  0.00     0.037 A 
ATOM     50  C   UNL     1      13.774  -2.444   4.346  1.00  0.00     0.037 A 
ATOM     51  C   UNL     1      14.390  -8.223   1.402  1.00  0.00     0.049 A 
ATOM     52  C   UNL     1      14.419  -3.741   4.748  1.00  0.00     0.074 A 
ATOM     53  C   UNL     1      15.080  -9.338   1.846  1.00  0.00     0.029 A 
ATOM     54  N   UNL     1      14.516  -7.257   2.388  1.00  0.00    -0.354 N 
ATOM     55  N   UNL     1      14.510  -4.862   4.074  1.00  0.00    -0.248 NA
ATOM     56  C   UNL     1      15.046  -3.786   6.076  1.00  0.00     0.031 C 
ATOM     57  C   UNL     1      15.587  -9.061   3.120  1.00  0.00     0.029 A 
ATOM     58  C   UNL     1      15.252  -7.758   3.450  1.00  0.00     0.049 A 
ATOM     59  H   UNL     1      14.138  -6.349   2.341  1.00  0.00     0.167 HD
ATOM     60  C   UNL     1      15.225  -5.736   4.883  1.00  0.00     0.074 A 
ATOM     61  C   UNL     1      15.555  -5.010   6.093  1.00  0.00     0.031 C 
ATOM     62  C   UNL     1      15.575  -7.023   4.646  1.00  0.00     0.037 A 
BRANCH  49  63
ATOM     63  C   UNL     1      13.561  -9.219  -0.766  1.00  0.00     0.057 A 
ATOM     64  C   UNL     1      14.249  -9.252  -1.986  1.00  0.00     0.134 A 
ATOM     65  C   UNL     1      12.789 -10.338  -0.430  1.00  0.00     0.134 A 
ATOM     66  F   UNL     1      14.998  -8.208  -2.373  1.00  0.00    -0.206 F 
ATOM     67  C   UNL     1      14.151 -10.344  -2.851  1.00  0.00     0.040 A 
ATOM     68  C   UNL     1      12.704 -11.447  -1.274  1.00  0.00     0.040 A 
ATOM     69  F   UNL     1      12.111 -10.376   0.727  1.00  0.00    -0.206 F 
ATOM     70  C   UNL     1      13.381 -11.448  -2.492  1.00  0.00     0.006 A 
ENDBRANCH  49  63
BRANCH  50  71
ATOM     71  C   UNL     1      13.796  -1.274   5.259  1.00  0.00     0.057 A 
ATOM     72  C   UNL     1      14.987  -0.589   5.522  1.00  0.00     0.134 A 
ATOM     73  C   UNL     1      12.634  -0.816   5.892  1.00  0.00     0.134 A 
ATOM     74  F   UNL     1      16.136  -0.993   4.960  1.00  0.00    -0.206 F 
ATOM     75  C   UNL     1      15.028   0.500   6.394  1.00  0.00     0.040 A 
ATOM     76  C   UNL     1      12.655   0.286   6.748  1.00  0.00     0.040 A 
ATOM     77  F   UNL     1      11.459  -1.426   5.676  1.00  0.00    -0.206 F 
ATOM     78  C   UNL     1      13.857   0.944   7.006  1.00  0.00     0.006 A 
ENDBRANCH  50  71
BRANCH  62  79
ATOM     79  C   UNL     1      16.379  -7.721   5.704  1.00  0.00     0.057 A 
ATOM     80  C   UNL     1      15.809  -8.131   6.915  1.00  0.00     0.134 A 
ATOM     81  C   UNL     1      17.732  -8.016   5.492  1.00  0.00     0.134 A 
ATOM     82  F   UNL     1      14.521  -7.865   7.185  1.00  0.00    -0.206 F 
ATOM     83  C   UNL     1      16.560  -8.793   7.887  1.00  0.00     0.040 A 
ATOM     84  C   UNL     1      18.487  -8.700   6.446  1.00  0.00     0.040 A 
ATOM     85  F   UNL     1      18.338  -7.657   4.350  1.00  0.00    -0.206 F 
ATOM     86  C   UNL     1      17.902  -9.085   7.650  1.00  0.00     0.006 A 
ENDBRANCH  62  79
ENDBRANCH  36  37
ENDBRANCH  28  31
ENDBRANCH  26  27
ENDBRANCH  25  26
ENDBRANCH  24  25
ENDBRANCH   1  24
TORSDOF 15
