REMARK SMILES O=C(NCCCCCCNC(=O)c1cc([C@@H]2C=NN=C2c2ccc(F)cc2)c2c(ccc3ccccc32)n1)c1ccc(-c2c3nc(c(-c4c(F)cccc4F)c4ccc([nH]4)c(-c4c(F)cccc4F)c4nc(c(-c5c(F)cccc5F)c5ccc2[nH]5)C=C4)C=C3)cc1
REMARK SMILES IDX 6 1 5 2 4 3 3 4 1 5 2 6 39 8 40 9 92 10 41 11 91 12 42 13
REMARK SMILES IDX 43 14 44 15 85 16 45 17 90 18 84 19 86 20 46 21 89 22 83 23
REMARK SMILES IDX 82 24 47 26 73 27 56 28 72 29 57 30 60 31 71 32 87 33 58 34
REMARK SMILES IDX 59 35 70 37 88 38 61 39 48 40 49 41 54 42 50 43 51 44 53 45
REMARK SMILES IDX 55 46 52 47 74 48 75 49 80 50 76 51 77 52 79 53 81 54 78 55
REMARK SMILES IDX 62 56 63 57 68 58 64 59 65 60 67 61 69 62 66 63 7 64 8 65
REMARK SMILES IDX 9 66 10 67 11 68 12 70 13 71 14 72 38 73 15 74 29 75 28 76
REMARK SMILES IDX 30 77 37 78 31 79 32 80 36 81 33 82 35 83 34 84 16 85 17 86
REMARK SMILES IDX 20 87 18 88 19 89 21 90 22 91 27 92 23 93 26 94 24 95 25 96
REMARK H PARENT 3 7 86 25 60 36 10 69
REMARK Flexibility Score: inf
ROOT
ATOM      1  C   UNL     1       4.328   1.266  -3.370  1.00  0.00     0.002 C 
ENDROOT
BRANCH   1   2
ATOM      2  C   UNL     1       4.824   0.270  -2.315  1.00  0.00     0.021 C 
BRANCH   2   3
ATOM      3  C   UNL     1       4.611   0.704  -0.864  1.00  0.00     0.116 C 
BRANCH   3   4
ATOM      4  N   UNL     1       3.226   0.940  -0.518  1.00  0.00    -0.352 N 
ATOM      5  O   UNL     1       1.176   0.756   0.276  1.00  0.00    -0.269 OA
ATOM      6  C   UNL     1       2.199   0.159  -0.070  1.00  0.00     0.251 C 
ATOM      7  H   UNL     1       2.963   1.882  -0.631  1.00  0.00     0.163 HD
BRANCH   6   8
ATOM      8  C   UNL     1       2.200  -1.329  -0.034  1.00  0.00     0.039 A 
ATOM      9  C   UNL     1       3.292  -2.158  -0.295  1.00  0.00     0.014 A 
ATOM     10  C   UNL     1       0.956  -1.930   0.245  1.00  0.00     0.014 A 
ATOM     11  C   UNL     1       3.131  -3.539  -0.368  1.00  0.00     0.010 A 
ATOM     12  C   UNL     1       0.791  -3.307   0.188  1.00  0.00     0.010 A 
ATOM     13  C   UNL     1       1.874  -4.108  -0.160  1.00  0.00    -0.014 A 
BRANCH  13  14
ATOM     14  C   UNL     1       1.760  -5.565  -0.176  1.00  0.00     0.031 A 
ATOM     15  C   UNL     1       2.490  -6.263   0.928  1.00  0.00     0.074 A 
ATOM     16  C   UNL     1       0.923  -6.219  -1.007  1.00  0.00     0.049 A 
ATOM     17  N   UNL     1       3.353  -7.225   0.854  1.00  0.00    -0.248 NA
ATOM     18  C   UNL     1       2.284  -5.755   2.298  1.00  0.00     0.031 C 
ATOM     19  C   UNL     1      -0.069  -5.644  -1.920  1.00  0.00     0.029 A 
ATOM     20  N   UNL     1       0.705  -7.559  -1.130  1.00  0.00    -0.354 N 
ATOM     21  C   UNL     1       3.668  -7.563   2.172  1.00  0.00     0.074 A 
ATOM     22  C   UNL     1       3.086  -6.548   3.007  1.00  0.00     0.031 C 
ATOM     23  C   UNL     1      -0.925  -6.612  -2.318  1.00  0.00     0.029 A 
ATOM     24  C   UNL     1      -0.469  -7.889  -1.798  1.00  0.00     0.049 A 
ATOM     25  H   UNL     1       1.326  -8.236  -0.776  1.00  0.00     0.167 HD
ATOM     26  C   UNL     1       4.214  -8.766   2.501  1.00  0.00     0.037 A 
ATOM     27  C   UNL     1      -1.057  -9.111  -1.848  1.00  0.00     0.037 A 
ATOM     28  C   UNL     1       4.881  -9.366   1.378  1.00  0.00     0.049 A 
ATOM     29  C   UNL     1      -0.037 -10.116  -1.466  1.00  0.00     0.074 A 
ATOM     30  C   UNL     1       5.945  -9.007   0.573  1.00  0.00     0.029 A 
ATOM     31  N   UNL     1       4.253 -10.390   0.717  1.00  0.00    -0.354 N 
ATOM     32  N   UNL     1       1.008 -10.415  -2.184  1.00  0.00    -0.248 NA
ATOM     33  C   UNL     1       0.038 -10.490  -0.062  1.00  0.00     0.031 C 
ATOM     34  C   UNL     1       5.594  -9.471  -0.728  1.00  0.00     0.029 A 
ATOM     35  C   UNL     1       4.367 -10.125  -0.622  1.00  0.00     0.049 A 
ATOM     36  H   UNL     1       3.807 -11.167   1.126  1.00  0.00     0.167 HD
ATOM     37  C   UNL     1       2.021 -10.620  -1.261  1.00  0.00     0.074 A 
ATOM     38  C   UNL     1       1.346 -10.736   0.029  1.00  0.00     0.031 C 
ATOM     39  C   UNL     1       3.328 -10.400  -1.585  1.00  0.00     0.037 A 
BRANCH  26  40
ATOM     40  C   UNL     1       3.840  -9.553   3.737  1.00  0.00     0.057 A 
ATOM     41  C   UNL     1       2.660  -9.344   4.481  1.00  0.00     0.134 A 
ATOM     42  C   UNL     1       4.518 -10.752   4.027  1.00  0.00     0.134 A 
ATOM     43  F   UNL     1       1.858  -8.292   4.278  1.00  0.00    -0.206 F 
ATOM     44  C   UNL     1       2.175 -10.265   5.414  1.00  0.00     0.040 A 
ATOM     45  C   UNL     1       4.015 -11.705   4.924  1.00  0.00     0.040 A 
ATOM     46  F   UNL     1       5.648 -11.080   3.383  1.00  0.00    -0.206 F 
ATOM     47  C   UNL     1       2.834 -11.467   5.614  1.00  0.00     0.006 A 
ENDBRANCH  26  40
BRANCH  27  48
ATOM     48  C   UNL     1      -2.504  -9.439  -1.847  1.00  0.00     0.057 A 
ATOM     49  C   UNL     1      -3.450  -8.592  -1.244  1.00  0.00     0.134 A 
ATOM     50  C   UNL     1      -2.953 -10.729  -2.170  1.00  0.00     0.134 A 
ATOM     51  F   UNL     1      -3.115  -7.364  -0.826  1.00  0.00    -0.206 F 
ATOM     52  C   UNL     1      -4.755  -9.009  -0.958  1.00  0.00     0.040 A 
ATOM     53  C   UNL     1      -4.254 -11.162  -1.880  1.00  0.00     0.040 A 
ATOM     54  F   UNL     1      -2.114 -11.626  -2.710  1.00  0.00    -0.206 F 
ATOM     55  C   UNL     1      -5.157 -10.303  -1.260  1.00  0.00     0.006 A 
ENDBRANCH  27  48
BRANCH  39  56
ATOM     56  C   UNL     1       3.671 -10.159  -3.029  1.00  0.00     0.057 A 
ATOM     57  C   UNL     1       4.627 -10.978  -3.638  1.00  0.00     0.134 A 
ATOM     58  C   UNL     1       3.228  -9.048  -3.763  1.00  0.00     0.134 A 
ATOM     59  F   UNL     1       5.139 -12.028  -2.975  1.00  0.00    -0.206 F 
ATOM     60  C   UNL     1       5.125 -10.707  -4.915  1.00  0.00     0.040 A 
ATOM     61  C   UNL     1       3.692  -8.785  -5.056  1.00  0.00     0.040 A 
ATOM     62  F   UNL     1       2.388  -8.153  -3.229  1.00  0.00    -0.206 F 
ATOM     63  C   UNL     1       4.653  -9.611  -5.631  1.00  0.00     0.006 A 
ENDBRANCH  39  56
ENDBRANCH  13  14
ENDBRANCH   6   8
ENDBRANCH   3   4
ENDBRANCH   2   3
ENDBRANCH   1   2
BRANCH   1  64
ATOM     64  C   UNL     1       4.850   2.700  -3.236  1.00  0.00     0.002 C 
BRANCH  64  65
ATOM     65  C   UNL     1       6.373   2.854  -3.214  1.00  0.00     0.021 C 
BRANCH  65  66
ATOM     66  C   UNL     1       7.093   2.379  -4.473  1.00  0.00     0.116 C 
BRANCH  66  67
ATOM     67  N   UNL     1       6.777   3.182  -5.643  1.00  0.00    -0.351 N 
ATOM     68  C   UNL     1       7.623   3.812  -6.544  1.00  0.00     0.269 C 
ATOM     69  H   UNL     1       5.816   3.296  -5.823  1.00  0.00     0.163 HD
ATOM     70  O   UNL     1       7.157   4.532  -7.405  1.00  0.00    -0.268 OA
BRANCH  68  71
ATOM     71  C   UNL     1       9.098   3.583  -6.449  1.00  0.00     0.129 A 
ATOM     72  C   UNL     1       9.601   2.305  -6.371  1.00  0.00     0.039 A 
ATOM     73  N   UNL     1       9.868   4.672  -6.315  1.00  0.00    -0.243 NA
ATOM     74  C   UNL     1      10.950   2.108  -5.999  1.00  0.00    -0.021 A 
ATOM     75  C   UNL     1      11.176   4.507  -6.100  1.00  0.00     0.072 A 
ATOM     76  C   UNL     1      11.842   3.252  -5.944  1.00  0.00     0.012 A 
ATOM     77  C   UNL     1      11.861   5.697  -5.985  1.00  0.00     0.029 A 
ATOM     78  C   UNL     1      13.298   3.312  -5.732  1.00  0.00    -0.009 A 
ATOM     79  C   UNL     1      13.219   5.744  -5.713  1.00  0.00     0.011 A 
ATOM     80  C   UNL     1      13.947   4.571  -5.590  1.00  0.00    -0.018 A 
ATOM     81  C   UNL     1      14.178   2.206  -5.694  1.00  0.00     0.009 A 
ATOM     82  C   UNL     1      15.328   4.676  -5.342  1.00  0.00     0.009 A 
ATOM     83  C   UNL     1      15.552   2.307  -5.446  1.00  0.00     0.001 A 
ATOM     84  C   UNL     1      16.128   3.546  -5.255  1.00  0.00     0.001 A 
BRANCH  74  85
ATOM     85  C   UNL     1      11.184   0.712  -5.450  1.00  0.00     0.115 C 
ATOM     86  C   UNL     1      11.764   0.664  -4.078  1.00  0.00     0.123 C 
ATOM     87  C   UNL     1      12.052  -0.324  -6.077  1.00  0.00     0.083 C 
ATOM     88  N   UNL     1      12.640  -0.275  -3.934  1.00  0.00    -0.162 NA
ATOM     89  N   UNL     1      12.812  -0.918  -5.200  1.00  0.00    -0.154 NA
BRANCH  87  90
ATOM     90  C   UNL     1      11.974  -0.759  -7.479  1.00  0.00    -0.001 A 
ATOM     91  C   UNL     1      11.990  -2.140  -7.730  1.00  0.00     0.013 A 
ATOM     92  C   UNL     1      11.956   0.149  -8.541  1.00  0.00     0.013 A 
ATOM     93  C   UNL     1      11.969  -2.612  -9.041  1.00  0.00     0.040 A 
ATOM     94  C   UNL     1      11.946  -0.332  -9.854  1.00  0.00     0.040 A 
ATOM     95  C   UNL     1      11.949  -1.704 -10.092  1.00  0.00     0.123 A 
ATOM     96  F   UNL     1      11.947  -2.155 -11.352  1.00  0.00    -0.207 F 
ENDBRANCH  87  90
ENDBRANCH  74  85
ENDBRANCH  68  71
ENDBRANCH  66  67
ENDBRANCH  65  66
ENDBRANCH  64  65
ENDBRANCH   1  64
TORSDOF 15
