REMARK SMILES O=C(NCCCCCCNC(=O)[C@@H]1CS[C@H](c2ncc(-c3ccccc3)s2)[NH2+]1)c1ccc(-c2c3nc(c(-c4c(F)cccc4F)c4ccc([nH]4)c(-c4c(F)cccc4F)c4nc(c(-c5c(F)cccc5F)c5ccc2[nH]5)C=C4)C=C3)cc1
REMARK SMILES IDX 6 1 5 2 4 3 3 4 1 5 2 6 29 8 30 9 82 10 31 11 81 12 32 13
REMARK SMILES IDX 33 14 34 15 75 16 35 17 80 18 74 19 76 20 36 21 79 22 73 23
REMARK SMILES IDX 72 24 37 26 63 27 46 28 62 29 47 30 50 31 61 32 77 33 48 34
REMARK SMILES IDX 49 35 60 37 78 38 51 39 38 40 39 41 44 42 40 43 41 44 43 45
REMARK SMILES IDX 45 46 42 47 64 48 65 49 70 50 66 51 67 52 69 53 71 54 68 55
REMARK SMILES IDX 52 56 53 57 58 58 54 59 55 60 57 61 59 62 56 63 7 64 8 65
REMARK SMILES IDX 9 66 10 67 11 68 12 70 13 71 14 72 28 73 15 74 16 75 17 78
REMARK SMILES IDX 18 79 27 80 19 81 20 82 21 83 22 84 26 85 23 86 25 87 24 88
REMARK H PARENT 3 7 76 25 50 36 10 69 28 76 28 77
REMARK Flexibility Score: inf
ROOT
ATOM      1  C   UNL     1       9.491 -12.770  -1.725  1.00  0.00     0.002 C 
ENDROOT
BRANCH   1   2
ATOM      2  C   UNL     1       9.267 -13.506  -0.405  1.00  0.00     0.021 C 
BRANCH   2   3
ATOM      3  C   UNL     1       8.035 -14.402  -0.357  1.00  0.00     0.116 C 
BRANCH   3   4
ATOM      4  N   UNL     1       8.090 -15.501  -1.306  1.00  0.00    -0.352 N 
ATOM      5  O   UNL     1       8.076 -17.654  -1.988  1.00  0.00    -0.269 OA
ATOM      6  C   UNL     1       7.866 -16.840  -1.095  1.00  0.00     0.251 C 
ATOM      7  H   UNL     1       8.320 -15.251  -2.230  1.00  0.00     0.163 HD
BRANCH   6   8
ATOM      8  C   UNL     1       7.399 -17.304   0.230  1.00  0.00     0.039 A 
ATOM      9  C   UNL     1       6.358 -16.649   0.891  1.00  0.00     0.014 A 
ATOM     10  C   UNL     1       8.023 -18.407   0.820  1.00  0.00     0.014 A 
ATOM     11  C   UNL     1       6.038 -17.005   2.197  1.00  0.00     0.010 A 
ATOM     12  C   UNL     1       7.644 -18.815   2.101  1.00  0.00     0.010 A 
ATOM     13  C   UNL     1       6.673 -18.096   2.814  1.00  0.00    -0.014 A 
BRANCH  13  14
ATOM     14  C   UNL     1       6.273 -18.491   4.189  1.00  0.00     0.031 A 
ATOM     15  C   UNL     1       7.236 -18.391   5.338  1.00  0.00     0.074 A 
ATOM     16  C   UNL     1       5.015 -18.924   4.398  1.00  0.00     0.049 A 
ATOM     17  N   UNL     1       7.042 -18.672   6.603  1.00  0.00    -0.248 NA
ATOM     18  C   UNL     1       8.595 -17.922   5.031  1.00  0.00     0.031 C 
ATOM     19  C   UNL     1       3.994 -19.073   3.359  1.00  0.00     0.029 A 
ATOM     20  N   UNL     1       4.376 -19.300   5.550  1.00  0.00    -0.354 N 
ATOM     21  C   UNL     1       8.255 -18.438   7.237  1.00  0.00     0.074 A 
ATOM     22  C   UNL     1       9.188 -18.014   6.213  1.00  0.00     0.031 C 
ATOM     23  C   UNL     1       2.843 -19.460   3.928  1.00  0.00     0.029 A 
ATOM     24  C   UNL     1       3.061 -19.644   5.359  1.00  0.00     0.049 A 
ATOM     25  H   UNL     1       4.817 -19.322   6.430  1.00  0.00     0.167 HD
ATOM     26  C   UNL     1       8.561 -18.560   8.552  1.00  0.00     0.037 A 
ATOM     27  C   UNL     1       2.133 -20.069   6.234  1.00  0.00     0.037 A 
ATOM     28  C   UNL     1       7.625 -18.969   9.569  1.00  0.00     0.049 A 
ATOM     29  C   UNL     1       2.503 -20.217   7.680  1.00  0.00     0.074 A 
ATOM     30  C   UNL     1       7.827 -19.081  10.934  1.00  0.00     0.029 A 
ATOM     31  N   UNL     1       6.310 -19.341   9.330  1.00  0.00    -0.354 N 
ATOM     32  N   UNL     1       3.643 -19.955   8.270  1.00  0.00    -0.248 NA
ATOM     33  C   UNL     1       1.458 -20.722   8.579  1.00  0.00     0.031 C 
ATOM     34  C   UNL     1       6.649 -19.564  11.514  1.00  0.00     0.029 A 
ATOM     35  C   UNL     1       5.696 -19.706  10.518  1.00  0.00     0.049 A 
ATOM     36  H   UNL     1       5.876 -19.345   8.446  1.00  0.00     0.167 HD
ATOM     37  C   UNL     1       3.449 -20.242   9.614  1.00  0.00     0.074 A 
ATOM     38  C   UNL     1       2.076 -20.685   9.752  1.00  0.00     0.031 C 
ATOM     39  C   UNL     1       4.329 -20.144  10.641  1.00  0.00     0.037 A 
BRANCH  26  40
ATOM     40  C   UNL     1       9.977 -18.271   8.962  1.00  0.00     0.057 A 
ATOM     41  C   UNL     1      10.501 -16.972   8.965  1.00  0.00     0.134 A 
ATOM     42  C   UNL     1      10.822 -19.307   9.382  1.00  0.00     0.134 A 
ATOM     43  F   UNL     1       9.750 -15.934   8.565  1.00  0.00    -0.206 F 
ATOM     44  C   UNL     1      11.822 -16.717   9.343  1.00  0.00     0.040 A 
ATOM     45  C   UNL     1      12.136 -19.062   9.786  1.00  0.00     0.040 A 
ATOM     46  F   UNL     1      10.383 -20.574   9.412  1.00  0.00    -0.206 F 
ATOM     47  C   UNL     1      12.642 -17.764   9.759  1.00  0.00     0.006 A 
ENDBRANCH  26  40
BRANCH  27  48
ATOM     48  C   UNL     1       0.760 -20.367   5.759  1.00  0.00     0.057 A 
ATOM     49  C   UNL     1      -0.313 -19.533   6.090  1.00  0.00     0.134 A 
ATOM     50  C   UNL     1       0.494 -21.471   4.939  1.00  0.00     0.134 A 
ATOM     51  F   UNL     1      -0.121 -18.469   6.883  1.00  0.00    -0.206 F 
ATOM     52  C   UNL     1      -1.605 -19.789   5.628  1.00  0.00     0.040 A 
ATOM     53  C   UNL     1      -0.788 -21.725   4.451  1.00  0.00     0.040 A 
ATOM     54  F   UNL     1       1.484 -22.302   4.580  1.00  0.00    -0.206 F 
ATOM     55  C   UNL     1      -1.843 -20.884   4.799  1.00  0.00     0.006 A 
ENDBRANCH  27  48
BRANCH  39  56
ATOM     56  C   UNL     1       3.818 -20.490  12.008  1.00  0.00     0.057 A 
ATOM     57  C   UNL     1       3.558 -21.813  12.389  1.00  0.00     0.134 A 
ATOM     58  C   UNL     1       3.603 -19.487  12.962  1.00  0.00     0.134 A 
ATOM     59  F   UNL     1       3.729 -22.818  11.517  1.00  0.00    -0.206 F 
ATOM     60  C   UNL     1       3.078 -22.123  13.663  1.00  0.00     0.040 A 
ATOM     61  C   UNL     1       3.148 -19.787  14.246  1.00  0.00     0.040 A 
ATOM     62  F   UNL     1       3.838 -18.201  12.662  1.00  0.00    -0.206 F 
ATOM     63  C   UNL     1       2.878 -21.108  14.597  1.00  0.00     0.006 A 
ENDBRANCH  39  56
ENDBRANCH  13  14
ENDBRANCH   6   8
ENDBRANCH   3   4
ENDBRANCH   2   3
ENDBRANCH   1   2
BRANCH   1  64
ATOM     64  C   UNL     1       8.298 -11.964  -2.245  1.00  0.00     0.002 C 
BRANCH  64  65
ATOM     65  C   UNL     1       7.694 -10.953  -1.265  1.00  0.00     0.021 C 
BRANCH  65  66
ATOM     66  C   UNL     1       8.657  -9.892  -0.737  1.00  0.00     0.116 C 
BRANCH  66  67
ATOM     67  N   UNL     1       9.193  -9.068  -1.802  1.00  0.00    -0.351 N 
ATOM     68  C   UNL     1       9.402  -7.718  -1.828  1.00  0.00     0.279 C 
ATOM     69  H   UNL     1       9.443  -9.550  -2.623  1.00  0.00     0.163 HD
ATOM     70  O   UNL     1       9.909  -7.246  -2.849  1.00  0.00    -0.268 OA
BRANCH  68  71
ATOM     71  C   UNL     1       8.938  -6.842  -0.645  1.00  0.00     0.284 C 
ATOM     72  C   UNL     1       9.231  -5.353  -0.884  1.00  0.00     0.151 C 
ATOM     73  N   UNL     1       9.517  -7.312   0.657  1.00  0.00    -0.319 N 
ATOM     74  S   UNL     1      10.027  -4.770   0.626  1.00  0.00    -0.085 SA
ATOM     75  C   UNL     1      10.634  -6.427   1.038  1.00  0.00     0.303 C 
ATOM     76  H   UNL     1       9.859  -8.267   0.553  1.00  0.00     0.348 HD
ATOM     77  H   UNL     1       8.799  -7.288   1.380  1.00  0.00     0.348 HD
BRANCH  75  78
ATOM     78  C   UNL     1      11.990  -6.732   0.419  1.00  0.00     0.162 A 
ATOM     79  N   UNL     1      13.022  -5.904   0.441  1.00  0.00    -0.242 NA
ATOM     80  S   UNL     1      12.342  -8.270  -0.287  1.00  0.00    -0.112 S 
ATOM     81  C   UNL     1      14.076  -6.438  -0.275  1.00  0.00     0.132 A 
ATOM     82  C   UNL     1      13.855  -7.683  -0.821  1.00  0.00     0.055 A 
BRANCH  82  83
ATOM     83  C   UNL     1      14.682  -8.480  -1.714  1.00  0.00    -0.007 A 
ATOM     84  C   UNL     1      14.311  -8.632  -3.058  1.00  0.00     0.009 A 
ATOM     85  C   UNL     1      15.859  -9.082  -1.256  1.00  0.00     0.009 A 
ATOM     86  C   UNL     1      15.105  -9.378  -3.930  1.00  0.00     0.001 A 
ATOM     87  C   UNL     1      16.649  -9.833  -2.129  1.00  0.00     0.001 A 
ATOM     88  C   UNL     1      16.272  -9.979  -3.464  1.00  0.00     0.000 A 
ENDBRANCH  82  83
ENDBRANCH  75  78
ENDBRANCH  68  71
ENDBRANCH  66  67
ENDBRANCH  65  66
ENDBRANCH  64  65
ENDBRANCH   1  64
TORSDOF 15
