REMARK SMILES O=C(CC/C(=N\NC(=O)c1ccccc1Br)c1ccccc1)NCCCCCCNC(=O)c1ccc(-c2c3nc(c(-c4c(F)cccc4F)c4ccc([nH]4)c(-c4c(F)cccc4F)c4nc(c(-c5c(F)cccc5F)c5ccc2[nH]5)C=C4)C=C3)cc1
REMARK SMILES IDX 25 1 24 2 23 3 1 4 2 5 3 7 4 8 5 9 6 10 17 11 18 12 22 13
REMARK SMILES IDX 19 14 21 15 20 16 7 17 8 18 9 20 10 21 11 22 15 23 12 24
REMARK SMILES IDX 14 25 16 26 13 27 26 28 27 29 28 30 29 31 30 32 31 33 32 35
REMARK SMILES IDX 33 36 34 37 86 38 35 39 85 40 36 41 37 42 38 43 79 44 39 45
REMARK SMILES IDX 84 46 78 47 80 48 40 49 83 50 77 51 76 52 41 54 67 55 50 56
REMARK SMILES IDX 66 57 51 58 54 59 65 60 81 61 52 62 53 63 64 65 82 66 55 67
REMARK SMILES IDX 42 68 43 69 48 70 44 71 45 72 47 73 49 74 46 75 68 76 69 77
REMARK SMILES IDX 74 78 70 79 71 80 73 81 75 82 72 83 56 84 57 85 62 86 58 87
REMARK SMILES IDX 59 88 61 89 63 90 60 91
REMARK H PARENT 23 6 7 19 30 34 80 53 54 64
REMARK Flexibility Score: inf
ROOT
ATOM      1  C   UNL     1       2.327   3.944  -2.042  1.00  0.00     0.021 C 
ENDROOT
BRANCH   1   2
ATOM      2  C   UNL     1       1.582   2.760  -1.429  1.00  0.00     0.116 C 
BRANCH   2   3
ATOM      3  N   UNL     1       2.224   2.329  -0.214  1.00  0.00    -0.356 N 
ATOM      4  O   UNL     1       1.214   0.293  -0.009  1.00  0.00    -0.275 OA
ATOM      5  C   UNL     1       2.174   1.018   0.183  1.00  0.00     0.220 C 
ATOM      6  H   UNL     1       2.707   2.985   0.339  1.00  0.00     0.163 HD
BRANCH   5   7
ATOM      7  C   UNL     1       3.488   0.576   0.793  1.00  0.00     0.106 C 
BRANCH   7   8
ATOM      8  C   UNL     1       3.725  -0.915   0.623  1.00  0.00     0.068 C 
BRANCH   8   9
ATOM      9  C   UNL     1       4.715  -1.393  -0.447  1.00  0.00     0.069 C 
ATOM     10  N   UNL     1       5.814  -2.047  -0.189  1.00  0.00    -0.177 NA
BRANCH   9  11
ATOM     11  C   UNL     1       4.435  -1.157  -1.920  1.00  0.00    -0.002 A 
ATOM     12  C   UNL     1       5.457  -1.416  -2.853  1.00  0.00     0.010 A 
ATOM     13  C   UNL     1       3.188  -0.773  -2.414  1.00  0.00     0.010 A 
ATOM     14  C   UNL     1       5.246  -1.253  -4.227  1.00  0.00     0.001 A 
ATOM     15  C   UNL     1       2.984  -0.575  -3.787  1.00  0.00     0.001 A 
ATOM     16  C   UNL     1       4.013  -0.813  -4.693  1.00  0.00     0.000 A 
ENDBRANCH   9  11
BRANCH  10  17
ATOM     17  N   UNL     1       6.187  -2.502   1.036  1.00  0.00    -0.243 N 
ATOM     18  C   UNL     1       5.577  -3.450   1.846  1.00  0.00     0.272 C 
ATOM     19  H   UNL     1       7.009  -2.101   1.402  1.00  0.00     0.194 HD
ATOM     20  O   UNL     1       6.199  -3.952   2.783  1.00  0.00    -0.267 OA
BRANCH  18  21
ATOM     21  C   UNL     1       4.144  -3.770   1.716  1.00  0.00     0.055 A 
ATOM     22  C   UNL     1       3.343  -3.355   2.798  1.00  0.00     0.015 A 
ATOM     23  C   UNL     1       3.550  -4.346   0.591  1.00  0.00     0.030 A 
ATOM     24  C   UNL     1       1.954  -3.401   2.706  1.00  0.00     0.001 A 
ATOM     25  C   UNL     1       2.153  -4.393   0.507  1.00  0.00     0.016 A 
ATOM     26  Br  UNL     1       4.547  -5.104  -0.831  1.00  0.00    -0.050 Br
ATOM     27  C   UNL     1       1.360  -3.899   1.549  1.00  0.00     0.001 A 
ENDBRANCH  18  21
ENDBRANCH  10  17
ENDBRANCH   8   9
ENDBRANCH   7   8
ENDBRANCH   5   7
ENDBRANCH   2   3
ENDBRANCH   1   2
BRANCH   1  28
ATOM     28  C   UNL     1       3.864   3.829  -2.086  1.00  0.00     0.002 C 
BRANCH  28  29
ATOM     29  C   UNL     1       4.465   2.880  -3.123  1.00  0.00     0.002 C 
BRANCH  29  30
ATOM     30  C   UNL     1       4.008   3.087  -4.565  1.00  0.00     0.021 C 
BRANCH  30  31
ATOM     31  C   UNL     1       4.136   4.515  -5.079  1.00  0.00     0.116 C 
BRANCH  31  32
ATOM     32  N   UNL     1       5.515   4.940  -5.254  1.00  0.00    -0.352 N 
ATOM     33  C   UNL     1       6.043   5.718  -6.258  1.00  0.00     0.251 C 
ATOM     34  H   UNL     1       6.151   4.634  -4.567  1.00  0.00     0.163 HD
ATOM     35  O   UNL     1       7.254   5.892  -6.344  1.00  0.00    -0.269 OA
BRANCH  33  36
ATOM     36  C   UNL     1       5.138   6.316  -7.266  1.00  0.00     0.039 A 
ATOM     37  C   UNL     1       5.454   6.189  -8.621  1.00  0.00     0.014 A 
ATOM     38  C   UNL     1       3.968   6.973  -6.875  1.00  0.00     0.014 A 
ATOM     39  C   UNL     1       4.561   6.659  -9.587  1.00  0.00     0.010 A 
ATOM     40  C   UNL     1       3.048   7.378  -7.837  1.00  0.00     0.010 A 
ATOM     41  C   UNL     1       3.335   7.224  -9.202  1.00  0.00    -0.014 A 
BRANCH  41  42
ATOM     42  C   UNL     1       2.334   7.663 -10.205  1.00  0.00     0.031 A 
ATOM     43  C   UNL     1       1.958   9.114 -10.307  1.00  0.00     0.074 A 
ATOM     44  C   UNL     1       1.698   6.746 -10.959  1.00  0.00     0.049 A 
ATOM     45  N   UNL     1       1.032   9.681 -11.038  1.00  0.00    -0.248 NA
ATOM     46  C   UNL     1       2.701  10.048  -9.447  1.00  0.00     0.031 C 
ATOM     47  C   UNL     1       1.931   5.302 -10.911  1.00  0.00     0.029 A 
ATOM     48  N   UNL     1       0.708   6.892 -11.899  1.00  0.00    -0.354 N 
ATOM     49  C   UNL     1       1.067  11.030 -10.711  1.00  0.00     0.074 A 
ATOM     50  C   UNL     1       2.070  11.190  -9.680  1.00  0.00     0.031 C 
ATOM     51  C   UNL     1       1.114   4.696 -11.787  1.00  0.00     0.029 A 
ATOM     52  C   UNL     1       0.278   5.702 -12.434  1.00  0.00     0.049 A 
ATOM     53  H   UNL     1       0.341   7.766 -12.164  1.00  0.00     0.167 HD
ATOM     54  C   UNL     1       0.345  12.048 -11.237  1.00  0.00     0.037 A 
ATOM     55  C   UNL     1      -0.689   5.451 -13.336  1.00  0.00     0.037 A 
ATOM     56  C   UNL     1      -0.630  11.890 -12.283  1.00  0.00     0.049 A 
ATOM     57  C   UNL     1      -1.465   6.596 -13.921  1.00  0.00     0.074 A 
ATOM     58  C   UNL     1      -1.361  12.866 -12.937  1.00  0.00     0.029 A 
ATOM     59  N   UNL     1      -1.009  10.673 -12.829  1.00  0.00    -0.354 N 
ATOM     60  N   UNL     1      -1.373   7.877 -13.653  1.00  0.00    -0.248 NA
ATOM     61  C   UNL     1      -2.475   6.265 -14.936  1.00  0.00     0.031 C 
ATOM     62  C   UNL     1      -2.209  12.236 -13.854  1.00  0.00     0.029 A 
ATOM     63  C   UNL     1      -1.979  10.870 -13.798  1.00  0.00     0.049 A 
ATOM     64  H   UNL     1      -0.642   9.797 -12.567  1.00  0.00     0.167 HD
ATOM     65  C   UNL     1      -2.298   8.505 -14.476  1.00  0.00     0.074 A 
ATOM     66  C   UNL     1      -2.930   7.466 -15.264  1.00  0.00     0.031 C 
ATOM     67  C   UNL     1      -2.599   9.823 -14.569  1.00  0.00     0.037 A 
BRANCH  54  68
ATOM     68  C   UNL     1       0.591  13.421 -10.685  1.00  0.00     0.057 A 
ATOM     69  C   UNL     1       1.783  14.115 -10.934  1.00  0.00     0.134 A 
ATOM     70  C   UNL     1      -0.378  14.064  -9.903  1.00  0.00     0.134 A 
ATOM     71  F   UNL     1       2.757  13.550 -11.665  1.00  0.00    -0.206 F 
ATOM     72  C   UNL     1       2.017  15.382 -10.399  1.00  0.00     0.040 A 
ATOM     73  C   UNL     1      -0.166  15.342  -9.384  1.00  0.00     0.040 A 
ATOM     74  F   UNL     1      -1.544  13.459  -9.630  1.00  0.00    -0.206 F 
ATOM     75  C   UNL     1       1.038  16.002  -9.625  1.00  0.00     0.006 A 
ENDBRANCH  54  68
BRANCH  55  76
ATOM     76  C   UNL     1      -0.962   4.053 -13.751  1.00  0.00     0.057 A 
ATOM     77  C   UNL     1      -0.585   3.589 -15.016  1.00  0.00     0.134 A 
ATOM     78  C   UNL     1      -1.589   3.144 -12.889  1.00  0.00     0.134 A 
ATOM     79  F   UNL     1       0.003   4.418 -15.890  1.00  0.00    -0.206 F 
ATOM     80  C   UNL     1      -0.829   2.273 -15.414  1.00  0.00     0.040 A 
ATOM     81  C   UNL     1      -1.820   1.821 -13.267  1.00  0.00     0.040 A 
ATOM     82  F   UNL     1      -1.966   3.527 -11.661  1.00  0.00    -0.206 F 
ATOM     83  C   UNL     1      -1.444   1.384 -14.535  1.00  0.00     0.006 A 
ENDBRANCH  55  76
BRANCH  67  84
ATOM     84  C   UNL     1      -3.646  10.217 -15.567  1.00  0.00     0.057 A 
ATOM     85  C   UNL     1      -5.007   9.980 -15.335  1.00  0.00     0.134 A 
ATOM     86  C   UNL     1      -3.294  10.878 -16.750  1.00  0.00     0.134 A 
ATOM     87  F   UNL     1      -5.406   9.339 -14.227  1.00  0.00    -0.206 F 
ATOM     88  C   UNL     1      -5.980  10.375 -16.254  1.00  0.00     0.040 A 
ATOM     89  C   UNL     1      -4.260  11.296 -17.666  1.00  0.00     0.040 A 
ATOM     90  F   UNL     1      -2.007  11.140 -17.027  1.00  0.00    -0.206 F 
ATOM     91  C   UNL     1      -5.607  11.041 -17.420  1.00  0.00     0.006 A 
ENDBRANCH  67  84
ENDBRANCH  41  42
ENDBRANCH  33  36
ENDBRANCH  31  32
ENDBRANCH  30  31
ENDBRANCH  29  30
ENDBRANCH  28  29
ENDBRANCH   1  28
TORSDOF 18
