REMARK SMILES COc1ccc(-c2ccc(S(=O)(=O)NC(C)(C)C)cc2)c(C(=O)NCCCCCCNC(=O)c2ccc(-c3c4nc(c(-c5c(F)cccc5F)c5ccc([nH]5)c(-c5c(F)cccc5F)c5nc(c(-c6c(F)cccc6F)c6ccc3[nH]6)C=C5)C=C4)cc2)c1
REMARK SMILES IDX 26 1 25 2 24 3 22 4 23 5 21 7 3 8 4 9 88 10 5 11 6 12 2 13
REMARK SMILES IDX 1 14 7 15 8 16 20 17 9 18 19 19 10 20 11 21 12 22 13 23
REMARK SMILES IDX 14 24 15 26 16 27 17 28 18 29 27 30 28 31 29 32 30 33 31 34
REMARK SMILES IDX 32 35 33 37 34 38 35 39 87 40 36 41 86 42 37 43 38 44 39 45
REMARK SMILES IDX 80 46 40 47 85 48 79 49 81 50 41 51 84 52 78 53 77 54 42 56
REMARK SMILES IDX 68 57 51 58 67 59 52 60 55 61 66 62 82 63 53 64 54 65 65 67
REMARK SMILES IDX 83 68 56 69 43 70 44 71 49 72 45 73 46 74 48 75 50 76 47 77
REMARK SMILES IDX 69 78 70 79 75 80 71 81 72 82 74 83 76 84 73 85 57 86 58 87
REMARK SMILES IDX 63 88 59 89 60 90 62 91 64 92 61 93
REMARK H PARENT 24 6 14 25 31 36 81 55 55 66
REMARK Flexibility Score: inf
ROOT
ATOM      1  C   UNL     1       5.747  -2.411   0.624  1.00  0.00     0.021 C 
ENDROOT
BRANCH   1   2
ATOM      2  C   UNL     1       4.555  -2.245  -0.314  1.00  0.00     0.116 C 
BRANCH   2   3
ATOM      3  N   UNL     1       4.565  -3.089  -1.495  1.00  0.00    -0.352 N 
ATOM      4  C   UNL     1       3.517  -3.609  -2.231  1.00  0.00     0.252 C 
ATOM      5  O   UNL     1       3.770  -4.118  -3.319  1.00  0.00    -0.269 OA
ATOM      6  H   UNL     1       5.461  -3.329  -1.825  1.00  0.00     0.163 HD
BRANCH   4   7
ATOM      7  C   UNL     1       2.119  -3.578  -1.708  1.00  0.00     0.051 A 
ATOM      8  C   UNL     1       0.381  -2.280  -0.588  1.00  0.00     0.119 A 
ATOM      9  C   UNL     1      -0.408  -3.421  -0.514  1.00  0.00     0.047 A 
ATOM     10  C   UNL     1       1.626  -2.357  -1.207  1.00  0.00     0.060 A 
ATOM     11  C   UNL     1       0.021  -4.611  -1.102  1.00  0.00     0.013 A 
ATOM     12  C   UNL     1       1.274  -4.712  -1.747  1.00  0.00    -0.005 A 
BRANCH   8  13
ATOM     13  O   UNL     1      -0.164  -1.164  -0.018  1.00  0.00    -0.497 OA
ATOM     14  C   UNL     1       0.611   0.028  -0.065  1.00  0.00     0.278 C 
ENDBRANCH   8  13
BRANCH  12  15
ATOM     15  C   UNL     1       1.561  -5.956  -2.494  1.00  0.00    -0.018 A 
ATOM     16  C   UNL     1       0.653  -6.381  -3.487  1.00  0.00     0.010 A 
ATOM     17  C   UNL     1       2.706  -6.737  -2.275  1.00  0.00     0.010 A 
ATOM     18  C   UNL     1       0.869  -7.546  -4.224  1.00  0.00     0.022 A 
ATOM     19  C   UNL     1       2.954  -7.882  -3.044  1.00  0.00     0.022 A 
ATOM     20  C   UNL     1       2.022  -8.294  -3.998  1.00  0.00     0.082 A 
BRANCH  20  21
ATOM     21  S   UNL     1       2.245  -9.780  -4.933  1.00  0.00     0.241 S 
ATOM     22  O   UNL     1       0.953 -10.409  -5.090  1.00  0.00    -0.207 OA
ATOM     23  O   UNL     1       3.050  -9.425  -6.082  1.00  0.00    -0.207 OA
BRANCH  21  24
ATOM     24  N   UNL     1       3.225 -10.771  -4.006  1.00  0.00    -0.206 NA
ATOM     25  H   UNL     1       3.929 -10.148  -3.612  1.00  0.00     0.141 HD
BRANCH  24  26
ATOM     26  C   UNL     1       2.810 -11.636  -2.880  1.00  0.00     0.025 C 
ATOM     27  C   UNL     1       1.668 -12.582  -3.256  1.00  0.00     0.028 C 
ATOM     28  C   UNL     1       4.047 -12.487  -2.527  1.00  0.00     0.028 C 
ATOM     29  C   UNL     1       2.429 -10.808  -1.653  1.00  0.00     0.028 C 
ENDBRANCH  24  26
ENDBRANCH  21  24
ENDBRANCH  20  21
ENDBRANCH  12  15
ENDBRANCH   4   7
ENDBRANCH   2   3
ENDBRANCH   1   2
BRANCH   1  30
ATOM     30  C   UNL     1       7.149  -2.308   0.021  1.00  0.00     0.002 C 
BRANCH  30  31
ATOM     31  C   UNL     1       7.448  -1.109  -0.880  1.00  0.00     0.002 C 
BRANCH  31  32
ATOM     32  C   UNL     1       7.155   0.282  -0.316  1.00  0.00     0.021 C 
BRANCH  32  33
ATOM     33  C   UNL     1       7.751   0.609   1.050  1.00  0.00     0.116 C 
BRANCH  33  34
ATOM     34  N   UNL     1       9.199   0.524   1.086  1.00  0.00    -0.352 N 
ATOM     35  C   UNL     1      10.127   1.400   1.595  1.00  0.00     0.251 C 
ATOM     36  H   UNL     1       9.576  -0.290   0.680  1.00  0.00     0.163 HD
ATOM     37  O   UNL     1      11.323   1.169   1.436  1.00  0.00    -0.269 OA
BRANCH  35  38
ATOM     38  C   UNL     1       9.714   2.635   2.304  1.00  0.00     0.039 A 
ATOM     39  C   UNL     1      10.432   3.810   2.055  1.00  0.00     0.014 A 
ATOM     40  C   UNL     1       8.666   2.651   3.231  1.00  0.00     0.014 A 
ATOM     41  C   UNL     1      10.066   5.002   2.684  1.00  0.00     0.010 A 
ATOM     42  C   UNL     1       8.258   3.856   3.807  1.00  0.00     0.010 A 
ATOM     43  C   UNL     1       8.956   5.044   3.543  1.00  0.00    -0.014 A 
BRANCH  43  44
ATOM     44  C   UNL     1       8.521   6.331   4.145  1.00  0.00     0.031 A 
ATOM     45  C   UNL     1       8.616   6.564   5.627  1.00  0.00     0.074 A 
ATOM     46  C   UNL     1       8.013   7.293   3.350  1.00  0.00     0.049 A 
ATOM     47  N   UNL     1       8.336   7.644   6.313  1.00  0.00    -0.248 NA
ATOM     48  C   UNL     1       9.062   5.430   6.450  1.00  0.00     0.031 C 
ATOM     49  C   UNL     1       7.809   7.172   1.906  1.00  0.00     0.029 A 
ATOM     50  N   UNL     1       7.587   8.564   3.642  1.00  0.00    -0.354 N 
ATOM     51  C   UNL     1       8.566   7.320   7.644  1.00  0.00     0.074 A 
ATOM     52  C   UNL     1       8.955   5.926   7.674  1.00  0.00     0.031 C 
ATOM     53  C   UNL     1       7.339   8.337   1.431  1.00  0.00     0.029 A 
ATOM     54  C   UNL     1       7.190   9.277   2.538  1.00  0.00     0.049 A 
ATOM     55  H   UNL     1       7.568   8.930   4.556  1.00  0.00     0.167 HD
ATOM     56  C   UNL     1       8.485   8.114   8.739  1.00  0.00     0.037 A 
ATOM     57  C   UNL     1       6.771  10.551   2.424  1.00  0.00     0.037 A 
ATOM     58  C   UNL     1       8.115   9.506   8.708  1.00  0.00     0.049 A 
ATOM     59  C   UNL     1       6.712  11.421   3.647  1.00  0.00     0.074 A 
ATOM     60  C   UNL     1       8.065  10.411   9.755  1.00  0.00     0.029 A 
ATOM     61  N   UNL     1       7.726  10.194   7.569  1.00  0.00    -0.354 N 
ATOM     62  N   UNL     1       7.012  11.124   4.888  1.00  0.00    -0.248 NA
ATOM     63  C   UNL     1       6.268  12.808   3.449  1.00  0.00     0.031 C 
ATOM     64  C   UNL     1       7.609  11.637   9.255  1.00  0.00     0.029 A 
ATOM     65  C   UNL     1       7.415  11.507   7.889  1.00  0.00     0.049 A 
ATOM     66  H   UNL     1       7.677   9.808   6.664  1.00  0.00     0.167 HD
ATOM     67  C   UNL     1       6.818  12.291   5.615  1.00  0.00     0.074 A 
ATOM     68  C   UNL     1       6.388  13.304   4.672  1.00  0.00     0.031 C 
ATOM     69  C   UNL     1       6.983  12.504   6.943  1.00  0.00     0.037 A 
BRANCH  56  70
ATOM     70  C   UNL     1       8.806   7.489  10.065  1.00  0.00     0.057 A 
ATOM     71  C   UNL     1      10.114   7.119  10.409  1.00  0.00     0.134 A 
ATOM     72  C   UNL     1       7.803   7.265  11.015  1.00  0.00     0.134 A 
ATOM     73  F   UNL     1      11.121   7.295   9.539  1.00  0.00    -0.206 F 
ATOM     74  C   UNL     1      10.406   6.518  11.634  1.00  0.00     0.040 A 
ATOM     75  C   UNL     1       8.086   6.689  12.255  1.00  0.00     0.040 A 
ATOM     76  F   UNL     1       6.530   7.601  10.755  1.00  0.00    -0.206 F 
ATOM     77  C   UNL     1       9.390   6.306  12.564  1.00  0.00     0.006 A 
ENDBRANCH  56  70
BRANCH  57  78
ATOM     78  C   UNL     1       6.439  11.098   1.086  1.00  0.00     0.057 A 
ATOM     79  C   UNL     1       7.296  12.004   0.450  1.00  0.00     0.134 A 
ATOM     80  C   UNL     1       5.278  10.718   0.405  1.00  0.00     0.134 A 
ATOM     81  F   UNL     1       8.416  12.417   1.062  1.00  0.00    -0.206 F 
ATOM     82  C   UNL     1       7.005  12.521  -0.813  1.00  0.00     0.040 A 
ATOM     83  C   UNL     1       4.984  11.211  -0.867  1.00  0.00     0.040 A 
ATOM     84  F   UNL     1       4.423   9.847   0.960  1.00  0.00    -0.206 F 
ATOM     85  C   UNL     1       5.848  12.119  -1.477  1.00  0.00     0.006 A 
ENDBRANCH  57  78
BRANCH  69  86
ATOM     86  C   UNL     1       6.719  13.892   7.448  1.00  0.00     0.057 A 
ATOM     87  C   UNL     1       5.420  14.407   7.548  1.00  0.00     0.134 A 
ATOM     88  C   UNL     1       7.776  14.719   7.850  1.00  0.00     0.134 A 
ATOM     89  F   UNL     1       4.366  13.671   7.165  1.00  0.00    -0.206 F 
ATOM     90  C   UNL     1       5.184  15.705   8.003  1.00  0.00     0.040 A 
ATOM     91  C   UNL     1       7.550  16.010   8.329  1.00  0.00     0.040 A 
ATOM     92  F   UNL     1       9.043  14.284   7.786  1.00  0.00    -0.206 F 
ATOM     93  C   UNL     1       6.251  16.509   8.399  1.00  0.00     0.006 A 
ENDBRANCH  69  86
ENDBRANCH  43  44
ENDBRANCH  35  38
ENDBRANCH  33  34
ENDBRANCH  32  33
ENDBRANCH  31  32
ENDBRANCH  30  31
ENDBRANCH   1  30
TORSDOF 18
