REMARK SMILES C[C@H](C[NH3+])S[C@H](C)c1ccc(C(=O)NCCCCCCNC(=O)c2ccc(-c3c4nc(c(-c5c(F)cccc5F)c5ccc([nH]5)c(-c5c(F)cccc5F)c5nc(c(-c6c(F)cccc6F)c6ccc3[nH]6)C=C5)C=C4)cc2)o1
REMARK SMILES IDX 16 1 15 2 14 3 12 4 13 5 11 7 8 8 9 9 78 10 10 11 6 12 7 13
REMARK SMILES IDX 5 14 2 15 1 16 3 17 4 18 17 22 18 23 19 24 20 25 21 26 22 27
REMARK SMILES IDX 23 29 24 30 25 31 77 32 26 33 76 34 27 35 28 36 29 37 70 38
REMARK SMILES IDX 30 39 75 40 69 41 71 42 31 43 74 44 68 45 67 46 32 48 58 49
REMARK SMILES IDX 41 50 57 51 42 52 45 53 56 54 72 55 43 56 44 57 55 59 73 60
REMARK SMILES IDX 46 61 33 62 34 63 39 64 35 65 36 66 38 67 40 68 37 69 59 70
REMARK SMILES IDX 60 71 65 72 61 73 62 74 64 75 66 76 63 77 47 78 48 79 53 80
REMARK SMILES IDX 49 81 50 82 52 83 54 84 51 85
REMARK H PARENT 14 6 4 19 4 20 4 21 21 28 71 47 45 58
REMARK Flexibility Score: inf
ROOT
ATOM      1  C   UNL     1      -0.345  -0.991   6.528  1.00  0.00     0.021 C 
ENDROOT
BRANCH   1   2
ATOM      2  C   UNL     1       0.573  -1.382   5.370  1.00  0.00     0.116 C 
BRANCH   2   3
ATOM      3  N   UNL     1       0.173  -2.654   4.807  1.00  0.00    -0.349 N 
ATOM      4  C   UNL     1      -0.478  -2.969   3.639  1.00  0.00     0.286 C 
ATOM      5  O   UNL     1      -0.655  -4.173   3.434  1.00  0.00    -0.266 OA
ATOM      6  H   UNL     1       0.409  -3.433   5.361  1.00  0.00     0.163 HD
BRANCH   4   7
ATOM      7  C   UNL     1      -0.914  -1.947   2.704  1.00  0.00     0.191 A 
ATOM      8  C   UNL     1      -1.543  -1.301   0.669  1.00  0.00     0.117 A 
ATOM      9  C   UNL     1      -1.588  -0.181   1.473  1.00  0.00     0.047 A 
ATOM     10  O   UNL     1      -1.145  -2.366   1.418  1.00  0.00    -0.455 OA
ATOM     11  C   UNL     1      -1.211  -0.598   2.775  1.00  0.00     0.056 A 
BRANCH   8  12
ATOM     12  C   UNL     1      -1.917  -1.544  -0.765  1.00  0.00     0.110 C 
ATOM     13  C   UNL     1      -1.510  -0.363  -1.651  1.00  0.00     0.028 C 
BRANCH  12  14
ATOM     14  S   UNL     1      -1.138  -3.034  -1.499  1.00  0.00    -0.142 SA
BRANCH  14  15
ATOM     15  C   UNL     1      -2.502  -4.285  -1.409  1.00  0.00     0.099 C 
ATOM     16  C   UNL     1      -3.754  -3.828  -2.158  1.00  0.00     0.025 C 
BRANCH  15  17
ATOM     17  C   UNL     1      -2.835  -4.729   0.031  1.00  0.00     0.273 C 
BRANCH  17  18
ATOM     18  N   UNL     1      -1.681  -5.327   0.701  1.00  0.00    -0.357 N 
ATOM     19  H   UNL     1      -1.385  -6.159   0.190  1.00  0.00     0.344 HD
ATOM     20  H   UNL     1      -1.938  -5.587   1.653  1.00  0.00     0.344 HD
ATOM     21  H   UNL     1      -0.916  -4.654   0.727  1.00  0.00     0.344 HD
ENDBRANCH  17  18
ENDBRANCH  15  17
ENDBRANCH  14  15
ENDBRANCH  12  14
ENDBRANCH   8  12
ENDBRANCH   4   7
ENDBRANCH   2   3
ENDBRANCH   1   2
BRANCH   1  22
ATOM     22  C   UNL     1      -0.008  -1.705   7.846  1.00  0.00     0.002 C 
BRANCH  22  23
ATOM     23  C   UNL     1       1.389  -1.409   8.411  1.00  0.00     0.002 C 
BRANCH  23  24
ATOM     24  C   UNL     1       1.730   0.075   8.571  1.00  0.00     0.021 C 
BRANCH  24  25
ATOM     25  C   UNL     1       0.805   0.842   9.511  1.00  0.00     0.116 C 
BRANCH  25  26
ATOM     26  N   UNL     1       0.924   0.383  10.886  1.00  0.00    -0.352 N 
ATOM     27  C   UNL     1       1.178   1.104  12.025  1.00  0.00     0.251 C 
ATOM     28  H   UNL     1       0.805  -0.585  11.018  1.00  0.00     0.163 HD
ATOM     29  O   UNL     1       1.442   0.527  13.075  1.00  0.00    -0.269 OA
BRANCH  27  30
ATOM     30  C   UNL     1       1.149   2.582  11.987  1.00  0.00     0.039 A 
ATOM     31  C   UNL     1       2.171   3.295  12.621  1.00  0.00     0.014 A 
ATOM     32  C   UNL     1       0.108   3.263  11.349  1.00  0.00     0.014 A 
ATOM     33  C   UNL     1       2.179   4.690  12.568  1.00  0.00     0.010 A 
ATOM     34  C   UNL     1       0.150   4.651  11.244  1.00  0.00     0.010 A 
ATOM     35  C   UNL     1       1.184   5.378  11.855  1.00  0.00    -0.014 A 
BRANCH  35  36
ATOM     36  C   UNL     1       1.206   6.857  11.735  1.00  0.00     0.031 A 
ATOM     37  C   UNL     1       0.117   7.682  12.361  1.00  0.00     0.074 A 
ATOM     38  C   UNL     1       2.167   7.451  11.002  1.00  0.00     0.049 A 
ATOM     39  N   UNL     1      -0.085   8.973  12.294  1.00  0.00    -0.248 NA
ATOM     40  C   UNL     1      -0.894   6.955  13.146  1.00  0.00     0.031 C 
ATOM     41  C   UNL     1       3.254   6.757  10.310  1.00  0.00     0.029 A 
ATOM     42  N   UNL     1       2.376   8.775  10.707  1.00  0.00    -0.354 N 
ATOM     43  C   UNL     1      -1.251   9.211  13.010  1.00  0.00     0.074 A 
ATOM     44  C   UNL     1      -1.736   7.926  13.466  1.00  0.00     0.031 C 
ATOM     45  C   UNL     1       4.024   7.662   9.684  1.00  0.00     0.029 A 
ATOM     46  C   UNL     1       3.466   8.993   9.901  1.00  0.00     0.049 A 
ATOM     47  H   UNL     1       1.798   9.499  11.041  1.00  0.00     0.167 HD
ATOM     48  C   UNL     1      -1.852  10.395  13.280  1.00  0.00     0.037 A 
ATOM     49  C   UNL     1       3.956  10.137   9.388  1.00  0.00     0.037 A 
ATOM     50  C   UNL     1      -1.352  11.674  12.849  1.00  0.00     0.049 A 
ATOM     51  C   UNL     1       3.274  11.438   9.706  1.00  0.00     0.074 A 
ATOM     52  C   UNL     1      -1.856  12.933  13.122  1.00  0.00     0.029 A 
ATOM     53  N   UNL     1      -0.230  11.856  12.056  1.00  0.00    -0.354 N 
ATOM     54  N   UNL     1       2.204  11.654  10.432  1.00  0.00    -0.248 NA
ATOM     55  C   UNL     1       3.870  12.655   9.137  1.00  0.00     0.031 C 
ATOM     56  C   UNL     1      -1.059  13.876  12.464  1.00  0.00     0.029 A 
ATOM     57  C   UNL     1      -0.035  13.206  11.815  1.00  0.00     0.049 A 
ATOM     58  H   UNL     1       0.344  11.132  11.714  1.00  0.00     0.167 HD
ATOM     59  C   UNL     1       2.015  13.030  10.431  1.00  0.00     0.074 A 
ATOM     60  C   UNL     1       3.086  13.599   9.639  1.00  0.00     0.031 C 
ATOM     61  C   UNL     1       1.041  13.756  11.032  1.00  0.00     0.037 A 
BRANCH  48  62
ATOM     62  C   UNL     1      -3.119  10.359  14.083  1.00  0.00     0.057 A 
ATOM     63  C   UNL     1      -3.117  10.052  15.450  1.00  0.00     0.134 A 
ATOM     64  C   UNL     1      -4.351  10.667  13.492  1.00  0.00     0.134 A 
ATOM     65  F   UNL     1      -1.972   9.736  16.074  1.00  0.00    -0.206 F 
ATOM     66  C   UNL     1      -4.297  10.028  16.195  1.00  0.00     0.040 A 
ATOM     67  C   UNL     1      -5.534  10.671  14.232  1.00  0.00     0.040 A 
ATOM     68  F   UNL     1      -4.423  10.976  12.188  1.00  0.00    -0.206 F 
ATOM     69  C   UNL     1      -5.510  10.345  15.586  1.00  0.00     0.006 A 
ENDBRANCH  48  62
BRANCH  49  70
ATOM     70  C   UNL     1       5.173  10.108   8.540  1.00  0.00     0.057 A 
ATOM     71  C   UNL     1       6.392  10.605   9.013  1.00  0.00     0.134 A 
ATOM     72  C   UNL     1       5.148   9.585   7.242  1.00  0.00     0.134 A 
ATOM     73  F   UNL     1       6.473  11.135  10.243  1.00  0.00    -0.206 F 
ATOM     74  C   UNL     1       7.541  10.601   8.220  1.00  0.00     0.040 A 
ATOM     75  C   UNL     1       6.294   9.554   6.446  1.00  0.00     0.040 A 
ATOM     76  F   UNL     1       4.011   9.087   6.734  1.00  0.00    -0.206 F 
ATOM     77  C   UNL     1       7.494  10.069   6.933  1.00  0.00     0.006 A 
ENDBRANCH  49  70
BRANCH  61  78
ATOM     78  C   UNL     1       1.110  15.247  10.885  1.00  0.00     0.057 A 
ATOM     79  C   UNL     1       0.780  15.886   9.684  1.00  0.00     0.134 A 
ATOM     80  C   UNL     1       1.474  16.052  11.971  1.00  0.00     0.134 A 
ATOM     81  F   UNL     1       0.437  15.169   8.604  1.00  0.00    -0.206 F 
ATOM     82  C   UNL     1       0.829  17.276   9.563  1.00  0.00     0.040 A 
ATOM     83  C   UNL     1       1.503  17.444  11.869  1.00  0.00     0.040 A 
ATOM     84  F   UNL     1       1.794  15.501  13.152  1.00  0.00    -0.206 F 
ATOM     85  C   UNL     1       1.185  18.059  10.660  1.00  0.00     0.006 A 
ENDBRANCH  61  78
ENDBRANCH  35  36
ENDBRANCH  27  30
ENDBRANCH  25  26
ENDBRANCH  24  25
ENDBRANCH  23  24
ENDBRANCH  22  23
ENDBRANCH   1  22
TORSDOF 18
