REMARK SMILES Cc1cc(F)ccc1S(=O)(=O)N1CCO[C@H](CC(=O)NCCCCCCNC(=O)c2ccc(-c3c4nc(c(-c5c(F)cccc5F)c5ccc([nH]5)c(-c5c(F)cccc5F)c5nc(c(-c6c(F)cccc6F)c6ccc3[nH]6)C=C5)C=C4)cc2)C1
REMARK SMILES IDX 23 1 22 2 21 3 20 4 18 5 19 6 17 8 16 9 12 10 13 11 84 12
REMARK SMILES IDX 14 13 15 14 9 15 10 16 11 17 8 18 1 19 2 20 3 21 4 22 7 23
REMARK SMILES IDX 5 24 6 25 24 26 25 27 26 28 27 29 28 30 29 32 30 33 31 34
REMARK SMILES IDX 83 35 32 36 82 37 33 38 34 39 35 40 76 41 36 42 81 43 75 44
REMARK SMILES IDX 77 45 37 46 80 47 74 48 73 49 38 51 64 52 47 53 63 54 48 55
REMARK SMILES IDX 51 56 62 57 78 58 49 59 50 60 61 62 79 63 52 64 39 65 40 66
REMARK SMILES IDX 45 67 41 68 42 69 44 70 46 71 43 72 65 73 66 74 71 75 67 76
REMARK SMILES IDX 68 77 70 78 72 79 69 80 53 81 54 82 59 83 55 84 56 85 58 86
REMARK SMILES IDX 60 87 57 88
REMARK H PARENT 20 7 27 31 77 50 51 61
REMARK Flexibility Score: inf
ROOT
ATOM      1  C   UNL     1       4.821   5.207  -4.768  1.00  0.00     0.002 C 
ENDROOT
BRANCH   1   2
ATOM      2  C   UNL     1       4.925   4.425  -3.453  1.00  0.00     0.021 C 
BRANCH   2   3
ATOM      3  C   UNL     1       3.567   3.973  -2.929  1.00  0.00     0.116 C 
BRANCH   3   4
ATOM      4  N   UNL     1       2.992   3.012  -3.847  1.00  0.00    -0.356 N 
ATOM      5  C   UNL     1       3.007   1.659  -3.722  1.00  0.00     0.222 C 
ATOM      6  O   UNL     1       2.803   0.946  -4.702  1.00  0.00    -0.275 OA
ATOM      7  H   UNL     1       2.544   3.376  -4.644  1.00  0.00     0.163 HD
BRANCH   5   8
ATOM      8  C   UNL     1       3.213   1.085  -2.351  1.00  0.00     0.133 C 
BRANCH   8   9
ATOM      9  C   UNL     1       4.670   0.705  -2.062  1.00  0.00     0.142 C 
ATOM     10  N   UNL     1       3.979  -0.566  -0.139  1.00  0.00    -0.193 NA
ATOM     11  C   UNL     1       4.787   0.218   0.814  1.00  0.00     0.131 C 
ATOM     12  C   UNL     1       4.685  -0.693  -1.436  1.00  0.00     0.135 C 
ATOM     13  C   UNL     1       5.123   1.597   0.196  1.00  0.00     0.177 C 
ATOM     14  O   UNL     1       5.390   1.637  -1.218  1.00  0.00    -0.375 OA
BRANCH  10  15
ATOM     15  S   UNL     1       2.888  -1.725   0.376  1.00  0.00     0.243 S 
ATOM     16  O   UNL     1       3.081  -1.935   1.797  1.00  0.00    -0.207 OA
ATOM     17  O   UNL     1       2.976  -2.822  -0.564  1.00  0.00    -0.207 OA
BRANCH  15  18
ATOM     18  C   UNL     1       1.207  -1.063   0.201  1.00  0.00     0.085 A 
ATOM     19  C   UNL     1       1.660   1.388   0.895  1.00  0.00     0.046 C 
ATOM     20  C   UNL     1       0.797   0.271   0.417  1.00  0.00    -0.028 A 
ATOM     21  C   UNL     1      -0.570   0.596   0.265  1.00  0.00     0.044 A 
ATOM     22  C   UNL     1      -1.508  -0.375  -0.051  1.00  0.00     0.123 A 
ATOM     23  C   UNL     1       0.229  -2.030  -0.122  1.00  0.00     0.025 A 
ATOM     24  F   UNL     1      -2.799  -0.034  -0.152  1.00  0.00    -0.207 F 
ATOM     25  C   UNL     1      -1.122  -1.690  -0.234  1.00  0.00     0.040 A 
ENDBRANCH  15  18
ENDBRANCH  10  15
ENDBRANCH   8   9
ENDBRANCH   5   8
ENDBRANCH   3   4
ENDBRANCH   2   3
ENDBRANCH   1   2
BRANCH   1  26
ATOM     26  C   UNL     1       3.915   6.440  -4.691  1.00  0.00     0.002 C 
BRANCH  26  27
ATOM     27  C   UNL     1       4.304   7.436  -3.598  1.00  0.00     0.021 C 
BRANCH  27  28
ATOM     28  C   UNL     1       5.729   7.961  -3.724  1.00  0.00     0.116 C 
BRANCH  28  29
ATOM     29  N   UNL     1       5.928   8.672  -4.976  1.00  0.00    -0.352 N 
ATOM     30  C   UNL     1       6.420   9.934  -5.185  1.00  0.00     0.251 C 
ATOM     31  H   UNL     1       5.673   8.178  -5.788  1.00  0.00     0.163 HD
ATOM     32  O   UNL     1       6.310  10.469  -6.283  1.00  0.00    -0.269 OA
BRANCH  30  33
ATOM     33  C   UNL     1       7.072  10.652  -4.072  1.00  0.00     0.039 A 
ATOM     34  C   UNL     1       6.767  11.999  -3.870  1.00  0.00     0.014 A 
ATOM     35  C   UNL     1       7.982   9.998  -3.236  1.00  0.00     0.014 A 
ATOM     36  C   UNL     1       7.342  12.679  -2.797  1.00  0.00     0.010 A 
ATOM     37  C   UNL     1       8.491  10.655  -2.121  1.00  0.00     0.010 A 
ATOM     38  C   UNL     1       8.185  12.005  -1.897  1.00  0.00    -0.014 A 
BRANCH  38  39
ATOM     39  C   UNL     1       8.754  12.703  -0.718  1.00  0.00     0.031 A 
ATOM     40  C   UNL     1      10.240  12.885  -0.589  1.00  0.00     0.074 A 
ATOM     41  C   UNL     1       7.931  13.130   0.259  1.00  0.00     0.049 A 
ATOM     42  N   UNL     1      10.923  13.442   0.379  1.00  0.00    -0.248 NA
ATOM     43  C   UNL     1      11.072  12.347  -1.677  1.00  0.00     0.031 C 
ATOM     44  C   UNL     1       6.477  12.963   0.274  1.00  0.00     0.029 A 
ATOM     45  N   UNL     1       8.202  13.787   1.432  1.00  0.00    -0.354 N 
ATOM     46  C   UNL     1      12.259  13.312   0.022  1.00  0.00     0.074 A 
ATOM     47  C   UNL     1      12.295  12.572  -1.220  1.00  0.00     0.031 C 
ATOM     48  C   UNL     1       5.981  13.530   1.385  1.00  0.00     0.029 A 
ATOM     49  C   UNL     1       7.083  14.065   2.178  1.00  0.00     0.049 A 
ATOM     50  H   UNL     1       9.113  14.037   1.712  1.00  0.00     0.167 HD
ATOM     51  C   UNL     1      13.355  13.789   0.658  1.00  0.00     0.037 A 
ATOM     52  C   UNL     1       6.960  14.679   3.370  1.00  0.00     0.037 A 
ATOM     53  C   UNL     1      13.313  14.542   1.885  1.00  0.00     0.049 A 
ATOM     54  C   UNL     1       8.192  15.196   4.058  1.00  0.00     0.074 A 
ATOM     55  C   UNL     1      14.361  15.121   2.578  1.00  0.00     0.029 A 
ATOM     56  N   UNL     1      12.159  14.814   2.606  1.00  0.00    -0.354 N 
ATOM     57  N   UNL     1       9.444  15.133   3.672  1.00  0.00    -0.248 NA
ATOM     58  C   UNL     1       7.994  15.878   5.344  1.00  0.00     0.031 C 
ATOM     59  C   UNL     1      13.849  15.697   3.745  1.00  0.00     0.029 A 
ATOM     60  C   UNL     1      12.474  15.529   3.750  1.00  0.00     0.049 A 
ATOM     61  H   UNL     1      11.251  14.539   2.343  1.00  0.00     0.167 HD
ATOM     62  C   UNL     1      10.178  15.791   4.650  1.00  0.00     0.074 A 
ATOM     63  C   UNL     1       9.228  16.261   5.638  1.00  0.00     0.031 C 
ATOM     64  C   UNL     1      11.517  15.990   4.725  1.00  0.00     0.037 A 
BRANCH  51  65
ATOM     65  C   UNL     1      14.694  13.508   0.037  1.00  0.00     0.057 A 
ATOM     66  C   UNL     1      15.092  14.102  -1.169  1.00  0.00     0.134 A 
ATOM     67  C   UNL     1      15.611  12.658   0.669  1.00  0.00     0.134 A 
ATOM     68  F   UNL     1      14.258  14.917  -1.833  1.00  0.00    -0.206 F 
ATOM     69  C   UNL     1      16.338  13.836  -1.739  1.00  0.00     0.040 A 
ATOM     70  C   UNL     1      16.872  12.409   0.124  1.00  0.00     0.040 A 
ATOM     71  F   UNL     1      15.300  12.061   1.829  1.00  0.00    -0.206 F 
ATOM     72  C   UNL     1      17.236  12.993  -1.087  1.00  0.00     0.006 A 
ENDBRANCH  51  65
BRANCH  52  73
ATOM     73  C   UNL     1       5.617  14.859   3.977  1.00  0.00     0.057 A 
ATOM     74  C   UNL     1       5.037  16.129   4.089  1.00  0.00     0.134 A 
ATOM     75  C   UNL     1       4.883  13.771   4.464  1.00  0.00     0.134 A 
ATOM     76  F   UNL     1       5.698  17.212   3.655  1.00  0.00    -0.206 F 
ATOM     77  C   UNL     1       3.789  16.313   4.684  1.00  0.00     0.040 A 
ATOM     78  C   UNL     1       3.621  13.938   5.037  1.00  0.00     0.040 A 
ATOM     79  F   UNL     1       5.377  12.527   4.377  1.00  0.00    -0.206 F 
ATOM     80  C   UNL     1       3.074  15.214   5.155  1.00  0.00     0.006 A 
ENDBRANCH  52  73
BRANCH  64  81
ATOM     81  C   UNL     1      12.028  16.777   5.897  1.00  0.00     0.057 A 
ATOM     82  C   UNL     1      12.019  16.261   7.200  1.00  0.00     0.134 A 
ATOM     83  C   UNL     1      12.559  18.060   5.715  1.00  0.00     0.134 A 
ATOM     84  F   UNL     1      11.513  15.043   7.445  1.00  0.00    -0.206 F 
ATOM     85  C   UNL     1      12.489  17.005   8.283  1.00  0.00     0.040 A 
ATOM     86  C   UNL     1      13.062  18.802   6.785  1.00  0.00     0.040 A 
ATOM     87  F   UNL     1      12.608  18.611   4.493  1.00  0.00    -0.206 F 
ATOM     88  C   UNL     1      13.019  18.278   8.075  1.00  0.00     0.006 A 
ENDBRANCH  64  81
ENDBRANCH  38  39
ENDBRANCH  30  33
ENDBRANCH  28  29
ENDBRANCH  27  28
ENDBRANCH  26  27
ENDBRANCH   1  26
TORSDOF 16
