REMARK SMILES NS(=O)(=O)CCNC(=O)N1[C@@H]2CC[C@H]1C[C@H](CC(=O)NCCCCCCNC(=O)c1ccc(-c3c4nc(c(-c5c(F)cccc5F)c5ccc([nH]5)c(-c5c(F)cccc5F)c5nc(c(-c6c(F)cccc6F)c6ccc3[nH]6)C=C5)C=C4)cc1)C2
REMARK SMILES IDX 21 1 20 2 18 3 19 4 17 6 16 7 10 8 11 9 14 10 12 11 84 12
REMARK SMILES IDX 13 13 15 14 8 15 7 16 9 18 6 19 5 20 2 21 3 22 4 23 1 24
REMARK SMILES IDX 22 27 23 28 24 29 25 30 26 31 27 32 28 33 29 35 30 36 31 37
REMARK SMILES IDX 83 38 32 39 82 40 33 41 34 42 35 43 76 44 36 45 81 46 75 47
REMARK SMILES IDX 77 48 37 49 80 50 74 51 73 52 38 54 64 55 47 56 63 57 48 58
REMARK SMILES IDX 51 59 62 60 78 61 49 62 50 63 61 65 79 66 52 67 39 68 40 69
REMARK SMILES IDX 45 70 41 71 42 72 44 73 46 74 43 75 65 76 66 77 71 78 67 79
REMARK SMILES IDX 68 80 70 81 72 82 69 83 53 84 54 85 59 86 55 87 56 88 58 89
REMARK SMILES IDX 60 90 57 91
REMARK H PARENT 20 5 7 17 1 25 1 26 27 34 77 53 51 64
REMARK Flexibility Score: inf
ROOT
ATOM      1  C   UNL     1       0.258   3.019  -6.264  1.00  0.00     0.116 C 
ENDROOT
BRANCH   1   2
ATOM      2  N   UNL     1       1.246   3.666  -7.114  1.00  0.00    -0.356 N 
ATOM      3  C   UNL     1       2.543   4.037  -6.909  1.00  0.00     0.220 C 
ATOM      4  O   UNL     1       3.113   4.637  -7.824  1.00  0.00    -0.275 OA
ATOM      5  H   UNL     1       0.913   3.879  -8.016  1.00  0.00     0.163 HD
BRANCH   3   6
ATOM      6  C   UNL     1       3.286   3.736  -5.612  1.00  0.00     0.103 C 
BRANCH   6   7
ATOM      7  C   UNL     1       3.170   4.848  -4.542  1.00  0.00     0.002 C 
ATOM      8  N   UNL     1       2.402   4.735  -1.771  1.00  0.00    -0.319 N 
ATOM      9  C   UNL     1       3.717   5.287  -2.054  1.00  0.00     0.087 C 
ATOM     10  C   UNL     1       1.488   5.446  -2.635  1.00  0.00     0.087 C 
ATOM     11  C   UNL     1       3.450   6.792  -2.214  1.00  0.00     0.027 C 
ATOM     12  C   UNL     1       4.175   4.629  -3.376  1.00  0.00     0.029 C 
ATOM     13  C   UNL     1       1.955   6.898  -2.531  1.00  0.00     0.027 C 
ATOM     14  C   UNL     1       1.716   4.931  -4.050  1.00  0.00     0.029 C 
BRANCH   8  15
ATOM     15  C   UNL     1       2.189   3.828  -0.789  1.00  0.00     0.317 C 
ATOM     16  N   UNL     1       1.078   3.059  -0.762  1.00  0.00    -0.337 N 
ATOM     17  H   UNL     1       0.763   2.841   0.145  1.00  0.00     0.165 HD
ATOM     18  O   UNL     1       3.010   3.638   0.110  1.00  0.00    -0.249 OA
BRANCH  16  19
ATOM     19  C   UNL     1       0.261   2.493  -1.827  1.00  0.00     0.135 C 
BRANCH  19  20
ATOM     20  C   UNL     1       0.895   1.262  -2.460  1.00  0.00     0.175 C 
BRANCH  20  21
ATOM     21  S   UNL     1       0.473  -0.251  -1.607  1.00  0.00     0.210 S 
ATOM     22  O   UNL     1       1.278  -1.326  -2.129  1.00  0.00    -0.213 OA
ATOM     23  O   UNL     1      -0.967  -0.356  -1.513  1.00  0.00    -0.213 OA
BRANCH  21  24
ATOM     24  N   UNL     1       1.023   0.015  -0.051  1.00  0.00    -0.229 NA
ATOM     25  H   UNL     1       0.826  -0.805   0.523  1.00  0.00     0.137 HD
ATOM     26  H   UNL     1       0.549   0.828   0.342  1.00  0.00     0.137 HD
ENDBRANCH  21  24
ENDBRANCH  20  21
ENDBRANCH  19  20
ENDBRANCH  16  19
ENDBRANCH   8  15
ENDBRANCH   6   7
ENDBRANCH   3   6
ENDBRANCH   1   2
BRANCH   1  27
ATOM     27  C   UNL     1      -0.788   4.030  -5.763  1.00  0.00     0.021 C 
BRANCH  27  28
ATOM     28  C   UNL     1      -2.114   4.025  -6.517  1.00  0.00     0.002 C 
BRANCH  28  29
ATOM     29  C   UNL     1      -2.974   2.783  -6.286  1.00  0.00     0.002 C 
BRANCH  29  30
ATOM     30  C   UNL     1      -3.365   2.512  -4.829  1.00  0.00     0.021 C 
BRANCH  30  31
ATOM     31  C   UNL     1      -4.073   3.664  -4.120  1.00  0.00     0.116 C 
BRANCH  31  32
ATOM     32  N   UNL     1      -5.287   4.065  -4.812  1.00  0.00    -0.352 N 
ATOM     33  C   UNL     1      -6.594   3.996  -4.405  1.00  0.00     0.251 C 
ATOM     34  H   UNL     1      -5.149   4.444  -5.710  1.00  0.00     0.163 HD
ATOM     35  O   UNL     1      -7.500   4.138  -5.221  1.00  0.00    -0.269 OA
BRANCH  33  36
ATOM     36  C   UNL     1      -6.918   3.752  -2.984  1.00  0.00     0.039 A 
ATOM     37  C   UNL     1      -7.963   2.881  -2.667  1.00  0.00     0.014 A 
ATOM     38  C   UNL     1      -6.226   4.417  -1.967  1.00  0.00     0.014 A 
ATOM     39  C   UNL     1      -8.284   2.643  -1.329  1.00  0.00     0.010 A 
ATOM     40  C   UNL     1      -6.495   4.120  -0.634  1.00  0.00     0.010 A 
ATOM     41  C   UNL     1      -7.536   3.241  -0.301  1.00  0.00    -0.014 A 
BRANCH  41  42
ATOM     42  C   UNL     1      -7.845   2.969   1.125  1.00  0.00     0.031 A 
ATOM     43  C   UNL     1      -8.318   4.078   2.025  1.00  0.00     0.074 A 
ATOM     44  C   UNL     1      -7.659   1.730   1.621  1.00  0.00     0.049 A 
ATOM     45  N   UNL     1      -8.608   4.041   3.301  1.00  0.00    -0.248 NA
ATOM     46  C   UNL     1      -8.458   5.411   1.418  1.00  0.00     0.031 C 
ATOM     47  C   UNL     1      -7.160   0.582   0.861  1.00  0.00     0.029 A 
ATOM     48  N   UNL     1      -7.865   1.230   2.882  1.00  0.00    -0.354 N 
ATOM     49  C   UNL     1      -8.955   5.341   3.649  1.00  0.00     0.074 A 
ATOM     50  C   UNL     1      -8.779   6.155   2.466  1.00  0.00     0.031 C 
ATOM     51  C   UNL     1      -7.128  -0.494   1.663  1.00  0.00     0.029 A 
ATOM     52  C   UNL     1      -7.566  -0.106   3.000  1.00  0.00     0.049 A 
ATOM     53  H   UNL     1      -8.196   1.776   3.631  1.00  0.00     0.167 HD
ATOM     54  C   UNL     1      -9.404   5.810   4.838  1.00  0.00     0.037 A 
ATOM     55  C   UNL     1      -7.633  -0.924   4.067  1.00  0.00     0.037 A 
ATOM     56  C   UNL     1      -9.592   4.992   6.008  1.00  0.00     0.049 A 
ATOM     57  C   UNL     1      -8.122  -0.376   5.379  1.00  0.00     0.074 A 
ATOM     58  C   UNL     1     -10.091   5.360   7.246  1.00  0.00     0.029 A 
ATOM     59  N   UNL     1      -9.285   3.642   6.086  1.00  0.00    -0.354 N 
ATOM     60  N   UNL     1      -8.513   0.840   5.675  1.00  0.00    -0.248 NA
ATOM     61  C   UNL     1      -8.188  -1.318   6.505  1.00  0.00     0.031 C 
ATOM     62  C   UNL     1     -10.035   4.245   8.088  1.00  0.00     0.029 A 
ATOM     63  C   UNL     1      -9.559   3.167   7.359  1.00  0.00     0.049 A 
ATOM     64  H   UNL     1      -8.924   3.101   5.347  1.00  0.00     0.167 HD
ATOM     65  C   UNL     1      -8.901   0.802   7.008  1.00  0.00     0.074 A 
ATOM     66  C   UNL     1      -8.713  -0.562   7.458  1.00  0.00     0.031 C 
ATOM     67  C   UNL     1      -9.371   1.805   7.790  1.00  0.00     0.037 A 
BRANCH  54  68
ATOM     68  C   UNL     1      -9.722   7.276   4.930  1.00  0.00     0.057 A 
ATOM     69  C   UNL     1     -10.810   7.843   4.252  1.00  0.00     0.134 A 
ATOM     70  C   UNL     1      -8.951   8.126   5.733  1.00  0.00     0.134 A 
ATOM     71  F   UNL     1     -11.584   7.088   3.457  1.00  0.00    -0.206 F 
ATOM     72  C   UNL     1     -11.100   9.205   4.343  1.00  0.00     0.040 A 
ATOM     73  C   UNL     1      -9.250   9.485   5.857  1.00  0.00     0.040 A 
ATOM     74  F   UNL     1      -7.899   7.651   6.416  1.00  0.00    -0.206 F 
ATOM     75  C   UNL     1     -10.323  10.029   5.154  1.00  0.00     0.006 A 
ENDBRANCH  54  68
BRANCH  55  76
ATOM     76  C   UNL     1      -7.252  -2.353   3.935  1.00  0.00     0.057 A 
ATOM     77  C   UNL     1      -8.210  -3.369   4.031  1.00  0.00     0.134 A 
ATOM     78  C   UNL     1      -5.923  -2.740   3.723  1.00  0.00     0.134 A 
ATOM     79  F   UNL     1      -9.498  -3.063   4.251  1.00  0.00    -0.206 F 
ATOM     80  C   UNL     1      -7.860  -4.717   3.945  1.00  0.00     0.040 A 
ATOM     81  C   UNL     1      -5.562  -4.083   3.606  1.00  0.00     0.040 A 
ATOM     82  F   UNL     1      -4.957  -1.816   3.614  1.00  0.00    -0.206 F 
ATOM     83  C   UNL     1      -6.531  -5.077   3.727  1.00  0.00     0.006 A 
ENDBRANCH  55  76
BRANCH  67  84
ATOM     84  C   UNL     1      -9.754   1.454   9.200  1.00  0.00     0.057 A 
ATOM     85  C   UNL     1      -8.799   1.129  10.171  1.00  0.00     0.134 A 
ATOM     86  C   UNL     1     -11.099   1.469   9.595  1.00  0.00     0.134 A 
ATOM     87  F   UNL     1      -7.496   1.084   9.856  1.00  0.00    -0.206 F 
ATOM     88  C   UNL     1      -9.170   0.799  11.477  1.00  0.00     0.040 A 
ATOM     89  C   UNL     1     -11.478   1.173  10.905  1.00  0.00     0.040 A 
ATOM     90  F   UNL     1     -12.064   1.782   8.718  1.00  0.00    -0.206 F 
ATOM     91  C   UNL     1     -10.513   0.828  11.848  1.00  0.00     0.006 A 
ENDBRANCH  67  84
ENDBRANCH  41  42
ENDBRANCH  33  36
ENDBRANCH  31  32
ENDBRANCH  30  31
ENDBRANCH  29  30
ENDBRANCH  28  29
ENDBRANCH  27  28
ENDBRANCH   1  27
TORSDOF 19
