REMARK SMILES CC1=C([C@H](NC(=O)[C@@H]2[C@H](C)c3cc(F)ccc3N2C)C(=O)NCCCCCCNC(=O)c2ccc(-c3c4nc(c(-c5c(F)cccc5F)c5ccc([nH]5)c(-c5c(F)cccc5F)c5nc(c(-c6c(F)cccc6F)c6ccc3[nH]6)C=C5)C=C4)cc2)[C@@H](C)N=N1
REMARK SMILES IDX 25 1 24 2 23 3 22 4 20 5 21 6 4 8 3 9 1 10 2 11 89 12 86 13
REMARK SMILES IDX 88 14 87 15 5 16 6 17 7 19 8 20 9 21 18 22 11 23 10 24 17 25
REMARK SMILES IDX 19 26 12 27 16 28 13 29 15 30 14 31 26 32 27 33 28 34 29 35
REMARK SMILES IDX 30 36 31 38 32 39 33 40 85 41 34 42 84 43 35 44 36 45 37 46
REMARK SMILES IDX 78 47 38 48 83 49 77 50 79 51 39 52 82 53 76 54 75 55 40 57
REMARK SMILES IDX 66 58 49 59 65 60 50 61 53 62 64 63 80 64 51 65 52 66 63 68
REMARK SMILES IDX 81 69 54 70 41 71 42 72 47 73 43 74 44 75 46 76 48 77 45 78
REMARK SMILES IDX 67 79 68 80 73 81 69 82 70 83 72 84 74 85 71 86 55 87 56 88
REMARK SMILES IDX 61 89 57 90 58 91 60 92 62 93 59 94
REMARK H PARENT 22 7 5 18 29 37 79 56 53 67
REMARK Flexibility Score: inf
ROOT
ATOM      1  C   UNL     1       1.018   4.600   7.468  1.00  0.00     0.002 C 
ENDROOT
BRANCH   1   2
ATOM      2  C   UNL     1       0.732   3.690   6.286  1.00  0.00     0.021 C 
BRANCH   2   3
ATOM      3  C   UNL     1       0.166   4.321   5.019  1.00  0.00     0.116 C 
BRANCH   3   4
ATOM      4  N   UNL     1       1.176   4.298   3.969  1.00  0.00    -0.354 N 
ATOM      5  C   UNL     1       1.302   3.646   2.784  1.00  0.00     0.247 C 
ATOM      6  O   UNL     1       2.451   3.628   2.321  1.00  0.00    -0.272 OA
ATOM      7  H   UNL     1       1.940   4.888   4.163  1.00  0.00     0.163 HD
BRANCH   5   8
ATOM      8  C   UNL     1       0.163   2.862   2.038  1.00  0.00     0.202 C 
BRANCH   8   9
ATOM      9  C   UNL     1      -1.167   3.462   1.674  1.00  0.00     0.011 C 
ATOM     10  C   UNL     1      -1.507   2.571  -0.712  1.00  0.00     0.069 C 
ATOM     11  C   UNL     1      -1.868   3.304   0.537  1.00  0.00     0.064 C 
ATOM     12  N   UNL     1      -3.082   3.943   0.565  1.00  0.00    -0.160 NA
ATOM     13  C   UNL     1      -1.988   4.422   2.469  1.00  0.00     0.156 C 
ATOM     14  N   UNL     1      -3.234   4.539   1.661  1.00  0.00    -0.181 NA
ATOM     15  C   UNL     1      -1.408   5.834   2.573  1.00  0.00     0.040 C 
ENDBRANCH   8   9
BRANCH   8  16
ATOM     16  N   UNL     1       0.084   1.387   2.091  1.00  0.00    -0.339 N 
ATOM     17  C   UNL     1       0.148   0.435   3.067  1.00  0.00     0.244 C 
ATOM     18  H   UNL     1      -0.050   0.992   1.199  1.00  0.00     0.164 HD
ATOM     19  O   UNL     1      -0.166  -0.713   2.744  1.00  0.00    -0.273 OA
BRANCH  17  20
ATOM     20  C   UNL     1       0.629   0.799   4.465  1.00  0.00     0.178 C 
ATOM     21  C   UNL     1       2.172   0.847   4.635  1.00  0.00     0.050 C 
ATOM     22  N   UNL     1       0.114  -0.052   5.569  1.00  0.00    -0.362 N 
ATOM     23  C   UNL     1       2.269   0.599   6.117  1.00  0.00    -0.016 A 
ATOM     24  C   UNL     1       2.966  -0.190   3.853  1.00  0.00     0.015 C 
ATOM     25  C   UNL     1       1.064   0.055   6.586  1.00  0.00     0.041 A 
ATOM     26  C   UNL     1      -1.301  -0.156   5.845  1.00  0.00     0.144 C 
ATOM     27  C   UNL     1       3.320   0.910   6.968  1.00  0.00     0.045 A 
ATOM     28  C   UNL     1       0.929  -0.249   7.931  1.00  0.00     0.029 A 
ATOM     29  C   UNL     1       3.152   0.646   8.320  1.00  0.00     0.123 A 
ATOM     30  C   UNL     1       1.984   0.051   8.803  1.00  0.00     0.041 A 
ATOM     31  F   UNL     1       4.114   1.002   9.181  1.00  0.00    -0.207 F 
ENDBRANCH  17  20
ENDBRANCH   8  16
ENDBRANCH   5   8
ENDBRANCH   3   4
ENDBRANCH   2   3
ENDBRANCH   1   2
BRANCH   1  32
ATOM     32  C   UNL     1      -0.177   5.140   8.246  1.00  0.00     0.002 C 
BRANCH  32  33
ATOM     33  C   UNL     1      -1.325   4.194   8.605  1.00  0.00     0.021 C 
BRANCH  33  34
ATOM     34  C   UNL     1      -1.035   2.743   8.985  1.00  0.00     0.116 C 
BRANCH  34  35
ATOM     35  N   UNL     1       0.073   2.477   9.885  1.00  0.00    -0.352 N 
ATOM     36  C   UNL     1       0.138   2.116  11.208  1.00  0.00     0.251 C 
ATOM     37  H   UNL     1       0.956   2.575   9.460  1.00  0.00     0.163 HD
ATOM     38  O   UNL     1       1.187   1.679  11.677  1.00  0.00    -0.269 OA
BRANCH  36  39
ATOM     39  C   UNL     1      -0.975   2.429  12.113  1.00  0.00     0.039 A 
ATOM     40  C   UNL     1      -2.301   2.252  11.748  1.00  0.00     0.014 A 
ATOM     41  C   UNL     1      -0.642   3.136  13.273  1.00  0.00     0.014 A 
ATOM     42  C   UNL     1      -3.244   3.095  12.296  1.00  0.00     0.010 A 
ATOM     43  C   UNL     1      -1.616   3.882  13.909  1.00  0.00     0.010 A 
ATOM     44  C   UNL     1      -2.875   3.982  13.316  1.00  0.00    -0.014 A 
BRANCH  44  45
ATOM     45  C   UNL     1      -3.854   4.996  13.707  1.00  0.00     0.031 A 
ATOM     46  C   UNL     1      -5.226   4.487  13.995  1.00  0.00     0.074 A 
ATOM     47  C   UNL     1      -3.547   6.303  13.848  1.00  0.00     0.049 A 
ATOM     48  N   UNL     1      -6.359   4.854  13.482  1.00  0.00    -0.248 NA
ATOM     49  C   UNL     1      -5.321   3.337  14.908  1.00  0.00     0.031 C 
ATOM     50  C   UNL     1      -2.222   6.934  13.837  1.00  0.00     0.029 A 
ATOM     51  N   UNL     1      -4.378   7.343  14.143  1.00  0.00    -0.354 N 
ATOM     52  C   UNL     1      -7.329   4.081  14.118  1.00  0.00     0.074 A 
ATOM     53  C   UNL     1      -6.629   3.092  14.896  1.00  0.00     0.031 C 
ATOM     54  C   UNL     1      -2.317   8.177  14.355  1.00  0.00     0.029 A 
ATOM     55  C   UNL     1      -3.718   8.476  14.587  1.00  0.00     0.049 A 
ATOM     56  H   UNL     1      -5.357   7.292  14.049  1.00  0.00     0.167 HD
ATOM     57  C   UNL     1      -8.651   4.395  14.109  1.00  0.00     0.037 A 
ATOM     58  C   UNL     1      -4.272   9.561  15.174  1.00  0.00     0.037 A 
ATOM     59  C   UNL     1      -8.998   5.286  13.040  1.00  0.00     0.049 A 
ATOM     60  C   UNL     1      -5.719   9.566  14.875  1.00  0.00     0.074 A 
ATOM     61  C   UNL     1      -9.074   5.196  11.666  1.00  0.00     0.029 A 
ATOM     62  N   UNL     1      -9.113   6.617  13.339  1.00  0.00    -0.354 N 
ATOM     63  N   UNL     1      -6.228   9.806  13.701  1.00  0.00    -0.248 NA
ATOM     64  C   UNL     1      -6.625   8.949  15.832  1.00  0.00     0.031 C 
ATOM     65  C   UNL     1      -8.820   6.512  11.182  1.00  0.00     0.029 A 
ATOM     66  C   UNL     1      -8.593   7.329  12.291  1.00  0.00     0.049 A 
ATOM     67  H   UNL     1      -9.501   6.995  14.162  1.00  0.00     0.167 HD
ATOM     68  C   UNL     1      -7.370   9.024  13.642  1.00  0.00     0.074 A 
ATOM     69  C   UNL     1      -7.637   8.636  15.020  1.00  0.00     0.031 C 
ATOM     70  C   UNL     1      -7.827   8.542  12.450  1.00  0.00     0.037 A 
BRANCH  57  71
ATOM     71  C   UNL     1      -9.577   4.131  15.268  1.00  0.00     0.057 A 
ATOM     72  C   UNL     1      -9.136   4.011  16.603  1.00  0.00     0.134 A 
ATOM     73  C   UNL     1     -10.966   4.277  15.108  1.00  0.00     0.134 A 
ATOM     74  F   UNL     1      -7.836   3.975  16.923  1.00  0.00    -0.206 F 
ATOM     75  C   UNL     1     -10.008   4.024  17.694  1.00  0.00     0.040 A 
ATOM     76  C   UNL     1     -11.844   4.344  16.198  1.00  0.00     0.040 A 
ATOM     77  F   UNL     1     -11.507   4.432  13.890  1.00  0.00    -0.206 F 
ATOM     78  C   UNL     1     -11.365   4.219  17.496  1.00  0.00     0.006 A 
ENDBRANCH  57  71
BRANCH  58  79
ATOM     79  C   UNL     1      -3.664  10.437  16.193  1.00  0.00     0.057 A 
ATOM     80  C   UNL     1      -2.797   9.917  17.171  1.00  0.00     0.134 A 
ATOM     81  C   UNL     1      -4.099  11.752  16.384  1.00  0.00     0.134 A 
ATOM     82  F   UNL     1      -2.392   8.639  17.126  1.00  0.00    -0.206 F 
ATOM     83  C   UNL     1      -2.380  10.664  18.274  1.00  0.00     0.040 A 
ATOM     84  C   UNL     1      -3.697  12.510  17.491  1.00  0.00     0.040 A 
ATOM     85  F   UNL     1      -4.963  12.314  15.527  1.00  0.00    -0.206 F 
ATOM     86  C   UNL     1      -2.839  11.964  18.443  1.00  0.00     0.006 A 
ENDBRANCH  58  79
BRANCH  70  87
ATOM     87  C   UNL     1      -7.247   9.150  11.207  1.00  0.00     0.057 A 
ATOM     88  C   UNL     1      -8.084   9.842  10.328  1.00  0.00     0.134 A 
ATOM     89  C   UNL     1      -5.914   8.968  10.813  1.00  0.00     0.134 A 
ATOM     90  F   UNL     1      -9.386   9.998  10.613  1.00  0.00    -0.206 F 
ATOM     91  C   UNL     1      -7.613  10.352   9.115  1.00  0.00     0.040 A 
ATOM     92  C   UNL     1      -5.422   9.500   9.618  1.00  0.00     0.040 A 
ATOM     93  F   UNL     1      -5.071   8.231  11.549  1.00  0.00    -0.206 F 
ATOM     94  C   UNL     1      -6.274  10.193   8.764  1.00  0.00     0.006 A 
ENDBRANCH  70  87
ENDBRANCH  44  45
ENDBRANCH  36  39
ENDBRANCH  34  35
ENDBRANCH  33  34
ENDBRANCH  32  33
ENDBRANCH   1  32
TORSDOF 16
