REMARK SMILES CS(=O)(=O)c1ccc(N2N=C(C(=O)NCCCCCCNC(=O)c3ccc(-c4c5nc(c(-c6c(F)cccc6F)c6ccc([nH]6)c(-c6c(F)cccc6F)c6nc(c(-c7c(F)cccc7F)c7ccc4[nH]7)C=C6)C=C5)cc3)C[C@H]2c2cccs2)cc1
REMARK SMILES IDX 17 1 16 2 15 3 14 4 12 5 13 6 11 8 9 9 10 10 79 11 78 12
REMARK SMILES IDX 8 13 5 14 6 15 86 16 7 17 85 18 2 19 1 20 3 21 4 22 80 23
REMARK SMILES IDX 81 24 84 25 82 26 83 27 18 28 19 29 20 30 21 31 22 32 23 34
REMARK SMILES IDX 24 35 25 36 77 37 26 38 76 39 27 40 28 41 29 42 70 43 30 44
REMARK SMILES IDX 75 45 69 46 71 47 31 48 74 49 68 50 67 51 32 53 58 54 41 55
REMARK SMILES IDX 57 56 42 57 45 58 56 59 72 60 43 61 44 62 55 64 73 65 46 66
REMARK SMILES IDX 33 67 34 68 39 69 35 70 36 71 38 72 40 73 37 74 59 75 60 76
REMARK SMILES IDX 65 77 61 78 62 79 64 80 66 81 63 82 47 83 48 84 53 85 49 86
REMARK SMILES IDX 50 87 52 88 54 89 51 90
REMARK H PARENT 14 7 21 33 71 52 45 63
REMARK Flexibility Score: inf
ROOT
ATOM      1  C   UNL     1       2.483 -13.076   4.210  1.00  0.00     0.002 C 
ENDROOT
BRANCH   1   2
ATOM      2  C   UNL     1       1.713 -11.794   4.532  1.00  0.00     0.021 C 
BRANCH   2   3
ATOM      3  C   UNL     1       2.581 -10.553   4.718  1.00  0.00     0.116 C 
BRANCH   3   4
ATOM      4  N   UNL     1       3.101 -10.078   3.452  1.00  0.00    -0.351 N 
ATOM      5  C   UNL     1       3.091  -8.868   2.807  1.00  0.00     0.267 C 
ATOM      6  O   UNL     1       3.563  -8.830   1.672  1.00  0.00    -0.268 OA
ATOM      7  H   UNL     1       3.566 -10.780   2.942  1.00  0.00     0.163 HD
BRANCH   5   8
ATOM      8  C   UNL     1       2.574  -7.575   3.421  1.00  0.00     0.128 C 
ATOM      9  N   UNL     1       2.272  -5.465   3.633  1.00  0.00    -0.256 N 
ATOM     10  N   UNL     1       2.698  -6.446   2.789  1.00  0.00    -0.171 NA
ATOM     11  C   UNL     1       1.700  -5.979   4.883  1.00  0.00     0.154 C 
ATOM     12  C   UNL     1       1.887  -7.493   4.741  1.00  0.00     0.097 C 
BRANCH   9  13
ATOM     13  C   UNL     1       1.807  -4.260   3.103  1.00  0.00     0.060 A 
ATOM     14  C   UNL     1       0.833  -1.821   2.117  1.00  0.00     0.067 A 
ATOM     15  C   UNL     1       0.445  -3.016   1.508  1.00  0.00     0.022 A 
ATOM     16  C   UNL     1       1.702  -1.826   3.207  1.00  0.00     0.022 A 
ATOM     17  C   UNL     1       0.947  -4.227   1.995  1.00  0.00     0.029 A 
ATOM     18  C   UNL     1       2.184  -3.043   3.689  1.00  0.00     0.029 A 
BRANCH  14  19
ATOM     19  S   UNL     1       0.192  -0.282   1.506  1.00  0.00     0.175 S 
ATOM     20  C   UNL     1       0.974  -0.097  -0.074  1.00  0.00     0.163 C 
ATOM     21  O   UNL     1       0.686   0.776   2.369  1.00  0.00    -0.224 OA
ATOM     22  O   UNL     1      -1.230  -0.466   1.298  1.00  0.00    -0.224 OA
ENDBRANCH  14  19
ENDBRANCH   9  13
BRANCH  11  23
ATOM     23  C   UNL     1       2.243  -5.394   6.176  1.00  0.00     0.030 A 
ATOM     24  C   UNL     1       1.748  -4.293   6.858  1.00  0.00     0.017 A 
ATOM     25  S   UNL     1       3.624  -6.026   6.983  1.00  0.00    -0.147 S 
ATOM     26  C   UNL     1       2.472  -4.005   8.049  1.00  0.00     0.012 A 
ATOM     27  C   UNL     1       3.489  -4.906   8.262  1.00  0.00     0.065 A 
ENDBRANCH  11  23
ENDBRANCH   5   8
ENDBRANCH   3   4
ENDBRANCH   2   3
ENDBRANCH   1   2
BRANCH   1  28
ATOM     28  C   UNL     1       3.539 -13.486   5.241  1.00  0.00     0.002 C 
BRANCH  28  29
ATOM     29  C   UNL     1       3.060 -13.538   6.694  1.00  0.00     0.021 C 
BRANCH  29  30
ATOM     30  C   UNL     1       1.844 -14.424   6.945  1.00  0.00     0.116 C 
BRANCH  30  31
ATOM     31  N   UNL     1       2.095 -15.815   6.614  1.00  0.00    -0.352 N 
ATOM     32  C   UNL     1       1.897 -16.941   7.372  1.00  0.00     0.251 C 
ATOM     33  H   UNL     1       2.462 -15.973   5.714  1.00  0.00     0.163 HD
ATOM     34  O   UNL     1       2.329 -18.024   6.989  1.00  0.00    -0.269 OA
BRANCH  32  35
ATOM     35  C   UNL     1       1.180 -16.851   8.662  1.00  0.00     0.039 A 
ATOM     36  C   UNL     1       1.697 -17.534   9.766  1.00  0.00     0.014 A 
ATOM     37  C   UNL     1      -0.003 -16.115   8.783  1.00  0.00     0.014 A 
ATOM     38  C   UNL     1       1.057 -17.438  11.003  1.00  0.00     0.010 A 
ATOM     39  C   UNL     1      -0.601 -15.964  10.032  1.00  0.00     0.010 A 
ATOM     40  C   UNL     1      -0.080 -16.628  11.153  1.00  0.00    -0.014 A 
BRANCH  40  41
ATOM     41  C   UNL     1      -0.736 -16.467  12.476  1.00  0.00     0.031 A 
ATOM     42  C   UNL     1      -2.139 -16.964  12.692  1.00  0.00     0.074 A 
ATOM     43  C   UNL     1      -0.090 -15.820  13.465  1.00  0.00     0.049 A 
ATOM     44  N   UNL     1      -2.898 -16.861  13.753  1.00  0.00    -0.248 NA
ATOM     45  C   UNL     1      -2.784 -17.642  11.557  1.00  0.00     0.031 C 
ATOM     46  C   UNL     1       1.254 -15.249  13.365  1.00  0.00     0.029 A 
ATOM     47  N   UNL     1      -0.482 -15.524  14.746  1.00  0.00    -0.354 N 
ATOM     48  C   UNL     1      -4.110 -17.446  13.410  1.00  0.00     0.074 A 
ATOM     49  C   UNL     1      -4.004 -17.857  12.027  1.00  0.00     0.031 C 
ATOM     50  C   UNL     1       1.582 -14.688  14.540  1.00  0.00     0.029 A 
ATOM     51  C   UNL     1       0.461 -14.829  15.464  1.00  0.00     0.049 A 
ATOM     52  H   UNL     1      -1.356 -15.785  15.116  1.00  0.00     0.167 HD
ATOM     53  C   UNL     1      -5.205 -17.642  14.183  1.00  0.00     0.037 A 
ATOM     54  C   UNL     1       0.423 -14.351  16.723  1.00  0.00     0.037 A 
ATOM     55  C   UNL     1      -5.297 -17.258  15.568  1.00  0.00     0.049 A 
ATOM     56  C   UNL     1      -0.802 -14.587  17.561  1.00  0.00     0.074 A 
ATOM     57  C   UNL     1      -6.338 -17.475  16.454  1.00  0.00     0.029 A 
ATOM     58  N   UNL     1      -4.312 -16.577  16.266  1.00  0.00    -0.354 N 
ATOM     59  N   UNL     1      -1.914 -15.205  17.245  1.00  0.00    -0.248 NA
ATOM     60  C   UNL     1      -0.775 -14.065  18.935  1.00  0.00     0.031 C 
ATOM     61  C   UNL     1      -6.001 -16.885  17.677  1.00  0.00     0.029 A 
ATOM     62  C   UNL     1      -4.730 -16.344  17.566  1.00  0.00     0.049 A 
ATOM     63  H   UNL     1      -3.444 -16.300  15.893  1.00  0.00     0.167 HD
ATOM     64  C   UNL     1      -2.706 -15.171  18.386  1.00  0.00     0.074 A 
ATOM     65  C   UNL     1      -1.941 -14.484  19.405  1.00  0.00     0.031 C 
ATOM     66  C   UNL     1      -3.955 -15.665  18.572  1.00  0.00     0.037 A 
BRANCH  53  67
ATOM     67  C   UNL     1      -6.393 -18.306  13.550  1.00  0.00     0.057 A 
ATOM     68  C   UNL     1      -6.385 -19.665  13.206  1.00  0.00     0.134 A 
ATOM     69  C   UNL     1      -7.574 -17.590  13.320  1.00  0.00     0.134 A 
ATOM     70  F   UNL     1      -5.282 -20.406  13.390  1.00  0.00    -0.206 F 
ATOM     71  C   UNL     1      -7.500 -20.280  12.634  1.00  0.00     0.040 A 
ATOM     72  C   UNL     1      -8.704 -18.201  12.774  1.00  0.00     0.040 A 
ATOM     73  F   UNL     1      -7.653 -16.287  13.631  1.00  0.00    -0.206 F 
ATOM     74  C   UNL     1      -8.667 -19.549  12.424  1.00  0.00     0.006 A 
ENDBRANCH  53  67
BRANCH  54  75
ATOM     75  C   UNL     1       1.590 -13.618  17.275  1.00  0.00     0.057 A 
ATOM     76  C   UNL     1       2.386 -14.180  18.280  1.00  0.00     0.134 A 
ATOM     77  C   UNL     1       1.931 -12.339  16.822  1.00  0.00     0.134 A 
ATOM     78  F   UNL     1       2.099 -15.396  18.768  1.00  0.00    -0.206 F 
ATOM     79  C   UNL     1       3.466 -13.488  18.830  1.00  0.00     0.040 A 
ATOM     80  C   UNL     1       3.023 -11.645  17.345  1.00  0.00     0.040 A 
ATOM     81  F   UNL     1       1.213 -11.749  15.855  1.00  0.00    -0.206 F 
ATOM     82  C   UNL     1       3.789 -12.217  18.359  1.00  0.00     0.006 A 
ENDBRANCH  54  75
BRANCH  66  83
ATOM     83  C   UNL     1      -4.558 -15.509  19.937  1.00  0.00     0.057 A 
ATOM     84  C   UNL     1      -5.001 -14.269  20.414  1.00  0.00     0.134 A 
ATOM     85  C   UNL     1      -4.731 -16.623  20.770  1.00  0.00     0.134 A 
ATOM     86  F   UNL     1      -4.851 -13.162  19.671  1.00  0.00    -0.206 F 
ATOM     87  C   UNL     1      -5.573 -14.138  21.680  1.00  0.00     0.040 A 
ATOM     88  C   UNL     1      -5.326 -16.509  22.026  1.00  0.00     0.040 A 
ATOM     89  F   UNL     1      -4.336 -17.841  20.369  1.00  0.00    -0.206 F 
ATOM     90  C   UNL     1      -5.744 -15.262  22.487  1.00  0.00     0.006 A 
ENDBRANCH  66  83
ENDBRANCH  40  41
ENDBRANCH  32  35
ENDBRANCH  30  31
ENDBRANCH  29  30
ENDBRANCH  28  29
ENDBRANCH   1  28
TORSDOF 16
