REMARK SMILES COc1ccccc1C[C@@H](C(=O)NCCCCCCNC(=O)c1ccc(-c2c3nc(c(-c4c(F)cccc4F)c4ccc([nH]4)c(-c4c(F)cccc4F)c4nc(c(-c5c(F)cccc5F)c5ccc2[nH]5)C=C4)C=C3)cc1)[C@@H]1C[C@H](C)C[C@H](C)C1
REMARK SMILES IDX 16 1 15 2 14 3 13 4 11 5 12 6 10 8 9 9 8 10 3 11 4 12 5 13
REMARK SMILES IDX 7 14 6 15 2 16 1 17 77 18 84 19 78 20 82 21 79 22 83 23
REMARK SMILES IDX 81 24 80 25 17 26 18 27 19 28 20 29 21 30 22 32 23 33 24 34
REMARK SMILES IDX 76 35 25 36 75 37 26 38 27 39 28 40 69 41 29 42 74 43 68 44
REMARK SMILES IDX 70 45 30 46 73 47 67 48 66 49 31 51 57 52 40 53 56 54 41 55
REMARK SMILES IDX 44 56 55 57 71 58 42 59 43 60 54 62 72 63 45 64 32 65 33 66
REMARK SMILES IDX 38 67 34 68 35 69 37 70 39 71 36 72 58 73 59 74 64 75 60 76
REMARK SMILES IDX 61 77 63 78 65 79 62 80 46 81 47 82 52 83 48 84 49 85 51 86
REMARK SMILES IDX 53 87 50 88
REMARK H PARENT 13 7 20 31 70 50 44 61
REMARK Flexibility Score: inf
ROOT
ATOM      1  C   UNL     1       3.180   1.840   7.058  1.00  0.00     0.002 C 
ENDROOT
BRANCH   1   2
ATOM      2  C   UNL     1       2.813   1.567   5.600  1.00  0.00     0.021 C 
BRANCH   2   3
ATOM      3  C   UNL     1       3.381   2.522   4.554  1.00  0.00     0.116 C 
BRANCH   3   4
ATOM      4  N   UNL     1       4.676   2.038   4.139  1.00  0.00    -0.356 N 
ATOM      5  C   UNL     1       4.987   1.136   3.172  1.00  0.00     0.223 C 
ATOM      6  O   UNL     1       6.062   0.551   3.337  1.00  0.00    -0.275 OA
ATOM      7  H   UNL     1       5.443   2.415   4.627  1.00  0.00     0.163 HD
BRANCH   5   8
ATOM      8  C   UNL     1       4.107   0.912   1.908  1.00  0.00     0.086 C 
BRANCH   8   9
ATOM      9  C   UNL     1       3.063  -0.212   2.082  1.00  0.00     0.053 C 
BRANCH   9  10
ATOM     10  C   UNL     1       1.760  -0.055   2.844  1.00  0.00    -0.005 A 
ATOM     11  C   UNL     1       0.675   0.713   2.403  1.00  0.00     0.122 A 
ATOM     12  C   UNL     1      -0.490   0.851   3.172  1.00  0.00     0.047 A 
ATOM     13  C   UNL     1      -0.652   0.106   4.333  1.00  0.00     0.004 A 
ATOM     14  C   UNL     1       1.544  -0.849   3.985  1.00  0.00     0.007 A 
ATOM     15  C   UNL     1       0.353  -0.774   4.720  1.00  0.00     0.001 A 
BRANCH  11  16
ATOM     16  O   UNL     1       0.673   1.273   1.152  1.00  0.00    -0.496 OA
ATOM     17  C   UNL     1      -0.116   0.434   0.288  1.00  0.00     0.278 C 
ENDBRANCH  11  16
ENDBRANCH   9  10
ENDBRANCH   8   9
BRANCH   8  18
ATOM     18  C   UNL     1       5.151   0.559   0.750  1.00  0.00     0.002 C 
ATOM     19  C   UNL     1       5.685  -0.887   0.728  1.00  0.00     0.007 C 
ATOM     20  C   UNL     1       4.847   1.037  -0.674  1.00  0.00     0.007 C 
ATOM     21  C   UNL     1       4.963  -1.930  -0.134  1.00  0.00    -0.014 C 
ATOM     22  C   UNL     1       4.065   0.101  -1.595  1.00  0.00    -0.014 C 
ATOM     23  C   UNL     1       4.059  -2.894   0.652  1.00  0.00     0.007 C 
ATOM     24  C   UNL     1       4.274  -1.410  -1.401  1.00  0.00     0.006 C 
ATOM     25  C   UNL     1       2.595   0.504  -1.626  1.00  0.00     0.007 C 
ENDBRANCH   8  18
ENDBRANCH   5   8
ENDBRANCH   3   4
ENDBRANCH   2   3
ENDBRANCH   1   2
BRANCH   1  26
ATOM     26  C   UNL     1       2.479   3.042   7.692  1.00  0.00     0.002 C 
BRANCH  26  27
ATOM     27  C   UNL     1       0.964   3.128   7.474  1.00  0.00     0.021 C 
BRANCH  27  28
ATOM     28  C   UNL     1       0.168   1.876   7.845  1.00  0.00     0.116 C 
BRANCH  28  29
ATOM     29  N   UNL     1       0.219   1.587   9.266  1.00  0.00    -0.352 N 
ATOM     30  C   UNL     1      -0.739   1.731  10.237  1.00  0.00     0.251 C 
ATOM     31  H   UNL     1       1.080   1.232   9.585  1.00  0.00     0.163 HD
ATOM     32  O   UNL     1      -0.430   1.616  11.419  1.00  0.00    -0.269 OA
BRANCH  30  33
ATOM     33  C   UNL     1      -2.143   2.038   9.881  1.00  0.00     0.039 A 
ATOM     34  C   UNL     1      -2.821   3.010  10.625  1.00  0.00     0.014 A 
ATOM     35  C   UNL     1      -2.814   1.339   8.874  1.00  0.00     0.014 A 
ATOM     36  C   UNL     1      -4.150   3.317  10.325  1.00  0.00     0.010 A 
ATOM     37  C   UNL     1      -4.123   1.688   8.537  1.00  0.00     0.010 A 
ATOM     38  C   UNL     1      -4.806   2.677   9.261  1.00  0.00    -0.014 A 
BRANCH  38  39
ATOM     39  C   UNL     1      -6.199   3.041   8.895  1.00  0.00     0.031 A 
ATOM     40  C   UNL     1      -7.318   2.051   9.061  1.00  0.00     0.074 A 
ATOM     41  C   UNL     1      -6.449   4.248   8.352  1.00  0.00     0.049 A 
ATOM     42  N   UNL     1      -8.583   2.172   8.744  1.00  0.00    -0.248 NA
ATOM     43  C   UNL     1      -6.965   0.745   9.637  1.00  0.00     0.031 C 
ATOM     44  C   UNL     1      -5.445   5.281   8.090  1.00  0.00     0.029 A 
ATOM     45  N   UNL     1      -7.623   4.804   7.907  1.00  0.00    -0.354 N 
ATOM     46  C   UNL     1      -9.172   0.956   9.064  1.00  0.00     0.074 A 
ATOM     47  C   UNL     1      -8.119   0.097   9.563  1.00  0.00     0.031 C 
ATOM     48  C   UNL     1      -6.047   6.346   7.538  1.00  0.00     0.029 A 
ATOM     49  C   UNL     1      -7.470   6.062   7.379  1.00  0.00     0.049 A 
ATOM     50  H   UNL     1      -8.492   4.344   7.962  1.00  0.00     0.167 HD
ATOM     51  C   UNL     1     -10.474   0.594   8.967  1.00  0.00     0.037 A 
ATOM     52  C   UNL     1      -8.371   6.892   6.821  1.00  0.00     0.037 A 
ATOM     53  C   UNL     1     -11.527   1.457   8.499  1.00  0.00     0.049 A 
ATOM     54  C   UNL     1      -9.812   6.474   6.738  1.00  0.00     0.074 A 
ATOM     55  C   UNL     1     -12.888   1.206   8.443  1.00  0.00     0.029 A 
ATOM     56  N   UNL     1     -11.337   2.736   7.999  1.00  0.00    -0.354 N 
ATOM     57  N   UNL     1     -10.368   5.350   7.119  1.00  0.00    -0.248 NA
ATOM     58  C   UNL     1     -10.751   7.444   6.157  1.00  0.00     0.031 C 
ATOM     59  C   UNL     1     -13.516   2.317   7.870  1.00  0.00     0.029 A 
ATOM     60  C   UNL     1     -12.552   3.277   7.608  1.00  0.00     0.049 A 
ATOM     61  H   UNL     1     -10.467   3.193   7.933  1.00  0.00     0.167 HD
ATOM     62  C   UNL     1     -11.722   5.483   6.842  1.00  0.00     0.074 A 
ATOM     63  C   UNL     1     -11.906   6.803   6.274  1.00  0.00     0.031 C 
ATOM     64  C   UNL     1     -12.722   4.590   7.041  1.00  0.00     0.037 A 
BRANCH  51  65
ATOM     65  C   UNL     1     -10.833  -0.806   9.376  1.00  0.00     0.057 A 
ATOM     66  C   UNL     1     -10.823  -1.211  10.717  1.00  0.00     0.134 A 
ATOM     67  C   UNL     1     -11.222  -1.751   8.418  1.00  0.00     0.134 A 
ATOM     68  F   UNL     1     -10.451  -0.357  11.682  1.00  0.00    -0.206 F 
ATOM     69  C   UNL     1     -11.158  -2.514  11.088  1.00  0.00     0.040 A 
ATOM     70  C   UNL     1     -11.584  -3.050   8.780  1.00  0.00     0.040 A 
ATOM     71  F   UNL     1     -11.262  -1.427   7.117  1.00  0.00    -0.206 F 
ATOM     72  C   UNL     1     -11.545  -3.437  10.118  1.00  0.00     0.006 A 
ENDBRANCH  51  65
BRANCH  52  73
ATOM     73  C   UNL     1      -7.932   8.213   6.307  1.00  0.00     0.057 A 
ATOM     74  C   UNL     1      -8.260   9.395   6.979  1.00  0.00     0.134 A 
ATOM     75  C   UNL     1      -7.164   8.322   5.142  1.00  0.00     0.134 A 
ATOM     76  F   UNL     1      -9.009   9.354   8.090  1.00  0.00    -0.206 F 
ATOM     77  C   UNL     1      -7.849  10.642   6.505  1.00  0.00     0.040 A 
ATOM     78  C   UNL     1      -6.728   9.560   4.668  1.00  0.00     0.040 A 
ATOM     79  F   UNL     1      -6.811   7.223   4.458  1.00  0.00    -0.206 F 
ATOM     80  C   UNL     1      -7.075  10.725   5.349  1.00  0.00     0.006 A 
ENDBRANCH  52  73
BRANCH  64  81
ATOM     81  C   UNL     1     -14.108   5.018   6.659  1.00  0.00     0.057 A 
ATOM     82  C   UNL     1     -14.510   5.106   5.320  1.00  0.00     0.134 A 
ATOM     83  C   UNL     1     -15.063   5.310   7.642  1.00  0.00     0.134 A 
ATOM     84  F   UNL     1     -13.639   4.852   4.331  1.00  0.00    -0.206 F 
ATOM     85  C   UNL     1     -15.807   5.487   4.972  1.00  0.00     0.040 A 
ATOM     86  C   UNL     1     -16.368   5.670   7.306  1.00  0.00     0.040 A 
ATOM     87  F   UNL     1     -14.744   5.238   8.943  1.00  0.00    -0.206 F 
ATOM     88  C   UNL     1     -16.742   5.764   5.967  1.00  0.00     0.006 A 
ENDBRANCH  64  81
ENDBRANCH  38  39
ENDBRANCH  30  33
ENDBRANCH  28  29
ENDBRANCH  27  28
ENDBRANCH  26  27
ENDBRANCH   1  26
TORSDOF 17
