REMARK SMILES CCOc1cccc(C(=O)Nc2ccc(Cl)c(C(=O)NCCCCCCNC(=O)c3ccc(-c4c5nc(c(-c6c(F)cccc6F)c6ccc([nH]6)c(-c6c(F)cccc6F)c6nc(c(-c7c(F)cccc7F)c7ccc4[nH]7)C=C6)C=C5)cc3)c2)c1
REMARK SMILES IDX 22 1 21 2 20 3 18 4 19 5 17 7 12 8 13 9 84 10 14 11 15 12
REMARK SMILES IDX 16 13 11 14 9 15 10 16 8 18 4 19 5 20 85 21 6 22 7 23 3 24
REMARK SMILES IDX 2 25 1 26 23 27 24 28 25 29 26 30 27 31 28 32 29 34 30 35
REMARK SMILES IDX 31 36 83 37 32 38 82 39 33 40 34 41 35 42 76 43 36 44 81 45
REMARK SMILES IDX 75 46 77 47 37 48 80 49 74 50 73 51 38 53 64 54 47 55 63 56
REMARK SMILES IDX 48 57 51 58 62 59 78 60 49 61 50 62 61 64 79 65 52 66 39 67
REMARK SMILES IDX 40 68 45 69 41 70 42 71 44 72 46 73 43 74 65 75 66 76 71 77
REMARK SMILES IDX 67 78 68 79 70 80 72 81 69 82 53 83 54 84 59 85 55 86 56 87
REMARK SMILES IDX 58 88 60 89 57 90
REMARK H PARENT 20 6 11 17 27 33 77 52 51 63
REMARK Flexibility Score: inf
ROOT
ATOM      1  C   UNL     1       1.944   4.811   1.575  1.00  0.00     0.021 C 
ENDROOT
BRANCH   1   2
ATOM      2  C   UNL     1       1.444   3.372   1.692  1.00  0.00     0.116 C 
BRANCH   2   3
ATOM      3  N   UNL     1       0.315   3.178   0.808  1.00  0.00    -0.352 N 
ATOM      4  C   UNL     1       0.169   2.712  -0.474  1.00  0.00     0.252 C 
ATOM      5  O   UNL     1      -0.915   2.959  -1.001  1.00  0.00    -0.269 OA
ATOM      6  H   UNL     1      -0.541   3.437   1.219  1.00  0.00     0.163 HD
BRANCH   4   7
ATOM      7  C   UNL     1       1.204   1.909  -1.203  1.00  0.00     0.060 A 
ATOM      8  C   UNL     1       3.504   1.114  -1.442  1.00  0.00     0.042 A 
ATOM      9  C   UNL     1       3.122   0.246  -2.458  1.00  0.00     0.028 A 
ATOM     10  C   UNL     1       2.575   2.018  -0.916  1.00  0.00     0.041 A 
ATOM     11  C   UNL     1       1.782   0.174  -2.825  1.00  0.00     0.023 A 
ATOM     12  C   UNL     1       0.819   0.967  -2.180  1.00  0.00     0.053 A 
ATOM     13  Cl  UNL     1      -0.819   0.624  -2.630  1.00  0.00    -0.083 Cl
BRANCH   8  14
ATOM     14  N   UNL     1       4.815   1.011  -0.959  1.00  0.00    -0.322 N 
ATOM     15  C   UNL     1       5.325   1.085   0.325  1.00  0.00     0.255 C 
ATOM     16  O   UNL     1       6.542   1.234   0.452  1.00  0.00    -0.269 OA
ATOM     17  H   UNL     1       5.493   0.858  -1.656  1.00  0.00     0.170 HD
BRANCH  15  18
ATOM     18  C   UNL     1       4.502   0.884   1.563  1.00  0.00     0.043 A 
ATOM     19  C   UNL     1       2.491   0.209   2.749  1.00  0.00     0.120 A 
ATOM     20  C   UNL     1       3.023   0.692   3.943  1.00  0.00     0.046 A 
ATOM     21  C   UNL     1       3.254   0.246   1.579  1.00  0.00     0.060 A 
ATOM     22  C   UNL     1       4.313   1.215   3.970  1.00  0.00     0.005 A 
ATOM     23  C   UNL     1       5.040   1.330   2.782  1.00  0.00     0.014 A 
BRANCH  19  24
ATOM     24  O   UNL     1       1.151  -0.062   2.759  1.00  0.00    -0.494 OA
BRANCH  24  25
ATOM     25  C   UNL     1       0.732  -1.314   2.215  1.00  0.00     0.226 C 
ATOM     26  C   UNL     1       0.324  -1.208   0.756  1.00  0.00     0.049 C 
ENDBRANCH  24  25
ENDBRANCH  19  24
ENDBRANCH  15  18
ENDBRANCH   8  14
ENDBRANCH   4   7
ENDBRANCH   2   3
ENDBRANCH   1   2
BRANCH   1  27
ATOM     27  C   UNL     1       1.214   5.751   2.539  1.00  0.00     0.002 C 
BRANCH  27  28
ATOM     28  C   UNL     1       1.499   5.472   4.020  1.00  0.00     0.002 C 
BRANCH  28  29
ATOM     29  C   UNL     1       2.981   5.489   4.403  1.00  0.00     0.021 C 
BRANCH  29  30
ATOM     30  C   UNL     1       3.698   6.791   4.065  1.00  0.00     0.116 C 
BRANCH  30  31
ATOM     31  N   UNL     1       3.109   7.924   4.763  1.00  0.00    -0.352 N 
ATOM     32  C   UNL     1       3.710   8.842   5.580  1.00  0.00     0.251 C 
ATOM     33  H   UNL     1       2.141   8.047   4.629  1.00  0.00     0.163 HD
ATOM     34  O   UNL     1       3.029   9.599   6.273  1.00  0.00    -0.269 OA
BRANCH  32  35
ATOM     35  C   UNL     1       5.182   8.917   5.637  1.00  0.00     0.039 A 
ATOM     36  C   UNL     1       5.808   9.030   6.880  1.00  0.00     0.014 A 
ATOM     37  C   UNL     1       5.940   8.884   4.462  1.00  0.00     0.014 A 
ATOM     38  C   UNL     1       7.201   9.058   6.948  1.00  0.00     0.010 A 
ATOM     39  C   UNL     1       7.328   8.838   4.537  1.00  0.00     0.010 A 
ATOM     40  C   UNL     1       7.971   8.933   5.780  1.00  0.00    -0.014 A 
BRANCH  40  41
ATOM     41  C   UNL     1       9.453   8.904   5.839  1.00  0.00     0.031 A 
ATOM     42  C   UNL     1      10.255  10.000   5.195  1.00  0.00     0.074 A 
ATOM     43  C   UNL     1      10.075   7.859   6.419  1.00  0.00     0.049 A 
ATOM     44  N   UNL     1      11.554  10.121   5.089  1.00  0.00    -0.248 NA
ATOM     45  C   UNL     1       9.498  11.092   4.563  1.00  0.00     0.031 C 
ATOM     46  C   UNL     1       9.405   6.714   7.038  1.00  0.00     0.029 A 
ATOM     47  N   UNL     1      11.410   7.588   6.575  1.00  0.00    -0.354 N 
ATOM     48  C   UNL     1      11.767  11.289   4.368  1.00  0.00     0.074 A 
ATOM     49  C   UNL     1      10.466  11.813   4.017  1.00  0.00     0.031 C 
ATOM     50  C   UNL     1      10.332   5.876   7.530  1.00  0.00     0.029 A 
ATOM     51  C   UNL     1      11.659   6.404   7.226  1.00  0.00     0.049 A 
ATOM     52  H   UNL     1      12.123   8.185   6.251  1.00  0.00     0.167 HD
ATOM     53  C   UNL     1      12.942  11.882   4.047  1.00  0.00     0.037 A 
ATOM     54  C   UNL     1      12.825   5.808   7.535  1.00  0.00     0.037 A 
ATOM     55  C   UNL     1      14.233  11.368   4.420  1.00  0.00     0.049 A 
ATOM     56  C   UNL     1      14.115   6.482   7.156  1.00  0.00     0.074 A 
ATOM     57  C   UNL     1      15.480  11.928   4.201  1.00  0.00     0.029 A 
ATOM     58  N   UNL     1      14.444  10.171   5.087  1.00  0.00    -0.354 N 
ATOM     59  N   UNL     1      14.302   7.624   6.540  1.00  0.00    -0.248 NA
ATOM     60  C   UNL     1      15.357   5.786   7.520  1.00  0.00     0.031 C 
ATOM     61  C   UNL     1      16.448  11.045   4.690  1.00  0.00     0.029 A 
ATOM     62  C   UNL     1      15.802   9.961   5.264  1.00  0.00     0.049 A 
ATOM     63  H   UNL     1      13.734   9.560   5.390  1.00  0.00     0.167 HD
ATOM     64  C   UNL     1      15.678   7.799   6.471  1.00  0.00     0.074 A 
ATOM     65  C   UNL     1      16.277   6.651   7.120  1.00  0.00     0.031 C 
ATOM     66  C   UNL     1      16.383   8.818   5.921  1.00  0.00     0.037 A 
BRANCH  53  67
ATOM     67  C   UNL     1      12.883  13.153   3.251  1.00  0.00     0.057 A 
ATOM     68  C   UNL     1      12.407  14.351   3.801  1.00  0.00     0.134 A 
ATOM     69  C   UNL     1      13.346  13.191   1.929  1.00  0.00     0.134 A 
ATOM     70  F   UNL     1      11.939  14.383   5.058  1.00  0.00    -0.206 F 
ATOM     71  C   UNL     1      12.367  15.532   3.057  1.00  0.00     0.040 A 
ATOM     72  C   UNL     1      13.338  14.372   1.185  1.00  0.00     0.040 A 
ATOM     73  F   UNL     1      13.821  12.082   1.342  1.00  0.00    -0.206 F 
ATOM     74  C   UNL     1      12.841  15.546   1.747  1.00  0.00     0.006 A 
ENDBRANCH  53  67
BRANCH  54  75
ATOM     75  C   UNL     1      12.832   4.514   8.263  1.00  0.00     0.057 A 
ATOM     76  C   UNL     1      13.286   4.433   9.585  1.00  0.00     0.134 A 
ATOM     77  C   UNL     1      12.403   3.328   7.656  1.00  0.00     0.134 A 
ATOM     78  F   UNL     1      13.726   5.532  10.216  1.00  0.00    -0.206 F 
ATOM     79  C   UNL     1      13.334   3.218  10.270  1.00  0.00     0.040 A 
ATOM     80  C   UNL     1      12.420   2.110   8.337  1.00  0.00     0.040 A 
ATOM     81  F   UNL     1      11.949   3.338   6.394  1.00  0.00    -0.206 F 
ATOM     82  C   UNL     1      12.896   2.051   9.646  1.00  0.00     0.006 A 
ENDBRANCH  54  75
BRANCH  66  83
ATOM     83  C   UNL     1      17.878   8.759   6.033  1.00  0.00     0.057 A 
ATOM     84  C   UNL     1      18.642   7.848   5.294  1.00  0.00     0.134 A 
ATOM     85  C   UNL     1      18.564   9.653   6.865  1.00  0.00     0.134 A 
ATOM     86  F   UNL     1      18.046   6.955   4.489  1.00  0.00    -0.206 F 
ATOM     87  C   UNL     1      20.034   7.812   5.396  1.00  0.00     0.040 A 
ATOM     88  C   UNL     1      19.956   9.647   6.954  1.00  0.00     0.040 A 
ATOM     89  F   UNL     1      17.893  10.558   7.594  1.00  0.00    -0.206 F 
ATOM     90  C   UNL     1      20.695   8.719   6.223  1.00  0.00     0.006 A 
ENDBRANCH  66  83
ENDBRANCH  40  41
ENDBRANCH  32  35
ENDBRANCH  30  31
ENDBRANCH  29  30
ENDBRANCH  28  29
ENDBRANCH  27  28
ENDBRANCH   1  27
TORSDOF 17
