REMARK SMILES C[C@@H]1[C@@H](C(=O)NCCCCCCNC(=O)c2ccc(-c3c4nc(c(-c5c(F)cccc5F)c5ccc([nH]5)c(-c5c(F)cccc5F)c5nc(c(-c6c(F)cccc6F)c6ccc3[nH]6)C=C5)C=C4)cc2)CCN1C(=O)CCCSc1ccccc1
REMARK SMILES IDX 7 1 6 2 4 3 5 4 3 6 1 7 2 8 72 9 70 10 71 11 73 12 74 13
REMARK SMILES IDX 75 14 76 15 77 16 78 17 79 18 80 19 84 20 81 21 83 22 82 23
REMARK SMILES IDX 8 24 9 25 10 26 11 27 12 28 13 29 14 30 15 32 16 33 17 34
REMARK SMILES IDX 69 35 18 36 68 37 19 38 20 39 21 40 62 41 22 42 67 43 61 44
REMARK SMILES IDX 63 45 23 46 66 47 60 48 59 49 24 51 50 52 33 53 49 54 34 55
REMARK SMILES IDX 37 56 48 57 64 58 35 59 36 60 47 62 65 63 38 64 25 65 26 66
REMARK SMILES IDX 31 67 27 68 28 69 30 70 32 71 29 72 51 73 52 74 57 75 53 76
REMARK SMILES IDX 54 77 56 78 58 79 55 80 39 81 40 82 45 83 41 84 42 85 44 86
REMARK SMILES IDX 46 87 43 88
REMARK H PARENT 6 5 13 31 63 50 37 61
REMARK Flexibility Score: inf
ROOT
ATOM      1  C   UNL     1      -2.671   3.147  -1.007  1.00  0.00     0.116 C 
ENDROOT
BRANCH   1   2
ATOM      2  N   UNL     1      -1.921   2.332  -1.931  1.00  0.00    -0.356 N 
ATOM      3  C   UNL     1      -1.018   1.358  -1.630  1.00  0.00     0.225 C 
ATOM      4  O   UNL     1      -0.446   0.789  -2.558  1.00  0.00    -0.275 OA
ATOM      5  H   UNL     1      -2.081   2.498  -2.888  1.00  0.00     0.163 HD
BRANCH   3   6
ATOM      6  C   UNL     1      -0.726   1.078  -0.158  1.00  0.00     0.102 C 
ATOM      7  C   UNL     1       1.036   0.037   1.301  1.00  0.00     0.032 C 
ATOM      8  C   UNL     1       0.284  -0.063  -0.022  1.00  0.00     0.094 C 
ATOM      9  N   UNL     1      -0.551  -1.261  -0.109  1.00  0.00    -0.339 N 
ATOM     10  C   UNL     1      -1.927   0.509   0.609  1.00  0.00     0.037 C 
ATOM     11  C   UNL     1      -1.929  -0.962   0.220  1.00  0.00     0.120 C 
BRANCH   9  12
ATOM     12  C   UNL     1      -0.232  -2.435  -0.765  1.00  0.00     0.222 C 
ATOM     13  O   UNL     1      -1.094  -3.221  -1.159  1.00  0.00    -0.275 OA
BRANCH  12  14
ATOM     14  C   UNL     1       1.240  -2.785  -0.874  1.00  0.00     0.101 C 
BRANCH  14  15
ATOM     15  C   UNL     1       1.934  -2.529  -2.210  1.00  0.00     0.021 C 
BRANCH  15  16
ATOM     16  C   UNL     1       2.970  -1.391  -2.246  1.00  0.00     0.075 C 
BRANCH  16  17
ATOM     17  S   UNL     1       4.615  -1.610  -1.427  1.00  0.00    -0.126 SA
BRANCH  17  18
ATOM     18  C   UNL     1       4.241  -1.944   0.282  1.00  0.00     0.007 A 
ATOM     19  C   UNL     1       4.287  -0.949   1.265  1.00  0.00     0.015 A 
ATOM     20  C   UNL     1       3.949  -3.257   0.666  1.00  0.00     0.015 A 
ATOM     21  C   UNL     1       3.964  -1.254   2.596  1.00  0.00     0.001 A 
ATOM     22  C   UNL     1       3.590  -3.555   1.982  1.00  0.00     0.001 A 
ATOM     23  C   UNL     1       3.589  -2.551   2.947  1.00  0.00     0.000 A 
ENDBRANCH  17  18
ENDBRANCH  16  17
ENDBRANCH  15  16
ENDBRANCH  14  15
ENDBRANCH  12  14
ENDBRANCH   9  12
ENDBRANCH   3   6
ENDBRANCH   1   2
BRANCH   1  24
ATOM     24  C   UNL     1      -3.039   4.499  -1.588  1.00  0.00     0.021 C 
BRANCH  24  25
ATOM     25  C   UNL     1      -3.957   4.437  -2.811  1.00  0.00     0.002 C 
BRANCH  25  26
ATOM     26  C   UNL     1      -5.195   3.543  -2.680  1.00  0.00     0.002 C 
BRANCH  26  27
ATOM     27  C   UNL     1      -6.077   3.789  -1.454  1.00  0.00     0.021 C 
BRANCH  27  28
ATOM     28  C   UNL     1      -6.462   5.240  -1.211  1.00  0.00     0.116 C 
BRANCH  28  29
ATOM     29  N   UNL     1      -7.146   5.832  -2.345  1.00  0.00    -0.352 N 
ATOM     30  C   UNL     1      -8.286   6.586  -2.367  1.00  0.00     0.251 C 
ATOM     31  H   UNL     1      -6.730   5.667  -3.223  1.00  0.00     0.163 HD
ATOM     32  O   UNL     1      -8.808   6.882  -3.444  1.00  0.00    -0.269 OA
BRANCH  30  33
ATOM     33  C   UNL     1      -8.909   7.024  -1.103  1.00  0.00     0.039 A 
ATOM     34  C   UNL     1     -10.297   6.930  -0.978  1.00  0.00     0.014 A 
ATOM     35  C   UNL     1      -8.141   7.538  -0.053  1.00  0.00     0.014 A 
ATOM     36  C   UNL     1     -10.910   7.317   0.213  1.00  0.00     0.010 A 
ATOM     37  C   UNL     1      -8.746   7.848   1.162  1.00  0.00     0.010 A 
ATOM     38  C   UNL     1     -10.138   7.757   1.301  1.00  0.00    -0.014 A 
BRANCH  38  39
ATOM     39  C   UNL     1     -10.786   8.148   2.577  1.00  0.00     0.031 A 
ATOM     40  C   UNL     1     -10.716   9.571   3.057  1.00  0.00     0.074 A 
ATOM     41  C   UNL     1     -11.415   7.214   3.315  1.00  0.00     0.049 A 
ATOM     42  N   UNL     1     -11.217  10.102   4.144  1.00  0.00    -0.248 NA
ATOM     43  C   UNL     1      -9.965  10.520   2.219  1.00  0.00     0.031 C 
ATOM     44  C   UNL     1     -11.510   5.792   2.979  1.00  0.00     0.029 A 
ATOM     45  N   UNL     1     -12.098   7.321   4.500  1.00  0.00    -0.354 N 
ATOM     46  C   UNL     1     -10.838  11.438   4.121  1.00  0.00     0.074 A 
ATOM     47  C   UNL     1     -10.014  11.624   2.947  1.00  0.00     0.031 C 
ATOM     48  C   UNL     1     -12.238   5.166   3.918  1.00  0.00     0.029 A 
ATOM     49  C   UNL     1     -12.631   6.133   4.938  1.00  0.00     0.049 A 
ATOM     50  H   UNL     1     -12.196   8.169   4.991  1.00  0.00     0.167 HD
ATOM     51  C   UNL     1     -11.170  12.427   4.984  1.00  0.00     0.037 A 
ATOM     52  C   UNL     1     -13.356   5.856   6.038  1.00  0.00     0.037 A 
ATOM     53  C   UNL     1     -12.008  12.242   6.139  1.00  0.00     0.049 A 
ATOM     54  C   UNL     1     -13.701   6.970   6.987  1.00  0.00     0.074 A 
ATOM     55  C   UNL     1     -12.450  13.191   7.045  1.00  0.00     0.029 A 
ATOM     56  N   UNL     1     -12.529  11.024   6.550  1.00  0.00    -0.354 N 
ATOM     57  N   UNL     1     -13.397   8.243   6.914  1.00  0.00    -0.248 NA
ATOM     58  C   UNL     1     -14.497   6.609   8.168  1.00  0.00     0.031 C 
ATOM     59  C   UNL     1     -13.198  12.539   8.031  1.00  0.00     0.029 A 
ATOM     60  C   UNL     1     -13.266  11.192   7.710  1.00  0.00     0.049 A 
ATOM     61  H   UNL     1     -12.395  10.167   6.085  1.00  0.00     0.167 HD
ATOM     62  C   UNL     1     -13.986   8.839   8.022  1.00  0.00     0.074 A 
ATOM     63  C   UNL     1     -14.680   7.790   8.740  1.00  0.00     0.031 C 
ATOM     64  C   UNL     1     -13.953  10.137   8.412  1.00  0.00     0.037 A 
BRANCH  51  65
ATOM     65  C   UNL     1     -10.627  13.800   4.707  1.00  0.00     0.057 A 
ATOM     66  C   UNL     1     -11.072  14.565   3.620  1.00  0.00     0.134 A 
ATOM     67  C   UNL     1      -9.675  14.378   5.555  1.00  0.00     0.134 A 
ATOM     68  F   UNL     1     -11.974  14.066   2.761  1.00  0.00    -0.206 F 
ATOM     69  C   UNL     1     -10.568  15.843   3.371  1.00  0.00     0.040 A 
ATOM     70  C   UNL     1      -9.185  15.667   5.333  1.00  0.00     0.040 A 
ATOM     71  F   UNL     1      -9.209  13.704   6.618  1.00  0.00    -0.206 F 
ATOM     72  C   UNL     1      -9.627  16.400   4.234  1.00  0.00     0.006 A 
ENDBRANCH  51  65
BRANCH  52  73
ATOM     73  C   UNL     1     -13.825   4.470   6.291  1.00  0.00     0.057 A 
ATOM     74  C   UNL     1     -15.183   4.140   6.213  1.00  0.00     0.134 A 
ATOM     75  C   UNL     1     -12.932   3.446   6.629  1.00  0.00     0.134 A 
ATOM     76  F   UNL     1     -16.089   5.082   5.910  1.00  0.00    -0.206 F 
ATOM     77  C   UNL     1     -15.640   2.849   6.483  1.00  0.00     0.040 A 
ATOM     78  C   UNL     1     -13.371   2.144   6.876  1.00  0.00     0.040 A 
ATOM     79  F   UNL     1     -11.616   3.694   6.713  1.00  0.00    -0.206 F 
ATOM     80  C   UNL     1     -14.731   1.846   6.812  1.00  0.00     0.006 A 
ENDBRANCH  52  73
BRANCH  64  81
ATOM     81  C   UNL     1     -14.711  10.498   9.656  1.00  0.00     0.057 A 
ATOM     82  C   UNL     1     -14.274  10.107  10.928  1.00  0.00     0.134 A 
ATOM     83  C   UNL     1     -15.876  11.273   9.582  1.00  0.00     0.134 A 
ATOM     84  F   UNL     1     -13.173   9.353  11.067  1.00  0.00    -0.206 F 
ATOM     85  C   UNL     1     -14.983  10.452  12.080  1.00  0.00     0.040 A 
ATOM     86  C   UNL     1     -16.576  11.649  10.728  1.00  0.00     0.040 A 
ATOM     87  F   UNL     1     -16.343  11.689   8.395  1.00  0.00    -0.206 F 
ATOM     88  C   UNL     1     -16.134  11.231  11.982  1.00  0.00     0.006 A 
ENDBRANCH  64  81
ENDBRANCH  38  39
ENDBRANCH  30  33
ENDBRANCH  28  29
ENDBRANCH  27  28
ENDBRANCH  26  27
ENDBRANCH  25  26
ENDBRANCH  24  25
ENDBRANCH   1  24
TORSDOF 19
