REMARK SMILES CCCCCC[C@H]1OCC[C@H]1C(=O)NCCCCCCNC(=O)c1ccc(-c2c3nc(c(-c4c(F)cccc4F)c4ccc([nH]4)c(-c4c(F)cccc4F)c4nc(c(-c5c(F)cccc5F)c5ccc2[nH]5)C=C4)C=C3)cc1
REMARK SMILES IDX 16 1 15 2 14 3 12 4 13 5 11 7 7 8 8 9 9 10 10 11 6 12 5 13
REMARK SMILES IDX 4 14 3 15 2 16 1 17 17 18 18 19 19 20 20 21 21 22 22 23
REMARK SMILES IDX 23 25 24 26 25 27 77 28 26 29 76 30 27 31 28 32 29 33 70 34
REMARK SMILES IDX 30 35 75 36 69 37 71 38 31 39 74 40 68 41 67 42 32 44 58 45
REMARK SMILES IDX 41 46 57 47 42 48 45 49 56 50 72 51 43 52 44 53 55 55 73 56
REMARK SMILES IDX 46 57 33 58 34 59 39 60 35 61 36 62 38 63 40 64 37 65 59 66
REMARK SMILES IDX 60 67 65 68 61 69 62 70 64 71 66 72 63 73 47 74 48 75 53 76
REMARK SMILES IDX 49 77 50 78 52 79 54 80 51 81
REMARK H PARENT 14 6 21 24 71 43 45 54
REMARK Flexibility Score: inf
ROOT
ATOM      1  C   UNL     1      -3.737  -4.124  -0.843  1.00  0.00     0.021 C 
ENDROOT
BRANCH   1   2
ATOM      2  C   UNL     1      -3.496  -4.970  -2.093  1.00  0.00     0.116 C 
BRANCH   2   3
ATOM      3  N   UNL     1      -4.112  -4.396  -3.269  1.00  0.00    -0.356 N 
ATOM      4  C   UNL     1      -3.597  -3.989  -4.456  1.00  0.00     0.225 C 
ATOM      5  O   UNL     1      -4.401  -3.490  -5.253  1.00  0.00    -0.275 OA
ATOM      6  H   UNL     1      -5.086  -4.280  -3.194  1.00  0.00     0.163 HD
BRANCH   4   7
ATOM      7  C   UNL     1      -2.140  -4.160  -4.885  1.00  0.00     0.109 C 
ATOM      8  C   UNL     1      -1.006  -3.637  -4.011  1.00  0.00     0.130 C 
ATOM      9  O   UNL     1      -0.476  -4.767  -3.302  1.00  0.00    -0.377 OA
ATOM     10  C   UNL     1      -0.796  -5.963  -4.020  1.00  0.00     0.161 C 
ATOM     11  C   UNL     1      -1.775  -5.612  -5.120  1.00  0.00     0.044 C 
BRANCH   8  12
ATOM     12  C   UNL     1      -1.326  -2.441  -3.100  1.00  0.00     0.033 C 
BRANCH  12  13
ATOM     13  C   UNL     1      -0.643  -2.453  -1.729  1.00  0.00     0.003 C 
BRANCH  13  14
ATOM     14  C   UNL     1       0.869  -2.233  -1.753  1.00  0.00     0.000 C 
BRANCH  14  15
ATOM     15  C   UNL     1       1.313  -0.851  -2.237  1.00  0.00    -0.000 C 
BRANCH  15  16
ATOM     16  C   UNL     1       0.719   0.339  -1.476  1.00  0.00    -0.003 C 
ATOM     17  C   UNL     1       1.014   0.319   0.016  1.00  0.00     0.004 C 
ENDBRANCH  15  16
ENDBRANCH  14  15
ENDBRANCH  13  14
ENDBRANCH  12  13
ENDBRANCH   8  12
ENDBRANCH   4   7
ENDBRANCH   2   3
ENDBRANCH   1   2
BRANCH   1  18
ATOM     18  C   UNL     1      -5.127  -4.270  -0.222  1.00  0.00     0.002 C 
BRANCH  18  19
ATOM     19  C   UNL     1      -5.528  -5.696   0.165  1.00  0.00     0.002 C 
BRANCH  19  20
ATOM     20  C   UNL     1      -4.508  -6.471   1.004  1.00  0.00     0.021 C 
BRANCH  20  21
ATOM     21  C   UNL     1      -4.052  -5.780   2.287  1.00  0.00     0.116 C 
BRANCH  21  22
ATOM     22  N   UNL     1      -5.160  -5.463   3.172  1.00  0.00    -0.352 N 
ATOM     23  C   UNL     1      -5.380  -5.824   4.474  1.00  0.00     0.251 C 
ATOM     24  H   UNL     1      -5.862  -4.901   2.772  1.00  0.00     0.163 HD
ATOM     25  O   UNL     1      -6.470  -5.591   4.996  1.00  0.00    -0.269 OA
BRANCH  23  26
ATOM     26  C   UNL     1      -4.329  -6.510   5.256  1.00  0.00     0.039 A 
ATOM     27  C   UNL     1      -4.700  -7.582   6.072  1.00  0.00     0.014 A 
ATOM     28  C   UNL     1      -2.997  -6.088   5.218  1.00  0.00     0.014 A 
ATOM     29  C   UNL     1      -3.728  -8.263   6.807  1.00  0.00     0.010 A 
ATOM     30  C   UNL     1      -2.018  -6.812   5.896  1.00  0.00     0.010 A 
ATOM     31  C   UNL     1      -2.375  -7.903   6.701  1.00  0.00    -0.014 A 
BRANCH  31  32
ATOM     32  C   UNL     1      -1.329  -8.675   7.419  1.00  0.00     0.031 A 
ATOM     33  C   UNL     1      -0.515  -8.035   8.507  1.00  0.00     0.074 A 
ATOM     34  C   UNL     1      -1.078  -9.945   7.050  1.00  0.00     0.049 A 
ATOM     35  N   UNL     1       0.444  -8.552   9.233  1.00  0.00    -0.248 NA
ATOM     36  C   UNL     1      -0.795  -6.622   8.799  1.00  0.00     0.031 C 
ATOM     37  C   UNL     1      -1.752 -10.657   5.963  1.00  0.00     0.029 A 
ATOM     38  N   UNL     1      -0.183 -10.860   7.544  1.00  0.00    -0.354 N 
ATOM     39  C   UNL     1       0.886  -7.528  10.061  1.00  0.00     0.074 A 
ATOM     40  C   UNL     1       0.131  -6.346   9.705  1.00  0.00     0.031 C 
ATOM     41  C   UNL     1      -1.258 -11.902   5.882  1.00  0.00     0.029 A 
ATOM     42  C   UNL     1      -0.218 -12.068   6.892  1.00  0.00     0.049 A 
ATOM     43  H   UNL     1       0.426 -10.668   8.293  1.00  0.00     0.167 HD
ATOM     44  C   UNL     1       1.817  -7.574  11.044  1.00  0.00     0.037 A 
ATOM     45  C   UNL     1       0.508 -13.185   7.084  1.00  0.00     0.037 A 
ATOM     46  C   UNL     1       2.561  -8.755  11.402  1.00  0.00     0.049 A 
ATOM     47  C   UNL     1       1.523 -13.222   8.190  1.00  0.00     0.074 A 
ATOM     48  C   UNL     1       3.477  -8.923  12.426  1.00  0.00     0.029 A 
ATOM     49  N   UNL     1       2.480  -9.970  10.737  1.00  0.00    -0.354 N 
ATOM     50  N   UNL     1       1.868 -12.272   9.025  1.00  0.00    -0.248 NA
ATOM     51  C   UNL     1       2.237 -14.489   8.390  1.00  0.00     0.031 C 
ATOM     52  C   UNL     1       3.984 -10.225  12.351  1.00  0.00     0.029 A 
ATOM     53  C   UNL     1       3.349 -10.885  11.311  1.00  0.00     0.049 A 
ATOM     54  H   UNL     1       1.892 -10.155   9.969  1.00  0.00     0.167 HD
ATOM     55  C   UNL     1       2.832 -12.827   9.857  1.00  0.00     0.074 A 
ATOM     56  C   UNL     1       2.996 -14.206   9.440  1.00  0.00     0.031 C 
ATOM     57  C   UNL     1       3.518 -12.248  10.873  1.00  0.00     0.037 A 
BRANCH  44  58
ATOM     58  C   UNL     1       2.081  -6.300  11.796  1.00  0.00     0.057 A 
ATOM     59  C   UNL     1       1.129  -5.740  12.660  1.00  0.00     0.134 A 
ATOM     60  C   UNL     1       3.300  -5.625  11.658  1.00  0.00     0.134 A 
ATOM     61  F   UNL     1      -0.065  -6.330  12.830  1.00  0.00    -0.206 F 
ATOM     62  C   UNL     1       1.363  -4.535  13.325  1.00  0.00     0.040 A 
ATOM     63  C   UNL     1       3.557  -4.434  12.341  1.00  0.00     0.040 A 
ATOM     64  F   UNL     1       4.260  -6.107  10.855  1.00  0.00    -0.206 F 
ATOM     65  C   UNL     1       2.582  -3.880  13.168  1.00  0.00     0.006 A 
ENDBRANCH  44  58
BRANCH  45  66
ATOM     66  C   UNL     1       0.273 -14.365   6.217  1.00  0.00     0.057 A 
ATOM     67  C   UNL     1      -0.382 -15.501   6.702  1.00  0.00     0.134 A 
ATOM     68  C   UNL     1       0.665 -14.368   4.873  1.00  0.00     0.134 A 
ATOM     69  F   UNL     1      -0.768 -15.562   7.985  1.00  0.00    -0.206 F 
ATOM     70  C   UNL     1      -0.632 -16.604   5.884  1.00  0.00     0.040 A 
ATOM     71  C   UNL     1       0.402 -15.454   4.038  1.00  0.00     0.040 A 
ATOM     72  F   UNL     1       1.288 -13.303   4.347  1.00  0.00    -0.206 F 
ATOM     73  C   UNL     1      -0.247 -16.579   4.545  1.00  0.00     0.006 A 
ENDBRANCH  45  66
BRANCH  57  74
ATOM     74  C   UNL     1       4.508 -13.109  11.603  1.00  0.00     0.057 A 
ATOM     75  C   UNL     1       5.715 -13.506  11.014  1.00  0.00     0.134 A 
ATOM     76  C   UNL     1       4.259 -13.532  12.915  1.00  0.00     0.134 A 
ATOM     77  F   UNL     1       6.008 -13.147   9.755  1.00  0.00    -0.206 F 
ATOM     78  C   UNL     1       6.627 -14.315  11.694  1.00  0.00     0.040 A 
ATOM     79  C   UNL     1       5.175 -14.319  13.614  1.00  0.00     0.040 A 
ATOM     80  F   UNL     1       3.125 -13.181  13.540  1.00  0.00    -0.206 F 
ATOM     81  C   UNL     1       6.360 -14.719  13.000  1.00  0.00     0.006 A 
ENDBRANCH  57  74
ENDBRANCH  31  32
ENDBRANCH  23  26
ENDBRANCH  21  22
ENDBRANCH  20  21
ENDBRANCH  19  20
ENDBRANCH  18  19
ENDBRANCH   1  18
TORSDOF 18
