REMARK SMILES CC(C)c1noc(C[N@H+]2CCCC[C@H]2C(=O)NCCCCCCNC(=O)c2ccc(-c3c4nc(c(-c5c(F)cccc5F)c5ccc([nH]5)c(-c5c(F)cccc5F)c5nc(c(-c6c(F)cccc6F)c6ccc3[nH]6)C=C5)C=C4)cc2)n1
REMARK SMILES IDX 20 1 19 2 18 3 17 4 15 5 16 6 14 8 9 9 10 10 11 12 13 13
REMARK SMILES IDX 12 14 8 15 7 16 4 17 5 18 81 19 6 20 2 21 1 22 3 23 21 24
REMARK SMILES IDX 22 25 23 26 24 27 25 28 26 30 27 31 28 32 80 33 29 34 79 35
REMARK SMILES IDX 30 36 31 37 32 38 73 39 33 40 78 41 72 42 74 43 34 44 77 45
REMARK SMILES IDX 71 46 70 47 35 49 61 50 44 51 60 52 45 53 48 54 59 55 75 56
REMARK SMILES IDX 46 57 47 58 58 60 76 61 49 62 36 63 37 64 42 65 38 66 39 67
REMARK SMILES IDX 41 68 43 69 40 70 62 71 63 72 68 73 64 74 65 75 67 76 69 77
REMARK SMILES IDX 66 78 50 79 51 80 56 81 52 82 53 83 55 84 57 85 54 86
REMARK H PARENT 17 7 9 11 24 29 74 48 48 59
REMARK Flexibility Score: inf
ROOT
ATOM      1  C   UNL     1      -3.751   4.031   1.071  1.00  0.00     0.002 C 
ENDROOT
BRANCH   1   2
ATOM      2  C   UNL     1      -5.078   3.256   1.009  1.00  0.00     0.021 C 
BRANCH   2   3
ATOM      3  C   UNL     1      -5.152   2.224  -0.123  1.00  0.00     0.116 C 
BRANCH   3   4
ATOM      4  N   UNL     1      -4.035   1.311  -0.022  1.00  0.00    -0.351 N 
ATOM      5  C   UNL     1      -4.013   0.132   0.663  1.00  0.00     0.278 C 
ATOM      6  O   UNL     1      -2.998  -0.129   1.308  1.00  0.00    -0.268 OA
ATOM      7  H   UNL     1      -3.209   1.565  -0.494  1.00  0.00     0.163 HD
BRANCH   5   8
ATOM      8  C   UNL     1      -5.231  -0.812   0.522  1.00  0.00     0.274 C 
ATOM      9  N   UNL     1      -4.859  -2.238   0.337  1.00  0.00    -0.317 N 
ATOM     10  C   UNL     1      -4.229  -2.845   1.512  1.00  0.00     0.263 C 
ATOM     11  H   UNL     1      -5.760  -2.706   0.242  1.00  0.00     0.349 HD
ATOM     12  C   UNL     1      -5.119  -2.702   2.752  1.00  0.00     0.062 C 
ATOM     13  C   UNL     1      -6.170  -0.664   1.725  1.00  0.00     0.076 C 
ATOM     14  C   UNL     1      -5.576  -1.267   2.993  1.00  0.00     0.012 C 
BRANCH   9  15
ATOM     15  C   UNL     1      -4.165  -2.547  -0.931  1.00  0.00     0.364 C 
BRANCH  15  16
ATOM     16  C   UNL     1      -2.832  -1.922  -1.180  1.00  0.00     0.281 A 
ATOM     17  C   UNL     1      -0.854  -1.247  -1.271  1.00  0.00     0.174 A 
ATOM     18  N   UNL     1      -1.500  -0.404  -2.090  1.00  0.00    -0.062 NA
ATOM     19  N   UNL     1      -1.639  -2.228  -0.716  1.00  0.00    -0.191 NA
ATOM     20  O   UNL     1      -2.818  -0.856  -2.035  1.00  0.00    -0.333 OA
BRANCH  17  21
ATOM     21  C   UNL     1       0.612  -1.118  -1.009  1.00  0.00     0.055 C 
ATOM     22  C   UNL     1       0.898  -0.070   0.068  1.00  0.00     0.016 C 
ATOM     23  C   UNL     1       1.254  -2.454  -0.630  1.00  0.00     0.016 C 
ENDBRANCH  17  21
ENDBRANCH  15  16
ENDBRANCH   9  15
ENDBRANCH   5   8
ENDBRANCH   3   4
ENDBRANCH   2   3
ENDBRANCH   1   2
BRANCH   1  24
ATOM     24  C   UNL     1      -3.351   4.734  -0.229  1.00  0.00     0.002 C 
BRANCH  24  25
ATOM     25  C   UNL     1      -4.371   5.749  -0.745  1.00  0.00     0.021 C 
BRANCH  25  26
ATOM     26  C   UNL     1      -4.697   6.871   0.234  1.00  0.00     0.116 C 
BRANCH  26  27
ATOM     27  N   UNL     1      -3.538   7.691   0.540  1.00  0.00    -0.352 N 
ATOM     28  C   UNL     1      -3.423   9.055   0.572  1.00  0.00     0.251 C 
ATOM     29  H   UNL     1      -2.715   7.195   0.756  1.00  0.00     0.163 HD
ATOM     30  O   UNL     1      -2.313   9.575   0.688  1.00  0.00    -0.269 OA
BRANCH  28  31
ATOM     31  C   UNL     1      -4.623   9.911   0.451  1.00  0.00     0.039 A 
ATOM     32  C   UNL     1      -4.543  11.069  -0.327  1.00  0.00     0.014 A 
ATOM     33  C   UNL     1      -5.809   9.602   1.124  1.00  0.00     0.014 A 
ATOM     34  C   UNL     1      -5.658  11.899  -0.452  1.00  0.00     0.010 A 
ATOM     35  C   UNL     1      -6.943  10.388   0.936  1.00  0.00     0.010 A 
ATOM     36  C   UNL     1      -6.872  11.557   0.166  1.00  0.00    -0.014 A 
BRANCH  36  37
ATOM     37  C   UNL     1      -8.056  12.445   0.049  1.00  0.00     0.031 A 
ATOM     38  C   UNL     1      -8.598  13.147   1.265  1.00  0.00     0.074 A 
ATOM     39  C   UNL     1      -8.652  12.610  -1.147  1.00  0.00     0.049 A 
ATOM     40  N   UNL     1      -9.605  13.979   1.360  1.00  0.00    -0.248 NA
ATOM     41  C   UNL     1      -7.939  12.856   2.547  1.00  0.00     0.031 C 
ATOM     42  C   UNL     1      -8.252  11.951  -2.391  1.00  0.00     0.029 A 
ATOM     43  N   UNL     1      -9.718  13.393  -1.512  1.00  0.00    -0.354 N 
ATOM     44  C   UNL     1      -9.699  14.306   2.707  1.00  0.00     0.074 A 
ATOM     45  C   UNL     1      -8.694  13.530   3.400  1.00  0.00     0.031 C 
ATOM     46  C   UNL     1      -9.034  12.389  -3.390  1.00  0.00     0.029 A 
ATOM     47  C   UNL     1     -10.005  13.339  -2.854  1.00  0.00     0.049 A 
ATOM     48  H   UNL     1     -10.229  13.941  -0.873  1.00  0.00     0.167 HD
ATOM     49  C   UNL     1     -10.525  15.194   3.310  1.00  0.00     0.037 A 
ATOM     50  C   UNL     1     -10.935  13.995  -3.572  1.00  0.00     0.037 A 
ATOM     51  C   UNL     1     -11.514  15.978   2.618  1.00  0.00     0.049 A 
ATOM     52  C   UNL     1     -11.838  14.979  -2.882  1.00  0.00     0.074 A 
ATOM     53  C   UNL     1     -12.380  16.927   3.131  1.00  0.00     0.029 A 
ATOM     54  N   UNL     1     -11.765  15.903   1.256  1.00  0.00    -0.354 N 
ATOM     55  N   UNL     1     -11.876  15.323  -1.617  1.00  0.00    -0.248 NA
ATOM     56  C   UNL     1     -12.816  15.679  -3.725  1.00  0.00     0.031 C 
ATOM     57  C   UNL     1     -13.179  17.403   2.085  1.00  0.00     0.029 A 
ATOM     58  C   UNL     1     -12.778  16.783   0.912  1.00  0.00     0.049 A 
ATOM     59  H   UNL     1     -11.294  15.311   0.626  1.00  0.00     0.167 HD
ATOM     60  C   UNL     1     -12.853  16.306  -1.520  1.00  0.00     0.074 A 
ATOM     61  C   UNL     1     -13.375  16.508  -2.856  1.00  0.00     0.031 C 
ATOM     62  C   UNL     1     -13.276  16.983  -0.425  1.00  0.00     0.037 A 
BRANCH  49  63
ATOM     63  C   UNL     1     -10.380  15.363   4.795  1.00  0.00     0.057 A 
ATOM     64  C   UNL     1      -9.250  15.970   5.361  1.00  0.00     0.134 A 
ATOM     65  C   UNL     1     -11.380  14.921   5.671  1.00  0.00     0.134 A 
ATOM     66  F   UNL     1      -8.248  16.402   4.580  1.00  0.00    -0.206 F 
ATOM     67  C   UNL     1      -9.102  16.098   6.743  1.00  0.00     0.040 A 
ATOM     68  C   UNL     1     -11.257  15.071   7.054  1.00  0.00     0.040 A 
ATOM     69  F   UNL     1     -12.491  14.337   5.198  1.00  0.00    -0.206 F 
ATOM     70  C   UNL     1     -10.111  15.652   7.594  1.00  0.00     0.006 A 
ENDBRANCH  49  63
BRANCH  50  71
ATOM     71  C   UNL     1     -11.020  13.792  -5.040  1.00  0.00     0.057 A 
ATOM     72  C   UNL     1     -10.624  14.799  -5.928  1.00  0.00     0.134 A 
ATOM     73  C   UNL     1     -11.503  12.599  -5.589  1.00  0.00     0.134 A 
ATOM     74  F   UNL     1     -10.169  15.971  -5.460  1.00  0.00    -0.206 F 
ATOM     75  C   UNL     1     -10.726  14.637  -7.310  1.00  0.00     0.040 A 
ATOM     76  C   UNL     1     -11.588  12.414  -6.970  1.00  0.00     0.040 A 
ATOM     77  F   UNL     1     -11.889  11.593  -4.792  1.00  0.00    -0.206 F 
ATOM     78  C   UNL     1     -11.206  13.439  -7.835  1.00  0.00     0.006 A 
ENDBRANCH  50  71
BRANCH  62  79
ATOM     79  C   UNL     1     -14.317  18.044  -0.638  1.00  0.00     0.057 A 
ATOM     80  C   UNL     1     -15.646  17.731  -0.951  1.00  0.00     0.134 A 
ATOM     81  C   UNL     1     -13.983  19.399  -0.516  1.00  0.00     0.134 A 
ATOM     82  F   UNL     1     -16.028  16.453  -1.095  1.00  0.00    -0.206 F 
ATOM     83  C   UNL     1     -16.598  18.729  -1.168  1.00  0.00     0.040 A 
ATOM     84  C   UNL     1     -14.932  20.404  -0.703  1.00  0.00     0.040 A 
ATOM     85  F   UNL     1     -12.730  19.767  -0.208  1.00  0.00    -0.206 F 
ATOM     86  C   UNL     1     -16.242  20.070  -1.040  1.00  0.00     0.006 A 
ENDBRANCH  62  79
ENDBRANCH  36  37
ENDBRANCH  28  31
ENDBRANCH  26  27
ENDBRANCH  25  26
ENDBRANCH  24  25
ENDBRANCH   1  24
TORSDOF 16
