REMARK SMILES C=CCN(CC(=O)NCCCCCCNC(=O)c1ccc(-c2c3nc(c(-c4c(F)cccc4F)c4ccc([nH]4)c(-c4c(F)cccc4F)c4nc(c(-c5c(F)cccc5F)c5ccc2[nH]5)C=C4)C=C3)cc1)C(=O)NCC(C)C
REMARK SMILES IDX 10 1 9 2 8 3 6 4 7 5 5 7 4 8 3 9 2 10 1 11 72 12 73 13 74 14
REMARK SMILES IDX 75 16 76 17 77 18 78 19 11 20 12 21 13 22 14 23 15 24 16 25
REMARK SMILES IDX 17 27 18 28 19 29 71 30 20 31 70 32 21 33 22 34 23 35 64 36
REMARK SMILES IDX 24 37 69 38 63 39 65 40 25 41 68 42 62 43 61 44 26 46 52 47
REMARK SMILES IDX 35 48 51 49 36 50 39 51 50 52 66 53 37 54 38 55 49 57 67 58
REMARK SMILES IDX 40 59 27 60 28 61 33 62 29 63 30 64 32 65 34 66 31 67 53 68
REMARK SMILES IDX 54 69 59 70 55 71 56 72 58 73 60 74 57 75 41 76 42 77 47 78
REMARK SMILES IDX 43 79 44 80 46 81 48 82 45 83
REMARK H PARENT 8 6 74 15 15 26 65 45 39 56
REMARK Flexibility Score: inf
ROOT
ATOM      1  C   UNL     1      -4.241  -0.013   0.872  1.00  0.00     0.021 C 
ENDROOT
BRANCH   1   2
ATOM      2  C   UNL     1      -4.250   0.653  -0.500  1.00  0.00     0.116 C 
BRANCH   2   3
ATOM      3  N   UNL     1      -4.549   2.064  -0.453  1.00  0.00    -0.355 N 
ATOM      4  C   UNL     1      -3.774   3.114  -0.842  1.00  0.00     0.239 C 
ATOM      5  O   UNL     1      -4.365   4.144  -1.183  1.00  0.00    -0.273 OA
ATOM      6  H   UNL     1      -5.433   2.299  -0.089  1.00  0.00     0.163 HD
BRANCH   4   7
ATOM      7  C   UNL     1      -2.251   2.998  -1.028  1.00  0.00     0.221 C 
BRANCH   7   8
ATOM      8  N   UNL     1      -1.530   2.238  -0.008  1.00  0.00    -0.312 N 
BRANCH   8   9
ATOM      9  C   UNL     1      -0.914   0.983  -0.446  1.00  0.00     0.149 C 
BRANCH   9  10
ATOM     10  C   UNL     1       0.577   1.097  -0.536  1.00  0.00    -0.013 C 
ATOM     11  C   UNL     1       1.407   0.195   0.007  1.00  0.00     0.006 C 
ENDBRANCH   9  10
ENDBRANCH   8   9
BRANCH   8  12
ATOM     12  C   UNL     1      -1.362   2.584   1.302  1.00  0.00     0.318 C 
ATOM     13  O   UNL     1      -0.812   1.819   2.103  1.00  0.00    -0.249 OA
ATOM     14  N   UNL     1      -1.768   3.743   1.842  1.00  0.00    -0.338 N 
ATOM     15  H   UNL     1      -1.519   3.777   2.794  1.00  0.00     0.165 HD
BRANCH  14  16
ATOM     16  C   UNL     1      -2.463   4.969   1.463  1.00  0.00     0.120 C 
BRANCH  16  17
ATOM     17  C   UNL     1      -3.839   5.067   2.149  1.00  0.00     0.002 C 
ATOM     18  C   UNL     1      -3.694   5.357   3.647  1.00  0.00     0.009 C 
ATOM     19  C   UNL     1      -4.697   6.161   1.511  1.00  0.00     0.009 C 
ENDBRANCH  16  17
ENDBRANCH  14  16
ENDBRANCH   8  12
ENDBRANCH   7   8
ENDBRANCH   4   7
ENDBRANCH   2   3
ENDBRANCH   1   2
BRANCH   1  20
ATOM     20  C   UNL     1      -5.617  -0.112   1.540  1.00  0.00     0.002 C 
BRANCH  20  21
ATOM     21  C   UNL     1      -6.725  -0.736   0.682  1.00  0.00     0.002 C 
BRANCH  21  22
ATOM     22  C   UNL     1      -6.395  -2.102   0.073  1.00  0.00     0.021 C 
BRANCH  22  23
ATOM     23  C   UNL     1      -6.083  -3.195   1.089  1.00  0.00     0.116 C 
BRANCH  23  24
ATOM     24  N   UNL     1      -7.228  -3.502   1.933  1.00  0.00    -0.352 N 
ATOM     25  C   UNL     1      -7.881  -4.693   2.121  1.00  0.00     0.251 C 
ATOM     26  H   UNL     1      -7.587  -2.741   2.444  1.00  0.00     0.163 HD
ATOM     27  O   UNL     1      -8.957  -4.721   2.716  1.00  0.00    -0.269 OA
BRANCH  25  28
ATOM     28  C   UNL     1      -7.306  -5.944   1.586  1.00  0.00     0.039 A 
ATOM     29  C   UNL     1      -8.141  -6.836   0.907  1.00  0.00     0.014 A 
ATOM     30  C   UNL     1      -5.948  -6.235   1.745  1.00  0.00     0.014 A 
ATOM     31  C   UNL     1      -7.598  -7.977   0.315  1.00  0.00     0.010 A 
ATOM     32  C   UNL     1      -5.396  -7.336   1.095  1.00  0.00     0.010 A 
ATOM     33  C   UNL     1      -6.214  -8.209   0.362  1.00  0.00    -0.014 A 
BRANCH  33  34
ATOM     34  C   UNL     1      -5.596  -9.325  -0.398  1.00  0.00     0.031 A 
ATOM     35  C   UNL     1      -4.894 -10.444   0.315  1.00  0.00     0.074 A 
ATOM     36  C   UNL     1      -5.602  -9.282  -1.744  1.00  0.00     0.049 A 
ATOM     37  N   UNL     1      -4.247 -11.465  -0.186  1.00  0.00    -0.248 NA
ATOM     38  C   UNL     1      -4.900 -10.396   1.784  1.00  0.00     0.031 C 
ATOM     39  C   UNL     1      -6.215  -8.227  -2.552  1.00  0.00     0.029 A 
ATOM     40  N   UNL     1      -5.068 -10.142  -2.670  1.00  0.00    -0.354 N 
ATOM     41  C   UNL     1      -3.762 -12.177   0.903  1.00  0.00     0.074 A 
ATOM     42  C   UNL     1      -4.144 -11.440   2.089  1.00  0.00     0.031 C 
ATOM     43  C   UNL     1      -6.050  -8.517  -3.852  1.00  0.00     0.029 A 
ATOM     44  C   UNL     1      -5.279  -9.750  -3.969  1.00  0.00     0.049 A 
ATOM     45  H   UNL     1      -4.580 -10.962  -2.427  1.00  0.00     0.167 HD
ATOM     46  C   UNL     1      -3.077 -13.346   0.913  1.00  0.00     0.037 A 
ATOM     47  C   UNL     1      -4.886 -10.313  -5.127  1.00  0.00     0.037 A 
ATOM     48  C   UNL     1      -2.700 -14.073  -0.273  1.00  0.00     0.049 A 
ATOM     49  C   UNL     1      -4.081 -11.580  -5.092  1.00  0.00     0.074 A 
ATOM     50  C   UNL     1      -2.068 -15.300  -0.368  1.00  0.00     0.029 A 
ATOM     51  N   UNL     1      -2.905 -13.628  -1.572  1.00  0.00    -0.354 N 
ATOM     52  N   UNL     1      -3.700 -12.287  -4.056  1.00  0.00    -0.248 NA
ATOM     53  C   UNL     1      -3.645 -12.123  -6.386  1.00  0.00     0.031 C 
ATOM     54  C   UNL     1      -1.832 -15.567  -1.721  1.00  0.00     0.029 A 
ATOM     55  C   UNL     1      -2.367 -14.534  -2.474  1.00  0.00     0.049 A 
ATOM     56  H   UNL     1      -3.364 -12.792  -1.817  1.00  0.00     0.167 HD
ATOM     57  C   UNL     1      -2.993 -13.366  -4.571  1.00  0.00     0.074 A 
ATOM     58  C   UNL     1      -3.017 -13.230  -6.013  1.00  0.00     0.031 C 
ATOM     59  C   UNL     1      -2.380 -14.377  -3.907  1.00  0.00     0.037 A 
BRANCH  46  60
ATOM     60  C   UNL     1      -2.675 -13.896   2.252  1.00  0.00     0.057 A 
ATOM     61  C   UNL     1      -3.618 -14.377   3.171  1.00  0.00     0.134 A 
ATOM     62  C   UNL     1      -1.327 -13.951   2.627  1.00  0.00     0.134 A 
ATOM     63  F   UNL     1      -4.928 -14.347   2.881  1.00  0.00    -0.206 F 
ATOM     64  C   UNL     1      -3.239 -14.853   4.428  1.00  0.00     0.040 A 
ATOM     65  C   UNL     1      -0.933 -14.454   3.869  1.00  0.00     0.040 A 
ATOM     66  F   UNL     1      -0.369 -13.517   1.795  1.00  0.00    -0.206 F 
ATOM     67  C   UNL     1      -1.891 -14.895   4.778  1.00  0.00     0.006 A 
ENDBRANCH  46  60
BRANCH  47  68
ATOM     68  C   UNL     1      -5.271  -9.687  -6.417  1.00  0.00     0.057 A 
ATOM     69  C   UNL     1      -6.216 -10.291  -7.252  1.00  0.00     0.134 A 
ATOM     70  C   UNL     1      -4.729  -8.464  -6.832  1.00  0.00     0.134 A 
ATOM     71  F   UNL     1      -6.756 -11.472  -6.916  1.00  0.00    -0.206 F 
ATOM     72  C   UNL     1      -6.607  -9.706  -8.457  1.00  0.00     0.040 A 
ATOM     73  C   UNL     1      -5.129  -7.855  -8.023  1.00  0.00     0.040 A 
ATOM     74  F   UNL     1      -3.824  -7.831  -6.072  1.00  0.00    -0.206 F 
ATOM     75  C   UNL     1      -6.068  -8.479  -8.841  1.00  0.00     0.006 A 
ENDBRANCH  47  68
BRANCH  59  76
ATOM     76  C   UNL     1      -1.682 -15.417  -4.736  1.00  0.00     0.057 A 
ATOM     77  C   UNL     1      -0.485 -15.140  -5.409  1.00  0.00     0.134 A 
ATOM     78  C   UNL     1      -2.189 -16.719  -4.831  1.00  0.00     0.134 A 
ATOM     79  F   UNL     1       0.046 -13.908  -5.373  1.00  0.00    -0.206 F 
ATOM     80  C   UNL     1       0.172 -16.115  -6.161  1.00  0.00     0.040 A 
ATOM     81  C   UNL     1      -1.526 -17.710  -5.556  1.00  0.00     0.040 A 
ATOM     82  F   UNL     1      -3.328 -17.054  -4.206  1.00  0.00    -0.206 F 
ATOM     83  C   UNL     1      -0.344 -17.408  -6.229  1.00  0.00     0.006 A 
ENDBRANCH  59  76
ENDBRANCH  33  34
ENDBRANCH  25  28
ENDBRANCH  23  24
ENDBRANCH  22  23
ENDBRANCH  21  22
ENDBRANCH  20  21
ENDBRANCH   1  20
TORSDOF 19
