REMARK SMILES CCCCCn1c(SCC(=O)NCCCCCCNC(=O)c2ccc(-c3c4nc(c(-c5c(F)cccc5F)c5ccc([nH]5)c(-c5c(F)cccc5F)c5nc(c(-c6c(F)cccc6F)c6ccc3[nH]6)C=C5)C=C4)cc2)nc2ccccc2c1=O
REMARK SMILES IDX 13 1 12 2 10 3 11 4 9 6 8 7 7 8 6 9 83 10 76 11 82 12 84 13
REMARK SMILES IDX 77 14 81 15 78 16 80 17 79 18 5 19 4 20 3 21 2 22 1 23 14 24
REMARK SMILES IDX 15 25 16 26 17 27 18 28 19 29 20 30 21 32 22 33 23 34 75 35
REMARK SMILES IDX 24 36 74 37 25 38 26 39 27 40 68 41 28 42 73 43 67 44 69 45
REMARK SMILES IDX 29 46 72 47 66 48 65 49 30 51 56 52 39 53 55 54 40 55 43 56
REMARK SMILES IDX 54 57 70 58 41 59 42 60 53 62 71 63 44 64 31 65 32 66 37 67
REMARK SMILES IDX 33 68 34 69 36 70 38 71 35 72 57 73 58 74 63 75 59 76 60 77
REMARK SMILES IDX 62 78 64 79 61 80 45 81 46 82 51 83 47 84 48 85 50 86 52 87
REMARK SMILES IDX 49 88
REMARK H PARENT 12 5 19 31 69 50 43 61
REMARK Flexibility Score: inf
ROOT
ATOM      1  C   UNL     1      -1.695   2.440   6.834  1.00  0.00     0.116 C 
ENDROOT
BRANCH   1   2
ATOM      2  N   UNL     1      -1.034   2.561   5.552  1.00  0.00    -0.355 N 
ATOM      3  C   UNL     1      -1.493   2.270   4.306  1.00  0.00     0.230 C 
ATOM      4  O   UNL     1      -0.781   2.602   3.353  1.00  0.00    -0.274 OA
ATOM      5  H   UNL     1      -0.113   2.907   5.588  1.00  0.00     0.163 HD
BRANCH   3   6
ATOM      6  C   UNL     1      -2.861   1.655   4.075  1.00  0.00     0.178 C 
BRANCH   6   7
ATOM      7  S   UNL     1      -3.180   0.132   4.931  1.00  0.00    -0.078 SA
BRANCH   7   8
ATOM      8  C   UNL     1      -2.403  -1.322   4.368  1.00  0.00     0.171 A 
ATOM      9  N   UNL     1      -1.554  -1.498   3.285  1.00  0.00    -0.287 N 
ATOM     10  C   UNL     1      -1.239  -2.801   2.876  1.00  0.00     0.262 A 
ATOM     11  N   UNL     1      -2.774  -2.308   5.128  1.00  0.00    -0.224 NA
ATOM     12  C   UNL     1      -1.501  -3.890   3.813  1.00  0.00     0.066 A 
ATOM     13  O   UNL     1      -0.786  -3.100   1.774  1.00  0.00    -0.269 OA
ATOM     14  C   UNL     1      -2.299  -3.596   4.902  1.00  0.00     0.079 A 
ATOM     15  C   UNL     1      -0.980  -5.173   3.610  1.00  0.00     0.016 A 
ATOM     16  C   UNL     1      -2.632  -4.625   5.783  1.00  0.00     0.029 A 
ATOM     17  C   UNL     1      -1.295  -6.189   4.507  1.00  0.00     0.001 A 
ATOM     18  C   UNL     1      -2.136  -5.918   5.586  1.00  0.00     0.002 A 
BRANCH   9  19
ATOM     19  C   UNL     1      -0.974  -0.473   2.420  1.00  0.00     0.128 C 
BRANCH  19  20
ATOM     20  C   UNL     1       0.530  -0.241   2.671  1.00  0.00     0.022 C 
BRANCH  20  21
ATOM     21  C   UNL     1       1.503  -1.148   1.899  1.00  0.00     0.002 C 
BRANCH  21  22
ATOM     22  C   UNL     1       1.298  -1.208   0.380  1.00  0.00    -0.003 C 
ATOM     23  C   UNL     1       1.453   0.135  -0.313  1.00  0.00     0.004 C 
ENDBRANCH  21  22
ENDBRANCH  20  21
ENDBRANCH  19  20
ENDBRANCH   9  19
ENDBRANCH   7   8
ENDBRANCH   6   7
ENDBRANCH   3   6
ENDBRANCH   1   2
BRANCH   1  24
ATOM     24  C   UNL     1      -1.078   1.337   7.694  1.00  0.00     0.021 C 
BRANCH  24  25
ATOM     25  C   UNL     1       0.399   1.546   8.054  1.00  0.00     0.002 C 
BRANCH  25  26
ATOM     26  C   UNL     1       0.752   2.904   8.669  1.00  0.00     0.002 C 
BRANCH  26  27
ATOM     27  C   UNL     1      -0.119   3.337   9.847  1.00  0.00     0.021 C 
BRANCH  27  28
ATOM     28  C   UNL     1      -0.145   2.361  11.013  1.00  0.00     0.116 C 
BRANCH  28  29
ATOM     29  N   UNL     1       1.126   2.288  11.715  1.00  0.00    -0.352 N 
ATOM     30  C   UNL     1       1.383   2.450  13.059  1.00  0.00     0.251 C 
ATOM     31  H   UNL     1       1.911   2.096  11.153  1.00  0.00     0.163 HD
ATOM     32  O   UNL     1       2.530   2.510  13.473  1.00  0.00    -0.269 OA
BRANCH  30  33
ATOM     33  C   UNL     1       0.244   2.594  13.994  1.00  0.00     0.039 A 
ATOM     34  C   UNL     1      -0.857   1.741  13.904  1.00  0.00     0.014 A 
ATOM     35  C   UNL     1       0.256   3.632  14.929  1.00  0.00     0.014 A 
ATOM     36  C   UNL     1      -2.017   2.043  14.607  1.00  0.00     0.010 A 
ATOM     37  C   UNL     1      -0.879   3.872  15.710  1.00  0.00     0.010 A 
ATOM     38  C   UNL     1      -2.046   3.115  15.514  1.00  0.00    -0.014 A 
BRANCH  38  39
ATOM     39  C   UNL     1      -3.312   3.431  16.227  1.00  0.00     0.031 A 
ATOM     40  C   UNL     1      -4.014   4.746  16.011  1.00  0.00     0.074 A 
ATOM     41  C   UNL     1      -3.865   2.500  17.029  1.00  0.00     0.049 A 
ATOM     42  N   UNL     1      -5.133   5.182  16.535  1.00  0.00    -0.248 NA
ATOM     43  C   UNL     1      -3.377   5.699  15.089  1.00  0.00     0.031 C 
ATOM     44  C   UNL     1      -3.292   1.182  17.312  1.00  0.00     0.029 A 
ATOM     45  N   UNL     1      -5.041   2.508  17.733  1.00  0.00    -0.354 N 
ATOM     46  C   UNL     1      -5.326   6.459  16.020  1.00  0.00     0.074 A 
ATOM     47  C   UNL     1      -4.189   6.744  15.172  1.00  0.00     0.031 C 
ATOM     48  C   UNL     1      -4.139   0.492  18.088  1.00  0.00     0.029 A 
ATOM     49  C   UNL     1      -5.280   1.339  18.414  1.00  0.00     0.049 A 
ATOM     50  H   UNL     1      -5.656   3.277  17.749  1.00  0.00     0.167 HD
ATOM     51  C   UNL     1      -6.361   7.311  16.223  1.00  0.00     0.037 A 
ATOM     52  C   UNL     1      -6.293   0.994  19.228  1.00  0.00     0.037 A 
ATOM     53  C   UNL     1      -7.497   7.024  17.063  1.00  0.00     0.049 A 
ATOM     54  C   UNL     1      -7.393   1.983  19.487  1.00  0.00     0.074 A 
ATOM     55  C   UNL     1      -8.601   7.818  17.324  1.00  0.00     0.029 A 
ATOM     56  N   UNL     1      -7.671   5.852  17.783  1.00  0.00    -0.354 N 
ATOM     57  N   UNL     1      -7.566   3.180  18.983  1.00  0.00    -0.248 NA
ATOM     58  C   UNL     1      -8.436   1.571  20.436  1.00  0.00     0.031 C 
ATOM     59  C   UNL     1      -9.419   7.145  18.239  1.00  0.00     0.029 A 
ATOM     60  C   UNL     1      -8.852   5.910  18.507  1.00  0.00     0.049 A 
ATOM     61  H   UNL     1      -7.047   5.090  17.781  1.00  0.00     0.167 HD
ATOM     62  C   UNL     1      -8.744   3.659  19.540  1.00  0.00     0.074 A 
ATOM     63  C   UNL     1      -9.257   2.610  20.398  1.00  0.00     0.031 C 
ATOM     64  C   UNL     1      -9.346   4.860  19.361  1.00  0.00     0.037 A 
BRANCH  51  65
ATOM     65  C   UNL     1      -6.302   8.646  15.534  1.00  0.00     0.057 A 
ATOM     66  C   UNL     1      -6.110   9.822  16.270  1.00  0.00     0.134 A 
ATOM     67  C   UNL     1      -6.456   8.773  14.147  1.00  0.00     0.134 A 
ATOM     68  F   UNL     1      -5.964   9.777  17.603  1.00  0.00    -0.206 F 
ATOM     69  C   UNL     1      -6.071  11.074  15.652  1.00  0.00     0.040 A 
ATOM     70  C   UNL     1      -6.391  10.016  13.514  1.00  0.00     0.040 A 
ATOM     71  F   UNL     1      -6.631   7.686  13.380  1.00  0.00    -0.206 F 
ATOM     72  C   UNL     1      -6.203  11.172  14.269  1.00  0.00     0.006 A 
ENDBRANCH  51  65
BRANCH  52  73
ATOM     73  C   UNL     1      -6.304  -0.340  19.879  1.00  0.00     0.057 A 
ATOM     74  C   UNL     1      -5.363  -0.680  20.858  1.00  0.00     0.134 A 
ATOM     75  C   UNL     1      -7.270  -1.298  19.553  1.00  0.00     0.134 A 
ATOM     76  F   UNL     1      -4.407   0.192  21.212  1.00  0.00    -0.206 F 
ATOM     77  C   UNL     1      -5.377  -1.926  21.485  1.00  0.00     0.040 A 
ATOM     78  C   UNL     1      -7.315  -2.538  20.193  1.00  0.00     0.040 A 
ATOM     79  F   UNL     1      -8.210  -1.024  18.636  1.00  0.00    -0.206 F 
ATOM     80  C   UNL     1      -6.362  -2.855  21.160  1.00  0.00     0.006 A 
ENDBRANCH  52  73
BRANCH  64  81
ATOM     81  C   UNL     1     -10.639   5.084  20.091  1.00  0.00     0.057 A 
ATOM     82  C   UNL     1     -11.853   5.128  19.395  1.00  0.00     0.134 A 
ATOM     83  C   UNL     1     -10.684   5.254  21.482  1.00  0.00     0.134 A 
ATOM     84  F   UNL     1     -11.881   4.979  18.062  1.00  0.00    -0.206 F 
ATOM     85  C   UNL     1     -13.066   5.327  20.056  1.00  0.00     0.040 A 
ATOM     86  C   UNL     1     -11.893   5.424  22.157  1.00  0.00     0.040 A 
ATOM     87  F   UNL     1      -9.558   5.205  22.209  1.00  0.00    -0.206 F 
ATOM     88  C   UNL     1     -13.089   5.466  21.442  1.00  0.00     0.006 A 
ENDBRANCH  64  81
ENDBRANCH  38  39
ENDBRANCH  30  33
ENDBRANCH  28  29
ENDBRANCH  27  28
ENDBRANCH  26  27
ENDBRANCH  25  26
ENDBRANCH  24  25
ENDBRANCH   1  24
TORSDOF 19
