REMARK SMILES O=C(NCCCCCCNC(=O)c1ccccc1NC(=O)c1ccc(N2C(=O)[C@H]3CC=CC[C@H]3C2=O)cc1)c1ccc(-c2c3nc(c(-c4c(F)cccc4F)c4ccc([nH]4)c(-c4c(F)cccc4F)c4nc(c(-c5c(F)cccc5F)c5ccc2[nH]5)C=C4)C=C3)cc1
REMARK SMILES IDX 7 1 6 2 5 3 4 4 3 5 1 6 2 7 39 9 40 10 92 11 41 12 91 13
REMARK SMILES IDX 42 14 43 15 44 16 85 17 45 18 90 19 84 20 86 21 46 22 89 23
REMARK SMILES IDX 83 24 82 25 47 27 73 28 56 29 72 30 57 31 60 32 71 33 87 34
REMARK SMILES IDX 58 35 59 36 70 38 88 39 61 40 48 41 49 42 54 43 50 44 51 45
REMARK SMILES IDX 53 46 55 47 52 48 74 49 75 50 80 51 76 52 77 53 79 54 81 55
REMARK SMILES IDX 78 56 62 57 63 58 68 59 64 60 65 61 67 62 69 63 66 64 8 65
REMARK SMILES IDX 9 66 10 67 11 68 12 70 13 71 14 72 18 73 15 74 17 75 16 76
REMARK SMILES IDX 19 77 20 78 21 80 22 81 23 82 38 83 24 84 37 85 25 86 26 87
REMARK SMILES IDX 27 88 35 89 28 90 29 91 34 92 36 93 30 94 33 95 31 96 32 97
REMARK H PARENT 3 8 86 26 60 37 10 69 19 79
REMARK Flexibility Score: inf
ROOT
ATOM      1  C   UNL     1       4.697   0.707   4.308  1.00  0.00     0.002 C 
ENDROOT
BRANCH   1   2
ATOM      2  C   UNL     1       4.193   1.842   3.412  1.00  0.00     0.002 C 
BRANCH   2   3
ATOM      3  C   UNL     1       4.654   1.787   1.956  1.00  0.00     0.021 C 
BRANCH   3   4
ATOM      4  C   UNL     1       4.370   0.473   1.243  1.00  0.00     0.116 C 
BRANCH   4   5
ATOM      5  N   UNL     1       2.949   0.196   1.117  1.00  0.00    -0.352 N 
ATOM      6  O   UNL     1       1.007  -0.193   0.032  1.00  0.00    -0.269 OA
ATOM      7  C   UNL     1       2.232  -0.131  -0.007  1.00  0.00     0.251 C 
ATOM      8  H   UNL     1       2.430   0.250   1.952  1.00  0.00     0.163 HD
BRANCH   7   9
ATOM      9  C   UNL     1       2.944  -0.388  -1.276  1.00  0.00     0.039 A 
ATOM     10  C   UNL     1       4.079  -1.203  -1.302  1.00  0.00     0.014 A 
ATOM     11  C   UNL     1       2.466   0.191  -2.454  1.00  0.00     0.014 A 
ATOM     12  C   UNL     1       4.808  -1.335  -2.477  1.00  0.00     0.010 A 
ATOM     13  C   UNL     1       3.152  -0.014  -3.654  1.00  0.00     0.010 A 
ATOM     14  C   UNL     1       4.340  -0.762  -3.671  1.00  0.00    -0.014 A 
BRANCH  14  15
ATOM     15  C   UNL     1       5.059  -1.034  -4.939  1.00  0.00     0.031 A 
ATOM     16  C   UNL     1       5.728   0.067  -5.710  1.00  0.00     0.074 A 
ATOM     17  C   UNL     1       5.108  -2.304  -5.387  1.00  0.00     0.049 A 
ATOM     18  N   UNL     1       6.385  -0.003  -6.841  1.00  0.00    -0.248 NA
ATOM     19  C   UNL     1       5.646   1.423  -5.147  1.00  0.00     0.031 C 
ATOM     20  C   UNL     1       4.484  -3.453  -4.725  1.00  0.00     0.029 A 
ATOM     21  N   UNL     1       5.711  -2.845  -6.492  1.00  0.00    -0.354 N 
ATOM     22  C   UNL     1       6.780   1.296  -7.134  1.00  0.00     0.074 A 
ATOM     23  C   UNL     1       6.268   2.139  -6.074  1.00  0.00     0.031 C 
ATOM     24  C   UNL     1       4.768  -4.566  -5.416  1.00  0.00     0.029 A 
ATOM     25  C   UNL     1       5.533  -4.202  -6.602  1.00  0.00     0.049 A 
ATOM     26  H   UNL     1       6.222  -2.312  -7.144  1.00  0.00     0.167 HD
ATOM     27  C   UNL     1       7.509   1.738  -8.188  1.00  0.00     0.037 A 
ATOM     28  C   UNL     1       5.920  -5.059  -7.564  1.00  0.00     0.037 A 
ATOM     29  C   UNL     1       8.020   0.888  -9.234  1.00  0.00     0.049 A 
ATOM     30  C   UNL     1       6.690  -4.534  -8.739  1.00  0.00     0.074 A 
ATOM     31  C   UNL     1       8.801   1.236 -10.323  1.00  0.00     0.029 A 
ATOM     32  N   UNL     1       7.793  -0.478  -9.327  1.00  0.00    -0.354 N 
ATOM     33  N   UNL     1       7.090  -3.310  -8.982  1.00  0.00    -0.248 NA
ATOM     34  C   UNL     1       7.057  -5.507  -9.776  1.00  0.00     0.031 C 
ATOM     35  C   UNL     1       9.004   0.091 -11.101  1.00  0.00     0.029 A 
ATOM     36  C   UNL     1       8.395  -0.982 -10.469  1.00  0.00     0.049 A 
ATOM     37  H   UNL     1       7.281  -1.011  -8.677  1.00  0.00     0.167 HD
ATOM     38  C   UNL     1       7.771  -3.366 -10.190  1.00  0.00     0.074 A 
ATOM     39  C   UNL     1       7.747  -4.750 -10.618  1.00  0.00     0.031 C 
ATOM     40  C   UNL     1       8.361  -2.362 -10.882  1.00  0.00     0.037 A 
BRANCH  27  41
ATOM     41  C   UNL     1       7.784   3.212  -8.277  1.00  0.00     0.057 A 
ATOM     42  C   UNL     1       8.678   3.853  -7.411  1.00  0.00     0.134 A 
ATOM     43  C   UNL     1       7.186   3.990  -9.277  1.00  0.00     0.134 A 
ATOM     44  F   UNL     1       9.280   3.170  -6.426  1.00  0.00    -0.206 F 
ATOM     45  C   UNL     1       8.952   5.219  -7.523  1.00  0.00     0.040 A 
ATOM     46  C   UNL     1       7.471   5.350  -9.416  1.00  0.00     0.040 A 
ATOM     47  F   UNL     1       6.326   3.438 -10.147  1.00  0.00    -0.206 F 
ATOM     48  C   UNL     1       8.353   5.969  -8.533  1.00  0.00     0.006 A 
ENDBRANCH  27  41
BRANCH  28  49
ATOM     49  C   UNL     1       5.568  -6.496  -7.455  1.00  0.00     0.057 A 
ATOM     50  C   UNL     1       6.549  -7.467  -7.228  1.00  0.00     0.134 A 
ATOM     51  C   UNL     1       4.241  -6.930  -7.562  1.00  0.00     0.134 A 
ATOM     52  F   UNL     1       7.839  -7.114  -7.132  1.00  0.00    -0.206 F 
ATOM     53  C   UNL     1       6.225  -8.821  -7.124  1.00  0.00     0.040 A 
ATOM     54  C   UNL     1       3.899  -8.276  -7.431  1.00  0.00     0.040 A 
ATOM     55  F   UNL     1       3.253  -6.047  -7.770  1.00  0.00    -0.206 F 
ATOM     56  C   UNL     1       4.895  -9.227  -7.219  1.00  0.00     0.006 A 
ENDBRANCH  28  49
BRANCH  40  57
ATOM     57  C   UNL     1       9.051  -2.732 -12.162  1.00  0.00     0.057 A 
ATOM     58  C   UNL     1       8.334  -3.081 -13.314  1.00  0.00     0.134 A 
ATOM     59  C   UNL     1      10.448  -2.711 -12.250  1.00  0.00     0.134 A 
ATOM     60  F   UNL     1       6.994  -3.136 -13.290  1.00  0.00    -0.206 F 
ATOM     61  C   UNL     1       8.984  -3.417 -14.502  1.00  0.00     0.040 A 
ATOM     62  C   UNL     1      11.109  -3.019 -13.440  1.00  0.00     0.040 A 
ATOM     63  F   UNL     1      11.194  -2.380 -11.185  1.00  0.00    -0.206 F 
ATOM     64  C   UNL     1      10.376  -3.379 -14.569  1.00  0.00     0.006 A 
ENDBRANCH  40  57
ENDBRANCH  14  15
ENDBRANCH   7   9
ENDBRANCH   4   5
ENDBRANCH   3   4
ENDBRANCH   2   3
ENDBRANCH   1   2
BRANCH   1  65
ATOM     65  C   UNL     1       6.216   0.493   4.330  1.00  0.00     0.021 C 
BRANCH  65  66
ATOM     66  C   UNL     1       7.043   1.736   4.646  1.00  0.00     0.116 C 
BRANCH  66  67
ATOM     67  N   UNL     1       6.686   2.311   5.931  1.00  0.00    -0.352 N 
ATOM     68  C   UNL     1       7.486   2.662   6.984  1.00  0.00     0.253 C 
ATOM     69  H   UNL     1       5.724   2.472   6.064  1.00  0.00     0.163 HD
ATOM     70  O   UNL     1       6.977   2.953   8.063  1.00  0.00    -0.269 OA
BRANCH  68  71
ATOM     71  C   UNL     1       8.957   2.709   6.844  1.00  0.00     0.063 A 
ATOM     72  C   UNL     1       9.683   1.966   7.790  1.00  0.00     0.016 A 
ATOM     73  C   UNL     1       9.616   3.514   5.889  1.00  0.00     0.054 A 
ATOM     74  C   UNL     1      11.072   2.017   7.803  1.00  0.00     0.001 A 
ATOM     75  C   UNL     1      11.008   3.609   5.981  1.00  0.00     0.027 A 
ATOM     76  C   UNL     1      11.732   2.854   6.912  1.00  0.00     0.002 A 
BRANCH  73  77
ATOM     77  N   UNL     1       8.851   4.193   4.908  1.00  0.00    -0.321 N 
ATOM     78  C   UNL     1       9.149   4.751   3.686  1.00  0.00     0.255 C 
ATOM     79  H   UNL     1       7.903   4.285   5.154  1.00  0.00     0.170 HD
ATOM     80  O   UNL     1       8.261   5.283   3.022  1.00  0.00    -0.269 OA
BRANCH  78  81
ATOM     81  C   UNL     1      10.506   4.716   3.125  1.00  0.00     0.040 A 
ATOM     82  C   UNL     1      11.162   5.931   2.951  1.00  0.00     0.016 A 
ATOM     83  C   UNL     1      11.154   3.514   2.833  1.00  0.00     0.016 A 
ATOM     84  C   UNL     1      12.519   5.939   2.630  1.00  0.00     0.027 A 
ATOM     85  C   UNL     1      12.514   3.533   2.499  1.00  0.00     0.027 A 
ATOM     86  C   UNL     1      13.232   4.742   2.455  1.00  0.00     0.052 A 
BRANCH  86  87
ATOM     87  N   UNL     1      14.652   4.746   2.341  1.00  0.00    -0.250 N 
ATOM     88  C   UNL     1      15.459   5.721   2.881  1.00  0.00     0.238 C 
ATOM     89  C   UNL     1      15.385   3.745   1.754  1.00  0.00     0.238 C 
ATOM     90  O   UNL     1      15.127   6.747   3.464  1.00  0.00    -0.274 OA
ATOM     91  C   UNL     1      16.908   5.335   2.704  1.00  0.00     0.096 C 
ATOM     92  C   UNL     1      16.855   3.979   2.002  1.00  0.00     0.096 C 
ATOM     93  O   UNL     1      14.977   2.798   1.091  1.00  0.00    -0.274 OA
ATOM     94  C   UNL     1      17.619   5.354   4.062  1.00  0.00     0.041 C 
ATOM     95  C   UNL     1      17.427   2.788   2.778  1.00  0.00     0.041 C 
ATOM     96  C   UNL     1      17.366   4.111   4.862  1.00  0.00    -0.030 C 
ATOM     97  C   UNL     1      17.271   2.918   4.263  1.00  0.00    -0.030 C 
ENDBRANCH  86  87
ENDBRANCH  78  81
ENDBRANCH  73  77
ENDBRANCH  68  71
ENDBRANCH  66  67
ENDBRANCH  65  66
ENDBRANCH   1  65
TORSDOF 16
