REMARK SMILES CC1=C[C@H](C)[C@H](CN2C[C@]34C=C[C@@H](O3)[C@H](C(=O)NCCCCCCNC(=O)c3ccc(-c5c6nc(c(-c7c(F)cccc7F)c7ccc([nH]7)c(-c7c(F)cccc7F)c7nc(c(-c8c(F)cccc8F)c8ccc5[nH]8)C=C7)C=C6)cc3)[C@@H]4C2=O)[C@H](C)C1
REMARK SMILES IDX 21 1 20 2 19 3 18 4 16 5 17 6 15 8 8 9 9 10 83 11 10 12
REMARK SMILES IDX 82 13 84 14 11 15 14 16 12 17 13 18 7 19 6 20 1 21 2 22 3 23
REMARK SMILES IDX 87 24 4 25 85 26 5 27 86 28 22 29 23 30 24 31 25 32 26 33
REMARK SMILES IDX 27 35 28 36 29 37 81 38 30 39 80 40 31 41 32 42 33 43 74 44
REMARK SMILES IDX 34 45 79 46 73 47 75 48 35 49 78 50 72 51 71 52 36 54 62 55
REMARK SMILES IDX 45 56 61 57 46 58 49 59 60 60 76 61 47 62 48 63 59 65 77 66
REMARK SMILES IDX 50 67 37 68 38 69 43 70 39 71 40 72 42 73 44 74 41 75 63 76
REMARK SMILES IDX 64 77 69 78 65 79 66 80 68 81 70 82 67 83 51 84 52 85 57 86
REMARK SMILES IDX 53 87 54 88 56 89 58 90 55 91
REMARK H PARENT 18 7 25 34 75 53 49 64
REMARK Flexibility Score: inf
ROOT
ATOM      1  C   UNL     1      -6.785   4.937  -6.636  1.00  0.00     0.002 C 
ENDROOT
BRANCH   1   2
ATOM      2  C   UNL     1      -6.335   4.182  -7.892  1.00  0.00     0.021 C 
BRANCH   2   3
ATOM      3  C   UNL     1      -5.093   3.307  -7.769  1.00  0.00     0.116 C 
BRANCH   3   4
ATOM      4  N   UNL     1      -5.272   1.937  -7.337  1.00  0.00    -0.356 N 
ATOM      5  C   UNL     1      -4.398   0.885  -7.428  1.00  0.00     0.227 C 
ATOM      6  O   UNL     1      -4.656  -0.103  -6.735  1.00  0.00    -0.275 OA
ATOM      7  H   UNL     1      -6.141   1.733  -6.920  1.00  0.00     0.163 HD
BRANCH   5   8
ATOM      8  C   UNL     1      -3.249   0.827  -8.437  1.00  0.00     0.127 C 
ATOM      9  N   UNL     1      -1.272  -0.452  -5.902  1.00  0.00    -0.339 N 
ATOM     10  C   UNL     1      -1.319   0.939  -6.164  1.00  0.00     0.160 C 
ATOM     11  C   UNL     1      -1.836  -1.083  -6.998  1.00  0.00     0.230 C 
ATOM     12  C   UNL     1      -0.889   1.135  -7.675  1.00  0.00     0.117 C 
ATOM     13  C   UNL     1      -1.995  -0.007  -8.056  1.00  0.00     0.132 C 
ATOM     14  O   UNL     1      -1.949  -2.275  -7.182  1.00  0.00    -0.274 OA
ATOM     15  C   UNL     1      -1.045   2.654  -7.369  1.00  0.00     0.009 C 
ATOM     16  O   UNL     1      -1.190   1.550  -9.051  1.00  0.00    -0.360 OA
ATOM     17  C   UNL     1      -2.102   3.156  -8.007  1.00  0.00     0.004 C 
ATOM     18  C   UNL     1      -2.535   2.088  -8.931  1.00  0.00     0.155 C 
BRANCH   9  19
ATOM     19  C   UNL     1      -0.227  -1.057  -5.084  1.00  0.00     0.124 C 
BRANCH  19  20
ATOM     20  C   UNL     1      -0.229  -0.645  -3.588  1.00  0.00     0.018 C 
ATOM     21  C   UNL     1       0.994   0.153   0.601  1.00  0.00     0.039 C 
ATOM     22  C   UNL     1       0.704  -0.156  -0.840  1.00  0.00    -0.077 C 
ATOM     23  C   UNL     1       0.591  -1.416  -1.280  1.00  0.00    -0.025 C 
ATOM     24  C   UNL     1       0.520   1.033  -1.729  1.00  0.00     0.034 C 
ATOM     25  C   UNL     1       0.282  -1.816  -2.694  1.00  0.00     0.014 C 
ATOM     26  C   UNL     1       0.386   0.755  -3.242  1.00  0.00    -0.005 C 
ATOM     27  C   UNL     1       1.465  -2.624  -3.241  1.00  0.00     0.012 C 
ATOM     28  C   UNL     1       1.681   1.139  -3.972  1.00  0.00     0.008 C 
ENDBRANCH  19  20
ENDBRANCH   9  19
ENDBRANCH   5   8
ENDBRANCH   3   4
ENDBRANCH   2   3
ENDBRANCH   1   2
BRANCH   1  29
ATOM     29  C   UNL     1      -5.744   5.774  -5.877  1.00  0.00     0.002 C 
BRANCH  29  30
ATOM     30  C   UNL     1      -4.888   6.766  -6.673  1.00  0.00     0.021 C 
BRANCH  30  31
ATOM     31  C   UNL     1      -5.621   7.835  -7.483  1.00  0.00     0.116 C 
BRANCH  31  32
ATOM     32  N   UNL     1      -6.482   8.688  -6.683  1.00  0.00    -0.352 N 
ATOM     33  C   UNL     1      -6.615  10.056  -6.646  1.00  0.00     0.251 C 
ATOM     34  H   UNL     1      -7.071   8.204  -6.061  1.00  0.00     0.163 HD
ATOM     35  O   UNL     1      -7.372  10.558  -5.817  1.00  0.00    -0.269 OA
BRANCH  33  36
ATOM     36  C   UNL     1      -5.851  10.948  -7.556  1.00  0.00     0.039 A 
ATOM     37  C   UNL     1      -5.354  12.152  -7.040  1.00  0.00     0.014 A 
ATOM     38  C   UNL     1      -5.663  10.657  -8.909  1.00  0.00     0.014 A 
ATOM     39  C   UNL     1      -4.619  13.023  -7.853  1.00  0.00     0.010 A 
ATOM     40  C   UNL     1      -4.881  11.498  -9.707  1.00  0.00     0.010 A 
ATOM     41  C   UNL     1      -4.346  12.687  -9.187  1.00  0.00    -0.014 A 
BRANCH  41  42
ATOM     42  C   UNL     1      -3.498  13.559 -10.046  1.00  0.00     0.031 A 
ATOM     43  C   UNL     1      -4.084  14.247 -11.249  1.00  0.00     0.074 A 
ATOM     44  C   UNL     1      -2.182  13.683  -9.782  1.00  0.00     0.049 A 
ATOM     45  N   UNL     1      -3.483  14.960 -12.169  1.00  0.00    -0.248 NA
ATOM     46  C   UNL     1      -5.532  14.097 -11.457  1.00  0.00     0.031 C 
ATOM     47  C   UNL     1      -1.479  13.049  -8.666  1.00  0.00     0.029 A 
ATOM     48  N   UNL     1      -1.197  14.375 -10.444  1.00  0.00    -0.354 N 
ATOM     49  C   UNL     1      -4.473  15.329 -13.072  1.00  0.00     0.074 A 
ATOM     50  C   UNL     1      -5.707  14.729 -12.609  1.00  0.00     0.031 C 
ATOM     51  C   UNL     1      -0.180  13.388  -8.715  1.00  0.00     0.029 A 
ATOM     52  C   UNL     1       0.049  14.232  -9.884  1.00  0.00     0.049 A 
ATOM     53  H   UNL     1      -1.368  14.921 -11.245  1.00  0.00     0.167 HD
ATOM     54  C   UNL     1      -4.369  16.109 -14.175  1.00  0.00     0.037 A 
ATOM     55  C   UNL     1       1.245  14.715 -10.272  1.00  0.00     0.037 A 
ATOM     56  C   UNL     1      -3.150  16.731 -14.623  1.00  0.00     0.049 A 
ATOM     57  C   UNL     1       1.334  15.574 -11.504  1.00  0.00     0.074 A 
ATOM     58  C   UNL     1      -2.960  17.575 -15.704  1.00  0.00     0.029 A 
ATOM     59  N   UNL     1      -1.915  16.581 -14.012  1.00  0.00    -0.354 N 
ATOM     60  N   UNL     1       0.380  15.947 -12.321  1.00  0.00    -0.248 NA
ATOM     61  C   UNL     1       2.666  16.080 -11.865  1.00  0.00     0.031 C 
ATOM     62  C   UNL     1      -1.603  17.911 -15.766  1.00  0.00     0.029 A 
ATOM     63  C   UNL     1      -0.957  17.307 -14.700  1.00  0.00     0.049 A 
ATOM     64  H   UNL     1      -1.745  16.039 -13.208  1.00  0.00     0.167 HD
ATOM     65  C   UNL     1       0.990  16.755 -13.272  1.00  0.00     0.074 A 
ATOM     66  C   UNL     1       2.393  16.826 -12.926  1.00  0.00     0.031 C 
ATOM     67  C   UNL     1       0.434  17.382 -14.337  1.00  0.00     0.037 A 
BRANCH  54  68
ATOM     68  C   UNL     1      -5.614  16.343 -14.978  1.00  0.00     0.057 A 
ATOM     69  C   UNL     1      -6.640  17.179 -14.518  1.00  0.00     0.134 A 
ATOM     70  C   UNL     1      -5.769  15.767 -16.246  1.00  0.00     0.134 A 
ATOM     71  F   UNL     1      -6.557  17.753 -13.308  1.00  0.00    -0.206 F 
ATOM     72  C   UNL     1      -7.784  17.418 -15.281  1.00  0.00     0.040 A 
ATOM     73  C   UNL     1      -6.897  16.018 -17.028  1.00  0.00     0.040 A 
ATOM     74  F   UNL     1      -4.820  14.963 -16.749  1.00  0.00    -0.206 F 
ATOM     75  C   UNL     1      -7.911  16.842 -16.544  1.00  0.00     0.006 A 
ENDBRANCH  54  68
BRANCH  55  76
ATOM     76  C   UNL     1       2.464  14.412  -9.482  1.00  0.00     0.057 A 
ATOM     77  C   UNL     1       3.101  15.406  -8.730  1.00  0.00     0.134 A 
ATOM     78  C   UNL     1       3.033  13.133  -9.476  1.00  0.00     0.134 A 
ATOM     79  F   UNL     1       2.614  16.656  -8.715  1.00  0.00    -0.206 F 
ATOM     80  C   UNL     1       4.273  15.146  -8.018  1.00  0.00     0.040 A 
ATOM     81  C   UNL     1       4.192  12.853  -8.749  1.00  0.00     0.040 A 
ATOM     82  F   UNL     1       2.467  12.136 -10.172  1.00  0.00    -0.206 F 
ATOM     83  C   UNL     1       4.819  13.864  -8.024  1.00  0.00     0.006 A 
ENDBRANCH  55  76
BRANCH  67  84
ATOM     84  C   UNL     1       1.336  18.233 -15.181  1.00  0.00     0.057 A 
ATOM     85  C   UNL     1       2.267  17.672 -16.065  1.00  0.00     0.134 A 
ATOM     86  C   UNL     1       1.246  19.630 -15.133  1.00  0.00     0.134 A 
ATOM     87  F   UNL     1       2.411  16.341 -16.146  1.00  0.00    -0.206 F 
ATOM     88  C   UNL     1       3.090  18.472 -16.859  1.00  0.00     0.040 A 
ATOM     89  C   UNL     1       2.048  20.439 -15.939  1.00  0.00     0.040 A 
ATOM     90  F   UNL     1       0.371  20.228 -14.312  1.00  0.00    -0.206 F 
ATOM     91  C   UNL     1       2.976  19.860 -16.802  1.00  0.00     0.006 A 
ENDBRANCH  67  84
ENDBRANCH  41  42
ENDBRANCH  33  36
ENDBRANCH  31  32
ENDBRANCH  30  31
ENDBRANCH  29  30
ENDBRANCH   1  29
TORSDOF 15
