REMARK SMILES COc1cccc(C(=O)Nc2ccc(NC(=O)[C@@H]3[C@@H](C(=O)NCCCCCCNC(=O)c4ccc(-c5c6nc(c(-c7c(F)cccc7F)c7ccc([nH]7)c(-c7c(F)cccc7F)c7nc(c(-c8c(F)cccc8F)c8ccc5[nH]8)C=C7)C=C6)cc4)[C@@H]4C=C[C@H]3C4)cc2)c1
REMARK SMILES IDX 24 1 23 2 22 3 20 4 21 5 19 7 18 8 89 9 86 10 88 11 90 12
REMARK SMILES IDX 87 13 16 14 15 15 17 17 14 18 11 19 12 20 92 21 13 22 91 23
REMARK SMILES IDX 10 24 8 25 9 26 7 28 3 29 4 30 93 31 5 32 6 33 2 34 1 35
REMARK SMILES IDX 25 36 26 37 27 38 28 39 29 40 30 41 31 43 32 44 33 45 85 46
REMARK SMILES IDX 34 47 84 48 35 49 36 50 37 51 78 52 38 53 83 54 77 55 79 56
REMARK SMILES IDX 39 57 82 58 76 59 75 60 40 62 66 63 49 64 65 65 50 66 53 67
REMARK SMILES IDX 64 68 80 69 51 70 52 71 63 73 81 74 54 75 41 76 42 77 47 78
REMARK SMILES IDX 43 79 44 80 46 81 48 82 45 83 67 84 68 85 73 86 69 87 70 88
REMARK SMILES IDX 72 89 74 90 71 91 55 92 56 93 61 94 57 95 58 96 60 97 62 98
REMARK SMILES IDX 59 99
REMARK H PARENT 22 6 15 16 10 27 29 42 79 61 53 72
REMARK Flexibility Score: inf
ROOT
ATOM      1  C   UNL     1       2.884   7.101   1.034  1.00  0.00     0.021 C 
ENDROOT
BRANCH   1   2
ATOM      2  C   UNL     1       3.902   5.999   0.800  1.00  0.00     0.116 C 
BRANCH   2   3
ATOM      3  N   UNL     1       4.751   5.713   1.954  1.00  0.00    -0.356 N 
ATOM      4  C   UNL     1       5.284   4.495   2.330  1.00  0.00     0.224 C 
ATOM      5  O   UNL     1       6.056   4.434   3.283  1.00  0.00    -0.275 OA
ATOM      6  H   UNL     1       4.970   6.480   2.532  1.00  0.00     0.163 HD
BRANCH   4   7
ATOM      7  C   UNL     1       4.902   3.291   1.487  1.00  0.00     0.098 C 
ATOM      8  C   UNL     1       5.496   1.853   1.863  1.00  0.00     0.099 C 
ATOM      9  C   UNL     1       6.160   1.481   0.528  1.00  0.00     0.025 C 
ATOM     10  C   UNL     1       5.516   3.547   0.075  1.00  0.00     0.025 C 
ATOM     11  C   UNL     1       5.129   1.429  -0.587  1.00  0.00    -0.027 C 
ATOM     12  C   UNL     1       6.832   2.794   0.154  1.00  0.00     0.017 C 
ATOM     13  C   UNL     1       4.755   2.678  -0.872  1.00  0.00    -0.027 C 
BRANCH   8  14
ATOM     14  C   UNL     1       4.445   0.927   2.510  1.00  0.00     0.228 C 
ATOM     15  N   UNL     1       4.200  -0.404   2.285  1.00  0.00    -0.326 N 
ATOM     16  H   UNL     1       3.678  -0.829   3.004  1.00  0.00     0.169 HD
ATOM     17  O   UNL     1       3.707   1.427   3.378  1.00  0.00    -0.274 OA
BRANCH  15  18
ATOM     18  C   UNL     1       4.535  -1.290   1.246  1.00  0.00     0.041 A 
ATOM     19  C   UNL     1       4.750  -2.087  -1.395  1.00  0.00     0.041 A 
ATOM     20  C   UNL     1       5.903  -1.796  -0.659  1.00  0.00     0.028 A 
ATOM     21  C   UNL     1       3.605  -2.409  -0.684  1.00  0.00     0.028 A 
ATOM     22  C   UNL     1       5.793  -1.430   0.691  1.00  0.00     0.028 A 
ATOM     23  C   UNL     1       3.488  -1.991   0.646  1.00  0.00     0.028 A 
BRANCH  19  24
ATOM     24  N   UNL     1       4.799  -1.860  -2.786  1.00  0.00    -0.322 N 
ATOM     25  C   UNL     1       3.841  -1.610  -3.753  1.00  0.00     0.255 C 
ATOM     26  O   UNL     1       4.218  -1.417  -4.912  1.00  0.00    -0.269 OA
ATOM     27  H   UNL     1       5.714  -1.886  -3.148  1.00  0.00     0.170 HD
BRANCH  25  28
ATOM     28  C   UNL     1       2.382  -1.553  -3.493  1.00  0.00     0.043 A 
ATOM     29  C   UNL     1       0.463  -0.961  -2.143  1.00  0.00     0.119 A 
ATOM     30  C   UNL     1      -0.344  -1.742  -2.978  1.00  0.00     0.046 A 
ATOM     31  C   UNL     1       1.817  -0.806  -2.449  1.00  0.00     0.060 A 
ATOM     32  C   UNL     1       0.187  -2.365  -4.106  1.00  0.00     0.005 A 
ATOM     33  C   UNL     1       1.553  -2.277  -4.359  1.00  0.00     0.014 A 
BRANCH  29  34
ATOM     34  O   UNL     1      -0.187  -0.460  -1.050  1.00  0.00    -0.497 OA
ATOM     35  C   UNL     1       0.547   0.340  -0.134  1.00  0.00     0.278 C 
ENDBRANCH  29  34
ENDBRANCH  25  28
ENDBRANCH  19  24
ENDBRANCH  15  18
ENDBRANCH   8  14
ENDBRANCH   4   7
ENDBRANCH   2   3
ENDBRANCH   1   2
BRANCH   1  36
ATOM     36  C   UNL     1       3.482   8.506   1.117  1.00  0.00     0.002 C 
BRANCH  36  37
ATOM     37  C   UNL     1       4.271   8.973  -0.114  1.00  0.00     0.002 C 
BRANCH  37  38
ATOM     38  C   UNL     1       3.528   8.907  -1.451  1.00  0.00     0.021 C 
BRANCH  38  39
ATOM     39  C   UNL     1       2.167   9.596  -1.474  1.00  0.00     0.116 C 
BRANCH  39  40
ATOM     40  N   UNL     1       2.244  10.997  -1.098  1.00  0.00    -0.352 N 
ATOM     41  C   UNL     1       1.730  12.105  -1.727  1.00  0.00     0.251 C 
ATOM     42  H   UNL     1       2.740  11.181  -0.268  1.00  0.00     0.163 HD
ATOM     43  O   UNL     1       2.031  13.226  -1.349  1.00  0.00    -0.269 OA
BRANCH  41  44
ATOM     44  C   UNL     1       0.830  11.933  -2.888  1.00  0.00     0.039 A 
ATOM     45  C   UNL     1       1.051  12.711  -4.027  1.00  0.00     0.014 A 
ATOM     46  C   UNL     1      -0.216  11.007  -2.857  1.00  0.00     0.014 A 
ATOM     47  C   UNL     1       0.267  12.508  -5.163  1.00  0.00     0.010 A 
ATOM     48  C   UNL     1      -0.949  10.755  -4.013  1.00  0.00     0.010 A 
ATOM     49  C   UNL     1      -0.709  11.498  -5.179  1.00  0.00    -0.014 A 
BRANCH  49  50
ATOM     50  C   UNL     1      -1.454  11.179  -6.421  1.00  0.00     0.031 A 
ATOM     51  C   UNL     1      -2.942  11.367  -6.492  1.00  0.00     0.074 A 
ATOM     52  C   UNL     1      -0.792  10.643  -7.464  1.00  0.00     0.049 A 
ATOM     53  N   UNL     1      -3.763  11.092  -7.473  1.00  0.00    -0.248 NA
ATOM     54  C   UNL     1      -3.595  11.912  -5.293  1.00  0.00     0.031 C 
ATOM     55  C   UNL     1       0.643  10.355  -7.493  1.00  0.00     0.029 A 
ATOM     56  N   UNL     1      -1.239  10.231  -8.693  1.00  0.00    -0.354 N 
ATOM     57  C   UNL     1      -5.029  11.423  -7.009  1.00  0.00     0.074 A 
ATOM     58  C   UNL     1      -4.873  11.862  -5.638  1.00  0.00     0.031 C 
ATOM     59  C   UNL     1       0.961   9.829  -8.685  1.00  0.00     0.029 A 
ATOM     60  C   UNL     1      -0.252   9.704  -9.488  1.00  0.00     0.049 A 
ATOM     61  H   UNL     1      -2.179  10.306  -8.978  1.00  0.00     0.167 HD
ATOM     62  C   UNL     1      -6.210  11.385  -7.672  1.00  0.00     0.037 A 
ATOM     63  C   UNL     1      -0.315   9.166 -10.720  1.00  0.00     0.037 A 
ATOM     64  C   UNL     1      -6.357  10.945  -9.036  1.00  0.00     0.049 A 
ATOM     65  C   UNL     1      -1.636   9.113 -11.431  1.00  0.00     0.074 A 
ATOM     66  C   UNL     1      -7.497  10.933  -9.821  1.00  0.00     0.029 A 
ATOM     67  N   UNL     1      -5.332  10.423  -9.813  1.00  0.00    -0.354 N 
ATOM     68  N   UNL     1      -2.813   9.512 -11.014  1.00  0.00    -0.248 NA
ATOM     69  C   UNL     1      -1.638   8.539 -12.783  1.00  0.00     0.031 C 
ATOM     70  C   UNL     1      -7.174  10.348 -11.051  1.00  0.00     0.029 A 
ATOM     71  C   UNL     1      -5.822  10.048 -11.055  1.00  0.00     0.049 A 
ATOM     72  H   UNL     1      -4.395  10.332  -9.525  1.00  0.00     0.167 HD
ATOM     73  C   UNL     1      -3.695   9.248 -12.054  1.00  0.00     0.074 A 
ATOM     74  C   UNL     1      -2.910   8.677 -13.130  1.00  0.00     0.031 C 
ATOM     75  C   UNL     1      -5.034   9.459 -12.110  1.00  0.00     0.037 A 
BRANCH  62  76
ATOM     76  C   UNL     1      -7.435  11.819  -6.917  1.00  0.00     0.057 A 
ATOM     77  C   UNL     1      -7.629  13.150  -6.520  1.00  0.00     0.134 A 
ATOM     78  C   UNL     1      -8.435  10.897  -6.582  1.00  0.00     0.134 A 
ATOM     79  F   UNL     1      -6.707  14.084  -6.798  1.00  0.00    -0.206 F 
ATOM     80  C   UNL     1      -8.749  13.538  -5.781  1.00  0.00     0.040 A 
ATOM     81  C   UNL     1      -9.574  11.279  -5.872  1.00  0.00     0.040 A 
ATOM     82  F   UNL     1      -8.320   9.608  -6.937  1.00  0.00    -0.206 F 
ATOM     83  C   UNL     1      -9.728  12.601  -5.459  1.00  0.00     0.006 A 
ENDBRANCH  62  76
BRANCH  63  84
ATOM     84  C   UNL     1       0.923   8.644 -11.351  1.00  0.00     0.057 A 
ATOM     85  C   UNL     1       1.529   9.313 -12.420  1.00  0.00     0.134 A 
ATOM     86  C   UNL     1       1.551   7.487 -10.873  1.00  0.00     0.134 A 
ATOM     87  F   UNL     1       0.966  10.418 -12.931  1.00  0.00    -0.206 F 
ATOM     88  C   UNL     1       2.713   8.850 -12.994  1.00  0.00     0.040 A 
ATOM     89  C   UNL     1       2.748   7.026 -11.422  1.00  0.00     0.040 A 
ATOM     90  F   UNL     1       1.025   6.807  -9.844  1.00  0.00    -0.206 F 
ATOM     91  C   UNL     1       3.331   7.707 -12.489  1.00  0.00     0.006 A 
ENDBRANCH  63  84
BRANCH  75  92
ATOM     92  C   UNL     1      -5.735   9.066 -13.378  1.00  0.00     0.057 A 
ATOM     93  C   UNL     1      -5.932   7.723 -13.726  1.00  0.00     0.134 A 
ATOM     94  C   UNL     1      -6.252  10.039 -14.243  1.00  0.00     0.134 A 
ATOM     95  F   UNL     1      -5.449   6.742 -12.948  1.00  0.00    -0.206 F 
ATOM     96  C   UNL     1      -6.598   7.363 -14.899  1.00  0.00     0.040 A 
ATOM     97  C   UNL     1      -6.944   9.691 -15.404  1.00  0.00     0.040 A 
ATOM     98  F   UNL     1      -6.105  11.344 -13.967  1.00  0.00    -0.206 F 
ATOM     99  C   UNL     1      -7.113   8.349 -15.738  1.00  0.00     0.006 A 
ENDBRANCH  75  92
ENDBRANCH  49  50
ENDBRANCH  41  44
ENDBRANCH  39  40
ENDBRANCH  38  39
ENDBRANCH  37  38
ENDBRANCH  36  37
ENDBRANCH   1  36
TORSDOF 18
