REMARK SMILES O=C(NCCCCCCNC(=O)[C@@]12CCC[C@@H](C[NH2+]1)C2)c1ccc(-c2c3nc(c(-c4c(F)cccc4F)c4ccc([nH]4)c(-c4c(F)cccc4F)c4nc(c(-c5c(F)cccc5F)c5ccc2[nH]5)C=C4)C=C3)cc1
REMARK SMILES IDX 5 1 4 2 3 3 1 4 2 5 21 7 22 8 74 9 23 10 73 11 24 12 25 13
REMARK SMILES IDX 26 14 67 15 27 16 72 17 66 18 68 19 28 20 71 21 65 22 64 23
REMARK SMILES IDX 29 25 55 26 38 27 54 28 39 29 42 30 53 31 69 32 40 33 41 34
REMARK SMILES IDX 52 36 70 37 43 38 30 39 31 40 36 41 32 42 33 43 35 44 37 45
REMARK SMILES IDX 34 46 56 47 57 48 62 49 58 50 59 51 61 52 63 53 60 54 44 55
REMARK SMILES IDX 45 56 50 57 46 58 47 59 49 60 51 61 48 62 6 63 7 64 8 65
REMARK SMILES IDX 9 66 10 67 11 68 12 70 13 71 14 72 19 73 20 74 15 75 18 76
REMARK SMILES IDX 17 79 16 80
REMARK H PARENT 3 6 68 24 42 35 10 69 19 77 19 78
REMARK Flexibility Score: inf
ROOT
ATOM      1  C   UNL     1       4.603  -1.560   1.964  1.00  0.00     0.021 C 
ENDROOT
BRANCH   1   2
ATOM      2  C   UNL     1       4.409  -1.133   0.515  1.00  0.00     0.116 C 
BRANCH   2   3
ATOM      3  N   UNL     1       3.004  -1.010   0.168  1.00  0.00    -0.352 N 
ATOM      4  O   UNL     1       1.067   0.059  -0.263  1.00  0.00    -0.269 OA
ATOM      5  C   UNL     1       2.291   0.098  -0.219  1.00  0.00     0.251 C 
ATOM      6  H   UNL     1       2.485  -1.845   0.217  1.00  0.00     0.163 HD
BRANCH   5   7
ATOM      7  C   UNL     1       3.003   1.344  -0.573  1.00  0.00     0.039 A 
ATOM      8  C   UNL     1       4.146   1.311  -1.375  1.00  0.00     0.014 A 
ATOM      9  C   UNL     1       2.498   2.566  -0.119  1.00  0.00     0.014 A 
ATOM     10  C   UNL     1       4.857   2.481  -1.615  1.00  0.00     0.010 A 
ATOM     11  C   UNL     1       3.166   3.751  -0.434  1.00  0.00     0.010 A 
ATOM     12  C   UNL     1       4.364   3.715  -1.164  1.00  0.00    -0.014 A 
BRANCH  12  13
ATOM     13  C   UNL     1       5.078   4.967  -1.517  1.00  0.00     0.031 A 
ATOM     14  C   UNL     1       5.684   5.838  -0.455  1.00  0.00     0.074 A 
ATOM     15  C   UNL     1       5.169   5.317  -2.814  1.00  0.00     0.049 A 
ATOM     16  N   UNL     1       6.303   6.984  -0.582  1.00  0.00    -0.248 NA
ATOM     17  C   UNL     1       5.573   5.366   0.933  1.00  0.00     0.031 C 
ATOM     18  C   UNL     1       4.616   4.552  -3.934  1.00  0.00     0.029 A 
ATOM     19  N   UNL     1       5.757   6.402  -3.412  1.00  0.00    -0.354 N 
ATOM     20  C   UNL     1       6.638   7.381   0.706  1.00  0.00     0.074 A 
ATOM     21  C   UNL     1       6.127   6.366   1.604  1.00  0.00     0.031 C 
ATOM     22  C   UNL     1       4.914   5.176  -5.083  1.00  0.00     0.029 A 
ATOM     23  C   UNL     1       5.617   6.416  -4.778  1.00  0.00     0.049 A 
ATOM     24  H   UNL     1       6.234   7.103  -2.910  1.00  0.00     0.167 HD
ATOM     25  C   UNL     1       7.316   8.487   1.100  1.00  0.00     0.037 A 
ATOM     26  C   UNL     1       5.986   7.339  -5.684  1.00  0.00     0.037 A 
ATOM     27  C   UNL     1       7.819   9.491   0.197  1.00  0.00     0.049 A 
ATOM     28  C   UNL     1       6.690   8.579  -5.218  1.00  0.00     0.074 A 
ATOM     29  C   UNL     1       8.545  10.632   0.493  1.00  0.00     0.029 A 
ATOM     30  N   UNL     1       7.638   9.481  -1.180  1.00  0.00    -0.354 N 
ATOM     31  N   UNL     1       7.033   8.925  -4.000  1.00  0.00    -0.248 NA
ATOM     32  C   UNL     1       7.059   9.557  -6.249  1.00  0.00     0.031 C 
ATOM     33  C   UNL     1       8.751  11.341  -0.695  1.00  0.00     0.029 A 
ATOM     34  C   UNL     1       8.213  10.610  -1.742  1.00  0.00     0.049 A 
ATOM     35  H   UNL     1       7.170   8.776  -1.682  1.00  0.00     0.167 HD
ATOM     36  C   UNL     1       7.683  10.146  -4.121  1.00  0.00     0.074 A 
ATOM     37  C   UNL     1       7.695  10.473  -5.533  1.00  0.00     0.031 C 
ATOM     38  C   UNL     1       8.223  10.922  -3.150  1.00  0.00     0.037 A 
BRANCH  25  39
ATOM     39  C   UNL     1       7.524   8.684   2.576  1.00  0.00     0.057 A 
ATOM     40  C   UNL     1       8.377   7.863   3.325  1.00  0.00     0.134 A 
ATOM     41  C   UNL     1       6.881   9.730   3.253  1.00  0.00     0.134 A 
ATOM     42  F   UNL     1       9.018   6.837   2.744  1.00  0.00    -0.206 F 
ATOM     43  C   UNL     1       8.558   8.054   4.697  1.00  0.00     0.040 A 
ATOM     44  C   UNL     1       7.078   9.949   4.617  1.00  0.00     0.040 A 
ATOM     45  F   UNL     1       6.058  10.561   2.597  1.00  0.00    -0.206 F 
ATOM     46  C   UNL     1       7.911   9.104   5.346  1.00  0.00     0.006 A 
ENDBRANCH  25  39
BRANCH  26  47
ATOM     47  C   UNL     1       5.683   7.119  -7.120  1.00  0.00     0.057 A 
ATOM     48  C   UNL     1       6.701   6.869  -8.045  1.00  0.00     0.134 A 
ATOM     49  C   UNL     1       4.366   7.132  -7.598  1.00  0.00     0.134 A 
ATOM     50  F   UNL     1       7.983   6.858  -7.651  1.00  0.00    -0.206 F 
ATOM     51  C   UNL     1       6.424   6.652  -9.396  1.00  0.00     0.040 A 
ATOM     52  C   UNL     1       4.072   6.888  -8.939  1.00  0.00     0.040 A 
ATOM     53  F   UNL     1       3.343   7.354  -6.759  1.00  0.00    -0.206 F 
ATOM     54  C   UNL     1       5.104   6.654  -9.844  1.00  0.00     0.006 A 
ENDBRANCH  26  47
BRANCH  38  55
ATOM     55  C   UNL     1       8.916  12.181  -3.585  1.00  0.00     0.057 A 
ATOM     56  C   UNL     1       8.213  13.290  -4.071  1.00  0.00     0.134 A 
ATOM     57  C   UNL     1      10.309  12.295  -3.479  1.00  0.00     0.134 A 
ATOM     58  F   UNL     1       6.879  13.241  -4.212  1.00  0.00    -0.206 F 
ATOM     59  C   UNL     1       8.871  14.459  -4.457  1.00  0.00     0.040 A 
ATOM     60  C   UNL     1      10.975  13.469  -3.833  1.00  0.00     0.040 A 
ATOM     61  F   UNL     1      11.043  11.273  -3.014  1.00  0.00    -0.206 F 
ATOM     62  C   UNL     1      10.256  14.553  -4.330  1.00  0.00     0.006 A 
ENDBRANCH  38  55
ENDBRANCH  12  13
ENDBRANCH   5   7
ENDBRANCH   2   3
ENDBRANCH   1   2
BRANCH   1  63
ATOM     63  C   UNL     1       4.009  -2.927   2.319  1.00  0.00     0.002 C 
BRANCH  63  64
ATOM     64  C   UNL     1       4.513  -4.119   1.495  1.00  0.00     0.002 C 
BRANCH  64  65
ATOM     65  C   UNL     1       6.029  -4.244   1.351  1.00  0.00     0.021 C 
BRANCH  65  66
ATOM     66  C   UNL     1       6.817  -4.137   2.649  1.00  0.00     0.116 C 
BRANCH  66  67
ATOM     67  N   UNL     1       6.912  -5.370   3.415  1.00  0.00    -0.351 N 
ATOM     68  C   UNL     1       7.981  -6.061   3.925  1.00  0.00     0.281 C 
ATOM     69  H   UNL     1       6.041  -5.790   3.603  1.00  0.00     0.163 HD
ATOM     70  O   UNL     1       7.727  -6.876   4.822  1.00  0.00    -0.268 OA
BRANCH  68  71
ATOM     71  C   UNL     1       9.417  -5.976   3.334  1.00  0.00     0.176 C 
ATOM     72  C   UNL     1       9.558  -7.109   2.280  1.00  0.00     0.079 C 
ATOM     73  N   UNL     1       9.736  -4.617   2.796  1.00  0.00    -0.333 N 
ATOM     74  C   UNL     1      10.540  -6.141   4.363  1.00  0.00     0.088 C 
ATOM     75  C   UNL     1      10.990  -7.643   2.132  1.00  0.00     0.008 C 
ATOM     76  C   UNL     1      11.159  -4.333   3.018  1.00  0.00     0.265 C 
ATOM     77  H   UNL     1       9.169  -3.918   3.276  1.00  0.00     0.347 HD
ATOM     78  H   UNL     1       9.532  -4.586   1.797  1.00  0.00     0.347 HD
ATOM     79  C   UNL     1      11.729  -5.642   3.528  1.00  0.00     0.051 C 
ATOM     80  C   UNL     1      12.033  -6.551   2.314  1.00  0.00     0.010 C 
ENDBRANCH  68  71
ENDBRANCH  66  67
ENDBRANCH  65  66
ENDBRANCH  64  65
ENDBRANCH  63  64
ENDBRANCH   1  63
TORSDOF 13
