REMARK SMILES O=C(CN1C(=O)/C(=C\c2c(F)cccc2Cl)Oc2ccccc21)NCCCCCCNC(=O)c1ccc(-c2c3nc(c(-c4c(F)cccc4F)c4ccc([nH]4)c(-c4c(F)cccc4F)c4nc(c(-c5c(F)cccc5F)c5ccc2[nH]5)C=C4)C=C3)cc1
REMARK SMILES IDX 27 1 26 2 25 3 24 4 1 5 2 6 3 8 4 9 5 10 23 11 6 12 7 13
REMARK SMILES IDX 18 14 22 15 8 16 17 17 19 18 21 19 20 20 9 21 10 22 15 23
REMARK SMILES IDX 11 24 12 25 14 26 16 27 13 28 28 29 29 30 30 31 31 32 32 33
REMARK SMILES IDX 33 35 34 36 35 37 87 38 36 39 86 40 37 41 38 42 39 43 80 44
REMARK SMILES IDX 40 45 85 46 79 47 81 48 41 49 84 50 78 51 77 52 42 54 68 55
REMARK SMILES IDX 51 56 67 57 52 58 55 59 66 60 82 61 53 62 54 63 65 65 83 66
REMARK SMILES IDX 56 67 43 68 44 69 49 70 45 71 46 72 48 73 50 74 47 75 69 76
REMARK SMILES IDX 70 77 75 78 71 79 72 80 74 81 76 82 73 83 57 84 58 85 63 86
REMARK SMILES IDX 59 87 60 88 62 89 64 90 61 91
REMARK H PARENT 24 7 31 34 81 53 55 64
REMARK Flexibility Score: inf
ROOT
ATOM      1  C   UNL     1       4.159   3.146  -1.780  1.00  0.00     0.002 C 
ENDROOT
BRANCH   1   2
ATOM      2  C   UNL     1       2.641   2.943  -1.684  1.00  0.00     0.021 C 
BRANCH   2   3
ATOM      3  C   UNL     1       2.157   1.527  -2.014  1.00  0.00     0.116 C 
BRANCH   3   4
ATOM      4  N   UNL     1       2.738   0.527  -1.146  1.00  0.00    -0.355 N 
ATOM      5  O   UNL     1       1.458   1.096   0.658  1.00  0.00    -0.273 OA
ATOM      6  C   UNL     1       2.334   0.386   0.163  1.00  0.00     0.240 C 
ATOM      7  H   UNL     1       3.439  -0.067  -1.499  1.00  0.00     0.163 HD
BRANCH   6   8
ATOM      8  C   UNL     1       3.191  -0.531   1.038  1.00  0.00     0.226 C 
BRANCH   8   9
ATOM      9  N   UNL     1       3.943  -1.593   0.376  1.00  0.00    -0.293 N 
ATOM     10  C   UNL     1       3.325  -2.833   0.311  1.00  0.00     0.294 C 
ATOM     11  C   UNL     1       5.269  -1.418  -0.100  1.00  0.00     0.088 A 
ATOM     12  O   UNL     1       2.121  -2.983   0.511  1.00  0.00    -0.265 OA
ATOM     13  C   UNL     1       4.244  -3.988   0.041  1.00  0.00     0.193 C 
ATOM     14  C   UNL     1       5.946  -2.517  -0.645  1.00  0.00     0.151 A 
ATOM     15  C   UNL     1       5.919  -0.178  -0.086  1.00  0.00     0.030 A 
ATOM     16  C   UNL     1       4.009  -5.206   0.564  1.00  0.00     0.065 C 
ATOM     17  O   UNL     1       5.412  -3.782  -0.677  1.00  0.00    -0.449 OA
ATOM     18  C   UNL     1       7.236  -2.384  -1.166  1.00  0.00     0.049 A 
ATOM     19  C   UNL     1       7.210  -0.043  -0.607  1.00  0.00     0.002 A 
ATOM     20  C   UNL     1       7.869  -1.144  -1.145  1.00  0.00     0.004 A 
BRANCH  16  21
ATOM     21  C   UNL     1       2.922  -5.511   1.508  1.00  0.00     0.033 A 
ATOM     22  C   UNL     1       1.706  -6.004   1.024  1.00  0.00     0.132 A 
ATOM     23  C   UNL     1       3.025  -5.234   2.882  1.00  0.00     0.051 A 
ATOM     24  F   UNL     1       1.565  -6.285  -0.281  1.00  0.00    -0.206 F 
ATOM     25  C   UNL     1       0.611  -6.192   1.866  1.00  0.00     0.040 A 
ATOM     26  C   UNL     1       1.932  -5.430   3.734  1.00  0.00     0.021 A 
ATOM     27  Cl  UNL     1       4.489  -4.628   3.582  1.00  0.00    -0.084 Cl
ATOM     28  C   UNL     1       0.722  -5.899   3.224  1.00  0.00     0.005 A 
ENDBRANCH  16  21
ENDBRANCH   8   9
ENDBRANCH   6   8
ENDBRANCH   3   4
ENDBRANCH   2   3
ENDBRANCH   1   2
BRANCH   1  29
ATOM     29  C   UNL     1       4.785   2.839  -3.143  1.00  0.00     0.002 C 
BRANCH  29  30
ATOM     30  C   UNL     1       4.157   3.569  -4.330  1.00  0.00     0.021 C 
BRANCH  30  31
ATOM     31  C   UNL     1       4.150   5.091  -4.227  1.00  0.00     0.116 C 
BRANCH  31  32
ATOM     32  N   UNL     1       5.482   5.672  -4.312  1.00  0.00    -0.352 N 
ATOM     33  C   UNL     1       5.933   6.692  -5.118  1.00  0.00     0.251 C 
ATOM     34  H   UNL     1       6.154   5.281  -3.708  1.00  0.00     0.163 HD
ATOM     35  O   UNL     1       7.127   6.974  -5.155  1.00  0.00    -0.269 OA
BRANCH  33  36
ATOM     36  C   UNL     1       4.976   7.421  -5.979  1.00  0.00     0.039 A 
ATOM     37  C   UNL     1       3.769   7.897  -5.461  1.00  0.00     0.014 A 
ATOM     38  C   UNL     1       5.276   7.593  -7.333  1.00  0.00     0.014 A 
ATOM     39  C   UNL     1       2.795   8.390  -6.325  1.00  0.00     0.010 A 
ATOM     40  C   UNL     1       4.322   8.151  -8.189  1.00  0.00     0.010 A 
ATOM     41  C   UNL     1       3.053   8.501  -7.702  1.00  0.00    -0.014 A 
BRANCH  41  42
ATOM     42  C   UNL     1       1.969   8.938  -8.618  1.00  0.00     0.031 A 
ATOM     43  C   UNL     1       1.375   7.975  -9.612  1.00  0.00     0.074 A 
ATOM     44  C   UNL     1       1.473  10.186  -8.517  1.00  0.00     0.049 A 
ATOM     45  N   UNL     1       0.410   8.169 -10.476  1.00  0.00    -0.248 NA
ATOM     46  C   UNL     1       1.939   6.616  -9.642  1.00  0.00     0.031 C 
ATOM     47  C   UNL     1       1.950  11.211  -7.587  1.00  0.00     0.029 A 
ATOM     48  N   UNL     1       0.444  10.795  -9.188  1.00  0.00    -0.354 N 
ATOM     49  C   UNL     1       0.265   6.970 -11.162  1.00  0.00     0.074 A 
ATOM     50  C   UNL     1       1.257   6.059 -10.633  1.00  0.00     0.031 C 
ATOM     51  C   UNL     1       1.187  12.307  -7.716  1.00  0.00     0.029 A 
ATOM     52  C   UNL     1       0.199  12.078  -8.767  1.00  0.00     0.049 A 
ATOM     53  H   UNL     1      -0.069  10.355  -9.903  1.00  0.00     0.167 HD
ATOM     54  C   UNL     1      -0.621   6.650 -12.136  1.00  0.00     0.037 A 
ATOM     55  C   UNL     1      -0.714  12.974  -9.184  1.00  0.00     0.037 A 
ATOM     56  C   UNL     1      -1.629   7.540 -12.648  1.00  0.00     0.049 A 
ATOM     57  C   UNL     1      -1.661  12.605 -10.289  1.00  0.00     0.074 A 
ATOM     58  C   UNL     1      -2.592   7.293 -13.612  1.00  0.00     0.029 A 
ATOM     59  N   UNL     1      -1.806   8.851 -12.233  1.00  0.00    -0.354 N 
ATOM     60  N   UNL     1      -1.787  11.466 -10.923  1.00  0.00    -0.248 NA
ATOM     61  C   UNL     1      -2.584  13.655 -10.744  1.00  0.00     0.031 C 
ATOM     62  C   UNL     1      -3.334   8.465 -13.801  1.00  0.00     0.029 A 
ATOM     63  C   UNL     1      -2.850   9.431 -12.934  1.00  0.00     0.049 A 
ATOM     64  H   UNL     1      -1.269   9.302 -11.543  1.00  0.00     0.167 HD
ATOM     65  C   UNL     1      -2.804  11.657 -11.847  1.00  0.00     0.074 A 
ATOM     66  C   UNL     1      -3.277  13.016 -11.676  1.00  0.00     0.031 C 
ATOM     67  C   UNL     1      -3.300  10.787 -12.759  1.00  0.00     0.037 A 
BRANCH  54  68
ATOM     68  C   UNL     1      -0.531   5.273 -12.723  1.00  0.00     0.057 A 
ATOM     69  C   UNL     1      -0.001   5.075 -14.003  1.00  0.00     0.134 A 
ATOM     70  C   UNL     1      -0.998   4.147 -12.033  1.00  0.00     0.134 A 
ATOM     71  F   UNL     1       0.460   6.114 -14.717  1.00  0.00    -0.206 F 
ATOM     72  C   UNL     1       0.061   3.805 -14.579  1.00  0.00     0.040 A 
ATOM     73  C   UNL     1      -0.924   2.869 -12.591  1.00  0.00     0.040 A 
ATOM     74  F   UNL     1      -1.504   4.268 -10.797  1.00  0.00    -0.206 F 
ATOM     75  C   UNL     1      -0.398   2.697 -13.870  1.00  0.00     0.006 A 
ENDBRANCH  54  68
BRANCH  55  76
ATOM     76  C   UNL     1      -0.773  14.315  -8.556  1.00  0.00     0.057 A 
ATOM     77  C   UNL     1       0.218  15.274  -8.793  1.00  0.00     0.134 A 
ATOM     78  C   UNL     1      -1.827  14.666  -7.706  1.00  0.00     0.134 A 
ATOM     79  F   UNL     1       1.253  14.993  -9.598  1.00  0.00    -0.206 F 
ATOM     80  C   UNL     1       0.169  16.534  -8.198  1.00  0.00     0.040 A 
ATOM     81  C   UNL     1      -1.899  15.930  -7.120  1.00  0.00     0.040 A 
ATOM     82  F   UNL     1      -2.815  13.794  -7.460  1.00  0.00    -0.206 F 
ATOM     83  C   UNL     1      -0.895  16.867  -7.362  1.00  0.00     0.006 A 
ENDBRANCH  55  76
BRANCH  67  84
ATOM     84  C   UNL     1      -4.408  11.285 -13.635  1.00  0.00     0.057 A 
ATOM     85  C   UNL     1      -5.731  10.887 -13.414  1.00  0.00     0.134 A 
ATOM     86  C   UNL     1      -4.159  12.150 -14.707  1.00  0.00     0.134 A 
ATOM     87  F   UNL     1      -6.033  10.056 -12.404  1.00  0.00    -0.206 F 
ATOM     88  C   UNL     1      -6.771  11.335 -14.229  1.00  0.00     0.040 A 
ATOM     89  C   UNL     1      -5.192  12.620 -15.518  1.00  0.00     0.040 A 
ATOM     90  F   UNL     1      -2.913  12.579 -14.959  1.00  0.00    -0.206 F 
ATOM     91  C   UNL     1      -6.503  12.209 -15.282  1.00  0.00     0.006 A 
ENDBRANCH  67  84
ENDBRANCH  41  42
ENDBRANCH  33  36
ENDBRANCH  31  32
ENDBRANCH  30  31
ENDBRANCH  29  30
ENDBRANCH   1  29
TORSDOF 15
