REMARK SMILES COc1ccc(-c2[nH]nc3nc(-c4ccc(C(F)(F)F)cc4)cc(C(=O)NCCCCCCNC(=O)c4ccc(-c5c6nc(c(-c7c(F)cccc7F)c7ccc([nH]7)c(-c7c(F)cccc7F)c7nc(c(-c8c(F)cccc8F)c8ccc5[nH]8)C=C7)C=C6)cc4)c23)cc1
REMARK SMILES IDX 30 1 29 2 28 3 27 4 25 5 26 6 24 8 7 9 8 10 91 11 9 12 10 14
REMARK SMILES IDX 11 15 23 16 12 17 6 18 3 19 4 20 93 21 5 22 92 23 2 24 1 25
REMARK SMILES IDX 13 26 14 27 22 28 15 29 21 30 16 31 17 32 18 33 19 34 20 35
REMARK SMILES IDX 31 36 32 37 33 38 34 39 35 40 36 42 37 43 38 44 90 45 39 46
REMARK SMILES IDX 89 47 40 48 41 49 42 50 83 51 43 52 88 53 82 54 84 55 44 56
REMARK SMILES IDX 87 57 81 58 80 59 45 61 71 62 54 63 70 64 55 65 58 66 69 67
REMARK SMILES IDX 85 68 56 69 57 70 68 72 86 73 59 74 46 75 47 76 52 77 48 78
REMARK SMILES IDX 49 79 51 80 53 81 50 82 72 83 73 84 78 85 74 86 75 87 77 88
REMARK SMILES IDX 79 89 76 90 60 91 61 92 66 93 62 94 63 95 65 96 67 97 64 98
REMARK H PARENT 27 7 8 13 34 41 84 60 58 71
REMARK Flexibility Score: inf
ROOT
ATOM      1  C   UNL     1       7.361  -6.399  -1.100  1.00  0.00     0.002 C 
ENDROOT
BRANCH   1   2
ATOM      2  C   UNL     1       6.883  -6.662  -2.534  1.00  0.00     0.021 C 
BRANCH   2   3
ATOM      3  C   UNL     1       5.474  -7.245  -2.588  1.00  0.00     0.116 C 
BRANCH   3   4
ATOM      4  N   UNL     1       4.471  -6.226  -2.378  1.00  0.00    -0.352 N 
ATOM      5  C   UNL     1       3.511  -5.612  -3.132  1.00  0.00     0.252 C 
ATOM      6  O   UNL     1       2.671  -5.019  -2.463  1.00  0.00    -0.269 OA
ATOM      7  H   UNL     1       4.483  -5.886  -1.454  1.00  0.00     0.163 HD
BRANCH   5   8
ATOM      8  C   UNL     1       3.394  -5.687  -4.607  1.00  0.00     0.055 A 
ATOM      9  C   UNL     1       1.543  -4.020  -5.123  1.00  0.00     0.075 A 
ATOM     10  N   UNL     1       0.866  -3.800  -6.301  1.00  0.00    -0.275 N 
ATOM     11  C   UNL     1       2.438  -5.040  -5.418  1.00  0.00     0.059 A 
ATOM     12  N   UNL     1       1.252  -4.561  -7.334  1.00  0.00    -0.154 NA
ATOM     13  H   UNL     1       0.148  -3.131  -6.379  1.00  0.00     0.190 HD
ATOM     14  C   UNL     1       2.219  -5.318  -6.822  1.00  0.00     0.182 A 
ATOM     15  N   UNL     1       2.921  -6.257  -7.511  1.00  0.00    -0.226 NA
ATOM     16  C   UNL     1       4.181  -6.515  -5.413  1.00  0.00     0.043 A 
ATOM     17  C   UNL     1       3.887  -6.835  -6.761  1.00  0.00     0.074 A 
BRANCH   9  18
ATOM     18  C   UNL     1       1.235  -3.207  -3.949  1.00  0.00     0.001 A 
ATOM     19  C   UNL     1       0.672  -1.785  -1.587  1.00  0.00     0.118 A 
ATOM     20  C   UNL     1      -0.299  -2.598  -2.171  1.00  0.00     0.047 A 
ATOM     21  C   UNL     1       1.924  -1.669  -2.191  1.00  0.00     0.047 A 
ATOM     22  C   UNL     1      -0.026  -3.298  -3.349  1.00  0.00     0.014 A 
ATOM     23  C   UNL     1       2.198  -2.364  -3.377  1.00  0.00     0.014 A 
BRANCH  19  24
ATOM     24  O   UNL     1       0.309  -1.208  -0.401  1.00  0.00    -0.497 OA
ATOM     25  C   UNL     1       0.934   0.034  -0.104  1.00  0.00     0.278 C 
ENDBRANCH  19  24
ENDBRANCH   9  18
BRANCH  17  26
ATOM     26  C   UNL     1       4.648  -7.943  -7.369  1.00  0.00     0.000 A 
ATOM     27  C   UNL     1       5.484  -7.747  -8.473  1.00  0.00     0.011 A 
ATOM     28  C   UNL     1       4.634  -9.218  -6.766  1.00  0.00     0.011 A 
ATOM     29  C   UNL     1       6.322  -8.777  -8.924  1.00  0.00     0.014 A 
ATOM     30  C   UNL     1       5.465 -10.247  -7.215  1.00  0.00     0.014 A 
ATOM     31  C   UNL     1       6.332 -10.031  -8.291  1.00  0.00     0.056 A 
BRANCH  31  32
ATOM     32  C   UNL     1       7.270 -11.117  -8.763  1.00  0.00     0.416 C 
ATOM     33  F   UNL     1       7.046 -11.482 -10.054  1.00  0.00    -0.166 F 
ATOM     34  F   UNL     1       8.576 -10.733  -8.702  1.00  0.00    -0.166 F 
ATOM     35  F   UNL     1       7.189 -12.263  -8.029  1.00  0.00    -0.166 F 
ENDBRANCH  31  32
ENDBRANCH  17  26
ENDBRANCH   5   8
ENDBRANCH   3   4
ENDBRANCH   2   3
ENDBRANCH   1   2
BRANCH   1  36
ATOM     36  C   UNL     1       7.200  -7.582  -0.129  1.00  0.00     0.002 C 
BRANCH  36  37
ATOM     37  C   UNL     1       7.705  -8.941  -0.642  1.00  0.00     0.021 C 
BRANCH  37  38
ATOM     38  C   UNL     1       9.211  -8.976  -0.821  1.00  0.00     0.116 C 
BRANCH  38  39
ATOM     39  N   UNL     1       9.899  -8.882   0.460  1.00  0.00    -0.352 N 
ATOM     40  C   UNL     1      11.251  -8.944   0.712  1.00  0.00     0.251 C 
ATOM     41  H   UNL     1       9.322  -8.759   1.248  1.00  0.00     0.163 HD
ATOM     42  O   UNL     1      11.671  -9.204   1.828  1.00  0.00    -0.269 OA
BRANCH  40  43
ATOM     43  C   UNL     1      12.186  -8.683  -0.394  1.00  0.00     0.039 A 
ATOM     44  C   UNL     1      13.356  -9.435  -0.524  1.00  0.00     0.014 A 
ATOM     45  C   UNL     1      11.881  -7.668  -1.301  1.00  0.00     0.014 A 
ATOM     46  C   UNL     1      14.189  -9.194  -1.609  1.00  0.00     0.010 A 
ATOM     47  C   UNL     1      12.627  -7.525  -2.442  1.00  0.00     0.010 A 
ATOM     48  C   UNL     1      13.808  -8.245  -2.571  1.00  0.00    -0.014 A 
BRANCH  48  49
ATOM     49  C   UNL     1      14.579  -8.087  -3.795  1.00  0.00     0.031 A 
ATOM     50  C   UNL     1      14.715  -9.337  -4.592  1.00  0.00     0.074 A 
ATOM     51  C   UNL     1      14.937  -6.878  -4.276  1.00  0.00     0.049 A 
ATOM     52  N   UNL     1      15.800  -9.986  -4.852  1.00  0.00    -0.248 NA
ATOM     53  C   UNL     1      13.491 -10.034  -5.023  1.00  0.00     0.031 C 
ATOM     54  C   UNL     1      14.597  -5.549  -3.756  1.00  0.00     0.029 A 
ATOM     55  N   UNL     1      15.601  -6.582  -5.424  1.00  0.00    -0.354 N 
ATOM     56  C   UNL     1      15.426 -11.058  -5.660  1.00  0.00     0.074 A 
ATOM     57  C   UNL     1      13.993 -11.141  -5.576  1.00  0.00     0.031 C 
ATOM     58  C   UNL     1      14.835  -4.617  -4.705  1.00  0.00     0.029 A 
ATOM     59  C   UNL     1      15.489  -5.256  -5.830  1.00  0.00     0.049 A 
ATOM     60  H   UNL     1      16.118  -7.252  -5.928  1.00  0.00     0.167 HD
ATOM     61  C   UNL     1      16.319 -11.628  -6.517  1.00  0.00     0.037 A 
ATOM     62  C   UNL     1      15.863  -4.755  -7.035  1.00  0.00     0.037 A 
ATOM     63  C   UNL     1      17.670 -11.264  -6.163  1.00  0.00     0.049 A 
ATOM     64  C   UNL     1      16.828  -5.720  -7.630  1.00  0.00     0.074 A 
ATOM     65  C   UNL     1      18.438 -11.401  -5.021  1.00  0.00     0.029 A 
ATOM     66  N   UNL     1      18.294 -10.296  -6.914  1.00  0.00    -0.354 N 
ATOM     67  N   UNL     1      18.019  -5.938  -7.142  1.00  0.00    -0.248 NA
ATOM     68  C   UNL     1      16.278  -6.796  -8.443  1.00  0.00     0.031 C 
ATOM     69  C   UNL     1      19.142 -10.166  -4.909  1.00  0.00     0.029 A 
ATOM     70  C   UNL     1      18.841  -9.398  -6.034  1.00  0.00     0.049 A 
ATOM     71  H   UNL     1      18.338 -10.255  -7.896  1.00  0.00     0.167 HD
ATOM     72  C   UNL     1      18.177  -7.315  -7.204  1.00  0.00     0.074 A 
ATOM     73  C   UNL     1      17.098  -7.785  -8.074  1.00  0.00     0.031 C 
ATOM     74  C   UNL     1      18.965  -7.986  -6.311  1.00  0.00     0.037 A 
BRANCH  61  75
ATOM     75  C   UNL     1      15.972 -12.170  -7.885  1.00  0.00     0.057 A 
ATOM     76  C   UNL     1      16.989 -12.767  -8.656  1.00  0.00     0.134 A 
ATOM     77  C   UNL     1      14.793 -11.863  -8.595  1.00  0.00     0.134 A 
ATOM     78  F   UNL     1      18.160 -13.115  -8.102  1.00  0.00    -0.206 F 
ATOM     79  C   UNL     1      16.881 -12.940 -10.041  1.00  0.00     0.040 A 
ATOM     80  C   UNL     1      14.657 -12.079  -9.969  1.00  0.00     0.040 A 
ATOM     81  F   UNL     1      13.748 -11.249  -8.031  1.00  0.00    -0.206 F 
ATOM     82  C   UNL     1      15.716 -12.582 -10.705  1.00  0.00     0.006 A 
ENDBRANCH  61  75
BRANCH  62  83
ATOM     83  C   UNL     1      15.203  -3.690  -7.831  1.00  0.00     0.057 A 
ATOM     84  C   UNL     1      15.835  -3.114  -8.944  1.00  0.00     0.134 A 
ATOM     85  C   UNL     1      13.834  -3.398  -7.688  1.00  0.00     0.134 A 
ATOM     86  F   UNL     1      17.127  -3.365  -9.197  1.00  0.00    -0.206 F 
ATOM     87  C   UNL     1      15.143  -2.316  -9.868  1.00  0.00     0.040 A 
ATOM     88  C   UNL     1      13.134  -2.598  -8.598  1.00  0.00     0.040 A 
ATOM     89  F   UNL     1      13.104  -3.951  -6.708  1.00  0.00    -0.206 F 
ATOM     90  C   UNL     1      13.785  -2.065  -9.701  1.00  0.00     0.006 A 
ENDBRANCH  62  83
BRANCH  74  91
ATOM     91  C   UNL     1      19.847  -7.197  -5.381  1.00  0.00     0.057 A 
ATOM     92  C   UNL     1      19.378  -6.276  -4.432  1.00  0.00     0.134 A 
ATOM     93  C   UNL     1      21.206  -7.527  -5.316  1.00  0.00     0.134 A 
ATOM     94  F   UNL     1      18.078  -5.970  -4.342  1.00  0.00    -0.206 F 
ATOM     95  C   UNL     1      20.227  -5.688  -3.488  1.00  0.00     0.040 A 
ATOM     96  C   UNL     1      22.057  -6.976  -4.356  1.00  0.00     0.040 A 
ATOM     97  F   UNL     1      21.719  -8.443  -6.153  1.00  0.00    -0.206 F 
ATOM     98  C   UNL     1      21.571  -6.046  -3.443  1.00  0.00     0.006 A 
ENDBRANCH  74  91
ENDBRANCH  48  49
ENDBRANCH  40  43
ENDBRANCH  38  39
ENDBRANCH  37  38
ENDBRANCH  36  37
ENDBRANCH   1  36
TORSDOF 17
