REMARK SMILES Cc1cc(Br)cnc1S[C@@H](C)CC(=O)NCCCCCCNC(=O)c1ccc(-c2c3nc(c(-c4c(F)cccc4F)c4ccc([nH]4)c(-c4c(F)cccc4F)c4nc(c(-c5c(F)cccc5F)c5ccc2[nH]5)C=C4)C=C3)cc1
REMARK SMILES IDX 18 1 17 2 16 3 15 4 13 5 14 6 12 8 10 9 11 10 9 11 8 12 1 13
REMARK SMILES IDX 2 14 3 15 4 16 7 17 5 18 6 19 19 20 20 21 21 22 22 23 23 24
REMARK SMILES IDX 24 26 25 27 26 28 78 29 27 30 77 31 28 32 29 33 30 34 71 35
REMARK SMILES IDX 31 36 76 37 70 38 72 39 32 40 75 41 69 42 68 43 33 45 59 46
REMARK SMILES IDX 42 47 58 48 43 49 46 50 57 51 73 52 44 53 45 54 56 56 74 57
REMARK SMILES IDX 47 58 34 59 35 60 40 61 36 62 37 63 39 64 41 65 38 66 60 67
REMARK SMILES IDX 61 68 66 69 62 70 63 71 65 72 67 73 64 74 48 75 49 76 54 77
REMARK SMILES IDX 50 78 51 79 53 80 55 81 52 82
REMARK H PARENT 15 7 22 25 72 44 46 55
REMARK Flexibility Score: inf
ROOT
ATOM      1  C   UNL     1       4.420   3.752  -3.000  1.00  0.00     0.002 C 
ENDROOT
BRANCH   1   2
ATOM      2  C   UNL     1       4.340   2.648  -1.942  1.00  0.00     0.021 C 
BRANCH   2   3
ATOM      3  C   UNL     1       3.934   1.300  -2.531  1.00  0.00     0.116 C 
BRANCH   3   4
ATOM      4  N   UNL     1       5.103   0.552  -2.948  1.00  0.00    -0.356 N 
ATOM      5  C   UNL     1       5.695  -0.505  -2.326  1.00  0.00     0.221 C 
ATOM      6  O   UNL     1       6.774  -0.921  -2.746  1.00  0.00    -0.275 OA
ATOM      7  H   UNL     1       5.524   0.846  -3.789  1.00  0.00     0.163 HD
BRANCH   5   8
ATOM      8  C   UNL     1       5.010  -1.151  -1.137  1.00  0.00     0.114 C 
BRANCH   8   9
ATOM      9  C   UNL     1       5.446  -0.512   0.186  1.00  0.00     0.059 C 
ATOM     10  C   UNL     1       6.180  -1.522   1.085  1.00  0.00     0.020 C 
BRANCH   9  11
ATOM     11  S   UNL     1       4.214   0.305   1.311  1.00  0.00    -0.103 SA
BRANCH  11  12
ATOM     12  C   UNL     1       2.574   0.106   0.659  1.00  0.00     0.099 A 
ATOM     13  C   UNL     1       2.469  -2.470   0.651  1.00  0.00     0.047 C 
ATOM     14  C   UNL     1       1.894  -1.100   0.455  1.00  0.00    -0.018 A 
ATOM     15  C   UNL     1       0.531  -1.038   0.103  1.00  0.00     0.023 A 
ATOM     16  C   UNL     1      -0.111   0.186  -0.013  1.00  0.00     0.036 A 
ATOM     17  N   UNL     1       1.950   1.308   0.509  1.00  0.00    -0.248 NA
ATOM     18  Br  UNL     1      -1.948   0.279  -0.415  1.00  0.00    -0.049 Br
ATOM     19  C   UNL     1       0.632   1.325   0.199  1.00  0.00     0.128 A 
ENDBRANCH  11  12
ENDBRANCH   9  11
ENDBRANCH   8   9
ENDBRANCH   5   8
ENDBRANCH   3   4
ENDBRANCH   2   3
ENDBRANCH   1   2
BRANCH   1  20
ATOM     20  C   UNL     1       3.070   4.124  -3.629  1.00  0.00     0.002 C 
BRANCH  20  21
ATOM     21  C   UNL     1       1.987   4.556  -2.636  1.00  0.00     0.021 C 
BRANCH  21  22
ATOM     22  C   UNL     1       2.373   5.739  -1.753  1.00  0.00     0.116 C 
BRANCH  22  23
ATOM     23  N   UNL     1       2.668   6.924  -2.545  1.00  0.00    -0.352 N 
ATOM     24  C   UNL     1       2.088   8.163  -2.512  1.00  0.00     0.251 C 
ATOM     25  H   UNL     1       3.393   6.819  -3.202  1.00  0.00     0.163 HD
ATOM     26  O   UNL     1       2.304   8.969  -3.419  1.00  0.00    -0.269 OA
BRANCH  24  27
ATOM     27  C   UNL     1       1.197   8.539  -1.397  1.00  0.00     0.039 A 
ATOM     28  C   UNL     1       0.022   9.242  -1.677  1.00  0.00     0.014 A 
ATOM     29  C   UNL     1       1.536   8.235  -0.075  1.00  0.00     0.014 A 
ATOM     30  C   UNL     1      -0.836   9.598  -0.636  1.00  0.00     0.010 A 
ATOM     31  C   UNL     1       0.648   8.531   0.955  1.00  0.00     0.010 A 
ATOM     32  C   UNL     1      -0.541   9.224   0.686  1.00  0.00    -0.014 A 
BRANCH  32  33
ATOM     33  C   UNL     1      -1.468   9.554   1.796  1.00  0.00     0.031 A 
ATOM     34  C   UNL     1      -1.043  10.499   2.885  1.00  0.00     0.074 A 
ATOM     35  C   UNL     1      -2.671   8.951   1.855  1.00  0.00     0.049 A 
ATOM     36  N   UNL     1      -1.696  10.873   3.955  1.00  0.00    -0.248 NA
ATOM     37  C   UNL     1       0.304  11.078   2.770  1.00  0.00     0.031 C 
ATOM     38  C   UNL     1      -3.173   7.971   0.890  1.00  0.00     0.029 A 
ATOM     39  N   UNL     1      -3.684   9.067   2.772  1.00  0.00    -0.354 N 
ATOM     40  C   UNL     1      -0.836  11.715   4.648  1.00  0.00     0.074 A 
ATOM     41  C   UNL     1       0.403  11.759   3.903  1.00  0.00     0.031 C 
ATOM     42  C   UNL     1      -4.407   7.588   1.257  1.00  0.00     0.029 A 
ATOM     43  C   UNL     1      -4.769   8.271   2.495  1.00  0.00     0.049 A 
ATOM     44  H   UNL     1      -3.639   9.663   3.554  1.00  0.00     0.167 HD
ATOM     45  C   UNL     1      -1.065  12.405   5.791  1.00  0.00     0.037 A 
ATOM     46  C   UNL     1      -5.924   8.107   3.166  1.00  0.00     0.037 A 
ATOM     47  C   UNL     1      -2.309  12.379   6.515  1.00  0.00     0.049 A 
ATOM     48  C   UNL     1      -6.164   8.900   4.420  1.00  0.00     0.074 A 
ATOM     49  C   UNL     1      -2.668  13.102   7.640  1.00  0.00     0.029 A 
ATOM     50  N   UNL     1      -3.397  11.584   6.187  1.00  0.00    -0.354 N 
ATOM     51  N   UNL     1      -5.373   9.757   5.019  1.00  0.00    -0.248 NA
ATOM     52  C   UNL     1      -7.461   8.711   5.084  1.00  0.00     0.031 C 
ATOM     53  C   UNL     1      -3.957  12.711   8.018  1.00  0.00     0.029 A 
ATOM     54  C   UNL     1      -4.419  11.780   7.102  1.00  0.00     0.049 A 
ATOM     55  H   UNL     1      -3.437  10.970   5.418  1.00  0.00     0.167 HD
ATOM     56  C   UNL     1      -6.082  10.226   6.117  1.00  0.00     0.074 A 
ATOM     57  C   UNL     1      -7.374   9.571   6.090  1.00  0.00     0.031 C 
ATOM     58  C   UNL     1      -5.698  11.118   7.062  1.00  0.00     0.037 A 
BRANCH  45  59
ATOM     59  C   UNL     1       0.057  13.245   6.329  1.00  0.00     0.057 A 
ATOM     60  C   UNL     1       0.477  14.418   5.686  1.00  0.00     0.134 A 
ATOM     61  C   UNL     1       0.709  12.893   7.517  1.00  0.00     0.134 A 
ATOM     62  F   UNL     1      -0.097  14.807   4.538  1.00  0.00    -0.206 F 
ATOM     63  C   UNL     1       1.523  15.193   6.190  1.00  0.00     0.040 A 
ATOM     64  C   UNL     1       1.738  13.674   8.046  1.00  0.00     0.040 A 
ATOM     65  F   UNL     1       0.353  11.786   8.187  1.00  0.00    -0.206 F 
ATOM     66  C   UNL     1       2.153  14.824   7.377  1.00  0.00     0.006 A 
ENDBRANCH  45  59
BRANCH  46  67
ATOM     67  C   UNL     1      -6.952   7.172   2.647  1.00  0.00     0.057 A 
ATOM     68  C   UNL     1      -8.143   7.646   2.087  1.00  0.00     0.134 A 
ATOM     69  C   UNL     1      -6.764   5.785   2.688  1.00  0.00     0.134 A 
ATOM     70  F   UNL     1      -8.387   8.964   2.035  1.00  0.00    -0.206 F 
ATOM     71  C   UNL     1      -9.120   6.775   1.601  1.00  0.00     0.040 A 
ATOM     72  C   UNL     1      -7.721   4.903   2.184  1.00  0.00     0.040 A 
ATOM     73  F   UNL     1      -5.638   5.269   3.203  1.00  0.00    -0.206 F 
ATOM     74  C   UNL     1      -8.907   5.399   1.644  1.00  0.00     0.006 A 
ENDBRANCH  46  67
BRANCH  58  75
ATOM     75  C   UNL     1      -6.697  11.454   8.130  1.00  0.00     0.057 A 
ATOM     76  C   UNL     1      -7.026  10.547   9.146  1.00  0.00     0.134 A 
ATOM     77  C   UNL     1      -7.315  12.710   8.160  1.00  0.00     0.134 A 
ATOM     78  F   UNL     1      -6.479   9.322   9.166  1.00  0.00    -0.206 F 
ATOM     79  C   UNL     1      -7.952  10.869  10.139  1.00  0.00     0.040 A 
ATOM     80  C   UNL     1      -8.223  13.054   9.162  1.00  0.00     0.040 A 
ATOM     81  F   UNL     1      -7.038  13.628   7.221  1.00  0.00    -0.206 F 
ATOM     82  C   UNL     1      -8.549  12.129  10.152  1.00  0.00     0.006 A 
ENDBRANCH  58  75
ENDBRANCH  32  33
ENDBRANCH  24  27
ENDBRANCH  22  23
ENDBRANCH  21  22
ENDBRANCH  20  21
ENDBRANCH   1  20
TORSDOF 16
