REMARK SMILES Cc1cc2c(c(C)c1Cl)C=C(C(=O)NCCCCCCNC(=O)c1ccc(-c3c4nc(c(-c5c(F)cccc5F)c5ccc([nH]5)c(-c5c(F)cccc5F)c5nc(c(-c6c(F)cccc6F)c6ccc3[nH]6)C=C5)C=C4)cc1)[C@@H](C(F)(F)F)O2
REMARK SMILES IDX 18 1 17 2 16 3 15 4 14 5 12 6 13 7 11 9 1 10 2 11 3 12 8 13
REMARK SMILES IDX 4 14 6 15 9 16 5 17 83 18 7 19 10 20 78 21 79 22 80 23 81 24
REMARK SMILES IDX 82 25 19 26 20 27 21 28 22 29 23 31 24 32 25 33 77 34 26 35
REMARK SMILES IDX 76 36 27 37 28 38 29 39 70 40 30 41 75 42 69 43 71 44 31 45
REMARK SMILES IDX 74 46 68 47 67 48 32 50 58 51 41 52 57 53 42 54 45 55 56 56
REMARK SMILES IDX 72 57 43 58 44 59 55 61 73 62 46 63 33 64 34 65 39 66 35 67
REMARK SMILES IDX 36 68 38 69 40 70 37 71 59 72 60 73 65 74 61 75 62 76 64 77
REMARK SMILES IDX 66 78 63 79 47 80 48 81 53 82 49 83 50 84 52 85 54 86 51 87
REMARK H PARENT 14 8 21 30 71 49 45 60
REMARK Flexibility Score: inf
ROOT
ATOM      1  C   UNL     1      -5.145   7.265   7.474  1.00  0.00     0.002 C 
ENDROOT
BRANCH   1   2
ATOM      2  C   UNL     1      -3.618   7.160   7.585  1.00  0.00     0.002 C 
BRANCH   2   3
ATOM      3  C   UNL     1      -3.003   5.934   6.905  1.00  0.00     0.021 C 
BRANCH   3   4
ATOM      4  C   UNL     1      -3.367   5.810   5.430  1.00  0.00     0.116 C 
BRANCH   4   5
ATOM      5  N   UNL     1      -2.503   6.622   4.594  1.00  0.00    -0.352 N 
ATOM      6  C   UNL     1      -1.652   6.424   3.561  1.00  0.00     0.251 C 
ATOM      7  O   UNL     1      -1.119   7.446   3.117  1.00  0.00    -0.270 OA
ATOM      8  H   UNL     1      -2.548   7.572   4.847  1.00  0.00     0.163 HD
BRANCH   6   9
ATOM      9  C   UNL     1      -1.330   5.098   2.952  1.00  0.00     0.067 C 
ATOM     10  C   UNL     1       1.189  -0.038  -0.159  1.00  0.00     0.046 C 
ATOM     11  C   UNL     1       0.827   1.328   0.357  1.00  0.00    -0.028 A 
ATOM     12  C   UNL     1      -0.126   1.419   1.372  1.00  0.00     0.052 A 
ATOM     13  C   UNL     1       1.395   2.513  -0.152  1.00  0.00     0.047 A 
ATOM     14  C   UNL     1      -0.496   2.658   1.884  1.00  0.00     0.128 A 
ATOM     15  C   UNL     1       1.033   3.782   0.367  1.00  0.00    -0.021 A 
ATOM     16  Cl  UNL     1       2.561   2.380  -1.434  1.00  0.00    -0.084 Cl
ATOM     17  C   UNL     1       0.079   3.841   1.413  1.00  0.00     0.022 A 
ATOM     18  O   UNL     1      -1.413   2.605   2.889  1.00  0.00    -0.475 OA
ATOM     19  C   UNL     1       1.641   5.062  -0.157  1.00  0.00     0.047 C 
ATOM     20  C   UNL     1      -0.311   5.091   2.073  1.00  0.00     0.026 C 
ATOM     21  C   UNL     1      -2.083   3.837   3.246  1.00  0.00     0.314 C 
BRANCH  21  22
ATOM     22  C   UNL     1      -3.500   3.830   2.646  1.00  0.00     0.429 C 
ATOM     23  F   UNL     1      -4.261   2.878   3.242  1.00  0.00    -0.167 F 
ATOM     24  F   UNL     1      -4.152   5.003   2.826  1.00  0.00    -0.167 F 
ATOM     25  F   UNL     1      -3.501   3.579   1.318  1.00  0.00    -0.167 F 
ENDBRANCH  21  22
ENDBRANCH   6   9
ENDBRANCH   4   5
ENDBRANCH   3   4
ENDBRANCH   2   3
ENDBRANCH   1   2
BRANCH   1  26
ATOM     26  C   UNL     1      -5.913   5.998   7.857  1.00  0.00     0.021 C 
BRANCH  26  27
ATOM     27  C   UNL     1      -5.623   5.492   9.265  1.00  0.00     0.116 C 
BRANCH  27  28
ATOM     28  N   UNL     1      -5.978   6.477  10.273  1.00  0.00    -0.352 N 
ATOM     29  C   UNL     1      -6.911   6.393  11.272  1.00  0.00     0.251 C 
ATOM     30  H   UNL     1      -5.477   7.324  10.232  1.00  0.00     0.163 HD
ATOM     31  O   UNL     1      -7.250   7.396  11.894  1.00  0.00    -0.269 OA
BRANCH  29  32
ATOM     32  C   UNL     1      -7.516   5.087  11.591  1.00  0.00     0.039 A 
ATOM     33  C   UNL     1      -8.899   5.005  11.765  1.00  0.00     0.014 A 
ATOM     34  C   UNL     1      -6.715   3.948  11.723  1.00  0.00     0.014 A 
ATOM     35  C   UNL     1      -9.485   3.768  12.030  1.00  0.00     0.010 A 
ATOM     36  C   UNL     1      -7.309   2.704  11.910  1.00  0.00     0.010 A 
ATOM     37  C   UNL     1      -8.697   2.606  12.083  1.00  0.00    -0.014 A 
BRANCH  37  38
ATOM     38  C   UNL     1      -9.308   1.285  12.361  1.00  0.00     0.031 A 
ATOM     39  C   UNL     1      -8.976   0.563  13.636  1.00  0.00     0.074 A 
ATOM     40  C   UNL     1     -10.140   0.730  11.460  1.00  0.00     0.049 A 
ATOM     41  N   UNL     1      -9.390  -0.605  14.055  1.00  0.00    -0.248 NA
ATOM     42  C   UNL     1      -8.037   1.231  14.554  1.00  0.00     0.031 C 
ATOM     43  C   UNL     1     -10.512   1.323  10.175  1.00  0.00     0.029 A 
ATOM     44  N   UNL     1     -10.827  -0.457  11.490  1.00  0.00    -0.354 N 
ATOM     45  C   UNL     1      -8.768  -0.808  15.280  1.00  0.00     0.074 A 
ATOM     46  C   UNL     1      -7.894   0.321  15.506  1.00  0.00     0.031 C 
ATOM     47  C   UNL     1     -11.389   0.516   9.557  1.00  0.00     0.029 A 
ATOM     48  C   UNL     1     -11.613  -0.667  10.383  1.00  0.00     0.049 A 
ATOM     49  H   UNL     1     -10.764  -1.098  12.235  1.00  0.00     0.167 HD
ATOM     50  C   UNL     1      -8.938  -1.826  16.154  1.00  0.00     0.037 A 
ATOM     51  C   UNL     1     -12.422  -1.697  10.072  1.00  0.00     0.037 A 
ATOM     52  C   UNL     1      -9.825  -2.936  15.934  1.00  0.00     0.049 A 
ATOM     53  C   UNL     1     -12.558  -2.840  11.040  1.00  0.00     0.074 A 
ATOM     54  C   UNL     1     -10.100  -3.997  16.778  1.00  0.00     0.029 A 
ATOM     55  N   UNL     1     -10.580  -3.128  14.787  1.00  0.00    -0.354 N 
ATOM     56  N   UNL     1     -12.009  -2.991  12.221  1.00  0.00    -0.248 NA
ATOM     57  C   UNL     1     -13.423  -3.957  10.633  1.00  0.00     0.031 C 
ATOM     58  C   UNL     1     -10.984  -4.857  16.121  1.00  0.00     0.029 A 
ATOM     59  C   UNL     1     -11.298  -4.307  14.888  1.00  0.00     0.049 A 
ATOM     60  H   UNL     1     -10.602  -2.516  14.015  1.00  0.00     0.167 HD
ATOM     61  C   UNL     1     -12.473  -4.207  12.705  1.00  0.00     0.074 A 
ATOM     62  C   UNL     1     -13.366  -4.744  11.699  1.00  0.00     0.031 C 
ATOM     63  C   UNL     1     -12.182  -4.826  13.875  1.00  0.00     0.037 A 
BRANCH  50  64
ATOM     64  C   UNL     1      -8.163  -1.778  17.438  1.00  0.00     0.057 A 
ATOM     65  C   UNL     1      -8.464  -0.848  18.442  1.00  0.00     0.134 A 
ATOM     66  C   UNL     1      -7.144  -2.702  17.698  1.00  0.00     0.134 A 
ATOM     67  F   UNL     1      -9.421   0.074  18.251  1.00  0.00    -0.206 F 
ATOM     68  C   UNL     1      -7.769  -0.828  19.652  1.00  0.00     0.040 A 
ATOM     69  C   UNL     1      -6.460  -2.710  18.915  1.00  0.00     0.040 A 
ATOM     70  F   UNL     1      -6.807  -3.622  16.782  1.00  0.00    -0.206 F 
ATOM     71  C   UNL     1      -6.770  -1.769  19.895  1.00  0.00     0.006 A 
ENDBRANCH  50  64
BRANCH  51  72
ATOM     72  C   UNL     1     -13.190  -1.678   8.800  1.00  0.00     0.057 A 
ATOM     73  C   UNL     1     -14.581  -1.528   8.803  1.00  0.00     0.134 A 
ATOM     74  C   UNL     1     -12.557  -1.795   7.557  1.00  0.00     0.134 A 
ATOM     75  F   UNL     1     -15.247  -1.429   9.963  1.00  0.00    -0.206 F 
ATOM     76  C   UNL     1     -15.317  -1.504   7.617  1.00  0.00     0.040 A 
ATOM     77  C   UNL     1     -13.277  -1.748   6.362  1.00  0.00     0.040 A 
ATOM     78  F   UNL     1     -11.225  -1.936   7.485  1.00  0.00    -0.206 F 
ATOM     79  C   UNL     1     -14.663  -1.607   6.391  1.00  0.00     0.006 A 
ENDBRANCH  51  72
BRANCH  63  80
ATOM     80  C   UNL     1     -12.829  -6.154  14.139  1.00  0.00     0.057 A 
ATOM     81  C   UNL     1     -12.425  -7.312  13.462  1.00  0.00     0.134 A 
ATOM     82  C   UNL     1     -13.799  -6.293  15.140  1.00  0.00     0.134 A 
ATOM     83  F   UNL     1     -11.507  -7.244  12.486  1.00  0.00    -0.206 F 
ATOM     84  C   UNL     1     -12.971  -8.560  13.765  1.00  0.00     0.040 A 
ATOM     85  C   UNL     1     -14.332  -7.540  15.470  1.00  0.00     0.040 A 
ATOM     86  F   UNL     1     -14.221  -5.225  15.834  1.00  0.00    -0.206 F 
ATOM     87  C   UNL     1     -13.919  -8.677  14.780  1.00  0.00     0.006 A 
ENDBRANCH  63  80
ENDBRANCH  37  38
ENDBRANCH  29  32
ENDBRANCH  27  28
ENDBRANCH  26  27
ENDBRANCH   1  26
TORSDOF 14
