REMARK SMILES COC(=O)c1ccc(-c2ccc(C(=O)NCCCCCCNC(=O)c3ccc(-c4c5nc(c(-c6c(F)cccc6F)c6ccc([nH]6)c(-c6c(F)cccc6F)c6nc(c(-c7c(F)cccc7F)c7ccc4[nH]7)C=C6)C=C5)cc3)cc2O)cc1F
REMARK SMILES IDX 18 1 17 2 16 3 15 4 13 5 14 6 12 8 9 9 10 10 80 11 11 12
REMARK SMILES IDX 79 13 8 14 5 15 6 16 83 17 7 18 82 19 84 20 3 21 4 22 2 23
REMARK SMILES IDX 1 24 81 25 19 27 20 28 21 29 22 30 23 31 24 33 25 34 26 35
REMARK SMILES IDX 78 36 27 37 77 38 28 39 29 40 30 41 71 42 31 43 76 44 70 45
REMARK SMILES IDX 72 46 32 47 75 48 69 49 68 50 33 52 59 53 42 54 58 55 43 56
REMARK SMILES IDX 46 57 57 58 73 59 44 60 45 61 56 63 74 64 47 65 34 66 35 67
REMARK SMILES IDX 40 68 36 69 37 70 39 71 41 72 38 73 60 74 61 75 66 76 62 77
REMARK SMILES IDX 63 78 65 79 67 80 64 81 48 82 49 83 54 84 50 85 51 86 53 87
REMARK SMILES IDX 55 88 52 89
REMARK H PARENT 15 7 81 26 22 32 72 51 46 62
REMARK Flexibility Score: inf
ROOT
ATOM      1  C   UNL     1      -4.328   6.505  12.369  1.00  0.00     0.002 C 
ENDROOT
BRANCH   1   2
ATOM      2  C   UNL     1      -3.925   5.708  11.120  1.00  0.00     0.021 C 
BRANCH   2   3
ATOM      3  C   UNL     1      -4.205   6.464   9.818  1.00  0.00     0.116 C 
BRANCH   3   4
ATOM      4  N   UNL     1      -3.153   7.426   9.572  1.00  0.00    -0.352 N 
ATOM      5  C   UNL     1      -2.040   7.423   8.777  1.00  0.00     0.251 C 
ATOM      6  O   UNL     1      -1.313   8.416   8.838  1.00  0.00    -0.269 OA
ATOM      7  H   UNL     1      -3.260   8.259  10.086  1.00  0.00     0.163 HD
BRANCH   5   8
ATOM      8  C   UNL     1      -1.688   6.331   7.823  1.00  0.00     0.043 A 
ATOM      9  C   UNL     1      -0.892   4.417   5.880  1.00  0.00     0.024 A 
ATOM     10  C   UNL     1      -0.399   5.727   5.839  1.00  0.00     0.013 A 
ATOM     11  C   UNL     1      -1.786   4.088   6.908  1.00  0.00     0.124 A 
ATOM     12  C   UNL     1      -0.803   6.672   6.787  1.00  0.00     0.015 A 
ATOM     13  C   UNL     1      -2.138   5.012   7.897  1.00  0.00     0.060 A 
BRANCH   9  14
ATOM     14  C   UNL     1      -0.433   3.425   4.901  1.00  0.00    -0.012 A 
ATOM     15  C   UNL     1       0.465   1.489   3.071  1.00  0.00     0.095 A 
ATOM     16  C   UNL     1       1.349   2.019   4.015  1.00  0.00     0.019 A 
ATOM     17  C   UNL     1      -0.863   1.908   3.055  1.00  0.00     0.138 A 
ATOM     18  C   UNL     1       0.902   2.987   4.916  1.00  0.00     0.010 A 
ATOM     19  C   UNL     1      -1.312   2.869   3.958  1.00  0.00     0.049 A 
ATOM     20  F   UNL     1      -1.748   1.379   2.197  1.00  0.00    -0.206 F 
BRANCH  15  21
ATOM     21  C   UNL     1       0.976   0.484   2.125  1.00  0.00     0.340 C 
ATOM     22  O   UNL     1       1.798  -0.360   2.424  1.00  0.00    -0.246 OA
BRANCH  21  23
ATOM     23  O   UNL     1       0.489   0.742   0.886  1.00  0.00    -0.465 OA
ATOM     24  C   UNL     1       1.021  -0.106  -0.130  1.00  0.00     0.282 C 
ENDBRANCH  21  23
ENDBRANCH  15  21
ENDBRANCH   9  14
BRANCH  11  25
ATOM     25  O   UNL     1      -2.308   2.821   6.957  1.00  0.00    -0.507 OA
ATOM     26  H   UNL     1      -2.078   2.194   6.300  1.00  0.00     0.293 HD
ENDBRANCH  11  25
ENDBRANCH   5   8
ENDBRANCH   3   4
ENDBRANCH   2   3
ENDBRANCH   1   2
BRANCH   1  27
ATOM     27  C   UNL     1      -5.821   6.850  12.452  1.00  0.00     0.002 C 
BRANCH  27  28
ATOM     28  C   UNL     1      -6.761   5.649  12.324  1.00  0.00     0.021 C 
BRANCH  28  29
ATOM     29  C   UNL     1      -6.590   4.614  13.430  1.00  0.00     0.116 C 
BRANCH  29  30
ATOM     30  N   UNL     1      -6.951   5.163  14.729  1.00  0.00    -0.352 N 
ATOM     31  C   UNL     1      -7.901   4.728  15.616  1.00  0.00     0.251 C 
ATOM     32  H   UNL     1      -6.442   5.957  15.009  1.00  0.00     0.163 HD
ATOM     33  O   UNL     1      -8.261   5.446  16.543  1.00  0.00    -0.269 OA
BRANCH  31  34
ATOM     34  C   UNL     1      -8.492   3.386  15.446  1.00  0.00     0.039 A 
ATOM     35  C   UNL     1      -9.871   3.224  15.599  1.00  0.00     0.014 A 
ATOM     36  C   UNL     1      -7.679   2.288  15.150  1.00  0.00     0.014 A 
ATOM     37  C   UNL     1     -10.441   1.965  15.411  1.00  0.00     0.010 A 
ATOM     38  C   UNL     1      -8.256   1.052  14.887  1.00  0.00     0.010 A 
ATOM     39  C   UNL     1      -9.641   0.876  15.027  1.00  0.00    -0.014 A 
BRANCH  39  40
ATOM     40  C   UNL     1     -10.226  -0.465  14.787  1.00  0.00     0.031 A 
ATOM     41  C   UNL     1      -9.841  -1.620  15.666  1.00  0.00     0.074 A 
ATOM     42  C   UNL     1     -11.057  -0.652  13.744  1.00  0.00     0.049 A 
ATOM     43  N   UNL     1     -10.182  -2.880  15.571  1.00  0.00    -0.248 NA
ATOM     44  C   UNL     1      -8.930  -1.327  16.784  1.00  0.00     0.031 C 
ATOM     45  C   UNL     1     -11.480   0.386  12.803  1.00  0.00     0.029 A 
ATOM     46  N   UNL     1     -11.690  -1.785  13.298  1.00  0.00    -0.354 N 
ATOM     47  C   UNL     1      -9.522  -3.527  16.608  1.00  0.00     0.074 A 
ATOM     48  C   UNL     1      -8.712  -2.535  17.280  1.00  0.00     0.031 C 
ATOM     49  C   UNL     1     -12.328  -0.150  11.912  1.00  0.00     0.029 A 
ATOM     50  C   UNL     1     -12.475  -1.575  12.191  1.00  0.00     0.049 A 
ATOM     51  H   UNL     1     -11.591  -2.663  13.731  1.00  0.00     0.167 HD
ATOM     52  C   UNL     1      -9.608  -4.824  16.983  1.00  0.00     0.037 A 
ATOM     53  C   UNL     1     -13.226  -2.436  11.478  1.00  0.00     0.037 A 
ATOM     54  C   UNL     1     -10.431  -5.801  16.322  1.00  0.00     0.049 A 
ATOM     55  C   UNL     1     -13.283  -3.879  11.893  1.00  0.00     0.074 A 
ATOM     56  C   UNL     1     -10.619  -7.132  16.650  1.00  0.00     0.029 A 
ATOM     57  N   UNL     1     -11.205  -5.551  15.197  1.00  0.00    -0.354 N 
ATOM     58  N   UNL     1     -12.687  -4.471  12.900  1.00  0.00    -0.248 NA
ATOM     59  C   UNL     1     -14.115  -4.774  11.077  1.00  0.00     0.031 C 
ATOM     60  C   UNL     1     -11.467  -7.700  15.695  1.00  0.00     0.029 A 
ATOM     61  C   UNL     1     -11.854  -6.710  14.806  1.00  0.00     0.049 A 
ATOM     62  H   UNL     1     -11.281  -4.680  14.745  1.00  0.00     0.167 HD
ATOM     63  C   UNL     1     -13.091  -5.799  12.856  1.00  0.00     0.074 A 
ATOM     64  C   UNL     1     -13.988  -5.925  11.726  1.00  0.00     0.031 C 
ATOM     65  C   UNL     1     -12.750  -6.819  13.681  1.00  0.00     0.037 A 
BRANCH  52  66
ATOM     66  C   UNL     1      -8.796  -5.259  18.170  1.00  0.00     0.057 A 
ATOM     67  C   UNL     1      -7.726  -6.151  18.020  1.00  0.00     0.134 A 
ATOM     68  C   UNL     1      -9.100  -4.830  19.469  1.00  0.00     0.134 A 
ATOM     69  F   UNL     1      -7.384  -6.607  16.806  1.00  0.00    -0.206 F 
ATOM     70  C   UNL     1      -6.993  -6.602  19.118  1.00  0.00     0.040 A 
ATOM     71  C   UNL     1      -8.355  -5.250  20.571  1.00  0.00     0.040 A 
ATOM     72  F   UNL     1     -10.105  -3.966  19.681  1.00  0.00    -0.206 F 
ATOM     73  C   UNL     1      -7.303  -6.146  20.398  1.00  0.00     0.006 A 
ENDBRANCH  52  66
BRANCH  53  74
ATOM     74  C   UNL     1     -14.018  -1.933  10.328  1.00  0.00     0.057 A 
ATOM     75  C   UNL     1     -13.405  -1.503   9.145  1.00  0.00     0.134 A 
ATOM     76  C   UNL     1     -15.410  -1.820  10.412  1.00  0.00     0.134 A 
ATOM     77  F   UNL     1     -12.073  -1.575   9.007  1.00  0.00    -0.206 F 
ATOM     78  C   UNL     1     -14.146  -0.958   8.095  1.00  0.00     0.040 A 
ATOM     79  C   UNL     1     -16.166  -1.298   9.361  1.00  0.00     0.040 A 
ATOM     80  F   UNL     1     -16.054  -2.229  11.515  1.00  0.00    -0.206 F 
ATOM     81  C   UNL     1     -15.531  -0.856   8.202  1.00  0.00     0.006 A 
ENDBRANCH  53  74
BRANCH  65  82
ATOM     82  C   UNL     1     -13.363  -8.164  13.420  1.00  0.00     0.057 A 
ATOM     83  C   UNL     1     -14.303  -8.701  14.310  1.00  0.00     0.134 A 
ATOM     84  C   UNL     1     -12.956  -8.965  12.348  1.00  0.00     0.134 A 
ATOM     85  F   UNL     1     -14.727  -7.988  15.365  1.00  0.00    -0.206 F 
ATOM     86  C   UNL     1     -14.799  -9.995  14.155  1.00  0.00     0.040 A 
ATOM     87  C   UNL     1     -13.465 -10.252  12.166  1.00  0.00     0.040 A 
ATOM     88  F   UNL     1     -12.066  -8.505  11.454  1.00  0.00    -0.206 F 
ATOM     89  C   UNL     1     -14.380 -10.774  13.079  1.00  0.00     0.006 A 
ENDBRANCH  65  82
ENDBRANCH  39  40
ENDBRANCH  31  34
ENDBRANCH  29  30
ENDBRANCH  28  29
ENDBRANCH  27  28
ENDBRANCH   1  27
TORSDOF 17
