REMARK SMILES Cc1c(-c2nn(-c3ccccc3)cc2/C=N/O)nnn1-c1ccc(C(=O)NCCCCCCNC(=O)c2ccc(-c3c4nc(c(-c5c(F)cccc5F)c5ccc([nH]5)c(-c5c(F)cccc5F)c5nc(c(-c6c(F)cccc6F)c6ccc3[nH]6)C=C5)C=C4)cc2)cc1
REMARK SMILES IDX 29 1 28 2 27 3 25 4 26 5 24 7 21 8 22 9 92 10 23 11 91 12
REMARK SMILES IDX 20 13 1 14 2 15 3 16 18 17 19 18 4 19 5 20 14 21 6 22 13 23
REMARK SMILES IDX 15 24 16 25 17 26 7 28 8 29 12 30 9 31 11 32 10 33 30 34
REMARK SMILES IDX 31 35 32 36 33 37 34 38 35 39 36 41 37 42 38 43 90 44 39 45
REMARK SMILES IDX 89 46 40 47 41 48 42 49 83 50 43 51 88 52 82 53 84 54 44 55
REMARK SMILES IDX 87 56 81 57 80 58 45 60 71 61 54 62 70 63 55 64 58 65 69 66
REMARK SMILES IDX 85 67 56 68 57 69 68 71 86 72 59 73 46 74 47 75 52 76 48 77
REMARK SMILES IDX 49 78 51 79 53 80 50 81 72 82 73 83 78 84 74 85 75 86 77 87
REMARK SMILES IDX 79 88 76 89 60 90 61 91 66 92 62 93 63 94 65 95 67 96 64 97
REMARK H PARENT 27 6 17 27 34 40 84 59 58 70
REMARK Flexibility Score: inf
ROOT
ATOM      1  C   UNL     1      -4.297   5.454   1.059  1.00  0.00     0.021 C 
ENDROOT
BRANCH   1   2
ATOM      2  C   UNL     1      -2.768   5.470   0.971  1.00  0.00     0.116 C 
BRANCH   2   3
ATOM      3  N   UNL     1      -2.198   5.750   2.274  1.00  0.00    -0.352 N 
ATOM      4  C   UNL     1      -1.567   4.987   3.221  1.00  0.00     0.251 C 
ATOM      5  O   UNL     1      -1.230   5.560   4.259  1.00  0.00    -0.269 OA
ATOM      6  H   UNL     1      -2.284   6.695   2.536  1.00  0.00     0.163 HD
BRANCH   4   7
ATOM      7  C   UNL     1      -1.208   3.549   3.044  1.00  0.00     0.039 A 
ATOM      8  C   UNL     1      -0.241   0.931   2.730  1.00  0.00     0.067 A 
ATOM      9  C   UNL     1       0.301   1.746   3.722  1.00  0.00     0.029 A 
ATOM     10  C   UNL     1      -1.320   1.377   1.960  1.00  0.00     0.029 A 
ATOM     11  C   UNL     1      -0.159   3.061   3.846  1.00  0.00     0.016 A 
ATOM     12  C   UNL     1      -1.834   2.663   2.163  1.00  0.00     0.016 A 
BRANCH   8  13
ATOM     13  N   UNL     1       0.279  -0.364   2.531  1.00  0.00    -0.217 N 
ATOM     14  C   UNL     1       0.820  -0.321   0.040  1.00  0.00     0.069 C 
ATOM     15  C   UNL     1       0.607  -0.990   1.345  1.00  0.00     0.071 A 
ATOM     16  C   UNL     1       0.800  -2.301   1.730  1.00  0.00     0.137 A 
ATOM     17  N   UNL     1       0.726  -2.411   3.087  1.00  0.00    -0.128 NA
ATOM     18  N   UNL     1       0.488  -1.198   3.576  1.00  0.00    -0.061 NA
BRANCH  16  19
ATOM     19  C   UNL     1       1.122  -3.441   0.880  1.00  0.00     0.124 A 
ATOM     20  N   UNL     1       2.361  -3.665   0.428  1.00  0.00    -0.165 NA
ATOM     21  C   UNL     1       0.181  -4.367   0.370  1.00  0.00     0.044 A 
ATOM     22  N   UNL     1       2.214  -4.667  -0.466  1.00  0.00    -0.240 N 
ATOM     23  C   UNL     1       0.912  -5.106  -0.540  1.00  0.00     0.125 A 
BRANCH  21  24
ATOM     24  C   UNL     1      -1.217  -4.566   0.657  1.00  0.00     0.166 C 
ATOM     25  N   UNL     1      -1.841  -3.752   1.442  1.00  0.00    -0.097 NA
BRANCH  25  26
ATOM     26  O   UNL     1      -3.164  -4.183   1.600  1.00  0.00    -0.411 OA
ATOM     27  H   UNL     1      -3.753  -3.698   2.143  1.00  0.00     0.330 HD
ENDBRANCH  25  26
ENDBRANCH  21  24
BRANCH  22  28
ATOM     28  C   UNL     1       3.312  -5.132  -1.221  1.00  0.00     0.065 A 
ATOM     29  C   UNL     1       4.572  -5.216  -0.616  1.00  0.00     0.028 A 
ATOM     30  C   UNL     1       3.143  -5.497  -2.562  1.00  0.00     0.028 A 
ATOM     31  C   UNL     1       5.656  -5.702  -1.345  1.00  0.00     0.002 A 
ATOM     32  C   UNL     1       4.248  -5.926  -3.300  1.00  0.00     0.002 A 
ATOM     33  C   UNL     1       5.497  -6.044  -2.689  1.00  0.00     0.000 A 
ENDBRANCH  22  28
ENDBRANCH  16  19
ENDBRANCH   8  13
ENDBRANCH   4   7
ENDBRANCH   2   3
ENDBRANCH   1   2
BRANCH   1  34
ATOM     34  C   UNL     1      -4.925   6.856   1.017  1.00  0.00     0.002 C 
BRANCH  34  35
ATOM     35  C   UNL     1      -4.611   7.683  -0.241  1.00  0.00     0.002 C 
BRANCH  35  36
ATOM     36  C   UNL     1      -4.886   6.987  -1.582  1.00  0.00     0.021 C 
BRANCH  36  37
ATOM     37  C   UNL     1      -6.369   6.816  -1.879  1.00  0.00     0.116 C 
BRANCH  37  38
ATOM     38  N   UNL     1      -7.011   8.095  -2.172  1.00  0.00    -0.352 N 
ATOM     39  C   UNL     1      -8.347   8.348  -2.375  1.00  0.00     0.251 C 
ATOM     40  H   UNL     1      -6.412   8.874  -2.232  1.00  0.00     0.163 HD
ATOM     41  O   UNL     1      -8.722   9.364  -2.956  1.00  0.00    -0.269 OA
BRANCH  39  42
ATOM     42  C   UNL     1      -9.329   7.372  -1.886  1.00  0.00     0.039 A 
ATOM     43  C   UNL     1     -10.367   6.933  -2.711  1.00  0.00     0.014 A 
ATOM     44  C   UNL     1      -9.166   6.865  -0.598  1.00  0.00     0.014 A 
ATOM     45  C   UNL     1     -11.194   5.908  -2.264  1.00  0.00     0.010 A 
ATOM     46  C   UNL     1      -9.914   5.782  -0.201  1.00  0.00     0.010 A 
ATOM     47  C   UNL     1     -10.947   5.315  -1.016  1.00  0.00    -0.014 A 
BRANCH  47  48
ATOM     48  C   UNL     1     -11.653   4.090  -0.636  1.00  0.00     0.031 A 
ATOM     49  C   UNL     1     -11.503   2.964  -1.606  1.00  0.00     0.074 A 
ATOM     50  C   UNL     1     -12.158   3.898   0.603  1.00  0.00     0.049 A 
ATOM     51  N   UNL     1     -12.430   2.324  -2.240  1.00  0.00    -0.248 NA
ATOM     52  C   UNL     1     -10.139   2.569  -2.004  1.00  0.00     0.031 C 
ATOM     53  C   UNL     1     -12.061   4.816   1.746  1.00  0.00     0.029 A 
ATOM     54  N   UNL     1     -12.735   2.792   1.156  1.00  0.00    -0.354 N 
ATOM     55  C   UNL     1     -11.782   1.309  -2.947  1.00  0.00     0.074 A 
ATOM     56  C   UNL     1     -10.380   1.618  -2.909  1.00  0.00     0.031 C 
ATOM     57  C   UNL     1     -12.312   4.143   2.888  1.00  0.00     0.029 A 
ATOM     58  C   UNL     1     -12.762   2.807   2.546  1.00  0.00     0.049 A 
ATOM     59  H   UNL     1     -13.099   2.050   0.619  1.00  0.00     0.167 HD
ATOM     60  C   UNL     1     -12.428   0.149  -3.252  1.00  0.00     0.037 A 
ATOM     61  C   UNL     1     -13.105   1.793   3.374  1.00  0.00     0.037 A 
ATOM     62  C   UNL     1     -13.850   0.300  -3.087  1.00  0.00     0.049 A 
ATOM     63  C   UNL     1     -13.901   0.823   2.594  1.00  0.00     0.074 A 
ATOM     64  C   UNL     1     -14.876   0.955  -3.727  1.00  0.00     0.029 A 
ATOM     65  N   UNL     1     -14.300  -0.049  -1.843  1.00  0.00    -0.354 N 
ATOM     66  N   UNL     1     -15.089   1.075   2.121  1.00  0.00    -0.248 NA
ATOM     67  C   UNL     1     -13.246  -0.356   2.042  1.00  0.00     0.031 C 
ATOM     68  C   UNL     1     -15.866   1.198  -2.728  1.00  0.00     0.029 A 
ATOM     69  C   UNL     1     -15.426   0.653  -1.522  1.00  0.00     0.049 A 
ATOM     70  H   UNL     1     -13.870  -0.715  -1.259  1.00  0.00     0.167 HD
ATOM     71  C   UNL     1     -15.137   0.376   0.931  1.00  0.00     0.074 A 
ATOM     72  C   UNL     1     -14.081  -0.623   1.035  1.00  0.00     0.031 C 
ATOM     73  C   UNL     1     -15.803   0.885  -0.145  1.00  0.00     0.037 A 
BRANCH  60  74
ATOM     74  C   UNL     1     -11.802  -1.236  -3.179  1.00  0.00     0.057 A 
ATOM     75  C   UNL     1     -12.588  -2.353  -3.536  1.00  0.00     0.134 A 
ATOM     76  C   UNL     1     -10.631  -1.547  -2.458  1.00  0.00     0.134 A 
ATOM     77  F   UNL     1     -13.731  -2.199  -4.221  1.00  0.00    -0.206 F 
ATOM     78  C   UNL     1     -12.284  -3.656  -3.119  1.00  0.00     0.040 A 
ATOM     79  C   UNL     1     -10.294  -2.851  -2.079  1.00  0.00     0.040 A 
ATOM     80  F   UNL     1      -9.803  -0.608  -1.988  1.00  0.00    -0.206 F 
ATOM     81  C   UNL     1     -11.139  -3.907  -2.376  1.00  0.00     0.006 A 
ENDBRANCH  60  74
BRANCH  61  82
ATOM     82  C   UNL     1     -12.633   1.504   4.746  1.00  0.00     0.057 A 
ATOM     83  C   UNL     1     -13.362   0.671   5.606  1.00  0.00     0.134 A 
ATOM     84  C   UNL     1     -11.325   1.819   5.151  1.00  0.00     0.134 A 
ATOM     85  F   UNL     1     -14.608   0.289   5.289  1.00  0.00    -0.206 F 
ATOM     86  C   UNL     1     -12.811   0.152   6.784  1.00  0.00     0.040 A 
ATOM     87  C   UNL     1     -10.764   1.314   6.328  1.00  0.00     0.040 A 
ATOM     88  F   UNL     1     -10.519   2.555   4.371  1.00  0.00    -0.206 F 
ATOM     89  C   UNL     1     -11.502   0.463   7.142  1.00  0.00     0.006 A 
ENDBRANCH  61  82
BRANCH  73  90
ATOM     90  C   UNL     1     -16.867   1.904   0.122  1.00  0.00     0.057 A 
ATOM     91  C   UNL     1     -16.635   3.189   0.629  1.00  0.00     0.134 A 
ATOM     92  C   UNL     1     -18.182   1.591  -0.241  1.00  0.00     0.134 A 
ATOM     93  F   UNL     1     -15.398   3.606   0.926  1.00  0.00    -0.206 F 
ATOM     94  C   UNL     1     -17.675   4.106   0.807  1.00  0.00     0.040 A 
ATOM     95  C   UNL     1     -19.223   2.508  -0.103  1.00  0.00     0.040 A 
ATOM     96  F   UNL     1     -18.468   0.393  -0.776  1.00  0.00    -0.206 F 
ATOM     97  C   UNL     1     -18.973   3.768   0.435  1.00  0.00     0.006 A 
ENDBRANCH  73  90
ENDBRANCH  47  48
ENDBRANCH  39  42
ENDBRANCH  37  38
ENDBRANCH  36  37
ENDBRANCH  35  36
ENDBRANCH  34  35
ENDBRANCH   1  34
TORSDOF 18
