REMARK SMILES C[C@]12C(=O)N(c3ccc(C(=O)NCCCCCCNC(=O)c4ccc(-c5c6nc(c(-c7c(F)cccc7F)c7ccc([nH]7)c(-c7c(F)cccc7F)c7nc(c(-c8c(F)cccc8F)c8ccc5[nH]8)C=C7)C=C6)cc4)cc3)C(=O)[C@H]1[C@H]1c3ccccc3[C@@H]2c2ccccc21
REMARK SMILES IDX 16 1 15 2 14 3 13 4 12 5 10 6 11 7 9 9 6 10 7 11 77 12 8 13
REMARK SMILES IDX 76 14 5 15 1 16 2 17 3 18 80 19 88 20 4 21 78 22 81 23 87 24
REMARK SMILES IDX 89 25 79 26 82 27 94 28 86 29 90 30 83 31 93 32 85 33 91 34
REMARK SMILES IDX 84 35 92 36 17 37 18 38 19 39 20 40 21 42 22 43 23 44 75 45
REMARK SMILES IDX 24 46 74 47 25 48 26 49 27 50 68 51 28 52 73 53 67 54 69 55
REMARK SMILES IDX 29 56 72 57 66 58 65 59 30 61 56 62 39 63 55 64 40 65 43 66
REMARK SMILES IDX 54 67 70 68 41 69 42 70 53 72 71 73 44 74 31 75 32 76 37 77
REMARK SMILES IDX 33 78 34 79 36 80 38 81 35 82 57 83 58 84 63 85 59 86 60 87
REMARK SMILES IDX 62 88 64 89 61 90 45 91 46 92 51 93 47 94 48 95 50 96 52 97
REMARK SMILES IDX 49 98
REMARK H PARENT 12 8 19 41 69 60 43 71
REMARK Flexibility Score: inf
ROOT
ATOM      1  C   UNL     1      -4.527   5.714  10.461  1.00  0.00     0.002 C 
ENDROOT
BRANCH   1   2
ATOM      2  C   UNL     1      -4.934   6.090   9.033  1.00  0.00     0.002 C 
BRANCH   2   3
ATOM      3  C   UNL     1      -3.953   5.745   7.912  1.00  0.00     0.021 C 
BRANCH   3   4
ATOM      4  C   UNL     1      -3.431   4.314   7.882  1.00  0.00     0.116 C 
BRANCH   4   5
ATOM      5  N   UNL     1      -4.473   3.331   7.671  1.00  0.00    -0.352 N 
ATOM      6  C   UNL     1      -4.593   2.365   6.705  1.00  0.00     0.251 C 
ATOM      7  O   UNL     1      -5.610   1.676   6.663  1.00  0.00    -0.269 OA
ATOM      8  H   UNL     1      -5.210   3.360   8.323  1.00  0.00     0.163 HD
BRANCH   6   9
ATOM      9  C   UNL     1      -3.526   2.143   5.703  1.00  0.00     0.039 A 
ATOM     10  C   UNL     1      -1.552   1.519   3.763  1.00  0.00     0.052 A 
ATOM     11  C   UNL     1      -2.919   1.576   3.426  1.00  0.00     0.027 A 
ATOM     12  C   UNL     1      -1.205   1.820   5.087  1.00  0.00     0.027 A 
ATOM     13  C   UNL     1      -3.896   1.881   4.385  1.00  0.00     0.016 A 
ATOM     14  C   UNL     1      -2.178   2.090   6.053  1.00  0.00     0.016 A 
BRANCH  10  15
ATOM     15  N   UNL     1      -0.577   0.975   2.877  1.00  0.00    -0.250 N 
ATOM     16  C   UNL     1       0.816  -0.191  -0.097  1.00  0.00     0.024 C 
ATOM     17  C   UNL     1       0.198  -0.518   1.265  1.00  0.00     0.071 C 
ATOM     18  C   UNL     1      -0.854   0.505   1.613  1.00  0.00     0.241 C 
ATOM     19  C   UNL     1       1.288  -0.393   2.366  1.00  0.00     0.107 C 
ATOM     20  C   UNL     1      -0.530  -1.902   1.377  1.00  0.00     0.066 C 
ATOM     21  O   UNL     1      -1.773   0.774   0.867  1.00  0.00    -0.273 OA
ATOM     22  C   UNL     1       0.752   0.764   3.186  1.00  0.00     0.238 C 
ATOM     23  C   UNL     1       1.453  -1.763   3.111  1.00  0.00     0.063 C 
ATOM     24  C   UNL     1      -0.967  -2.099   2.844  1.00  0.00    -0.036 A 
ATOM     25  C   UNL     1       0.555  -2.926   1.111  1.00  0.00    -0.036 A 
ATOM     26  O   UNL     1       1.472   1.438   3.916  1.00  0.00    -0.274 OA
ATOM     27  C   UNL     1       0.108  -2.050   3.770  1.00  0.00    -0.036 A 
ATOM     28  C   UNL     1       1.645  -2.841   2.019  1.00  0.00    -0.036 A 
ATOM     29  C   UNL     1      -2.272  -2.225   3.299  1.00  0.00     0.005 A 
ATOM     30  C   UNL     1       0.521  -3.857   0.082  1.00  0.00     0.005 A 
ATOM     31  C   UNL     1      -0.114  -2.169   5.136  1.00  0.00     0.004 A 
ATOM     32  C   UNL     1       2.714  -3.713   1.875  1.00  0.00     0.004 A 
ATOM     33  C   UNL     1      -2.496  -2.314   4.677  1.00  0.00     0.000 A 
ATOM     34  C   UNL     1       1.596  -4.727  -0.053  1.00  0.00     0.000 A 
ATOM     35  C   UNL     1      -1.427  -2.298   5.586  1.00  0.00     0.000 A 
ATOM     36  C   UNL     1       2.683  -4.653   0.832  1.00  0.00     0.000 A 
ENDBRANCH  10  15
ENDBRANCH   6   9
ENDBRANCH   4   5
ENDBRANCH   3   4
ENDBRANCH   2   3
ENDBRANCH   1   2
BRANCH   1  37
ATOM     37  C   UNL     1      -3.116   6.097  10.906  1.00  0.00     0.021 C 
BRANCH  37  38
ATOM     38  C   UNL     1      -2.714   7.551  10.703  1.00  0.00     0.116 C 
BRANCH  38  39
ATOM     39  N   UNL     1      -3.446   8.485  11.539  1.00  0.00    -0.352 N 
ATOM     40  C   UNL     1      -2.966   9.542  12.280  1.00  0.00     0.251 C 
ATOM     41  H   UNL     1      -4.420   8.344  11.583  1.00  0.00     0.163 HD
ATOM     42  O   UNL     1      -3.720  10.184  13.004  1.00  0.00    -0.269 OA
BRANCH  40  43
ATOM     43  C   UNL     1      -1.520   9.871  12.247  1.00  0.00     0.039 A 
ATOM     44  C   UNL     1      -0.817   9.924  11.042  1.00  0.00     0.014 A 
ATOM     45  C   UNL     1      -0.849  10.087  13.455  1.00  0.00     0.014 A 
ATOM     46  C   UNL     1       0.573  10.005  11.056  1.00  0.00     0.010 A 
ATOM     47  C   UNL     1       0.540  10.252  13.461  1.00  0.00     0.010 A 
ATOM     48  C   UNL     1       1.270  10.149  12.267  1.00  0.00    -0.014 A 
BRANCH  48  49
ATOM     49  C   UNL     1       2.758  10.144  12.260  1.00  0.00     0.031 A 
ATOM     50  C   UNL     1       3.525   9.022  12.914  1.00  0.00     0.074 A 
ATOM     51  C   UNL     1       3.425  11.114  11.605  1.00  0.00     0.049 A 
ATOM     52  N   UNL     1       4.820   8.826  12.966  1.00  0.00    -0.248 NA
ATOM     53  C   UNL     1       2.738   7.987  13.601  1.00  0.00     0.031 C 
ATOM     54  C   UNL     1       2.806  12.252  10.925  1.00  0.00     0.029 A 
ATOM     55  N   UNL     1       4.768  11.282  11.381  1.00  0.00    -0.354 N 
ATOM     56  C   UNL     1       5.001   7.662  13.703  1.00  0.00     0.074 A 
ATOM     57  C   UNL     1       3.686   7.210  14.105  1.00  0.00     0.031 C 
ATOM     58  C   UNL     1       3.761  12.971  10.315  1.00  0.00     0.029 A 
ATOM     59  C   UNL     1       5.062  12.375  10.603  1.00  0.00     0.049 A 
ATOM     60  H   UNL     1       5.456  10.677  11.743  1.00  0.00     0.167 HD
ATOM     61  C   UNL     1       6.154   7.016  14.007  1.00  0.00     0.037 A 
ATOM     62  C   UNL     1       6.246  12.848  10.172  1.00  0.00     0.037 A 
ATOM     63  C   UNL     1       7.464   7.446  13.592  1.00  0.00     0.049 A 
ATOM     64  C   UNL     1       7.510  12.132  10.551  1.00  0.00     0.074 A 
ATOM     65  C   UNL     1       8.687   6.843  13.833  1.00  0.00     0.029 A 
ATOM     66  N   UNL     1       7.721   8.587  12.848  1.00  0.00    -0.354 N 
ATOM     67  N   UNL     1       7.660  11.024  11.235  1.00  0.00    -0.248 NA
ATOM     68  C   UNL     1       8.771  12.740  10.104  1.00  0.00     0.031 C 
ATOM     69  C   UNL     1       9.688   7.639  13.262  1.00  0.00     0.029 A 
ATOM     70  C   UNL     1       9.084   8.716  12.635  1.00  0.00     0.049 A 
ATOM     71  H   UNL     1       7.036   9.213  12.520  1.00  0.00     0.167 HD
ATOM     72  C   UNL     1       9.028  10.794  11.288  1.00  0.00     0.074 A 
ATOM     73  C   UNL     1       9.662  11.866  10.548  1.00  0.00     0.031 C 
ATOM     74  C   UNL     1       9.700   9.789  11.900  1.00  0.00     0.037 A 
BRANCH  61  75
ATOM     75  C   UNL     1       6.047   5.773  14.842  1.00  0.00     0.057 A 
ATOM     76  C   UNL     1       6.466   5.772  16.179  1.00  0.00     0.134 A 
ATOM     77  C   UNL     1       5.553   4.571  14.319  1.00  0.00     0.134 A 
ATOM     78  F   UNL     1       6.955   6.888  16.740  1.00  0.00    -0.206 F 
ATOM     79  C   UNL     1       6.396   4.621  16.965  1.00  0.00     0.040 A 
ATOM     80  C   UNL     1       5.458   3.419  15.102  1.00  0.00     0.040 A 
ATOM     81  F   UNL     1       5.122   4.508  13.050  1.00  0.00    -0.206 F 
ATOM     82  C   UNL     1       5.885   3.441  16.428  1.00  0.00     0.006 A 
ENDBRANCH  61  75
BRANCH  62  83
ATOM     83  C   UNL     1       6.295  14.068   9.329  1.00  0.00     0.057 A 
ATOM     84  C   UNL     1       6.001  15.330   9.856  1.00  0.00     0.134 A 
ATOM     85  C   UNL     1       6.656  13.998   7.979  1.00  0.00     0.134 A 
ATOM     86  F   UNL     1       5.647  15.461  11.143  1.00  0.00    -0.206 F 
ATOM     87  C   UNL     1       6.054  16.480   9.069  1.00  0.00     0.040 A 
ATOM     88  C   UNL     1       6.737  15.143   7.185  1.00  0.00     0.040 A 
ATOM     89  F   UNL     1       6.969  12.818   7.424  1.00  0.00    -0.206 F 
ATOM     90  C   UNL     1       6.431  16.389   7.730  1.00  0.00     0.006 A 
ENDBRANCH  62  83
BRANCH  74  91
ATOM     91  C   UNL     1      11.194   9.798  11.774  1.00  0.00     0.057 A 
ATOM     92  C   UNL     1      11.847   8.881  10.941  1.00  0.00     0.134 A 
ATOM     93  C   UNL     1      11.986  10.710  12.483  1.00  0.00     0.134 A 
ATOM     94  F   UNL     1      11.146   7.978  10.239  1.00  0.00    -0.206 F 
ATOM     95  C   UNL     1      13.237   8.873  10.816  1.00  0.00     0.040 A 
ATOM     96  C   UNL     1      13.375  10.726  12.348  1.00  0.00     0.040 A 
ATOM     97  F   UNL     1      11.418  11.624  13.284  1.00  0.00    -0.206 F 
ATOM     98  C   UNL     1      14.004   9.803  11.515  1.00  0.00     0.006 A 
ENDBRANCH  74  91
ENDBRANCH  48  49
ENDBRANCH  40  43
ENDBRANCH  38  39
ENDBRANCH  37  38
ENDBRANCH   1  37
TORSDOF 14
