REMARK SMILES CC(C)(C)Nc1ncnc(N2CCC(C(=O)NCCCCCCNC(=O)c3ccc(-c4c5nc(c(-c6c(F)cccc6F)c6ccc([nH]6)c(-c6c(F)cccc6F)c6nc(c(-c7c(F)cccc7F)c7ccc4[nH]7)C=C6)C=C5)cc3)CC2)c1N
REMARK SMILES IDX 20 1 19 2 18 3 17 4 15 5 16 6 14 8 11 9 12 10 82 11 13 12
REMARK SMILES IDX 81 13 10 14 6 15 7 16 83 17 8 18 9 19 5 20 2 22 1 23 3 24
REMARK SMILES IDX 4 25 84 26 21 29 22 30 23 31 24 32 25 33 26 35 27 36 28 37
REMARK SMILES IDX 80 38 29 39 79 40 30 41 31 42 32 43 73 44 33 45 78 46 72 47
REMARK SMILES IDX 74 48 34 49 77 50 71 51 70 52 35 54 61 55 44 56 60 57 45 58
REMARK SMILES IDX 48 59 59 60 75 61 46 62 47 63 58 65 76 66 49 67 36 68 37 69
REMARK SMILES IDX 42 70 38 71 39 72 41 73 43 74 40 75 62 76 63 77 68 78 64 79
REMARK SMILES IDX 65 80 67 81 69 82 66 83 50 84 51 85 56 86 52 87 53 88 55 89
REMARK SMILES IDX 57 90 54 91
REMARK H PARENT 17 7 5 21 84 27 84 28 24 34 74 53 48 64
REMARK Flexibility Score: inf
ROOT
ATOM      1  C   UNL     1       8.180   1.674  -7.840  1.00  0.00     0.002 C 
ENDROOT
BRANCH   1   2
ATOM      2  C   UNL     1       7.086   1.678  -6.768  1.00  0.00     0.021 C 
BRANCH   2   3
ATOM      3  C   UNL     1       7.541   1.103  -5.430  1.00  0.00     0.116 C 
BRANCH   3   4
ATOM      4  N   UNL     1       8.518   1.975  -4.797  1.00  0.00    -0.356 N 
ATOM      5  C   UNL     1       8.468   2.646  -3.613  1.00  0.00     0.223 C 
ATOM      6  O   UNL     1       9.411   3.382  -3.317  1.00  0.00    -0.275 OA
ATOM      7  H   UNL     1       9.351   2.101  -5.306  1.00  0.00     0.163 HD
BRANCH   5   8
ATOM      8  C   UNL     1       7.297   2.466  -2.660  1.00  0.00     0.082 C 
ATOM      9  N   UNL     1       4.876   1.035  -2.416  1.00  0.00    -0.355 N 
ATOM     10  C   UNL     1       4.733   2.464  -2.623  1.00  0.00     0.119 C 
ATOM     11  C   UNL     1       5.953   0.595  -1.552  1.00  0.00     0.119 C 
ATOM     12  C   UNL     1       5.995   3.019  -3.265  1.00  0.00     0.035 C 
ATOM     13  C   UNL     1       7.278   1.011  -2.161  1.00  0.00     0.035 C 
BRANCH   9  14
ATOM     14  C   UNL     1       3.763   0.253  -2.679  1.00  0.00     0.157 A 
ATOM     15  C   UNL     1       1.968  -1.204  -2.097  1.00  0.00     0.155 A 
ATOM     16  N   UNL     1       1.585  -1.268  -3.382  1.00  0.00    -0.217 NA
ATOM     17  C   UNL     1       3.106  -0.496  -1.687  1.00  0.00     0.118 A 
ATOM     18  C   UNL     1       2.298  -0.538  -4.246  1.00  0.00     0.226 A 
ATOM     19  N   UNL     1       3.339   0.253  -3.958  1.00  0.00    -0.217 NA
BRANCH  15  20
ATOM     20  N   UNL     1       1.135  -1.898  -1.232  1.00  0.00    -0.364 N 
ATOM     21  H   UNL     1       1.044  -2.866  -1.385  1.00  0.00     0.162 HD
BRANCH  20  22
ATOM     22  C   UNL     1       0.373  -1.327  -0.102  1.00  0.00     0.030 C 
ATOM     23  C   UNL     1       0.550   0.182   0.121  1.00  0.00     0.034 C 
ATOM     24  C   UNL     1       0.742  -2.113   1.167  1.00  0.00     0.034 C 
ATOM     25  C   UNL     1      -1.128  -1.565  -0.378  1.00  0.00     0.034 C 
ENDBRANCH  20  22
ENDBRANCH  15  20
BRANCH  17  26
ATOM     26  N   UNL     1       3.590  -0.594  -0.374  1.00  0.00    -0.393 N 
ATOM     27  H   UNL     1       3.101  -1.128   0.292  1.00  0.00     0.156 HD
ATOM     28  H   UNL     1       4.420  -0.129  -0.120  1.00  0.00     0.156 HD
ENDBRANCH  17  26
ENDBRANCH   9  14
ENDBRANCH   5   8
ENDBRANCH   3   4
ENDBRANCH   2   3
ENDBRANCH   1   2
BRANCH   1  29
ATOM     29  C   UNL     1       8.777   0.295  -8.140  1.00  0.00     0.002 C 
BRANCH  29  30
ATOM     30  C   UNL     1       7.752  -0.783  -8.494  1.00  0.00     0.021 C 
BRANCH  30  31
ATOM     31  C   UNL     1       6.850  -0.425  -9.668  1.00  0.00     0.116 C 
BRANCH  31  32
ATOM     32  N   UNL     1       7.607  -0.235 -10.895  1.00  0.00    -0.352 N 
ATOM     33  C   UNL     1       7.489  -0.891 -12.094  1.00  0.00     0.251 C 
ATOM     34  H   UNL     1       8.302   0.461 -10.860  1.00  0.00     0.163 HD
ATOM     35  O   UNL     1       8.340  -0.759 -12.964  1.00  0.00    -0.269 OA
BRANCH  33  36
ATOM     36  C   UNL     1       6.327  -1.774 -12.322  1.00  0.00     0.039 A 
ATOM     37  C   UNL     1       6.539  -3.041 -12.869  1.00  0.00     0.014 A 
ATOM     38  C   UNL     1       5.037  -1.351 -11.988  1.00  0.00     0.014 A 
ATOM     39  C   UNL     1       5.457  -3.904 -13.037  1.00  0.00     0.010 A 
ATOM     40  C   UNL     1       3.974  -2.241 -12.081  1.00  0.00     0.010 A 
ATOM     41  C   UNL     1       4.172  -3.521 -12.620  1.00  0.00    -0.014 A 
BRANCH  41  42
ATOM     42  C   UNL     1       3.019  -4.441 -12.761  1.00  0.00     0.031 A 
ATOM     43  C   UNL     1       1.887  -4.091 -13.683  1.00  0.00     0.074 A 
ATOM     44  C   UNL     1       2.970  -5.566 -12.024  1.00  0.00     0.049 A 
ATOM     45  N   UNL     1       0.784  -4.753 -13.923  1.00  0.00    -0.248 NA
ATOM     46  C   UNL     1       1.995  -2.818 -14.412  1.00  0.00     0.031 C 
ATOM     47  C   UNL     1       3.988  -5.988 -11.061  1.00  0.00     0.029 A 
ATOM     48  N   UNL     1       2.025  -6.558 -11.968  1.00  0.00    -0.354 N 
ATOM     49  C   UNL     1       0.067  -3.973 -14.821  1.00  0.00     0.074 A 
ATOM     50  C   UNL     1       0.828  -2.762 -15.033  1.00  0.00     0.031 C 
ATOM     51  C   UNL     1       3.627  -7.167 -10.533  1.00  0.00     0.029 A 
ATOM     52  C   UNL     1       2.337  -7.566 -11.090  1.00  0.00     0.049 A 
ATOM     53  H   UNL     1       1.201  -6.549 -12.507  1.00  0.00     0.167 HD
ATOM     54  C   UNL     1      -1.107  -4.255 -15.433  1.00  0.00     0.037 A 
ATOM     55  C   UNL     1       1.661  -8.684 -10.766  1.00  0.00     0.037 A 
ATOM     56  C   UNL     1      -1.849  -5.471 -15.229  1.00  0.00     0.049 A 
ATOM     57  C   UNL     1       0.351  -8.972 -11.444  1.00  0.00     0.074 A 
ATOM     58  C   UNL     1      -3.013  -5.883 -15.852  1.00  0.00     0.029 A 
ATOM     59  N   UNL     1      -1.505  -6.465 -14.324  1.00  0.00    -0.354 N 
ATOM     60  N   UNL     1      -0.280  -8.266 -12.351  1.00  0.00    -0.248 NA
ATOM     61  C   UNL     1      -0.338 -10.211 -11.060  1.00  0.00     0.031 C 
ATOM     62  C   UNL     1      -3.407  -7.096 -15.280  1.00  0.00     0.029 A 
ATOM     63  C   UNL     1      -2.457  -7.471 -14.344  1.00  0.00     0.049 A 
ATOM     64  H   UNL     1      -0.703  -6.456 -13.752  1.00  0.00     0.167 HD
ATOM     65  C   UNL     1      -1.433  -8.977 -12.656  1.00  0.00     0.074 A 
ATOM     66  C   UNL     1      -1.404 -10.182 -11.850  1.00  0.00     0.031 C 
ATOM     67  C   UNL     1      -2.424  -8.660 -13.525  1.00  0.00     0.037 A 
BRANCH  54  68
ATOM     68  C   UNL     1      -1.661  -3.225 -16.376  1.00  0.00     0.057 A 
ATOM     69  C   UNL     1      -1.041  -2.927 -17.597  1.00  0.00     0.134 A 
ATOM     70  C   UNL     1      -2.842  -2.538 -16.070  1.00  0.00     0.134 A 
ATOM     71  F   UNL     1       0.101  -3.539 -17.948  1.00  0.00    -0.206 F 
ATOM     72  C   UNL     1      -1.558  -1.962 -18.464  1.00  0.00     0.040 A 
ATOM     73  C   UNL     1      -3.386  -1.594 -16.943  1.00  0.00     0.040 A 
ATOM     74  F   UNL     1      -3.492  -2.777 -14.920  1.00  0.00    -0.206 F 
ATOM     75  C   UNL     1      -2.738  -1.298 -18.140  1.00  0.00     0.006 A 
ENDBRANCH  54  68
BRANCH  55  76
ATOM     76  C   UNL     1       2.247  -9.621  -9.777  1.00  0.00     0.057 A 
ATOM     77  C   UNL     1       2.791 -10.846 -10.178  1.00  0.00     0.134 A 
ATOM     78  C   UNL     1       2.348  -9.283  -8.421  1.00  0.00     0.134 A 
ATOM     79  F   UNL     1       2.710 -11.232 -11.460  1.00  0.00    -0.206 F 
ATOM     80  C   UNL     1       3.421 -11.698  -9.270  1.00  0.00     0.040 A 
ATOM     81  C   UNL     1       2.996 -10.115  -7.506  1.00  0.00     0.040 A 
ATOM     82  F   UNL     1       1.854  -8.118  -7.976  1.00  0.00    -0.206 F 
ATOM     83  C   UNL     1       3.536 -11.327  -7.931  1.00  0.00     0.006 A 
ENDBRANCH  55  76
BRANCH  67  84
ATOM     84  C   UNL     1      -3.570  -9.621 -13.656  1.00  0.00     0.057 A 
ATOM     85  C   UNL     1      -4.529  -9.764 -12.646  1.00  0.00     0.134 A 
ATOM     86  C   UNL     1      -3.764 -10.348 -14.839  1.00  0.00     0.134 A 
ATOM     87  F   UNL     1      -4.398  -9.104 -11.485  1.00  0.00    -0.206 F 
ATOM     88  C   UNL     1      -5.635 -10.602 -12.803  1.00  0.00     0.040 A 
ATOM     89  C   UNL     1      -4.880 -11.166 -15.019  1.00  0.00     0.040 A 
ATOM     90  F   UNL     1      -2.889 -10.248 -15.851  1.00  0.00    -0.206 F 
ATOM     91  C   UNL     1      -5.818 -11.296 -13.997  1.00  0.00     0.006 A 
ENDBRANCH  67  84
ENDBRANCH  41  42
ENDBRANCH  33  36
ENDBRANCH  31  32
ENDBRANCH  30  31
ENDBRANCH  29  30
ENDBRANCH   1  29
TORSDOF 17
