REMARK SMILES CCc1cccc(NC(=O)N2CCO[C@@H](CC(=O)NCCCCCCNC(=O)c3ccc(-c4c5nc(c(-c6c(F)cccc6F)c6ccc([nH]6)c(-c6c(F)cccc6F)c6nc(c(-c7c(F)cccc7F)c7ccc4[nH]7)C=C6)C=C5)cc3)C2)c1
REMARK SMILES IDX 21 1 20 2 19 3 17 4 18 5 16 7 15 8 11 9 12 10 83 11 13 12
REMARK SMILES IDX 14 13 9 14 8 15 10 17 7 18 3 19 4 20 84 21 5 22 6 23 2 24
REMARK SMILES IDX 1 25 22 26 23 27 24 28 25 29 26 30 27 31 28 33 29 34 30 35
REMARK SMILES IDX 82 36 31 37 81 38 32 39 33 40 34 41 75 42 35 43 80 44 74 45
REMARK SMILES IDX 76 46 36 47 79 48 73 49 72 50 37 52 63 53 46 54 62 55 47 56
REMARK SMILES IDX 50 57 61 58 77 59 48 60 49 61 60 63 78 64 51 65 38 66 39 67
REMARK SMILES IDX 44 68 40 69 41 70 43 71 45 72 42 73 64 74 65 75 70 76 66 77
REMARK SMILES IDX 67 78 69 79 71 80 68 81 52 82 53 83 58 84 54 85 55 86 57 87
REMARK SMILES IDX 59 88 56 89
REMARK H PARENT 19 6 8 16 26 32 76 51 50 62
REMARK Flexibility Score: inf
ROOT
ATOM      1  C   UNL     1      -0.652   8.254   5.536  1.00  0.00     0.021 C 
ENDROOT
BRANCH   1   2
ATOM      2  C   UNL     1      -0.668   8.187   7.068  1.00  0.00     0.116 C 
BRANCH   2   3
ATOM      3  N   UNL     1      -1.637   7.202   7.528  1.00  0.00    -0.356 N 
ATOM      4  C   UNL     1      -1.454   5.978   8.100  1.00  0.00     0.222 C 
ATOM      5  O   UNL     1      -2.436   5.252   8.259  1.00  0.00    -0.275 OA
ATOM      6  H   UNL     1      -2.579   7.463   7.405  1.00  0.00     0.163 HD
BRANCH   4   7
ATOM      7  C   UNL     1      -0.072   5.517   8.512  1.00  0.00     0.133 C 
BRANCH   7   8
ATOM      8  C   UNL     1       0.591   4.619   7.468  1.00  0.00     0.147 C 
ATOM      9  N   UNL     1       1.470   4.531   5.162  1.00  0.00    -0.320 N 
ATOM     10  C   UNL     1       2.749   4.026   5.659  1.00  0.00     0.150 C 
ATOM     11  C   UNL     1       0.740   5.329   6.121  1.00  0.00     0.154 C 
ATOM     12  C   UNL     1       2.586   3.381   7.042  1.00  0.00     0.182 C 
ATOM     13  O   UNL     1       1.901   4.251   7.963  1.00  0.00    -0.374 OA
BRANCH   9  14
ATOM     14  C   UNL     1       1.289   4.823   3.837  1.00  0.00     0.322 C 
ATOM     15  N   UNL     1       1.217   3.804   2.938  1.00  0.00    -0.308 N 
ATOM     16  H   UNL     1       1.321   4.089   2.002  1.00  0.00     0.171 HD
ATOM     17  O   UNL     1       1.137   5.981   3.443  1.00  0.00    -0.248 OA
BRANCH  15  18
ATOM     18  C   UNL     1       1.022   2.417   3.095  1.00  0.00     0.043 A 
ATOM     19  C   UNL     1       0.860   0.237   1.997  1.00  0.00    -0.046 A 
ATOM     20  C   UNL     1       0.725  -0.366   3.255  1.00  0.00     0.004 A 
ATOM     21  C   UNL     1       1.021   1.632   1.933  1.00  0.00     0.029 A 
ATOM     22  C   UNL     1       0.674   0.406   4.408  1.00  0.00     0.002 A 
ATOM     23  C   UNL     1       0.776   1.792   4.316  1.00  0.00     0.026 A 
BRANCH  19  24
ATOM     24  C   UNL     1       0.723  -0.642   0.777  1.00  0.00     0.032 C 
ATOM     25  C   UNL     1       1.296  -0.105  -0.525  1.00  0.00     0.009 C 
ENDBRANCH  19  24
ENDBRANCH  15  18
ENDBRANCH   9  14
ENDBRANCH   7   8
ENDBRANCH   4   7
ENDBRANCH   2   3
ENDBRANCH   1   2
BRANCH   1  26
ATOM     26  C   UNL     1      -1.413   9.441   4.949  1.00  0.00     0.002 C 
BRANCH  26  27
ATOM     27  C   UNL     1      -0.739  10.799   5.157  1.00  0.00     0.002 C 
BRANCH  27  28
ATOM     28  C   UNL     1       0.703  10.908   4.649  1.00  0.00     0.021 C 
BRANCH  28  29
ATOM     29  C   UNL     1       0.916  10.492   3.194  1.00  0.00     0.116 C 
BRANCH  29  30
ATOM     30  N   UNL     1       0.143  11.313   2.275  1.00  0.00    -0.352 N 
ATOM     31  C   UNL     1       0.563  12.224   1.339  1.00  0.00     0.251 C 
ATOM     32  H   UNL     1      -0.833  11.197   2.334  1.00  0.00     0.163 HD
ATOM     33  O   UNL     1      -0.244  12.984   0.815  1.00  0.00    -0.269 OA
BRANCH  31  34
ATOM     34  C   UNL     1       1.991  12.303   0.964  1.00  0.00     0.039 A 
ATOM     35  C   UNL     1       2.589  13.561   0.846  1.00  0.00     0.014 A 
ATOM     36  C   UNL     1       2.728  11.148   0.686  1.00  0.00     0.014 A 
ATOM     37  C   UNL     1       3.940  13.658   0.503  1.00  0.00     0.010 A 
ATOM     38  C   UNL     1       4.089  11.243   0.405  1.00  0.00     0.010 A 
ATOM     39  C   UNL     1       4.708  12.499   0.307  1.00  0.00    -0.014 A 
BRANCH  39  40
ATOM     40  C   UNL     1       6.158  12.581  -0.003  1.00  0.00     0.031 A 
ATOM     41  C   UNL     1       6.676  12.108  -1.334  1.00  0.00     0.074 A 
ATOM     42  C   UNL     1       7.017  13.021   0.938  1.00  0.00     0.049 A 
ATOM     43  N   UNL     1       7.912  12.027  -1.759  1.00  0.00    -0.248 NA
ATOM     44  C   UNL     1       5.675  11.644  -2.308  1.00  0.00     0.031 C 
ATOM     45  C   UNL     1       6.645  13.466   2.282  1.00  0.00     0.029 A 
ATOM     46  N   UNL     1       8.383  13.151   0.911  1.00  0.00    -0.354 N 
ATOM     47  C   UNL     1       7.838  11.486  -3.036  1.00  0.00     0.074 A 
ATOM     48  C   UNL     1       6.441  11.223  -3.305  1.00  0.00     0.031 C 
ATOM     49  C   UNL     1       7.753  13.832   2.946  1.00  0.00     0.029 A 
ATOM     50  C   UNL     1       8.915  13.616   2.090  1.00  0.00     0.049 A 
ATOM     51  H   UNL     1       8.930  12.932   0.123  1.00  0.00     0.167 HD
ATOM     52  C   UNL     1       8.843  11.247  -3.912  1.00  0.00     0.037 A 
ATOM     53  C   UNL     1      10.196  13.834   2.443  1.00  0.00     0.037 A 
ATOM     54  C   UNL     1      10.228  11.545  -3.659  1.00  0.00     0.049 A 
ATOM     55  C   UNL     1      11.290  13.567   1.446  1.00  0.00     0.074 A 
ATOM     56  C   UNL     1      11.309  11.407  -4.513  1.00  0.00     0.029 A 
ATOM     57  N   UNL     1      10.723  12.044  -2.464  1.00  0.00    -0.354 N 
ATOM     58  N   UNL     1      11.198  13.122   0.216  1.00  0.00    -0.248 NA
ATOM     59  C   UNL     1      12.667  13.837   1.884  1.00  0.00     0.031 C 
ATOM     60  C   UNL     1      12.464  11.785  -3.821  1.00  0.00     0.029 A 
ATOM     61  C   UNL     1      12.097  12.200  -2.552  1.00  0.00     0.049 A 
ATOM     62  H   UNL     1      10.180  12.256  -1.671  1.00  0.00     0.167 HD
ATOM     63  C   UNL     1      12.496  13.090  -0.275  1.00  0.00     0.074 A 
ATOM     64  C   UNL     1      13.358  13.571   0.785  1.00  0.00     0.031 C 
ATOM     65  C   UNL     1      12.937  12.696  -1.494  1.00  0.00     0.037 A 
BRANCH  52  66
ATOM     66  C   UNL     1       8.486  10.641  -5.237  1.00  0.00     0.057 A 
ATOM     67  C   UNL     1       7.837  11.379  -6.234  1.00  0.00     0.134 A 
ATOM     68  C   UNL     1       8.856   9.325  -5.542  1.00  0.00     0.134 A 
ATOM     69  F   UNL     1       7.448  12.641  -6.001  1.00  0.00    -0.206 F 
ATOM     70  C   UNL     1       7.554  10.825  -7.484  1.00  0.00     0.040 A 
ATOM     71  C   UNL     1       8.600   8.768  -6.796  1.00  0.00     0.040 A 
ATOM     72  F   UNL     1       9.488   8.566  -4.634  1.00  0.00    -0.206 F 
ATOM     73  C   UNL     1       7.945   9.518  -7.771  1.00  0.00     0.006 A 
ENDBRANCH  52  66
BRANCH  53  74
ATOM     74  C   UNL     1      10.524  14.345   3.798  1.00  0.00     0.057 A 
ATOM     75  C   UNL     1      11.021  15.640   3.980  1.00  0.00     0.134 A 
ATOM     76  C   UNL     1      10.381  13.543   4.936  1.00  0.00     0.134 A 
ATOM     77  F   UNL     1      11.199  16.449   2.924  1.00  0.00    -0.206 F 
ATOM     78  C   UNL     1      11.391  16.112   5.240  1.00  0.00     0.040 A 
ATOM     79  C   UNL     1      10.723  14.010   6.206  1.00  0.00     0.040 A 
ATOM     80  F   UNL     1       9.905  12.294   4.830  1.00  0.00    -0.206 F 
ATOM     81  C   UNL     1      11.240  15.296   6.359  1.00  0.00     0.006 A 
ENDBRANCH  53  74
BRANCH  65  82
ATOM     82  C   UNL     1      14.408  12.810  -1.762  1.00  0.00     0.057 A 
ATOM     83  C   UNL     1      15.334  11.931  -1.187  1.00  0.00     0.134 A 
ATOM     84  C   UNL     1      14.898  13.788  -2.636  1.00  0.00     0.134 A 
ATOM     85  F   UNL     1      14.929  10.981  -0.331  1.00  0.00    -0.206 F 
ATOM     86  C   UNL     1      16.699  12.034  -1.456  1.00  0.00     0.040 A 
ATOM     87  C   UNL     1      16.258  13.885  -2.933  1.00  0.00     0.040 A 
ATOM     88  F   UNL     1      14.062  14.655  -3.226  1.00  0.00    -0.206 F 
ATOM     89  C   UNL     1      17.164  13.009  -2.337  1.00  0.00     0.006 A 
ENDBRANCH  65  82
ENDBRANCH  39  40
ENDBRANCH  31  34
ENDBRANCH  29  30
ENDBRANCH  28  29
ENDBRANCH  27  28
ENDBRANCH  26  27
ENDBRANCH   1  26
TORSDOF 17
