REMARK SMILES O=C(Nc1ccc2c(c1)OCO2)N[C@H]1C=C[C@@H](C(=O)NCCCCCCNC(=O)c2ccc(-c3c4nc(c(-c5c(F)cccc5F)c5ccc([nH]5)c(-c5c(F)cccc5F)c5nc(c(-c6c(F)cccc6F)c6ccc3[nH]6)C=C5)C=C4)cc2)C1
REMARK SMILES IDX 23 1 22 2 21 3 20 4 18 5 19 6 17 8 14 9 15 10 84 11 16 12
REMARK SMILES IDX 13 13 1 14 2 15 3 16 4 19 5 20 9 21 6 22 8 23 7 24 10 25
REMARK SMILES IDX 12 26 11 27 24 28 25 29 26 30 27 31 28 32 29 34 30 35 31 36
REMARK SMILES IDX 83 37 32 38 82 39 33 40 34 41 35 42 76 43 36 44 81 45 75 46
REMARK SMILES IDX 77 47 37 48 80 49 74 50 73 51 38 53 64 54 47 55 63 56 48 57
REMARK SMILES IDX 51 58 62 59 78 60 49 61 50 62 61 64 79 65 52 66 39 67 40 68
REMARK SMILES IDX 45 69 41 70 42 71 44 72 46 73 43 74 65 75 66 76 71 77 67 78
REMARK SMILES IDX 68 79 70 80 72 81 69 82 53 83 54 84 59 85 55 86 56 87 58 88
REMARK SMILES IDX 60 89 57 90
REMARK H PARENT 20 7 3 17 13 18 27 33 77 52 51 63
REMARK Flexibility Score: inf
ROOT
ATOM      1  C   UNL     1       0.373  -1.950   3.806  1.00  0.00     0.002 C 
ENDROOT
BRANCH   1   2
ATOM      2  C   UNL     1       0.989  -1.677   2.430  1.00  0.00     0.021 C 
BRANCH   2   3
ATOM      3  C   UNL     1       1.272  -2.933   1.610  1.00  0.00     0.116 C 
BRANCH   3   4
ATOM      4  N   UNL     1       0.058  -3.554   1.129  1.00  0.00    -0.356 N 
ATOM      5  C   UNL     1      -0.378  -3.782  -0.139  1.00  0.00     0.227 C 
ATOM      6  O   UNL     1      -1.445  -4.394  -0.264  1.00  0.00    -0.274 OA
ATOM      7  H   UNL     1      -0.555  -3.862   1.836  1.00  0.00     0.163 HD
BRANCH   5   8
ATOM      8  C   UNL     1       0.389  -3.316  -1.383  1.00  0.00     0.103 C 
ATOM      9  C   UNL     1       2.095  -1.563  -1.775  1.00  0.00     0.107 C 
ATOM     10  C   UNL     1       2.675  -2.948  -1.783  1.00  0.00    -0.006 C 
ATOM     11  C   UNL     1       0.603  -1.802  -1.469  1.00  0.00     0.047 C 
ATOM     12  C   UNL     1       1.760  -3.894  -1.540  1.00  0.00    -0.016 C 
BRANCH   9  13
ATOM     13  N   UNL     1       2.829  -0.796  -0.791  1.00  0.00    -0.332 N 
ATOM     14  O   UNL     1       1.294   0.865  -0.429  1.00  0.00    -0.248 OA
ATOM     15  C   UNL     1       2.402   0.377  -0.237  1.00  0.00     0.319 C 
ATOM     16  N   UNL     1       3.230   0.912   0.713  1.00  0.00    -0.308 N 
ATOM     17  H   UNL     1       2.777   1.378   1.452  1.00  0.00     0.171 HD
ATOM     18  H   UNL     1       3.702  -1.146  -0.499  1.00  0.00     0.165 HD
BRANCH  16  19
ATOM     19  C   UNL     1       4.632   0.890   0.785  1.00  0.00     0.046 A 
ATOM     20  C   UNL     1       5.429   0.798  -0.375  1.00  0.00     0.030 A 
ATOM     21  C   UNL     1       5.232   1.053   2.038  1.00  0.00     0.076 A 
ATOM     22  C   UNL     1       6.824   0.841  -0.289  1.00  0.00     0.053 A 
ATOM     23  C   UNL     1       6.612   1.055   2.095  1.00  0.00     0.167 A 
ATOM     24  C   UNL     1       7.385   0.955   0.964  1.00  0.00     0.165 A 
ATOM     25  O   UNL     1       7.360   1.150   3.228  1.00  0.00    -0.454 OA
ATOM     26  O   UNL     1       8.716   0.990   1.238  1.00  0.00    -0.454 OA
ATOM     27  C   UNL     1       8.696   1.067   2.681  1.00  0.00     0.468 C 
ENDBRANCH  16  19
ENDBRANCH   9  13
ENDBRANCH   5   8
ENDBRANCH   3   4
ENDBRANCH   2   3
ENDBRANCH   1   2
BRANCH   1  28
ATOM     28  C   UNL     1       1.195  -2.872   4.714  1.00  0.00     0.002 C 
BRANCH  28  29
ATOM     29  C   UNL     1       2.653  -2.454   4.921  1.00  0.00     0.021 C 
BRANCH  29  30
ATOM     30  C   UNL     1       2.839  -1.058   5.504  1.00  0.00     0.116 C 
BRANCH  30  31
ATOM     31  N   UNL     1       2.256  -0.936   6.830  1.00  0.00    -0.352 N 
ATOM     32  C   UNL     1       2.842  -0.544   8.006  1.00  0.00     0.251 C 
ATOM     33  H   UNL     1       1.302  -1.168   6.893  1.00  0.00     0.163 HD
ATOM     34  O   UNL     1       2.247  -0.695   9.073  1.00  0.00    -0.269 OA
BRANCH  32  35
ATOM     35  C   UNL     1       4.197   0.044   7.998  1.00  0.00     0.039 A 
ATOM     36  C   UNL     1       5.120  -0.372   8.960  1.00  0.00     0.014 A 
ATOM     37  C   UNL     1       4.553   1.009   7.051  1.00  0.00     0.014 A 
ATOM     38  C   UNL     1       6.419   0.138   8.937  1.00  0.00     0.010 A 
ATOM     39  C   UNL     1       5.868   1.458   6.981  1.00  0.00     0.010 A 
ATOM     40  C   UNL     1       6.813   1.032   7.928  1.00  0.00    -0.014 A 
BRANCH  40  41
ATOM     41  C   UNL     1       8.207   1.533   7.846  1.00  0.00     0.031 A 
ATOM     42  C   UNL     1       8.499   2.995   8.036  1.00  0.00     0.074 A 
ATOM     43  C   UNL     1       9.204   0.678   7.547  1.00  0.00     0.049 A 
ATOM     44  N   UNL     1       9.641   3.629   7.947  1.00  0.00    -0.248 NA
ATOM     45  C   UNL     1       7.351   3.864   8.340  1.00  0.00     0.031 C 
ATOM     46  C   UNL     1       9.045  -0.757   7.306  1.00  0.00     0.029 A 
ATOM     47  N   UNL     1      10.550   0.893   7.393  1.00  0.00    -0.354 N 
ATOM     48  C   UNL     1       9.349   4.967   8.176  1.00  0.00     0.074 A 
ATOM     49  C   UNL     1       7.915   5.063   8.348  1.00  0.00     0.031 C 
ATOM     50  C   UNL     1      10.249  -1.298   7.066  1.00  0.00     0.029 A 
ATOM     51  C   UNL     1      11.259  -0.245   7.094  1.00  0.00     0.049 A 
ATOM     52  H   UNL     1      10.969   1.780   7.487  1.00  0.00     0.167 HD
ATOM     53  C   UNL     1      10.199   6.018   8.260  1.00  0.00     0.037 A 
ATOM     54  C   UNL     1      12.574  -0.418   6.864  1.00  0.00     0.037 A 
ATOM     55  C   UNL     1      11.627   5.917   8.103  1.00  0.00     0.049 A 
ATOM     56  C   UNL     1      13.495   0.769   6.934  1.00  0.00     0.074 A 
ATOM     57  C   UNL     1      12.580   6.915   8.214  1.00  0.00     0.029 A 
ATOM     58  N   UNL     1      12.307   4.747   7.798  1.00  0.00    -0.354 N 
ATOM     59  N   UNL     1      13.212   2.020   7.207  1.00  0.00    -0.248 NA
ATOM     60  C   UNL     1      14.918   0.519   6.666  1.00  0.00     0.031 C 
ATOM     61  C   UNL     1      13.830   6.359   7.924  1.00  0.00     0.029 A 
ATOM     62  C   UNL     1      13.664   5.004   7.688  1.00  0.00     0.049 A 
ATOM     63  H   UNL     1      11.887   3.865   7.676  1.00  0.00     0.167 HD
ATOM     64  C   UNL     1      14.423   2.699   7.177  1.00  0.00     0.074 A 
ATOM     65  C   UNL     1      15.444   1.719   6.869  1.00  0.00     0.031 C 
ATOM     66  C   UNL     1      14.669   4.016   7.386  1.00  0.00     0.037 A 
BRANCH  53  67
ATOM     67  C   UNL     1       9.603   7.370   8.531  1.00  0.00     0.057 A 
ATOM     68  C   UNL     1       9.027   7.691   9.769  1.00  0.00     0.134 A 
ATOM     69  C   UNL     1       9.624   8.372   7.553  1.00  0.00     0.134 A 
ATOM     70  F   UNL     1       8.963   6.774  10.747  1.00  0.00    -0.206 F 
ATOM     71  C   UNL     1       8.467   8.946  10.011  1.00  0.00     0.040 A 
ATOM     72  C   UNL     1       9.095   9.641   7.794  1.00  0.00     0.040 A 
ATOM     73  F   UNL     1      10.166   8.137   6.348  1.00  0.00    -0.206 F 
ATOM     74  C   UNL     1       8.506   9.928   9.024  1.00  0.00     0.006 A 
ENDBRANCH  53  67
BRANCH  54  75
ATOM     75  C   UNL     1      13.105  -1.772   6.565  1.00  0.00     0.057 A 
ATOM     76  C   UNL     1      13.932  -2.440   7.476  1.00  0.00     0.134 A 
ATOM     77  C   UNL     1      12.811  -2.426   5.362  1.00  0.00     0.134 A 
ATOM     78  F   UNL     1      14.265  -1.857   8.637  1.00  0.00    -0.206 F 
ATOM     79  C   UNL     1      14.466  -3.698   7.194  1.00  0.00     0.040 A 
ATOM     80  C   UNL     1      13.316  -3.696   5.079  1.00  0.00     0.040 A 
ATOM     81  F   UNL     1      12.017  -1.843   4.451  1.00  0.00    -0.206 F 
ATOM     82  C   UNL     1      14.153  -4.331   5.993  1.00  0.00     0.006 A 
ENDBRANCH  54  75
BRANCH  66  83
ATOM     83  C   UNL     1      16.100   4.466   7.324  1.00  0.00     0.057 A 
ATOM     84  C   UNL     1      16.805   4.532   6.116  1.00  0.00     0.134 A 
ATOM     85  C   UNL     1      16.768   4.873   8.486  1.00  0.00     0.134 A 
ATOM     86  F   UNL     1      16.228   4.144   4.969  1.00  0.00    -0.206 F 
ATOM     87  C   UNL     1      18.132   4.963   6.069  1.00  0.00     0.040 A 
ATOM     88  C   UNL     1      18.085   5.334   8.448  1.00  0.00     0.040 A 
ATOM     89  F   UNL     1      16.148   4.843   9.675  1.00  0.00    -0.206 F 
ATOM     90  C   UNL     1      18.773   5.373   7.237  1.00  0.00     0.006 A 
ENDBRANCH  66  83
ENDBRANCH  40  41
ENDBRANCH  32  35
ENDBRANCH  30  31
ENDBRANCH  29  30
ENDBRANCH  28  29
ENDBRANCH   1  28
TORSDOF 15
