REMARK SMILES Cc1ccc([C@@H](C)Nc2ccc(N)cc2C(=O)NCCCCCCNC(=O)c2ccc(-c3c4nc(c(-c5c(F)cccc5F)c5ccc([nH]5)c(-c5c(F)cccc5F)c5nc(c(-c6c(F)cccc6F)c6ccc3[nH]6)C=C5)C=C4)cc2)cc1F
REMARK SMILES IDX 21 1 20 2 19 3 18 4 16 5 17 6 15 8 9 9 10 10 11 11 14 12
REMARK SMILES IDX 12 13 8 14 6 16 7 17 5 18 1 19 2 20 3 21 83 22 4 23 82 24
REMARK SMILES IDX 84 25 13 26 22 29 23 30 24 31 25 32 26 33 27 35 28 36 29 37
REMARK SMILES IDX 81 38 30 39 80 40 31 41 32 42 33 43 74 44 34 45 79 46 73 47
REMARK SMILES IDX 75 48 35 49 78 50 72 51 71 52 36 54 62 55 45 56 61 57 46 58
REMARK SMILES IDX 49 59 60 60 76 61 47 62 48 63 59 65 77 66 50 67 37 68 38 69
REMARK SMILES IDX 43 70 39 71 40 72 42 73 44 74 41 75 63 76 64 77 69 78 65 79
REMARK SMILES IDX 66 80 68 81 70 82 67 83 51 84 52 85 57 86 53 87 54 88 56 89
REMARK SMILES IDX 58 90 55 91
REMARK H PARENT 18 7 8 15 13 27 13 28 25 34 75 53 49 64
REMARK Flexibility Score: inf
ROOT
ATOM      1  C   UNL     1      -1.452   0.550  -0.766  1.00  0.00     0.002 C 
ENDROOT
BRANCH   1   2
ATOM      2  C   UNL     1      -0.538  -1.146   0.290  1.00  0.00     0.021 C 
BRANCH   2   3
ATOM      3  C   UNL     1      -0.764  -2.858   0.429  1.00  0.00     0.116 C 
BRANCH   3   4
ATOM      4  N   UNL     1      -0.956  -3.697  -0.745  1.00  0.00    -0.352 N 
ATOM      5  C   UNL     1      -1.958  -4.582  -1.057  1.00  0.00     0.253 C 
ATOM      6  O   UNL     1      -2.007  -5.065  -2.188  1.00  0.00    -0.269 OA
ATOM      7  H   UNL     1      -0.251  -3.616  -1.428  1.00  0.00     0.163 HD
BRANCH   5   8
ATOM      8  C   UNL     1      -2.870  -5.077  -0.004  1.00  0.00     0.065 A 
ATOM      9  C   UNL     1      -3.485  -4.277   0.965  1.00  0.00     0.048 A 
ATOM     10  C   UNL     1      -3.750  -4.933   2.184  1.00  0.00     0.028 A 
ATOM     11  C   UNL     1      -3.577  -6.319   2.353  1.00  0.00     0.027 A 
ATOM     12  C   UNL     1      -2.850  -6.487   0.106  1.00  0.00     0.041 A 
ATOM     13  C   UNL     1      -3.236  -7.124   1.275  1.00  0.00     0.032 A 
BRANCH   9  14
ATOM     14  N   UNL     1      -3.827  -2.937   0.869  1.00  0.00    -0.378 N 
ATOM     15  H   UNL     1      -4.122  -2.536   1.718  1.00  0.00     0.161 HD
BRANCH  14  16
ATOM     16  C   UNL     1      -3.831  -2.004  -0.270  1.00  0.00     0.106 C 
ATOM     17  C   UNL     1      -4.463  -2.555  -1.540  1.00  0.00     0.036 C 
BRANCH  16  18
ATOM     18  C   UNL     1      -2.528  -1.212  -0.340  1.00  0.00    -0.023 A 
ATOM     19  C   UNL     1       1.855   1.419  -0.005  1.00  0.00     0.047 C 
ATOM     20  C   UNL     1       0.592   0.628  -0.108  1.00  0.00    -0.015 A 
ATOM     21  C   UNL     1      -0.654   0.799   1.183  1.00  0.00     0.007 A 
ATOM     22  C   UNL     1       0.273  -0.439  -1.527  1.00  0.00     0.126 A 
ATOM     23  C   UNL     1      -2.196  -0.132   1.075  1.00  0.00     0.006 A 
ATOM     24  C   UNL     1      -1.294  -1.339  -1.661  1.00  0.00     0.045 A 
ATOM     25  F   UNL     1       1.216  -0.600  -2.462  1.00  0.00    -0.207 F 
ENDBRANCH  16  18
ENDBRANCH  14  16
ENDBRANCH   9  14
BRANCH  13  26
ATOM     26  N   UNL     1      -3.078  -8.493   1.414  1.00  0.00    -0.399 N 
ATOM     27  H   UNL     1      -3.354  -8.939   2.247  1.00  0.00     0.156 HD
ATOM     28  H   UNL     1      -2.689  -9.021   0.679  1.00  0.00     0.156 HD
ENDBRANCH  13  26
ENDBRANCH   5   8
ENDBRANCH   3   4
ENDBRANCH   2   3
ENDBRANCH   1   2
BRANCH   1  29
ATOM     29  C   UNL     1      -3.006   1.235  -1.005  1.00  0.00     0.002 C 
BRANCH  29  30
ATOM     30  C   UNL     1      -3.735   2.151   0.001  1.00  0.00     0.021 C 
BRANCH  30  31
ATOM     31  C   UNL     1      -2.995   3.360   0.551  1.00  0.00     0.116 C 
BRANCH  31  32
ATOM     32  N   UNL     1      -2.652   4.361  -0.455  1.00  0.00    -0.352 N 
ATOM     33  C   UNL     1      -2.084   5.591  -0.191  1.00  0.00     0.251 C 
ATOM     34  H   UNL     1      -2.841   4.141  -1.396  1.00  0.00     0.163 HD
ATOM     35  O   UNL     1      -2.221   6.559  -0.928  1.00  0.00    -0.269 OA
BRANCH  33  36
ATOM     36  C   UNL     1      -1.162   5.668   0.947  1.00  0.00     0.039 A 
ATOM     37  C   UNL     1      -1.048   6.798   1.768  1.00  0.00     0.014 A 
ATOM     38  C   UNL     1      -0.285   4.591   1.052  1.00  0.00     0.014 A 
ATOM     39  C   UNL     1       0.017   6.867   2.659  1.00  0.00     0.010 A 
ATOM     40  C   UNL     1       0.666   4.594   2.014  1.00  0.00     0.010 A 
ATOM     41  C   UNL     1       0.884   5.778   2.713  1.00  0.00    -0.014 A 
BRANCH  41  42
ATOM     42  C   UNL     1       2.134   5.737   3.431  1.00  0.00     0.031 A 
ATOM     43  C   UNL     1       2.054   5.549   4.876  1.00  0.00     0.074 A 
ATOM     44  C   UNL     1       3.211   5.599   2.623  1.00  0.00     0.049 A 
ATOM     45  N   UNL     1       2.955   5.914   5.707  1.00  0.00    -0.248 NA
ATOM     46  C   UNL     1       0.868   4.990   5.530  1.00  0.00     0.031 C 
ATOM     47  C   UNL     1       4.548   5.090   2.859  1.00  0.00     0.029 A 
ATOM     48  N   UNL     1       3.266   6.038   1.290  1.00  0.00    -0.354 N 
ATOM     49  C   UNL     1       2.682   5.233   6.875  1.00  0.00     0.074 A 
ATOM     50  C   UNL     1       1.285   4.896   6.797  1.00  0.00     0.031 C 
ATOM     51  C   UNL     1       5.359   5.539   1.877  1.00  0.00     0.029 A 
ATOM     52  C   UNL     1       4.585   6.457   1.052  1.00  0.00     0.049 A 
ATOM     53  H   UNL     1       2.522   6.050   0.646  1.00  0.00     0.167 HD
ATOM     54  C   UNL     1       3.739   4.802   7.622  1.00  0.00     0.037 A 
ATOM     55  C   UNL     1       4.795   7.805   0.934  1.00  0.00     0.037 A 
ATOM     56  C   UNL     1       4.986   5.168   6.940  1.00  0.00     0.049 A 
ATOM     57  C   UNL     1       5.463   8.383   2.165  1.00  0.00     0.074 A 
ATOM     58  C   UNL     1       5.853   4.484   6.104  1.00  0.00     0.029 A 
ATOM     59  N   UNL     1       5.257   6.505   6.745  1.00  0.00    -0.354 N 
ATOM     60  N   UNL     1       5.600   7.743   3.296  1.00  0.00    -0.248 NA
ATOM     61  C   UNL     1       6.004   9.736   2.228  1.00  0.00     0.031 C 
ATOM     62  C   UNL     1       6.637   5.450   5.398  1.00  0.00     0.029 A 
ATOM     63  C   UNL     1       6.241   6.712   5.804  1.00  0.00     0.049 A 
ATOM     64  H   UNL     1       4.798   7.232   7.226  1.00  0.00     0.167 HD
ATOM     65  C   UNL     1       6.243   8.530   4.208  1.00  0.00     0.074 A 
ATOM     66  C   UNL     1       6.424   9.792   3.505  1.00  0.00     0.031 C 
ATOM     67  C   UNL     1       6.578   8.087   5.460  1.00  0.00     0.037 A 
BRANCH  54  68
ATOM     68  C   UNL     1       3.700   3.833   8.781  1.00  0.00     0.057 A 
ATOM     69  C   UNL     1       4.893   3.214   9.211  1.00  0.00     0.134 A 
ATOM     70  C   UNL     1       2.566   3.473   9.531  1.00  0.00     0.134 A 
ATOM     71  F   UNL     1       6.077   3.501   8.656  1.00  0.00    -0.206 F 
ATOM     72  C   UNL     1       4.943   2.276  10.249  1.00  0.00     0.040 A 
ATOM     73  C   UNL     1       2.598   2.516  10.559  1.00  0.00     0.040 A 
ATOM     74  F   UNL     1       1.377   4.057   9.354  1.00  0.00    -0.206 F 
ATOM     75  C   UNL     1       3.790   1.910  10.920  1.00  0.00     0.006 A 
ENDBRANCH  54  68
BRANCH  55  76
ATOM     76  C   UNL     1       3.681   8.447   0.151  1.00  0.00     0.057 A 
ATOM     77  C   UNL     1       3.489   7.996  -1.172  1.00  0.00     0.134 A 
ATOM     78  C   UNL     1       2.566   8.987   0.801  1.00  0.00     0.134 A 
ATOM     79  F   UNL     1       4.524   7.504  -1.872  1.00  0.00    -0.206 F 
ATOM     80  C   UNL     1       2.213   7.870  -1.730  1.00  0.00     0.040 A 
ATOM     81  C   UNL     1       1.288   8.900   0.232  1.00  0.00     0.040 A 
ATOM     82  F   UNL     1       2.664   9.460   2.052  1.00  0.00    -0.206 F 
ATOM     83  C   UNL     1       1.101   8.275  -1.001  1.00  0.00     0.006 A 
ENDBRANCH  55  76
BRANCH  67  84
ATOM     84  C   UNL     1       7.232   8.960   6.500  1.00  0.00     0.057 A 
ATOM     85  C   UNL     1       8.228   9.887   6.183  1.00  0.00     0.134 A 
ATOM     86  C   UNL     1       6.929   8.858   7.878  1.00  0.00     0.134 A 
ATOM     87  F   UNL     1       8.741   9.960   4.946  1.00  0.00    -0.206 F 
ATOM     88  C   UNL     1       8.762  10.763   7.135  1.00  0.00     0.040 A 
ATOM     89  C   UNL     1       7.506   9.676   8.847  1.00  0.00     0.040 A 
ATOM     90  F   UNL     1       6.042   7.984   8.367  1.00  0.00    -0.206 F 
ATOM     91  C   UNL     1       8.393  10.665   8.471  1.00  0.00     0.006 A 
ENDBRANCH  67  84
ENDBRANCH  41  42
ENDBRANCH  33  36
ENDBRANCH  31  32
ENDBRANCH  30  31
ENDBRANCH  29  30
ENDBRANCH   1  29
TORSDOF 17
