REMARK SMILES COc1ccc(C2=NN(C(=O)CCC(=O)NCCCCCCNC(=O)c3ccc(-c4c5nc(c(-c6c(F)cccc6F)c6ccc([nH]6)c(-c6c(F)cccc6F)c6nc(c(-c7c(F)cccc7F)c7ccc4[nH]7)C=C6)C=C5)cc3)[C@H](c3ccc(Cl)cc3Cl)C2)cc1
REMARK SMILES IDX 18 1 17 2 16 3 14 4 15 5 13 7 12 8 10 9 11 10 9 11 7 12 8 13
REMARK SMILES IDX 89 14 80 15 6 16 3 17 4 18 91 19 5 20 90 21 2 22 1 23 81 24
REMARK SMILES IDX 82 25 87 26 83 27 86 28 88 29 84 30 85 31 19 32 20 33 21 34
REMARK SMILES IDX 22 35 23 36 24 37 25 39 26 40 27 41 79 42 28 43 78 44 29 45
REMARK SMILES IDX 30 46 31 47 72 48 32 49 77 50 71 51 73 52 33 53 76 54 70 55
REMARK SMILES IDX 69 56 34 58 60 59 43 60 59 61 44 62 47 63 58 64 74 65 45 66
REMARK SMILES IDX 46 67 57 69 75 70 48 71 35 72 36 73 41 74 37 75 38 76 40 77
REMARK SMILES IDX 42 78 39 79 61 80 62 81 67 82 63 83 64 84 66 85 68 86 65 87
REMARK SMILES IDX 49 88 50 89 55 90 51 91 52 92 54 93 56 94 53 95
REMARK H PARENT 16 6 23 38 73 57 47 68
REMARK Flexibility Score: inf
ROOT
ATOM      1  C   UNL     1       1.982   2.809  -6.936  1.00  0.00     0.021 C 
ENDROOT
BRANCH   1   2
ATOM      2  C   UNL     1       4.076   3.588  -7.049  1.00  0.00     0.116 C 
BRANCH   2   3
ATOM      3  N   UNL     1       4.882   4.403  -8.155  1.00  0.00    -0.356 N 
ATOM      4  C   UNL     1       4.847   5.617  -8.775  1.00  0.00     0.220 C 
ATOM      5  O   UNL     1       5.838   5.853  -9.483  1.00  0.00    -0.275 OA
ATOM      6  H   UNL     1       5.635   3.867  -8.494  1.00  0.00     0.163 HD
BRANCH   4   7
ATOM      7  C   UNL     1       3.782   6.711  -8.652  1.00  0.00     0.110 C 
BRANCH   7   8
ATOM      8  C   UNL     1       2.298   6.394  -8.685  1.00  0.00     0.112 C 
BRANCH   8   9
ATOM      9  C   UNL     1       1.998   5.773  -7.377  1.00  0.00     0.243 C 
ATOM     10  O   UNL     1       1.459   6.381  -6.462  1.00  0.00    -0.273 OA
BRANCH   9  11
ATOM     11  N   UNL     1       2.502   4.498  -7.335  1.00  0.00    -0.225 N 
ATOM     12  C   UNL     1       3.362   2.220  -5.681  1.00  0.00     0.071 C 
ATOM     13  N   UNL     1       2.922   3.736  -5.601  1.00  0.00    -0.174 NA
ATOM     14  C   UNL     1       3.633   1.637  -7.536  1.00  0.00     0.091 C 
ATOM     15  C   UNL     1       2.951   3.103  -8.671  1.00  0.00     0.149 C 
BRANCH  12  16
ATOM     16  C   UNL     1       3.015   1.124  -4.660  1.00  0.00    -0.002 A 
ATOM     17  C   UNL     1       1.966  -0.700  -2.712  1.00  0.00     0.118 A 
ATOM     18  C   UNL     1       1.361  -0.571  -3.952  1.00  0.00     0.047 A 
ATOM     19  C   UNL     1       3.130   0.037  -2.472  1.00  0.00     0.047 A 
ATOM     20  C   UNL     1       1.886   0.307  -4.911  1.00  0.00     0.014 A 
ATOM     21  C   UNL     1       3.646   0.960  -3.431  1.00  0.00     0.014 A 
BRANCH  17  22
ATOM     22  O   UNL     1       1.315  -1.555  -1.869  1.00  0.00    -0.497 OA
ATOM     23  C   UNL     1       1.554  -1.463  -0.470  1.00  0.00     0.278 C 
ENDBRANCH  17  22
ENDBRANCH  12  16
BRANCH  15  24
ATOM     24  C   UNL     1       2.067   2.596  -9.867  1.00  0.00    -0.004 A 
ATOM     25  C   UNL     1       1.581   1.267  -9.851  1.00  0.00     0.009 A 
ATOM     26  C   UNL     1       2.090   3.217 -11.146  1.00  0.00     0.047 A 
ATOM     27  C   UNL     1       1.177   0.599 -11.017  1.00  0.00     0.021 A 
ATOM     28  C   UNL     1       1.592   2.578 -12.296  1.00  0.00     0.041 A 
ATOM     29  Cl  UNL     1       2.955   4.672 -11.505  1.00  0.00    -0.084 Cl
ATOM     30  C   UNL     1       1.168   1.262 -12.233  1.00  0.00     0.042 A 
ATOM     31  Cl  UNL     1       0.720   0.432 -13.669  1.00  0.00    -0.084 Cl
ENDBRANCH  15  24
ENDBRANCH   9  11
ENDBRANCH   8   9
ENDBRANCH   7   8
ENDBRANCH   4   7
ENDBRANCH   2   3
ENDBRANCH   1   2
BRANCH   1  32
ATOM     32  C   UNL     1       0.753   3.314  -5.591  1.00  0.00     0.002 C 
BRANCH  32  33
ATOM     33  C   UNL     1       1.196   3.901  -4.150  1.00  0.00     0.002 C 
BRANCH  33  34
ATOM     34  C   UNL     1       0.174   4.378  -3.145  1.00  0.00     0.021 C 
BRANCH  34  35
ATOM     35  C   UNL     1      -0.791   3.300  -2.749  1.00  0.00     0.116 C 
BRANCH  35  36
ATOM     36  N   UNL     1      -0.069   2.082  -2.376  1.00  0.00    -0.352 N 
ATOM     37  C   UNL     1       0.180   1.729  -1.075  1.00  0.00     0.251 C 
ATOM     38  H   UNL     1       0.253   1.488  -3.093  1.00  0.00     0.163 HD
ATOM     39  O   UNL     1       1.313   1.650  -0.620  1.00  0.00    -0.269 OA
BRANCH  37  40
ATOM     40  C   UNL     1      -1.019   1.518  -0.245  1.00  0.00     0.039 A 
ATOM     41  C   UNL     1      -0.916   1.580   1.141  1.00  0.00     0.014 A 
ATOM     42  C   UNL     1      -2.250   1.579  -0.891  1.00  0.00     0.014 A 
ATOM     43  C   UNL     1      -2.034   1.979   1.851  1.00  0.00     0.010 A 
ATOM     44  C   UNL     1      -3.241   2.256  -0.241  1.00  0.00     0.010 A 
ATOM     45  C   UNL     1      -3.131   2.476   1.131  1.00  0.00    -0.014 A 
BRANCH  45  46
ATOM     46  C   UNL     1      -4.116   3.354   1.772  1.00  0.00     0.031 A 
ATOM     47  C   UNL     1      -5.566   3.011   1.678  1.00  0.00     0.074 A 
ATOM     48  C   UNL     1      -3.666   4.494   2.333  1.00  0.00     0.049 A 
ATOM     49  N   UNL     1      -6.583   3.636   2.200  1.00  0.00    -0.248 NA
ATOM     50  C   UNL     1      -5.940   1.849   0.846  1.00  0.00     0.031 C 
ATOM     51  C   UNL     1      -2.272   4.966   2.309  1.00  0.00     0.029 A 
ATOM     52  N   UNL     1      -4.317   5.452   3.056  1.00  0.00    -0.354 N 
ATOM     53  C   UNL     1      -7.700   2.944   1.759  1.00  0.00     0.074 A 
ATOM     54  C   UNL     1      -7.258   1.931   0.837  1.00  0.00     0.031 C 
ATOM     55  C   UNL     1      -2.159   6.060   3.075  1.00  0.00     0.029 A 
ATOM     56  C   UNL     1      -3.476   6.401   3.588  1.00  0.00     0.049 A 
ATOM     57  H   UNL     1      -5.293   5.462   3.183  1.00  0.00     0.167 HD
ATOM     58  C   UNL     1      -8.981   3.114   2.146  1.00  0.00     0.037 A 
ATOM     59  C   UNL     1      -3.756   7.421   4.417  1.00  0.00     0.037 A 
ATOM     60  C   UNL     1      -9.371   4.128   3.083  1.00  0.00     0.049 A 
ATOM     61  C   UNL     1      -5.184   7.567   4.857  1.00  0.00     0.074 A 
ATOM     62  C   UNL     1     -10.619   4.381   3.610  1.00  0.00     0.029 A 
ATOM     63  N   UNL     1      -8.498   5.065   3.624  1.00  0.00    -0.354 N 
ATOM     64  N   UNL     1      -6.225   6.832   4.536  1.00  0.00    -0.248 NA
ATOM     65  C   UNL     1      -5.480   8.669   5.775  1.00  0.00     0.031 C 
ATOM     66  C   UNL     1     -10.515   5.515   4.421  1.00  0.00     0.029 A 
ATOM     67  C   UNL     1      -9.188   5.923   4.458  1.00  0.00     0.049 A 
ATOM     68  H   UNL     1      -7.532   5.110   3.441  1.00  0.00     0.167 HD
ATOM     69  C   UNL     1      -7.300   7.373   5.224  1.00  0.00     0.074 A 
ATOM     70  C   UNL     1      -6.769   8.473   6.008  1.00  0.00     0.031 C 
ATOM     71  C   UNL     1      -8.607   7.008   5.209  1.00  0.00     0.037 A 
BRANCH  58  72
ATOM     72  C   UNL     1     -10.005   2.191   1.558  1.00  0.00     0.057 A 
ATOM     73  C   UNL     1     -10.011   0.814   1.829  1.00  0.00     0.134 A 
ATOM     74  C   UNL     1     -10.986   2.680   0.689  1.00  0.00     0.134 A 
ATOM     75  F   UNL     1      -9.077   0.272   2.626  1.00  0.00    -0.206 F 
ATOM     76  C   UNL     1     -10.940  -0.044   1.238  1.00  0.00     0.040 A 
ATOM     77  C   UNL     1     -11.940   1.837   0.118  1.00  0.00     0.040 A 
ATOM     78  F   UNL     1     -11.027   3.983   0.372  1.00  0.00    -0.206 F 
ATOM     79  C   UNL     1     -11.914   0.470   0.387  1.00  0.00     0.006 A 
ENDBRANCH  58  72
BRANCH  59  80
ATOM     80  C   UNL     1      -2.683   8.332   4.892  1.00  0.00     0.057 A 
ATOM     81  C   UNL     1      -2.312   8.386   6.242  1.00  0.00     0.134 A 
ATOM     82  C   UNL     1      -2.000   9.178   4.009  1.00  0.00     0.134 A 
ATOM     83  F   UNL     1      -2.925   7.604   7.143  1.00  0.00    -0.206 F 
ATOM     84  C   UNL     1      -1.331   9.270   6.699  1.00  0.00     0.040 A 
ATOM     85  C   UNL     1      -0.995  10.042   4.446  1.00  0.00     0.040 A 
ATOM     86  F   UNL     1      -2.288   9.164   2.699  1.00  0.00    -0.206 F 
ATOM     87  C   UNL     1      -0.667  10.100   5.799  1.00  0.00     0.006 A 
ENDBRANCH  59  80
BRANCH  71  88
ATOM     88  C   UNL     1      -9.526   7.802   6.086  1.00  0.00     0.057 A 
ATOM     89  C   UNL     1      -9.844   9.137   5.806  1.00  0.00     0.134 A 
ATOM     90  C   UNL     1     -10.117   7.211   7.208  1.00  0.00     0.134 A 
ATOM     91  F   UNL     1      -9.300   9.760   4.750  1.00  0.00    -0.206 F 
ATOM     92  C   UNL     1     -10.687   9.870   6.640  1.00  0.00     0.040 A 
ATOM     93  C   UNL     1     -10.994   7.921   8.025  1.00  0.00     0.040 A 
ATOM     94  F   UNL     1      -9.865   5.930   7.519  1.00  0.00    -0.206 F 
ATOM     95  C   UNL     1     -11.270   9.259   7.748  1.00  0.00     0.006 A 
ENDBRANCH  71  88
ENDBRANCH  45  46
ENDBRANCH  37  40
ENDBRANCH  35  36
ENDBRANCH  34  35
ENDBRANCH  33  34
ENDBRANCH  32  33
ENDBRANCH   1  32
TORSDOF 19
