REMARK SMILES Cc1c(Cl)ccc2c1C=C(C(=O)NCCCCCCNC(=O)c1ccc(-c3c4nc(c(-c5c(F)cccc5F)c5ccc([nH]5)c(-c5c(F)cccc5F)c5nc(c(-c6c(F)cccc6F)c6ccc3[nH]6)C=C5)C=C4)cc1)[C@@H](C(F)(F)F)O2
REMARK SMILES IDX 17 1 16 2 15 3 14 4 13 5 11 6 12 7 10 9 1 10 2 11 3 12 8 13
REMARK SMILES IDX 4 14 5 15 7 16 9 17 6 18 82 19 77 20 78 21 79 22 80 23 81 24
REMARK SMILES IDX 18 25 19 26 20 27 21 28 22 30 23 31 24 32 76 33 25 34 75 35
REMARK SMILES IDX 26 36 27 37 28 38 69 39 29 40 74 41 68 42 70 43 30 44 73 45
REMARK SMILES IDX 67 46 66 47 31 49 57 50 40 51 56 52 41 53 44 54 55 55 71 56
REMARK SMILES IDX 42 57 43 58 54 60 72 61 45 62 32 63 33 64 38 65 34 66 35 67
REMARK SMILES IDX 37 68 39 69 36 70 58 71 59 72 64 73 60 74 61 75 63 76 65 77
REMARK SMILES IDX 62 78 46 79 47 80 52 81 48 82 49 83 51 84 53 85 50 86
REMARK H PARENT 13 8 20 29 70 48 44 59
REMARK Flexibility Score: inf
ROOT
ATOM      1  C   UNL     1      -5.064   2.002   8.254  1.00  0.00     0.002 C 
ENDROOT
BRANCH   1   2
ATOM      2  C   UNL     1      -3.541   2.140   8.124  1.00  0.00     0.002 C 
BRANCH   2   3
ATOM      3  C   UNL     1      -2.819   0.942   7.498  1.00  0.00     0.021 C 
BRANCH   3   4
ATOM      4  C   UNL     1      -3.332   0.554   6.114  1.00  0.00     0.116 C 
BRANCH   4   5
ATOM      5  N   UNL     1      -2.771   1.397   5.077  1.00  0.00    -0.352 N 
ATOM      6  C   UNL     1      -2.037   1.232   3.954  1.00  0.00     0.251 C 
ATOM      7  O   UNL     1      -1.783   2.276   3.342  1.00  0.00    -0.270 OA
ATOM      8  H   UNL     1      -2.981   2.346   5.232  1.00  0.00     0.163 HD
BRANCH   6   9
ATOM      9  C   UNL     1      -1.540  -0.073   3.419  1.00  0.00     0.067 C 
ATOM     10  C   UNL     1       1.039   0.107  -0.132  1.00  0.00     0.047 C 
ATOM     11  C   UNL     1       0.677  -1.163   0.599  1.00  0.00    -0.021 A 
ATOM     12  C   UNL     1       1.155  -2.394   0.092  1.00  0.00     0.044 A 
ATOM     13  C   UNL     1      -0.122  -1.182   1.768  1.00  0.00     0.022 A 
ATOM     14  Cl  UNL     1       2.148  -2.475  -1.325  1.00  0.00    -0.084 Cl
ATOM     15  C   UNL     1       0.852  -3.605   0.717  1.00  0.00     0.024 A 
ATOM     16  C   UNL     1      -0.427  -2.413   2.368  1.00  0.00     0.128 A 
ATOM     17  C   UNL     1      -0.637   0.023   2.425  1.00  0.00     0.026 C 
ATOM     18  C   UNL     1       0.062  -3.613   1.857  1.00  0.00     0.048 A 
ATOM     19  O   UNL     1      -1.174  -2.538   3.503  1.00  0.00    -0.475 OA
ATOM     20  C   UNL     1      -2.013  -1.418   3.882  1.00  0.00     0.314 C 
BRANCH  20  21
ATOM     21  C   UNL     1      -3.467  -1.722   3.486  1.00  0.00     0.429 C 
ATOM     22  F   UNL     1      -3.938  -2.781   4.193  1.00  0.00    -0.167 F 
ATOM     23  F   UNL     1      -4.305  -0.693   3.744  1.00  0.00    -0.167 F 
ATOM     24  F   UNL     1      -3.596  -2.022   2.174  1.00  0.00    -0.167 F 
ENDBRANCH  20  21
ENDBRANCH   6   9
ENDBRANCH   4   5
ENDBRANCH   3   4
ENDBRANCH   2   3
ENDBRANCH   1   2
BRANCH   1  25
ATOM     25  C   UNL     1      -5.558   0.685   8.858  1.00  0.00     0.021 C 
BRANCH  25  26
ATOM     26  C   UNL     1      -4.997   0.371  10.239  1.00  0.00     0.116 C 
BRANCH  26  27
ATOM     27  N   UNL     1      -5.447   1.325  11.238  1.00  0.00    -0.352 N 
ATOM     28  C   UNL     1      -6.138   1.082  12.397  1.00  0.00     0.251 C 
ATOM     29  H   UNL     1      -5.226   2.268  11.060  1.00  0.00     0.163 HD
ATOM     30  O   UNL     1      -6.609   2.002  13.057  1.00  0.00    -0.269 OA
BRANCH  28  31
ATOM     31  C   UNL     1      -6.324  -0.314  12.836  1.00  0.00     0.039 A 
ATOM     32  C   UNL     1      -7.613  -0.773  13.112  1.00  0.00     0.014 A 
ATOM     33  C   UNL     1      -5.219  -1.164  12.956  1.00  0.00     0.014 A 
ATOM     34  C   UNL     1      -7.801  -2.106  13.476  1.00  0.00     0.010 A 
ATOM     35  C   UNL     1      -5.415  -2.506  13.266  1.00  0.00     0.010 A 
ATOM     36  C   UNL     1      -6.706  -2.982  13.543  1.00  0.00    -0.014 A 
BRANCH  36  37
ATOM     37  C   UNL     1      -6.889  -4.390  13.963  1.00  0.00     0.031 A 
ATOM     38  C   UNL     1      -6.388  -4.831  15.308  1.00  0.00     0.074 A 
ATOM     39  C   UNL     1      -7.469  -5.271  13.129  1.00  0.00     0.049 A 
ATOM     40  N   UNL     1      -6.448  -6.012  15.867  1.00  0.00    -0.248 NA
ATOM     41  C   UNL     1      -5.708  -3.812  16.123  1.00  0.00     0.031 C 
ATOM     42  C   UNL     1      -7.957  -4.970  11.782  1.00  0.00     0.029 A 
ATOM     43  N   UNL     1      -7.741  -6.604  13.293  1.00  0.00    -0.354 N 
ATOM     44  C   UNL     1      -5.820  -5.876  17.098  1.00  0.00     0.074 A 
ATOM     45  C   UNL     1      -5.328  -4.518  17.176  1.00  0.00     0.031 C 
ATOM     46  C   UNL     1      -8.485  -6.085  11.249  1.00  0.00     0.029 A 
ATOM     47  C   UNL     1      -8.357  -7.178  12.209  1.00  0.00     0.049 A 
ATOM     48  H   UNL     1      -7.516  -7.104  14.112  1.00  0.00     0.167 HD
ATOM     49  C   UNL     1      -5.691  -6.790  18.088  1.00  0.00     0.037 A 
ATOM     50  C   UNL     1      -8.775  -8.443  12.019  1.00  0.00     0.037 A 
ATOM     51  C   UNL     1      -6.184  -8.139  18.011  1.00  0.00     0.049 A 
ATOM     52  C   UNL     1      -8.598  -9.448  13.123  1.00  0.00     0.074 A 
ATOM     53  C   UNL     1      -6.147  -9.131  18.974  1.00  0.00     0.029 A 
ATOM     54  N   UNL     1      -6.801  -8.686  16.895  1.00  0.00    -0.354 N 
ATOM     55  N   UNL     1      -8.072  -9.287  14.314  1.00  0.00    -0.248 NA
ATOM     56  C   UNL     1      -9.085 -10.809  12.859  1.00  0.00     0.031 C 
ATOM     57  C   UNL     1      -6.709 -10.291  18.427  1.00  0.00     0.029 A 
ATOM     58  C   UNL     1      -7.130 -10.009  17.137  1.00  0.00     0.049 A 
ATOM     59  H   UNL     1      -6.978  -8.204  16.055  1.00  0.00     0.167 HD
ATOM     60  C   UNL     1      -8.186 -10.517  14.949  1.00  0.00     0.074 A 
ATOM     61  C   UNL     1      -8.847 -11.408  14.016  1.00  0.00     0.031 C 
ATOM     62  C   UNL     1      -7.782 -10.879  16.191  1.00  0.00     0.037 A 
BRANCH  49  63
ATOM     63  C   UNL     1      -4.987  -6.342  19.335  1.00  0.00     0.057 A 
ATOM     64  C   UNL     1      -3.706  -6.813  19.646  1.00  0.00     0.134 A 
ATOM     65  C   UNL     1      -5.572  -5.425  20.219  1.00  0.00     0.134 A 
ATOM     66  F   UNL     1      -3.089  -7.692  18.843  1.00  0.00    -0.206 F 
ATOM     67  C   UNL     1      -3.027  -6.378  20.786  1.00  0.00     0.040 A 
ATOM     68  C   UNL     1      -4.893  -4.964  21.348  1.00  0.00     0.040 A 
ATOM     69  F   UNL     1      -6.790  -4.922  19.968  1.00  0.00    -0.206 F 
ATOM     70  C   UNL     1      -3.617  -5.443  21.635  1.00  0.00     0.006 A 
ENDBRANCH  49  63
BRANCH  50  71
ATOM     71  C   UNL     1      -9.435  -8.828  10.748  1.00  0.00     0.057 A 
ATOM     72  C   UNL     1      -8.712  -8.959   9.557  1.00  0.00     0.134 A 
ATOM     73  C   UNL     1     -10.808  -9.097  10.704  1.00  0.00     0.134 A 
ATOM     74  F   UNL     1      -7.394  -8.710   9.535  1.00  0.00    -0.206 F 
ATOM     75  C   UNL     1      -9.330  -9.346   8.367  1.00  0.00     0.040 A 
ATOM     76  C   UNL     1     -11.435  -9.504   9.526  1.00  0.00     0.040 A 
ATOM     77  F   UNL     1     -11.549  -9.007  11.818  1.00  0.00    -0.206 F 
ATOM     78  C   UNL     1     -10.695  -9.627   8.352  1.00  0.00     0.006 A 
ENDBRANCH  50  71
BRANCH  62  79
ATOM     79  C   UNL     1      -8.065 -12.291  16.610  1.00  0.00     0.057 A 
ATOM     80  C   UNL     1      -9.059 -12.570  17.556  1.00  0.00     0.134 A 
ATOM     81  C   UNL     1      -7.349 -13.373  16.082  1.00  0.00     0.134 A 
ATOM     82  F   UNL     1      -9.776 -11.578  18.104  1.00  0.00    -0.206 F 
ATOM     83  C   UNL     1      -9.333 -13.877  17.960  1.00  0.00     0.040 A 
ATOM     84  C   UNL     1      -7.631 -14.687  16.460  1.00  0.00     0.040 A 
ATOM     85  F   UNL     1      -6.395 -13.173  15.160  1.00  0.00    -0.206 F 
ATOM     86  C   UNL     1      -8.623 -14.941  17.405  1.00  0.00     0.006 A 
ENDBRANCH  62  79
ENDBRANCH  36  37
ENDBRANCH  28  31
ENDBRANCH  26  27
ENDBRANCH  25  26
ENDBRANCH   1  25
TORSDOF 14
