REMARK SMILES O=C(/C=N\OCc1ccccc1)NCCCCCCNC(=O)c1ccc(-c2c3nc(c(-c4c(F)cccc4F)c4ccc([nH]4)c(-c4c(F)cccc4F)c4nc(c(-c5c(F)cccc5F)c5ccc2[nH]5)C=C4)C=C3)cc1
REMARK SMILES IDX 16 1 15 2 14 3 13 4 1 5 2 6 3 8 4 9 5 10 6 11 7 12 8 13
REMARK SMILES IDX 12 14 9 15 11 16 10 17 17 18 18 19 19 20 20 21 21 22 22 24
REMARK SMILES IDX 23 25 24 26 76 27 25 28 75 29 26 30 27 31 28 32 69 33 29 34
REMARK SMILES IDX 74 35 68 36 70 37 30 38 73 39 67 40 66 41 31 43 57 44 40 45
REMARK SMILES IDX 56 46 41 47 44 48 55 49 71 50 42 51 43 52 54 54 72 55 45 56
REMARK SMILES IDX 32 57 33 58 38 59 34 60 35 61 37 62 39 63 36 64 58 65 59 66
REMARK SMILES IDX 64 67 60 68 61 69 63 70 65 71 62 72 46 73 47 74 52 75 48 76
REMARK SMILES IDX 49 77 51 78 53 79 50 80
REMARK H PARENT 13 7 20 23 70 42 44 53
REMARK Flexibility Score: inf
ROOT
ATOM      1  C   UNL     1       4.236   0.739   3.609  1.00  0.00     0.002 C 
ENDROOT
BRANCH   1   2
ATOM      2  C   UNL     1       2.732   0.528   3.391  1.00  0.00     0.021 C 
BRANCH   2   3
ATOM      3  C   UNL     1       2.154   1.216   2.154  1.00  0.00     0.116 C 
BRANCH   3   4
ATOM      4  N   UNL     1       2.812   0.805   0.938  1.00  0.00    -0.351 N 
ATOM      5  O   UNL     1       1.151  -0.564   0.093  1.00  0.00    -0.268 OA
ATOM      6  C   UNL     1       2.259  -0.054   0.024  1.00  0.00     0.265 C 
ATOM      7  H   UNL     1       3.711   1.162   0.754  1.00  0.00     0.163 HD
BRANCH   6   8
ATOM      8  C   UNL     1       3.085  -0.300  -1.218  1.00  0.00     0.225 C 
ATOM      9  N   UNL     1       4.381  -0.307  -1.324  1.00  0.00    -0.089 NA
BRANCH   9  10
ATOM     10  O   UNL     1       5.034  -0.150  -0.090  1.00  0.00    -0.391 OA
BRANCH  10  11
ATOM     11  C   UNL     1       6.454  -0.245  -0.279  1.00  0.00     0.299 C 
BRANCH  11  12
ATOM     12  C   UNL     1       6.992  -1.631  -0.002  1.00  0.00    -0.008 A 
ATOM     13  C   UNL     1       6.266  -2.784  -0.336  1.00  0.00     0.007 A 
ATOM     14  C   UNL     1       8.283  -1.784   0.527  1.00  0.00     0.007 A 
ATOM     15  C   UNL     1       6.806  -4.054  -0.128  1.00  0.00     0.000 A 
ATOM     16  C   UNL     1       8.823  -3.055   0.735  1.00  0.00     0.000 A 
ATOM     17  C   UNL     1       8.084  -4.190   0.408  1.00  0.00     0.000 A 
ENDBRANCH  11  12
ENDBRANCH  10  11
ENDBRANCH   9  10
ENDBRANCH   6   8
ENDBRANCH   3   4
ENDBRANCH   2   3
ENDBRANCH   1   2
BRANCH   1  18
ATOM     18  C   UNL     1       4.708   2.195   3.652  1.00  0.00     0.002 C 
BRANCH  18  19
ATOM     19  C   UNL     1       4.034   3.078   4.705  1.00  0.00     0.021 C 
BRANCH  19  20
ATOM     20  C   UNL     1       4.167   2.595   6.146  1.00  0.00     0.116 C 
BRANCH  20  21
ATOM     21  N   UNL     1       5.546   2.560   6.603  1.00  0.00    -0.352 N 
ATOM     22  C   UNL     1       6.106   3.059   7.754  1.00  0.00     0.251 C 
ATOM     23  H   UNL     1       6.176   2.110   5.995  1.00  0.00     0.163 HD
ATOM     24  O   UNL     1       7.326   3.057   7.888  1.00  0.00    -0.269 OA
BRANCH  22  25
ATOM     25  C   UNL     1       5.253   3.626   8.824  1.00  0.00     0.039 A 
ATOM     26  C   UNL     1       5.669   4.801   9.458  1.00  0.00     0.014 A 
ATOM     27  C   UNL     1       4.068   3.002   9.225  1.00  0.00     0.014 A 
ATOM     28  C   UNL     1       4.869   5.381  10.445  1.00  0.00     0.010 A 
ATOM     29  C   UNL     1       3.236   3.619  10.159  1.00  0.00     0.010 A 
ATOM     30  C   UNL     1       3.628   4.814  10.781  1.00  0.00    -0.014 A 
BRANCH  30  31
ATOM     31  C   UNL     1       2.732   5.473  11.765  1.00  0.00     0.031 A 
ATOM     32  C   UNL     1       2.401   4.807  13.072  1.00  0.00     0.074 A 
ATOM     33  C   UNL     1       2.174   6.661  11.459  1.00  0.00     0.049 A 
ATOM     34  N   UNL     1       1.639   5.235  14.048  1.00  0.00    -0.248 NA
ATOM     35  C   UNL     1       2.980   3.476  13.302  1.00  0.00     0.031 C 
ATOM     36  C   UNL     1       2.369   7.388  10.203  1.00  0.00     0.029 A 
ATOM     37  N   UNL     1       1.329   7.466  12.181  1.00  0.00    -0.354 N 
ATOM     38  C   UNL     1       1.636   4.221  14.998  1.00  0.00     0.074 A 
ATOM     39  C   UNL     1       2.430   3.138  14.460  1.00  0.00     0.031 C 
ATOM     40  C   UNL     1       1.698   8.550  10.260  1.00  0.00     0.029 A 
ATOM     41  C   UNL     1       1.000   8.635  11.539  1.00  0.00     0.049 A 
ATOM     42  H   UNL     1       0.992   7.229  13.075  1.00  0.00     0.167 HD
ATOM     43  C   UNL     1       1.042   4.202  16.216  1.00  0.00     0.037 A 
ATOM     44  C   UNL     1       0.229   9.663  11.938  1.00  0.00     0.037 A 
ATOM     45  C   UNL     1       0.272   5.290  16.762  1.00  0.00     0.049 A 
ATOM     46  C   UNL     1      -0.416   9.619  13.294  1.00  0.00     0.074 A 
ATOM     47  C   UNL     1      -0.299   5.399  18.019  1.00  0.00     0.029 A 
ATOM     48  N   UNL     1      -0.043   6.455  16.079  1.00  0.00    -0.354 N 
ATOM     49  N   UNL     1      -0.339   8.693  14.218  1.00  0.00    -0.248 NA
ATOM     50  C   UNL     1      -1.252  10.770  13.664  1.00  0.00     0.031 C 
ATOM     51  C   UNL     1      -1.000   6.608  18.079  1.00  0.00     0.029 A 
ATOM     52  C   UNL     1      -0.826   7.276  16.877  1.00  0.00     0.049 A 
ATOM     53  H   UNL     1       0.247   6.669  15.163  1.00  0.00     0.167 HD
ATOM     54  C   UNL     1      -1.091   9.159  15.288  1.00  0.00     0.074 A 
ATOM     55  C   UNL     1      -1.603  10.458  14.903  1.00  0.00     0.031 C 
ATOM     56  C   UNL     1      -1.335   8.565  16.482  1.00  0.00     0.037 A 
BRANCH  43  57
ATOM     57  C   UNL     1       1.200   2.956  17.041  1.00  0.00     0.057 A 
ATOM     58  C   UNL     1       2.429   2.591  17.607  1.00  0.00     0.134 A 
ATOM     59  C   UNL     1       0.104   2.120  17.288  1.00  0.00     0.134 A 
ATOM     60  F   UNL     1       3.522   3.342  17.401  1.00  0.00    -0.206 F 
ATOM     61  C   UNL     1       2.570   1.424  18.360  1.00  0.00     0.040 A 
ATOM     62  C   UNL     1       0.225   0.965  18.062  1.00  0.00     0.040 A 
ATOM     63  F   UNL     1      -1.104   2.412  16.783  1.00  0.00    -0.206 F 
ATOM     64  C   UNL     1       1.463   0.609  18.594  1.00  0.00     0.006 A 
ENDBRANCH  43  57
BRANCH  44  65
ATOM     65  C   UNL     1       0.061  10.848  11.060  1.00  0.00     0.057 A 
ATOM     66  C   UNL     1       0.656  12.072  11.388  1.00  0.00     0.134 A 
ATOM     67  C   UNL     1      -0.693  10.791   9.882  1.00  0.00     0.134 A 
ATOM     68  F   UNL     1       1.375  12.192  12.514  1.00  0.00    -0.206 F 
ATOM     69  C   UNL     1       0.495  13.202  10.585  1.00  0.00     0.040 A 
ATOM     70  C   UNL     1      -0.843  11.908   9.058  1.00  0.00     0.040 A 
ATOM     71  F   UNL     1      -1.283   9.646   9.510  1.00  0.00    -0.206 F 
ATOM     72  C   UNL     1      -0.252  13.119   9.412  1.00  0.00     0.006 A 
ENDBRANCH  44  65
BRANCH  56  73
ATOM     73  C   UNL     1      -2.172   9.330  17.465  1.00  0.00     0.057 A 
ATOM     74  C   UNL     1      -3.547   9.521  17.276  1.00  0.00     0.134 A 
ATOM     75  C   UNL     1      -1.597   9.876  18.620  1.00  0.00     0.134 A 
ATOM     76  F   UNL     1      -4.157   9.037  16.183  1.00  0.00    -0.206 F 
ATOM     77  C   UNL     1      -4.313  10.255  18.184  1.00  0.00     0.040 A 
ATOM     78  C   UNL     1      -2.358  10.587  19.549  1.00  0.00     0.040 A 
ATOM     79  F   UNL     1      -0.287   9.723  18.866  1.00  0.00    -0.206 F 
ATOM     80  C   UNL     1      -3.719  10.786  19.327  1.00  0.00     0.006 A 
ENDBRANCH  56  73
ENDBRANCH  30  31
ENDBRANCH  22  25
ENDBRANCH  20  21
ENDBRANCH  19  20
ENDBRANCH  18  19
ENDBRANCH   1  18
TORSDOF 16
