REMARK SMILES C[NH2+]C[C@@H](C)C(=O)N1CC[NH+](CC(=O)NCCCCCCNC(=O)c2ccc(-c3c4nc(c(-c5c(F)cccc5F)c5ccc([nH]5)c(-c5c(F)cccc5F)c5nc(c(-c6c(F)cccc6F)c6ccc3[nH]6)C=C5)C=C4)cc2)CC1
REMARK SMILES IDX 17 1 16 2 15 3 13 4 14 5 12 7 11 8 6 9 7 10 8 11 9 12 80 13
REMARK SMILES IDX 10 14 79 15 4 17 5 18 3 19 2 20 1 21 18 24 19 25 20 26 21 27
REMARK SMILES IDX 22 28 23 29 24 31 25 32 26 33 78 34 27 35 77 36 28 37 29 38
REMARK SMILES IDX 30 39 71 40 31 41 76 42 70 43 72 44 32 45 75 46 69 47 68 48
REMARK SMILES IDX 33 50 59 51 42 52 58 53 43 54 46 55 57 56 73 57 44 58 45 59
REMARK SMILES IDX 56 61 74 62 47 63 34 64 35 65 40 66 36 67 37 68 39 69 41 70
REMARK SMILES IDX 38 71 60 72 61 73 66 74 62 75 63 76 65 77 67 78 64 79 48 80
REMARK SMILES IDX 49 81 54 82 50 83 51 84 53 85 55 86 52 87
REMARK H PARENT 15 6 11 16 2 22 2 23 22 30 72 49 46 60
REMARK Flexibility Score: inf
ROOT
ATOM      1  C   UNL     1      -2.838  -3.106  -3.254  1.00  0.00     0.021 C 
ENDROOT
BRANCH   1   2
ATOM      2  C   UNL     1      -4.201  -3.256  -3.950  1.00  0.00     0.116 C 
BRANCH   2   3
ATOM      3  N   UNL     1      -5.276  -2.484  -3.346  1.00  0.00    -0.351 N 
ATOM      4  C   UNL     1      -5.981  -1.391  -3.755  1.00  0.00     0.275 C 
ATOM      5  O   UNL     1      -6.870  -0.980  -3.003  1.00  0.00    -0.269 OA
ATOM      6  H   UNL     1      -5.551  -2.819  -2.462  1.00  0.00     0.163 HD
BRANCH   4   7
ATOM      7  C   UNL     1      -5.700  -0.700  -5.085  1.00  0.00     0.363 C 
BRANCH   7   8
ATOM      8  N   UNL     1      -4.888   0.527  -5.014  1.00  0.00    -0.324 N 
ATOM      9  C   UNL     1      -2.970   1.778  -1.301  1.00  0.00     0.231 C 
ATOM     10  O   UNL     1      -3.617   2.251  -0.363  1.00  0.00    -0.274 OA
ATOM     11  N   UNL     1      -3.592   1.381  -2.481  1.00  0.00    -0.331 N 
ATOM     12  C   UNL     1      -5.007   1.712  -2.706  1.00  0.00     0.181 C 
ATOM     13  C   UNL     1      -3.132   0.247  -3.249  1.00  0.00     0.181 C 
ATOM     14  C   UNL     1      -5.424   1.637  -4.203  1.00  0.00     0.284 C 
ATOM     15  C   UNL     1      -3.477   0.306  -4.734  1.00  0.00     0.284 C 
ATOM     16  H   UNL     1      -4.964   0.851  -5.979  1.00  0.00     0.348 HD
BRANCH   9  17
ATOM     17  C   UNL     1      -1.428   1.717  -1.200  1.00  0.00     0.130 C 
ATOM     18  C   UNL     1      -0.815   2.427  -2.413  1.00  0.00     0.024 C 
BRANCH  17  19
ATOM     19  C   UNL     1      -0.857   0.318  -0.886  1.00  0.00     0.273 C 
BRANCH  19  20
ATOM     20  N   UNL     1       0.607   0.181  -0.920  1.00  0.00    -0.348 N 
ATOM     21  C   UNL     1       1.223   0.472   0.366  1.00  0.00     0.330 C 
ATOM     22  H   UNL     1       0.841  -0.776  -1.185  1.00  0.00     0.346 HD
ATOM     23  H   UNL     1       0.966   0.856  -1.595  1.00  0.00     0.346 HD
ENDBRANCH  19  20
ENDBRANCH  17  19
ENDBRANCH   9  17
ENDBRANCH   7   8
ENDBRANCH   4   7
ENDBRANCH   2   3
ENDBRANCH   1   2
BRANCH   1  24
ATOM     24  C   UNL     1      -2.860  -3.141  -1.716  1.00  0.00     0.002 C 
BRANCH  24  25
ATOM     25  C   UNL     1      -2.349  -4.442  -1.094  1.00  0.00     0.002 C 
BRANCH  25  26
ATOM     26  C   UNL     1      -0.901  -4.806  -1.433  1.00  0.00     0.021 C 
BRANCH  26  27
ATOM     27  C   UNL     1       0.138  -3.761  -1.039  1.00  0.00     0.116 C 
BRANCH  27  28
ATOM     28  N   UNL     1       0.396  -3.766   0.393  1.00  0.00    -0.352 N 
ATOM     29  C   UNL     1       1.554  -4.107   1.047  1.00  0.00     0.251 C 
ATOM     30  H   UNL     1      -0.356  -3.491   0.966  1.00  0.00     0.163 HD
ATOM     31  O   UNL     1       1.564  -4.278   2.264  1.00  0.00    -0.269 OA
BRANCH  29  32
ATOM     32  C   UNL     1       2.796  -4.291   0.270  1.00  0.00     0.039 A 
ATOM     33  C   UNL     1       3.531  -5.468   0.426  1.00  0.00     0.014 A 
ATOM     34  C   UNL     1       3.219  -3.305  -0.627  1.00  0.00     0.014 A 
ATOM     35  C   UNL     1       4.665  -5.681  -0.360  1.00  0.00     0.010 A 
ATOM     36  C   UNL     1       4.312  -3.549  -1.456  1.00  0.00     0.010 A 
ATOM     37  C   UNL     1       5.049  -4.738  -1.329  1.00  0.00    -0.014 A 
BRANCH  37  38
ATOM     38  C   UNL     1       6.212  -4.988  -2.219  1.00  0.00     0.031 A 
ATOM     39  C   UNL     1       7.428  -4.106  -2.149  1.00  0.00     0.074 A 
ATOM     40  C   UNL     1       6.153  -5.977  -3.132  1.00  0.00     0.049 A 
ATOM     41  N   UNL     1       8.523  -4.150  -2.865  1.00  0.00    -0.248 NA
ATOM     42  C   UNL     1       7.397  -3.015  -1.164  1.00  0.00     0.031 C 
ATOM     43  C   UNL     1       5.011  -6.868  -3.339  1.00  0.00     0.029 A 
ATOM     44  N   UNL     1       7.070  -6.390  -4.066  1.00  0.00    -0.354 N 
ATOM     45  C   UNL     1       9.304  -3.088  -2.426  1.00  0.00     0.074 A 
ATOM     46  C   UNL     1       8.535  -2.388  -1.420  1.00  0.00     0.031 C 
ATOM     47  C   UNL     1       5.300  -7.731  -4.325  1.00  0.00     0.029 A 
ATOM     48  C   UNL     1       6.631  -7.433  -4.846  1.00  0.00     0.049 A 
ATOM     49  H   UNL     1       7.959  -5.979  -4.168  1.00  0.00     0.167 HD
ATOM     50  C   UNL     1      10.555  -2.739  -2.813  1.00  0.00     0.037 A 
ATOM     51  C   UNL     1       7.225  -8.070  -5.873  1.00  0.00     0.037 A 
ATOM     52  C   UNL     1      11.322  -3.447  -3.805  1.00  0.00     0.049 A 
ATOM     53  C   UNL     1       8.613  -7.665  -6.288  1.00  0.00     0.074 A 
ATOM     54  C   UNL     1      12.626  -3.220  -4.210  1.00  0.00     0.029 A 
ATOM     55  N   UNL     1      10.849  -4.510  -4.562  1.00  0.00    -0.354 N 
ATOM     56  N   UNL     1       9.377  -6.718  -5.801  1.00  0.00    -0.248 NA
ATOM     57  C   UNL     1       9.225  -8.424  -7.387  1.00  0.00     0.031 C 
ATOM     58  C   UNL     1      12.919  -4.101  -5.256  1.00  0.00     0.029 A 
ATOM     59  C   UNL     1      11.822  -4.922  -5.459  1.00  0.00     0.049 A 
ATOM     60  H   UNL     1       9.954  -4.911  -4.475  1.00  0.00     0.167 HD
ATOM     61  C   UNL     1      10.566  -6.779  -6.517  1.00  0.00     0.074 A 
ATOM     62  C   UNL     1      10.427  -7.870  -7.461  1.00  0.00     0.031 C 
ATOM     63  C   UNL     1      11.672  -6.004  -6.401  1.00  0.00     0.037 A 
BRANCH  50  64
ATOM     64  C   UNL     1      11.164  -1.524  -2.172  1.00  0.00     0.057 A 
ATOM     65  C   UNL     1      11.524  -1.496  -0.817  1.00  0.00     0.134 A 
ATOM     66  C   UNL     1      11.413  -0.370  -2.926  1.00  0.00     0.134 A 
ATOM     67  F   UNL     1      11.307  -2.563  -0.033  1.00  0.00    -0.206 F 
ATOM     68  C   UNL     1      12.073  -0.354  -0.229  1.00  0.00     0.040 A 
ATOM     69  C   UNL     1      11.991   0.766  -2.358  1.00  0.00     0.040 A 
ATOM     70  F   UNL     1      11.102  -0.328  -4.231  1.00  0.00    -0.206 F 
ATOM     71  C   UNL     1      12.313   0.780  -1.002  1.00  0.00     0.006 A 
ENDBRANCH  50  64
BRANCH  51  72
ATOM     72  C   UNL     1       6.506  -9.164  -6.573  1.00  0.00     0.057 A 
ATOM     73  C   UNL     1       6.911 -10.498  -6.450  1.00  0.00     0.134 A 
ATOM     74  C   UNL     1       5.385  -8.903  -7.371  1.00  0.00     0.134 A 
ATOM     75  F   UNL     1       7.989 -10.811  -5.715  1.00  0.00    -0.206 F 
ATOM     76  C   UNL     1       6.237 -11.531  -7.103  1.00  0.00     0.040 A 
ATOM     77  C   UNL     1       4.685  -9.928  -8.008  1.00  0.00     0.040 A 
ATOM     78  F   UNL     1       4.940  -7.647  -7.524  1.00  0.00    -0.206 F 
ATOM     79  C   UNL     1       5.115 -11.247  -7.879  1.00  0.00     0.006 A 
ENDBRANCH  51  72
BRANCH  63  80
ATOM     80  C   UNL     1      12.834  -6.320  -7.300  1.00  0.00     0.057 A 
ATOM     81  C   UNL     1      12.799  -6.066  -8.677  1.00  0.00     0.134 A 
ATOM     82  C   UNL     1      14.021  -6.845  -6.771  1.00  0.00     0.134 A 
ATOM     83  F   UNL     1      11.689  -5.575  -9.250  1.00  0.00    -0.206 F 
ATOM     84  C   UNL     1      13.892  -6.345  -9.499  1.00  0.00     0.040 A 
ATOM     85  C   UNL     1      15.131  -7.099  -7.578  1.00  0.00     0.040 A 
ATOM     86  F   UNL     1      14.128  -7.103  -5.459  1.00  0.00    -0.206 F 
ATOM     87  C   UNL     1      15.066  -6.855  -8.948  1.00  0.00     0.006 A 
ENDBRANCH  63  80
ENDBRANCH  37  38
ENDBRANCH  29  32
ENDBRANCH  27  28
ENDBRANCH  26  27
ENDBRANCH  25  26
ENDBRANCH  24  25
ENDBRANCH   1  24
TORSDOF 17
