REMARK SMILES O=C(Cn1c(=O)[nH]c2ccccc2c1=O)NC[C@H]1CC[C@@H](C(=O)N2CCC(C(=O)NCCCCCCNC(=O)c3ccc(-c4c5nc(c(-c6c(F)cccc6F)c6ccc([nH]6)c(-c6c(F)cccc6F)c6nc(c(-c7c(F)cccc7F)c7ccc4[nH]7)C=C6)C=C5)cc3)CC2)CC1
REMARK SMILES IDX 32 1 31 2 30 3 28 4 29 5 27 7 22 8 23 9 24 10 25 11 95 12
REMARK SMILES IDX 26 13 94 14 21 15 18 16 19 17 97 18 20 19 96 20 17 21 16 22
REMARK SMILES IDX 1 23 2 24 3 26 4 27 5 28 14 29 6 30 7 31 13 32 15 33 8 34
REMARK SMILES IDX 12 36 9 37 11 38 10 39 33 40 34 41 35 42 36 43 37 44 38 45
REMARK SMILES IDX 39 47 40 48 41 49 93 50 42 51 92 52 43 53 44 54 45 55 86 56
REMARK SMILES IDX 46 57 91 58 85 59 87 60 47 61 90 62 84 63 83 64 48 66 74 67
REMARK SMILES IDX 57 68 73 69 58 70 61 71 72 72 88 73 59 74 60 75 71 77 89 78
REMARK SMILES IDX 62 79 49 80 50 81 55 82 51 83 52 84 54 85 56 86 53 87 75 88
REMARK SMILES IDX 76 89 81 90 77 91 78 92 80 93 82 94 79 95 63 96 64 97 69 98
REMARK SMILES IDX 65 99 66 100 68 101 70 102 67 103
REMARK H PARENT 30 6 16 25 7 35 37 46 87 65 61 76
REMARK Flexibility Score: inf
ROOT
ATOM      1  C   UNL     1      -0.140  -5.779   9.119  1.00  0.00     0.021 C 
ENDROOT
BRANCH   1   2
ATOM      2  C   UNL     1      -0.731  -5.167   7.854  1.00  0.00     0.116 C 
BRANCH   2   3
ATOM      3  N   UNL     1      -1.057  -3.765   8.052  1.00  0.00    -0.356 N 
ATOM      4  C   UNL     1      -0.561  -2.647   7.454  1.00  0.00     0.223 C 
ATOM      5  O   UNL     1      -0.973  -1.550   7.835  1.00  0.00    -0.275 OA
ATOM      6  H   UNL     1      -1.751  -3.595   8.729  1.00  0.00     0.163 HD
BRANCH   4   7
ATOM      7  C   UNL     1       0.452  -2.746   6.327  1.00  0.00     0.082 C 
ATOM      8  C   UNL     1       2.620  -5.635   4.191  1.00  0.00     0.225 C 
ATOM      9  O   UNL     1       3.100  -6.424   5.014  1.00  0.00    -0.275 OA
ATOM     10  N   UNL     1       2.033  -4.464   4.628  1.00  0.00    -0.342 N 
ATOM     11  C   UNL     1       2.705  -3.705   5.673  1.00  0.00     0.120 C 
ATOM     12  C   UNL     1       0.836  -3.874   4.071  1.00  0.00     0.120 C 
ATOM     13  C   UNL     1       1.784  -3.326   6.814  1.00  0.00     0.035 C 
ATOM     14  C   UNL     1      -0.175  -3.451   5.120  1.00  0.00     0.035 C 
BRANCH   8  15
ATOM     15  C   UNL     1       2.950  -5.836   2.693  1.00  0.00     0.078 C 
ATOM     16  C   UNL     1       2.763  -3.322   1.027  1.00  0.00     0.008 C 
ATOM     17  C   UNL     1       3.872  -3.557   2.061  1.00  0.00     0.006 C 
ATOM     18  C   UNL     1       1.611  -4.344   1.030  1.00  0.00     0.006 C 
ATOM     19  C   UNL     1       4.188  -5.024   2.304  1.00  0.00     0.014 C 
ATOM     20  C   UNL     1       1.878  -5.729   1.616  1.00  0.00     0.014 C 
BRANCH  16  21
ATOM     21  C   UNL     1       2.186  -1.897   1.183  1.00  0.00     0.119 C 
BRANCH  21  22
ATOM     22  N   UNL     1       2.909  -0.930   0.400  1.00  0.00    -0.354 N 
ATOM     23  O   UNL     1       1.044   0.193  -0.333  1.00  0.00    -0.273 OA
ATOM     24  C   UNL     1       2.264   0.057  -0.320  1.00  0.00     0.240 C 
ATOM     25  H   UNL     1       3.893  -0.973   0.376  1.00  0.00     0.163 HD
BRANCH  24  26
ATOM     26  C   UNL     1       3.205   0.951  -1.119  1.00  0.00     0.230 C 
BRANCH  26  27
ATOM     27  N   UNL     1       3.898   1.893  -0.250  1.00  0.00    -0.250 N 
ATOM     28  C   UNL     1       4.996   1.436   0.455  1.00  0.00     0.329 A 
ATOM     29  C   UNL     1       3.419   3.199  -0.194  1.00  0.00     0.264 A 
ATOM     30  O   UNL     1       5.376   0.264   0.440  1.00  0.00    -0.248 OA
ATOM     31  N   UNL     1       5.667   2.345   1.217  1.00  0.00    -0.307 N 
ATOM     32  C   UNL     1       4.202   4.155   0.613  1.00  0.00     0.064 A 
ATOM     33  O   UNL     1       2.422   3.595  -0.789  1.00  0.00    -0.268 OA
ATOM     34  C   UNL     1       5.317   3.690   1.301  1.00  0.00     0.055 A 
ATOM     35  H   UNL     1       6.443   2.034   1.737  1.00  0.00     0.171 HD
ATOM     36  C   UNL     1       3.855   5.508   0.668  1.00  0.00     0.016 A 
ATOM     37  C   UNL     1       6.093   4.566   2.059  1.00  0.00     0.027 A 
ATOM     38  C   UNL     1       4.636   6.390   1.415  1.00  0.00     0.001 A 
ATOM     39  C   UNL     1       5.752   5.919   2.111  1.00  0.00     0.002 A 
ENDBRANCH  26  27
ENDBRANCH  24  26
ENDBRANCH  21  22
ENDBRANCH  16  21
ENDBRANCH   8  15
ENDBRANCH   4   7
ENDBRANCH   2   3
ENDBRANCH   1   2
BRANCH   1  40
ATOM     40  C   UNL     1      -1.148  -5.933  10.259  1.00  0.00     0.002 C 
BRANCH  40  41
ATOM     41  C   UNL     1      -2.403  -6.740   9.911  1.00  0.00     0.002 C 
BRANCH  41  42
ATOM     42  C   UNL     1      -2.139  -8.105   9.272  1.00  0.00     0.021 C 
BRANCH  42  43
ATOM     43  C   UNL     1      -1.213  -9.010  10.072  1.00  0.00     0.116 C 
BRANCH  43  44
ATOM     44  N   UNL     1      -1.768  -9.366  11.367  1.00  0.00    -0.352 N 
ATOM     45  C   UNL     1      -1.965 -10.617  11.903  1.00  0.00     0.251 C 
ATOM     46  H   UNL     1      -2.041  -8.611  11.936  1.00  0.00     0.163 HD
ATOM     47  O   UNL     1      -2.586 -10.765  12.945  1.00  0.00    -0.269 OA
BRANCH  45  48
ATOM     48  C   UNL     1      -1.440 -11.788  11.174  1.00  0.00     0.039 A 
ATOM     49  C   UNL     1      -0.113 -11.807  10.734  1.00  0.00     0.014 A 
ATOM     50  C   UNL     1      -2.303 -12.845  10.881  1.00  0.00     0.014 A 
ATOM     51  C   UNL     1       0.309 -12.816   9.876  1.00  0.00     0.010 A 
ATOM     52  C   UNL     1      -1.853 -13.895  10.078  1.00  0.00     0.010 A 
ATOM     53  C   UNL     1      -0.557 -13.867   9.537  1.00  0.00    -0.014 A 
BRANCH  53  54
ATOM     54  C   UNL     1      -0.099 -14.933   8.614  1.00  0.00     0.031 A 
ATOM     55  C   UNL     1      -0.734 -15.098   7.261  1.00  0.00     0.074 A 
ATOM     56  C   UNL     1       0.910 -15.739   8.992  1.00  0.00     0.049 A 
ATOM     57  N   UNL     1      -0.518 -16.017   6.354  1.00  0.00    -0.248 NA
ATOM     58  C   UNL     1      -1.746 -14.101   6.876  1.00  0.00     0.031 C 
ATOM     59  C   UNL     1       1.625 -15.657  10.267  1.00  0.00     0.029 A 
ATOM     60  N   UNL     1       1.515 -16.781   8.338  1.00  0.00    -0.354 N 
ATOM     61  C   UNL     1      -1.376 -15.722   5.302  1.00  0.00     0.074 A 
ATOM     62  C   UNL     1      -2.134 -14.551   5.691  1.00  0.00     0.031 C 
ATOM     63  C   UNL     1       2.589 -16.590  10.291  1.00  0.00     0.029 A 
ATOM     64  C   UNL     1       2.514 -17.377   9.066  1.00  0.00     0.049 A 
ATOM     65  H   UNL     1       1.257 -17.074   7.434  1.00  0.00     0.167 HD
ATOM     66  C   UNL     1      -1.511 -16.364   4.117  1.00  0.00     0.037 A 
ATOM     67  C   UNL     1       3.263 -18.461   8.793  1.00  0.00     0.037 A 
ATOM     68  C   UNL     1      -0.742 -17.518   3.728  1.00  0.00     0.049 A 
ATOM     69  C   UNL     1       3.028 -19.206   7.513  1.00  0.00     0.074 A 
ATOM     70  C   UNL     1      -0.782 -18.224   2.537  1.00  0.00     0.029 A 
ATOM     71  N   UNL     1       0.206 -18.139   4.528  1.00  0.00    -0.354 N 
ATOM     72  N   UNL     1       2.210 -18.921   6.529  1.00  0.00    -0.248 NA
ATOM     73  C   UNL     1       3.803 -20.438   7.317  1.00  0.00     0.031 C 
ATOM     74  C   UNL     1       0.113 -19.296   2.633  1.00  0.00     0.029 A 
ATOM     75  C   UNL     1       0.736 -19.237   3.869  1.00  0.00     0.049 A 
ATOM     76  H   UNL     1       0.465 -17.842   5.430  1.00  0.00     0.167 HD
ATOM     77  C   UNL     1       2.370 -19.937   5.598  1.00  0.00     0.074 A 
ATOM     78  C   UNL     1       3.385 -20.829   6.122  1.00  0.00     0.031 C 
ATOM     79  C   UNL     1       1.729 -20.122   4.419  1.00  0.00     0.037 A 
BRANCH  66  80
ATOM     80  C   UNL     1      -2.542 -15.844   3.159  1.00  0.00     0.057 A 
ATOM     81  C   UNL     1      -3.725 -16.557   2.927  1.00  0.00     0.134 A 
ATOM     82  C   UNL     1      -2.349 -14.660   2.435  1.00  0.00     0.134 A 
ATOM     83  F   UNL     1      -3.970 -17.701   3.584  1.00  0.00    -0.206 F 
ATOM     84  C   UNL     1      -4.678 -16.113   2.009  1.00  0.00     0.040 A 
ATOM     85  C   UNL     1      -3.304 -14.195   1.529  1.00  0.00     0.040 A 
ATOM     86  F   UNL     1      -1.243 -13.924   2.620  1.00  0.00    -0.206 F 
ATOM     87  C   UNL     1      -4.470 -14.926   1.310  1.00  0.00     0.006 A 
ENDBRANCH  66  80
BRANCH  67  88
ATOM     88  C   UNL     1       4.268 -18.935   9.775  1.00  0.00     0.057 A 
ATOM     89  C   UNL     1       3.883 -19.496  10.998  1.00  0.00     0.134 A 
ATOM     90  C   UNL     1       5.638 -18.848   9.505  1.00  0.00     0.134 A 
ATOM     91  F   UNL     1       2.584 -19.606  11.315  1.00  0.00    -0.206 F 
ATOM     92  C   UNL     1       4.825 -19.943  11.925  1.00  0.00     0.040 A 
ATOM     93  C   UNL     1       6.590 -19.314  10.412  1.00  0.00     0.040 A 
ATOM     94  F   UNL     1       6.065 -18.340   8.339  1.00  0.00    -0.206 F 
ATOM     95  C   UNL     1       6.183 -19.859  11.629  1.00  0.00     0.006 A 
ENDBRANCH  67  88
BRANCH  79  96
ATOM     96  C   UNL     1       2.108 -21.340   3.632  1.00  0.00     0.057 A 
ATOM     97  C   UNL     1       2.897 -21.235   2.480  1.00  0.00     0.134 A 
ATOM     98  C   UNL     1       1.685 -22.618   4.018  1.00  0.00     0.134 A 
ATOM     99  F   UNL     1       3.331 -20.039   2.057  1.00  0.00    -0.206 F 
ATOM    100  C   UNL     1       3.253 -22.362   1.739  1.00  0.00     0.040 A 
ATOM    101  C   UNL     1       2.053 -23.754   3.297  1.00  0.00     0.040 A 
ATOM    102  F   UNL     1       0.944 -22.783   5.124  1.00  0.00    -0.206 F 
ATOM    103  C   UNL     1       2.836 -23.627   2.151  1.00  0.00     0.006 A 
ENDBRANCH  79  96
ENDBRANCH  53  54
ENDBRANCH  45  48
ENDBRANCH  43  44
ENDBRANCH  42  43
ENDBRANCH  41  42
ENDBRANCH  40  41
ENDBRANCH   1  40
TORSDOF 18
