REMARK SMILES O=C(NCCCCCCNC(=O)[C@@H](CCCCO)c1cccc(Cl)c1)c1ccc(-c2c3nc(c(-c4c(F)cccc4F)c4ccc([nH]4)c(-c4c(F)cccc4F)c4nc(c(-c5c(F)cccc5F)c5ccc2[nH]5)C=C4)C=C3)cc1
REMARK SMILES IDX 8 1 7 2 6 3 5 4 4 5 3 6 1 7 2 8 26 10 27 11 79 12 28 13
REMARK SMILES IDX 78 14 29 15 30 16 31 17 72 18 32 19 77 20 71 21 73 22 33 23
REMARK SMILES IDX 76 24 70 25 69 26 34 28 60 29 43 30 59 31 44 32 47 33 58 34
REMARK SMILES IDX 74 35 45 36 46 37 57 39 75 40 48 41 35 42 36 43 41 44 37 45
REMARK SMILES IDX 38 46 40 47 42 48 39 49 61 50 62 51 67 52 63 53 64 54 66 55
REMARK SMILES IDX 68 56 65 57 49 58 50 59 55 60 51 61 52 62 54 63 56 64 53 65
REMARK SMILES IDX 9 66 10 67 11 68 12 70 13 71 14 72 15 73 16 74 17 75 18 76
REMARK SMILES IDX 19 78 20 79 25 80 21 81 23 82 22 83 24 84
REMARK H PARENT 3 9 73 27 47 38 10 69 18 77
REMARK Flexibility Score: inf
ROOT
ATOM      1  C   UNL     1       5.492   4.200  -1.841  1.00  0.00     0.021 C 
ENDROOT
BRANCH   1   2
ATOM      2  C   UNL     1       3.989   3.963  -1.998  1.00  0.00     0.002 C 
BRANCH   2   3
ATOM      3  C   UNL     1       3.598   2.701  -2.779  1.00  0.00     0.002 C 
BRANCH   3   4
ATOM      4  C   UNL     1       4.305   1.415  -2.349  1.00  0.00     0.021 C 
BRANCH   4   5
ATOM      5  C   UNL     1       4.171   1.083  -0.871  1.00  0.00     0.116 C 
BRANCH   5   6
ATOM      6  N   UNL     1       2.784   0.948  -0.461  1.00  0.00    -0.352 N 
ATOM      7  O   UNL     1       0.932  -0.140   0.229  1.00  0.00    -0.269 OA
ATOM      8  C   UNL     1       2.148  -0.124   0.118  1.00  0.00     0.251 C 
ATOM      9  H   UNL     1       2.217   1.737  -0.621  1.00  0.00     0.163 HD
BRANCH   8  10
ATOM     10  C   UNL     1       2.957  -1.264   0.598  1.00  0.00     0.039 A 
ATOM     11  C   UNL     1       4.133  -1.036   1.314  1.00  0.00     0.014 A 
ATOM     12  C   UNL     1       2.529  -2.568   0.336  1.00  0.00     0.014 A 
ATOM     13  C   UNL     1       4.953  -2.103   1.645  1.00  0.00     0.010 A 
ATOM     14  C   UNL     1       3.304  -3.648   0.766  1.00  0.00     0.010 A 
ATOM     15  C   UNL     1       4.530  -3.422   1.410  1.00  0.00    -0.014 A 
BRANCH  15  16
ATOM     16  C   UNL     1       5.349  -4.532   1.954  1.00  0.00     0.031 A 
ATOM     17  C   UNL     1       6.021  -5.531   1.058  1.00  0.00     0.074 A 
ATOM     18  C   UNL     1       5.517  -4.590   3.290  1.00  0.00     0.049 A 
ATOM     19  N   UNL     1       6.807  -6.526   1.385  1.00  0.00    -0.248 NA
ATOM     20  C   UNL     1       5.780  -5.407  -0.388  1.00  0.00     0.031 C 
ATOM     21  C   UNL     1       4.891  -3.680   4.256  1.00  0.00     0.029 A 
ATOM     22  N   UNL     1       6.279  -5.420   4.068  1.00  0.00    -0.354 N 
ATOM     23  C   UNL     1       7.149  -7.150   0.193  1.00  0.00     0.074 A 
ATOM     24  C   UNL     1       6.460  -6.441  -0.866  1.00  0.00     0.031 C 
ATOM     25  C   UNL     1       5.341  -3.962   5.485  1.00  0.00     0.029 A 
ATOM     26  C   UNL     1       6.225  -5.117   5.407  1.00  0.00     0.049 A 
ATOM     27  H   UNL     1       6.814  -6.162   3.703  1.00  0.00     0.167 HD
ATOM     28  C   UNL     1       7.970  -8.211   0.004  1.00  0.00     0.037 A 
ATOM     29  C   UNL     1       6.805  -5.715   6.462  1.00  0.00     0.037 A 
ATOM     30  C   UNL     1       8.652  -8.907   1.067  1.00  0.00     0.049 A 
ATOM     31  C   UNL     1       7.686  -6.904   6.218  1.00  0.00     0.074 A 
ATOM     32  C   UNL     1       9.515  -9.986   0.978  1.00  0.00     0.029 A 
ATOM     33  N   UNL     1       8.545  -8.594   2.415  1.00  0.00    -0.354 N 
ATOM     34  N   UNL     1       8.021  -7.465   5.082  1.00  0.00    -0.248 NA
ATOM     35  C   UNL     1       8.267  -7.546   7.404  1.00  0.00     0.031 C 
ATOM     36  C   UNL     1       9.896 -10.353   2.273  1.00  0.00     0.029 A 
ATOM     37  C   UNL     1       9.312  -9.471   3.167  1.00  0.00     0.049 A 
ATOM     38  H   UNL     1       8.005  -7.858   2.783  1.00  0.00     0.167 HD
ATOM     39  C   UNL     1       8.860  -8.519   5.413  1.00  0.00     0.074 A 
ATOM     40  C   UNL     1       9.010  -8.494   6.854  1.00  0.00     0.031 C 
ATOM     41  C   UNL     1       9.444  -9.433   4.601  1.00  0.00     0.037 A 
BRANCH  28  42
ATOM     42  C   UNL     1       8.178  -8.698  -1.402  1.00  0.00     0.057 A 
ATOM     43  C   UNL     1       8.948  -7.979  -2.325  1.00  0.00     0.134 A 
ATOM     44  C   UNL     1       7.664  -9.934  -1.814  1.00  0.00     0.134 A 
ATOM     45  F   UNL     1       9.459  -6.782  -1.999  1.00  0.00    -0.206 F 
ATOM     46  C   UNL     1       9.193  -8.469  -3.610  1.00  0.00     0.040 A 
ATOM     47  C   UNL     1       7.921 -10.445  -3.088  1.00  0.00     0.040 A 
ATOM     48  F   UNL     1       6.923 -10.678  -0.979  1.00  0.00    -0.206 F 
ATOM     49  C   UNL     1       8.687  -9.710  -3.991  1.00  0.00     0.006 A 
ENDBRANCH  28  42
BRANCH  29  50
ATOM     50  C   UNL     1       6.549  -5.217   7.836  1.00  0.00     0.057 A 
ATOM     51  C   UNL     1       7.567  -4.649   8.608  1.00  0.00     0.134 A 
ATOM     52  C   UNL     1       5.277  -5.311   8.416  1.00  0.00     0.134 A 
ATOM     53  F   UNL     1       8.810  -4.543   8.115  1.00  0.00    -0.206 F 
ATOM     54  C   UNL     1       7.338  -4.217   9.915  1.00  0.00     0.040 A 
ATOM     55  C   UNL     1       5.025  -4.852   9.708  1.00  0.00     0.040 A 
ATOM     56  F   UNL     1       4.254  -5.835   7.724  1.00  0.00    -0.206 F 
ATOM     57  C   UNL     1       6.062  -4.314  10.467  1.00  0.00     0.006 A 
ENDBRANCH  29  50
BRANCH  41  58
ATOM     58  C   UNL     1      10.313 -10.460   5.264  1.00  0.00     0.057 A 
ATOM     59  C   UNL     1       9.775 -11.480   6.059  1.00  0.00     0.134 A 
ATOM     60  C   UNL     1      11.705 -10.426   5.109  1.00  0.00     0.134 A 
ATOM     61  F   UNL     1       8.451 -11.558   6.261  1.00  0.00    -0.206 F 
ATOM     62  C   UNL     1      10.592 -12.408   6.707  1.00  0.00     0.040 A 
ATOM     63  C   UNL     1      12.530 -11.366   5.727  1.00  0.00     0.040 A 
ATOM     64  F   UNL     1      12.284  -9.480   4.354  1.00  0.00    -0.206 F 
ATOM     65  C   UNL     1      11.974 -12.354   6.537  1.00  0.00     0.006 A 
ENDBRANCH  41  58
ENDBRANCH  15  16
ENDBRANCH   8  10
ENDBRANCH   5   6
ENDBRANCH   4   5
ENDBRANCH   3   4
ENDBRANCH   2   3
ENDBRANCH   1   2
BRANCH   1  66
ATOM     66  C   UNL     1       6.255   4.203  -3.155  1.00  0.00     0.116 C 
BRANCH  66  67
ATOM     67  N   UNL     1       6.344   5.502  -3.756  1.00  0.00    -0.356 N 
ATOM     68  C   UNL     1       7.375   6.073  -4.428  1.00  0.00     0.227 C 
ATOM     69  H   UNL     1       5.539   6.062  -3.668  1.00  0.00     0.163 HD
ATOM     70  O   UNL     1       7.108   7.118  -5.035  1.00  0.00    -0.274 OA
BRANCH  68  71
ATOM     71  C   UNL     1       8.815   5.526  -4.434  1.00  0.00     0.108 C 
BRANCH  71  72
ATOM     72  C   UNL     1       9.625   5.615  -3.111  1.00  0.00     0.018 C 
BRANCH  72  73
ATOM     73  C   UNL     1       9.367   4.727  -1.886  1.00  0.00     0.004 C 
BRANCH  73  74
ATOM     74  C   UNL     1       9.660   3.229  -2.017  1.00  0.00     0.028 C 
BRANCH  74  75
ATOM     75  C   UNL     1      11.139   2.883  -2.139  1.00  0.00     0.156 C 
BRANCH  75  76
ATOM     76  O   UNL     1      11.734   2.819  -0.850  1.00  0.00    -0.396 OA
ATOM     77  H   UNL     1      11.649   3.679  -0.411  1.00  0.00     0.210 HD
ENDBRANCH  75  76
ENDBRANCH  74  75
ENDBRANCH  73  74
ENDBRANCH  72  73
ENDBRANCH  71  72
BRANCH  71  78
ATOM     78  C   UNL     1       9.136   4.391  -5.410  1.00  0.00    -0.034 A 
ATOM     79  C   UNL     1       8.572   3.110  -5.366  1.00  0.00     0.004 A 
ATOM     80  C   UNL     1      10.077   4.632  -6.434  1.00  0.00     0.025 A 
ATOM     81  C   UNL     1       8.961   2.099  -6.254  1.00  0.00     0.002 A 
ATOM     82  C   UNL     1      10.447   3.632  -7.338  1.00  0.00     0.041 A 
ATOM     83  C   UNL     1       9.903   2.358  -7.241  1.00  0.00     0.020 A 
ATOM     84  Cl  UNL     1      11.588   3.978  -8.578  1.00  0.00    -0.084 Cl
ENDBRANCH  71  78
ENDBRANCH  68  71
ENDBRANCH  66  67
ENDBRANCH   1  66
TORSDOF 19
