REMARK SMILES C[NH2+][C@@]1(C(=O)NCCCCCCNC(=O)c2ccc(-c3c4nc(c(-c5c(F)cccc5F)c5ccc([nH]5)c(-c5c(F)cccc5F)c5nc(c(-c6c(F)cccc6F)c6ccc3[nH]6)C=C5)C=C4)cc2)CCC[C@H]1CCSc1nccc(=O)[nH]1
REMARK SMILES IDX 8 1 7 2 6 3 4 4 5 5 3 7 70 8 73 9 71 10 72 11 2 12 1 13
REMARK SMILES IDX 74 16 75 17 76 18 77 19 78 20 83 21 79 22 81 23 80 25 82 26
REMARK SMILES IDX 9 27 10 28 11 29 12 30 13 31 14 32 15 34 16 35 17 36 69 37
REMARK SMILES IDX 18 38 68 39 19 40 20 41 21 42 62 43 22 44 67 45 61 46 63 47
REMARK SMILES IDX 23 48 66 49 60 50 59 51 24 53 50 54 33 55 49 56 34 57 37 58
REMARK SMILES IDX 48 59 64 60 35 61 36 62 47 64 65 65 38 66 25 67 26 68 31 69
REMARK SMILES IDX 27 70 28 71 30 72 32 73 29 74 51 75 52 76 57 77 53 78 54 79
REMARK SMILES IDX 56 80 58 81 55 82 39 83 40 84 45 85 41 86 42 87 44 88 46 89
REMARK SMILES IDX 43 90
REMARK H PARENT 6 6 2 14 2 15 83 24 13 33 63 52 37 63
REMARK Flexibility Score: inf
ROOT
ATOM      1  C   UNL     1      -4.677  -0.402   0.594  1.00  0.00     0.021 C 
ENDROOT
BRANCH   1   2
ATOM      2  C   UNL     1      -3.998   0.813  -0.019  1.00  0.00     0.116 C 
BRANCH   2   3
ATOM      3  N   UNL     1      -2.776   1.219   0.625  1.00  0.00    -0.351 N 
ATOM      4  C   UNL     1      -1.583   1.627   0.114  1.00  0.00     0.281 C 
ATOM      5  O   UNL     1      -0.987   2.422   0.860  1.00  0.00    -0.268 OA
ATOM      6  H   UNL     1      -2.810   1.197   1.609  1.00  0.00     0.163 HD
BRANCH   4   7
ATOM      7  C   UNL     1      -0.973   1.243  -1.314  1.00  0.00     0.178 C 
ATOM      8  C   UNL     1      -1.424   2.352  -2.307  1.00  0.00     0.079 C 
ATOM      9  C   UNL     1      -1.474  -0.079  -2.008  1.00  0.00     0.061 C 
ATOM     10  C   UNL     1      -2.715   1.887  -2.938  1.00  0.00     0.008 C 
ATOM     11  C   UNL     1      -2.556   0.382  -3.048  1.00  0.00     0.011 C 
BRANCH   7  12
ATOM     12  N   UNL     1       0.520   1.429  -1.270  1.00  0.00    -0.336 N 
ATOM     13  C   UNL     1       1.257   0.872  -0.139  1.00  0.00     0.331 C 
ATOM     14  H   UNL     1       0.902   1.007  -2.116  1.00  0.00     0.346 HD
ATOM     15  H   UNL     1       0.644   2.438  -1.176  1.00  0.00     0.346 HD
ENDBRANCH   7  12
BRANCH   9  16
ATOM     16  C   UNL     1      -0.486  -0.933  -2.847  1.00  0.00     0.022 C 
BRANCH  16  17
ATOM     17  C   UNL     1       0.544  -1.855  -2.197  1.00  0.00     0.079 C 
BRANCH  17  18
ATOM     18  S   UNL     1      -0.109  -3.349  -1.402  1.00  0.00    -0.088 SA
BRANCH  18  19
ATOM     19  C   UNL     1      -0.706  -2.815   0.132  1.00  0.00     0.168 A 
ATOM     20  N   UNL     1      -0.448  -1.676   0.672  1.00  0.00    -0.233 NA
ATOM     21  N   UNL     1      -1.503  -3.758   0.702  1.00  0.00    -0.301 N 
ATOM     22  C   UNL     1      -1.036  -1.419   1.884  1.00  0.00     0.120 A 
ATOM     23  C   UNL     1      -2.143  -3.544   1.881  1.00  0.00     0.251 A 
ATOM     24  H   UNL     1      -1.620  -4.622   0.246  1.00  0.00     0.172 HD
ATOM     25  C   UNL     1      -1.865  -2.251   2.521  1.00  0.00     0.091 A 
ATOM     26  O   UNL     1      -2.921  -4.351   2.381  1.00  0.00    -0.269 OA
ENDBRANCH  18  19
ENDBRANCH  17  18
ENDBRANCH  16  17
ENDBRANCH   9  16
ENDBRANCH   4   7
ENDBRANCH   2   3
ENDBRANCH   1   2
BRANCH   1  27
ATOM     27  C   UNL     1      -5.364  -0.164   1.937  1.00  0.00     0.002 C 
BRANCH  27  28
ATOM     28  C   UNL     1      -6.334   1.022   1.984  1.00  0.00     0.002 C 
BRANCH  28  29
ATOM     29  C   UNL     1      -7.381   1.076   0.867  1.00  0.00     0.021 C 
BRANCH  29  30
ATOM     30  C   UNL     1      -8.272  -0.156   0.755  1.00  0.00     0.116 C 
BRANCH  30  31
ATOM     31  N   UNL     1      -9.042  -0.385   1.966  1.00  0.00    -0.352 N 
ATOM     32  C   UNL     1     -10.400  -0.461   2.138  1.00  0.00     0.251 C 
ATOM     33  H   UNL     1      -8.508  -0.503   2.785  1.00  0.00     0.163 HD
ATOM     34  O   UNL     1     -10.878  -0.445   3.268  1.00  0.00    -0.269 OA
BRANCH  32  35
ATOM     35  C   UNL     1     -11.293  -0.548   0.963  1.00  0.00     0.039 A 
ATOM     36  C   UNL     1     -12.466   0.211   0.949  1.00  0.00     0.014 A 
ATOM     37  C   UNL     1     -10.990  -1.391  -0.111  1.00  0.00     0.014 A 
ATOM     38  C   UNL     1     -13.307   0.166  -0.164  1.00  0.00     0.010 A 
ATOM     39  C   UNL     1     -11.789  -1.376  -1.251  1.00  0.00     0.010 A 
ATOM     40  C   UNL     1     -12.959  -0.603  -1.286  1.00  0.00    -0.014 A 
BRANCH  40  41
ATOM     41  C   UNL     1     -13.809  -0.611  -2.504  1.00  0.00     0.031 A 
ATOM     42  C   UNL     1     -14.473  -1.882  -2.957  1.00  0.00     0.074 A 
ATOM     43  C   UNL     1     -13.932   0.513  -3.236  1.00  0.00     0.049 A 
ATOM     44  N   UNL     1     -15.200  -2.100  -4.023  1.00  0.00    -0.248 NA
ATOM     45  C   UNL     1     -14.271  -3.071  -2.115  1.00  0.00     0.031 C 
ATOM     46  C   UNL     1     -13.299   1.797  -2.927  1.00  0.00     0.029 A 
ATOM     47  N   UNL     1     -14.624   0.755  -4.396  1.00  0.00    -0.354 N 
ATOM     48  C   UNL     1     -15.531  -3.449  -3.986  1.00  0.00     0.074 A 
ATOM     49  C   UNL     1     -14.878  -4.012  -2.824  1.00  0.00     0.031 C 
ATOM     50  C   UNL     1     -13.649   2.695  -3.861  1.00  0.00     0.029 A 
ATOM     51  C   UNL     1     -14.494   2.043  -4.856  1.00  0.00     0.049 A 
ATOM     52  H   UNL     1     -15.162   0.070  -4.855  1.00  0.00     0.167 HD
ATOM     53  C   UNL     1     -16.325  -4.151  -4.830  1.00  0.00     0.037 A 
ATOM     54  C   UNL     1     -14.992   2.630  -5.960  1.00  0.00     0.037 A 
ATOM     55  C   UNL     1     -16.986  -3.582  -5.976  1.00  0.00     0.049 A 
ATOM     56  C   UNL     1     -15.859   1.827  -6.890  1.00  0.00     0.074 A 
ATOM     57  C   UNL     1     -17.859  -4.194  -6.859  1.00  0.00     0.029 A 
ATOM     58  N   UNL     1     -16.841  -2.270  -6.402  1.00  0.00    -0.354 N 
ATOM     59  N   UNL     1     -16.224   0.570  -6.803  1.00  0.00    -0.248 NA
ATOM     60  C   UNL     1     -16.390   2.525  -8.069  1.00  0.00     0.031 C 
ATOM     61  C   UNL     1     -18.198  -3.267  -7.850  1.00  0.00     0.029 A 
ATOM     62  C   UNL     1     -17.585  -2.061  -7.551  1.00  0.00     0.049 A 
ATOM     63  H   UNL     1     -16.290  -1.588  -5.953  1.00  0.00     0.167 HD
ATOM     64  C   UNL     1     -17.048   0.336  -7.896  1.00  0.00     0.074 A 
ATOM     65  C   UNL     1     -17.142   1.584  -8.623  1.00  0.00     0.031 C 
ATOM     66  C   UNL     1     -17.672  -0.811  -8.263  1.00  0.00     0.037 A 
BRANCH  53  67
ATOM     67  C   UNL     1     -16.518  -5.613  -4.546  1.00  0.00     0.057 A 
ATOM     68  C   UNL     1     -17.241  -6.064  -3.433  1.00  0.00     0.134 A 
ATOM     69  C   UNL     1     -16.001  -6.584  -5.414  1.00  0.00     0.134 A 
ATOM     70  F   UNL     1     -17.755  -5.189  -2.556  1.00  0.00    -0.206 F 
ATOM     71  C   UNL     1     -17.415  -7.425  -3.176  1.00  0.00     0.040 A 
ATOM     72  C   UNL     1     -16.195  -7.948  -5.184  1.00  0.00     0.040 A 
ATOM     73  F   UNL     1     -15.305  -6.225  -6.503  1.00  0.00    -0.206 F 
ATOM     74  C   UNL     1     -16.897  -8.372  -4.058  1.00  0.00     0.006 A 
ENDBRANCH  53  67
BRANCH  54  75
ATOM     75  C   UNL     1     -14.696   4.058  -6.241  1.00  0.00     0.057 A 
ATOM     76  C   UNL     1     -15.697   5.034  -6.168  1.00  0.00     0.134 A 
ATOM     77  C   UNL     1     -13.409   4.482  -6.594  1.00  0.00     0.134 A 
ATOM     78  F   UNL     1     -16.953   4.688  -5.851  1.00  0.00    -0.206 F 
ATOM     79  C   UNL     1     -15.435   6.374  -6.457  1.00  0.00     0.040 A 
ATOM     80  C   UNL     1     -13.126   5.823  -6.859  1.00  0.00     0.040 A 
ATOM     81  F   UNL     1     -12.402   3.599  -6.673  1.00  0.00    -0.206 F 
ATOM     82  C   UNL     1     -14.144   6.772  -6.798  1.00  0.00     0.006 A 
ENDBRANCH  54  75
BRANCH  66  83
ATOM     83  C   UNL     1     -18.541  -0.759  -9.487  1.00  0.00     0.057 A 
ATOM     84  C   UNL     1     -18.004  -0.641 -10.775  1.00  0.00     0.134 A 
ATOM     85  C   UNL     1     -19.933  -0.867  -9.375  1.00  0.00     0.134 A 
ATOM     86  F   UNL     1     -16.679  -0.520 -10.951  1.00  0.00    -0.206 F 
ATOM     87  C   UNL     1     -18.822  -0.608 -11.906  1.00  0.00     0.040 A 
ATOM     88  C   UNL     1     -20.759  -0.866 -10.500  1.00  0.00     0.040 A 
ATOM     89  F   UNL     1     -20.513  -0.992  -8.172  1.00  0.00    -0.206 F 
ATOM     90  C   UNL     1     -20.203  -0.729 -11.770  1.00  0.00     0.006 A 
ENDBRANCH  66  83
ENDBRANCH  40  41
ENDBRANCH  32  35
ENDBRANCH  30  31
ENDBRANCH  29  30
ENDBRANCH  28  29
ENDBRANCH  27  28
ENDBRANCH   1  27
TORSDOF 18
