REMARK SMILES CCN(C=O)[C@](C)(C(=O)NCCCCCCNC(=O)c1ccc(-c2c3nc(c(-c4c(F)cccc4F)c4ccc([nH]4)c(-c4c(F)cccc4F)c4nc(c(-c5c(F)cccc5F)c5ccc2[nH]5)C=C4)C=C3)cc1)c1cc(F)c(C)cc1F
REMARK SMILES IDX 13 1 12 2 11 3 10 4 8 5 9 6 6 8 7 9 3 10 2 11 1 12 4 13 5 14
REMARK SMILES IDX 74 15 75 16 81 17 76 18 80 19 82 20 77 21 78 22 79 23 14 24
REMARK SMILES IDX 15 25 16 26 17 27 18 28 19 30 20 31 21 32 73 33 22 34 72 35
REMARK SMILES IDX 23 36 24 37 25 38 66 39 26 40 71 41 65 42 67 43 27 44 70 45
REMARK SMILES IDX 64 46 63 47 28 49 54 50 37 51 53 52 38 53 41 54 52 55 68 56
REMARK SMILES IDX 39 57 40 58 51 60 69 61 42 62 29 63 30 64 35 65 31 66 32 67
REMARK SMILES IDX 34 68 36 69 33 70 55 71 56 72 61 73 57 74 58 75 60 76 62 77
REMARK SMILES IDX 59 78 43 79 44 80 49 81 45 82 46 83 48 84 50 85 47 86
REMARK H PARENT 10 7 17 29 67 48 41 59
REMARK Flexibility Score: inf
ROOT
ATOM      1  C   UNL     1       1.708  -2.558  -0.215  1.00  0.00     0.002 C 
ENDROOT
BRANCH   1   2
ATOM      2  C   UNL     1       1.173  -1.267   0.419  1.00  0.00     0.021 C 
BRANCH   2   3
ATOM      3  C   UNL     1       2.272  -0.246   0.725  1.00  0.00     0.116 C 
BRANCH   3   4
ATOM      4  N   UNL     1       2.770   0.304  -0.520  1.00  0.00    -0.354 N 
ATOM      5  C   UNL     1       2.741   1.577  -1.021  1.00  0.00     0.250 C 
ATOM      6  O   UNL     1       2.951   1.667  -2.237  1.00  0.00    -0.272 OA
ATOM      7  H   UNL     1       3.205  -0.354  -1.108  1.00  0.00     0.163 HD
BRANCH   5   8
ATOM      8  C   UNL     1       2.290   2.821  -0.135  1.00  0.00     0.147 C 
ATOM      9  C   UNL     1       0.754   2.557   0.015  1.00  0.00     0.051 C 
BRANCH   8  10
ATOM     10  N   UNL     1       2.987   2.861   1.211  1.00  0.00    -0.327 N 
BRANCH  10  11
ATOM     11  C   UNL     1       2.591   3.841   2.231  1.00  0.00     0.117 C 
ATOM     12  C   UNL     1       3.450   5.110   2.212  1.00  0.00     0.027 C 
ENDBRANCH  10  11
BRANCH  10  13
ATOM     13  C   UNL     1       4.273   2.348   1.375  1.00  0.00     0.341 C 
ATOM     14  O   UNL     1       4.971   1.791   0.539  1.00  0.00    -0.279 OA
ENDBRANCH  10  13
ENDBRANCH   8  10
BRANCH   8  15
ATOM     15  C   UNL     1       2.524   4.167  -0.863  1.00  0.00     0.026 A 
ATOM     16  C   UNL     1       3.700   4.412  -1.595  1.00  0.00     0.049 A 
ATOM     17  C   UNL     1       1.604   5.229  -0.776  1.00  0.00     0.129 A 
ATOM     18  C   UNL     1       3.904   5.639  -2.232  1.00  0.00     0.126 A 
ATOM     19  C   UNL     1       1.814   6.457  -1.400  1.00  0.00     0.046 A 
ATOM     20  F   UNL     1       0.499   5.130  -0.026  1.00  0.00    -0.207 F 
ATOM     21  F   UNL     1       5.026   5.822  -2.942  1.00  0.00    -0.207 F 
ATOM     22  C   UNL     1       2.975   6.676  -2.136  1.00  0.00    -0.012 A 
ATOM     23  C   UNL     1       3.212   7.988  -2.814  1.00  0.00     0.047 C 
ENDBRANCH   8  15
ENDBRANCH   5   8
ENDBRANCH   3   4
ENDBRANCH   2   3
ENDBRANCH   1   2
BRANCH   1  24
ATOM     24  C   UNL     1       2.721  -3.312   0.652  1.00  0.00     0.002 C 
BRANCH  24  25
ATOM     25  C   UNL     1       2.225  -3.643   2.061  1.00  0.00     0.021 C 
BRANCH  25  26
ATOM     26  C   UNL     1       0.935  -4.454   2.088  1.00  0.00     0.116 C 
BRANCH  26  27
ATOM     27  N   UNL     1       1.097  -5.748   1.445  1.00  0.00    -0.352 N 
ATOM     28  C   UNL     1       0.805  -6.995   1.933  1.00  0.00     0.251 C 
ATOM     29  H   UNL     1       1.468  -5.725   0.533  1.00  0.00     0.163 HD
ATOM     30  O   UNL     1       1.199  -8.001   1.353  1.00  0.00    -0.269 OA
BRANCH  28  31
ATOM     31  C   UNL     1       0.024  -7.116   3.179  1.00  0.00     0.039 A 
ATOM     32  C   UNL     1       0.454  -8.008   4.163  1.00  0.00     0.014 A 
ATOM     33  C   UNL     1      -1.125  -6.343   3.376  1.00  0.00     0.014 A 
ATOM     34  C   UNL     1      -0.241  -8.087   5.369  1.00  0.00     0.010 A 
ATOM     35  C   UNL     1      -1.769  -6.366   4.608  1.00  0.00     0.010 A 
ATOM     36  C   UNL     1      -1.338  -7.244   5.614  1.00  0.00    -0.014 A 
BRANCH  36  37
ATOM     37  C   UNL     1      -2.049  -7.270   6.916  1.00  0.00     0.031 A 
ATOM     38  C   UNL     1      -3.493  -7.683   6.979  1.00  0.00     0.074 A 
ATOM     39  C   UNL     1      -1.409  -6.868   8.031  1.00  0.00     0.049 A 
ATOM     40  N   UNL     1      -4.299  -7.715   8.010  1.00  0.00    -0.248 NA
ATOM     41  C   UNL     1      -4.125  -8.087   5.712  1.00  0.00     0.031 C 
ATOM     42  C   UNL     1      -0.022  -6.401   8.089  1.00  0.00     0.029 A 
ATOM     43  N   UNL     1      -1.843  -6.779   9.329  1.00  0.00    -0.354 N 
ATOM     44  C   UNL     1      -5.529  -8.130   7.515  1.00  0.00     0.074 A 
ATOM     45  C   UNL     1      -5.380  -8.282   6.085  1.00  0.00     0.031 C 
ATOM     46  C   UNL     1       0.287  -6.099   9.360  1.00  0.00     0.029 A 
ATOM     47  C   UNL     1      -0.889  -6.309  10.198  1.00  0.00     0.049 A 
ATOM     48  H   UNL     1      -2.753  -7.029   9.611  1.00  0.00     0.167 HD
ATOM     49  C   UNL     1      -6.671  -8.384   8.196  1.00  0.00     0.037 A 
ATOM     50  C   UNL     1      -0.958  -6.065  11.521  1.00  0.00     0.037 A 
ATOM     51  C   UNL     1      -6.807  -8.251   9.623  1.00  0.00     0.049 A 
ATOM     52  C   UNL     1      -2.244  -6.343  12.250  1.00  0.00     0.074 A 
ATOM     53  C   UNL     1      -7.905  -8.541  10.414  1.00  0.00     0.029 A 
ATOM     54  N   UNL     1      -5.815  -7.783  10.471  1.00  0.00    -0.354 N 
ATOM     55  N   UNL     1      -3.378  -6.804  11.781  1.00  0.00    -0.248 NA
ATOM     56  C   UNL     1      -2.258  -6.071  13.694  1.00  0.00     0.031 C 
ATOM     57  C   UNL     1      -7.595  -8.197  11.733  1.00  0.00     0.029 A 
ATOM     58  C   UNL     1      -6.284  -7.750  11.774  1.00  0.00     0.049 A 
ATOM     59  H   UNL     1      -4.910  -7.514  10.189  1.00  0.00     0.167 HD
ATOM     60  C   UNL     1      -4.228  -6.908  12.875  1.00  0.00     0.074 A 
ATOM     61  C   UNL     1      -3.474  -6.476  14.033  1.00  0.00     0.031 C 
ATOM     62  C   UNL     1      -5.518  -7.324  12.917  1.00  0.00     0.037 A 
BRANCH  49  63
ATOM     63  C   UNL     1      -7.867  -8.832   7.405  1.00  0.00     0.057 A 
ATOM     64  C   UNL     1      -7.922 -10.091   6.793  1.00  0.00     0.134 A 
ATOM     65  C   UNL     1      -8.997  -8.011   7.292  1.00  0.00     0.134 A 
ATOM     66  F   UNL     1      -6.870 -10.923   6.853  1.00  0.00    -0.206 F 
ATOM     67  C   UNL     1      -9.044 -10.508   6.076  1.00  0.00     0.040 A 
ATOM     68  C   UNL     1     -10.137  -8.428   6.603  1.00  0.00     0.040 A 
ATOM     69  F   UNL     1      -9.016  -6.795   7.858  1.00  0.00    -0.206 F 
ATOM     70  C   UNL     1     -10.160  -9.678   5.987  1.00  0.00     0.006 A 
ENDBRANCH  49  63
BRANCH  50  71
ATOM     71  C   UNL     1       0.228  -5.542  12.246  1.00  0.00     0.057 A 
ATOM     72  C   UNL     1       0.904  -6.324  13.190  1.00  0.00     0.134 A 
ATOM     73  C   UNL     1       0.704  -4.243  12.027  1.00  0.00     0.134 A 
ATOM     74  F   UNL     1       0.485  -7.570  13.457  1.00  0.00    -0.206 F 
ATOM     75  C   UNL     1       1.992  -5.827  13.909  1.00  0.00     0.040 A 
ATOM     76  C   UNL     1       1.809  -3.743  12.718  1.00  0.00     0.040 A 
ATOM     77  F   UNL     1       0.108  -3.445  11.130  1.00  0.00    -0.206 F 
ATOM     78  C   UNL     1       2.450  -4.533  13.670  1.00  0.00     0.006 A 
ENDBRANCH  50  71
BRANCH  62  79
ATOM     79  C   UNL     1      -6.182  -7.371  14.263  1.00  0.00     0.057 A 
ATOM     80  C   UNL     1      -6.535  -6.208  14.958  1.00  0.00     0.134 A 
ATOM     81  C   UNL     1      -6.508  -8.600  14.852  1.00  0.00     0.134 A 
ATOM     82  F   UNL     1      -6.241  -4.999  14.456  1.00  0.00    -0.206 F 
ATOM     83  C   UNL     1      -7.165  -6.265  16.203  1.00  0.00     0.040 A 
ATOM     84  C   UNL     1      -7.166  -8.670  16.080  1.00  0.00     0.040 A 
ATOM     85  F   UNL     1      -6.208  -9.753  14.235  1.00  0.00    -0.206 F 
ATOM     86  C   UNL     1      -7.489  -7.500  16.763  1.00  0.00     0.006 A 
ENDBRANCH  62  79
ENDBRANCH  36  37
ENDBRANCH  28  31
ENDBRANCH  26  27
ENDBRANCH  25  26
ENDBRANCH  24  25
ENDBRANCH   1  24
TORSDOF 17
