REMARK SMILES Cc1ccc(NS(=O)(=O)c2cc(C(=O)Nc3ccccc3C(=O)NCCCCCCNC(=O)c3ccc(-c4c5nc(c(-c6c(F)cccc6F)c6ccc([nH]6)c(-c6c(F)cccc6F)c6nc(c(-c7c(F)cccc7F)c7ccc4[nH]7)C=C6)C=C5)cc3)ccc2Br)cc1
REMARK SMILES IDX 26 1 25 2 24 3 22 4 23 5 21 7 16 8 17 9 18 10 20 11 19 12
REMARK SMILES IDX 15 13 13 14 14 15 12 17 10 18 11 19 90 20 89 21 91 22 88 23
REMARK SMILES IDX 7 24 8 25 9 26 6 27 5 29 1 30 2 31 3 32 93 33 4 34 92 35
REMARK SMILES IDX 27 36 28 37 29 38 30 39 31 40 32 41 33 43 34 44 35 45 87 46
REMARK SMILES IDX 36 47 86 48 37 49 38 50 39 51 80 52 40 53 85 54 79 55 81 56
REMARK SMILES IDX 41 57 84 58 78 59 77 60 42 62 68 63 51 64 67 65 52 66 55 67
REMARK SMILES IDX 66 68 82 69 53 70 54 71 65 73 83 74 56 75 43 76 44 77 49 78
REMARK SMILES IDX 45 79 46 80 48 81 50 82 47 83 69 84 70 85 75 86 71 87 72 88
REMARK SMILES IDX 74 89 76 90 73 91 57 92 58 93 63 94 59 95 60 96 62 97 64 98
REMARK SMILES IDX 61 99
REMARK H PARENT 24 6 15 16 6 28 31 42 81 61 55 72
REMARK Flexibility Score: inf
ROOT
ATOM      1  C   UNL     1      -4.651  -2.231   2.855  1.00  0.00     0.021 C 
ENDROOT
BRANCH   1   2
ATOM      2  C   UNL     1      -3.506  -1.247   2.947  1.00  0.00     0.116 C 
BRANCH   2   3
ATOM      3  N   UNL     1      -2.200  -1.763   3.251  1.00  0.00    -0.352 N 
ATOM      4  C   UNL     1      -1.008  -1.214   2.835  1.00  0.00     0.253 C 
ATOM      5  O   UNL     1       0.049  -1.556   3.348  1.00  0.00    -0.269 OA
ATOM      6  H   UNL     1      -2.154  -2.577   3.803  1.00  0.00     0.163 HD
BRANCH   4   7
ATOM      7  C   UNL     1      -1.020  -0.310   1.656  1.00  0.00     0.063 A 
ATOM      8  C   UNL     1       0.113  -0.648   0.277  1.00  0.00     0.054 A 
ATOM      9  C   UNL     1       0.052   0.646  -1.286  1.00  0.00     0.027 A 
ATOM     10  C   UNL     1      -1.185   1.963  -1.290  1.00  0.00     0.002 A 
ATOM     11  C   UNL     1      -2.149   1.048   1.522  1.00  0.00     0.016 A 
ATOM     12  C   UNL     1      -2.240   2.116   0.101  1.00  0.00     0.001 A 
BRANCH   8  13
ATOM     13  N   UNL     1       0.844  -1.947   0.547  1.00  0.00    -0.321 N 
ATOM     14  C   UNL     1       0.466  -3.306   0.655  1.00  0.00     0.255 C 
ATOM     15  O   UNL     1       1.356  -4.142   0.833  1.00  0.00    -0.269 OA
ATOM     16  H   UNL     1       1.811  -1.815   0.677  1.00  0.00     0.170 HD
BRANCH  14  17
ATOM     17  C   UNL     1      -0.916  -3.848   0.413  1.00  0.00     0.041 A 
ATOM     18  C   UNL     1      -3.165  -3.187  -0.273  1.00  0.00     0.102 A 
ATOM     19  C   UNL     1      -1.954  -2.969   0.329  1.00  0.00     0.037 A 
ATOM     20  C   UNL     1      -3.536  -4.497  -0.476  1.00  0.00     0.038 A 
ATOM     21  C   UNL     1      -2.581  -5.504  -0.210  1.00  0.00     0.018 A 
ATOM     22  Br  UNL     1      -5.287  -4.995  -0.971  1.00  0.00    -0.049 Br
ATOM     23  C   UNL     1      -1.250  -5.174   0.159  1.00  0.00     0.015 A 
BRANCH  18  24
ATOM     24  S   UNL     1      -3.919  -1.720  -0.948  1.00  0.00     0.263 S 
ATOM     25  O   UNL     1      -5.202  -1.567  -0.290  1.00  0.00    -0.201 OA
ATOM     26  O   UNL     1      -3.807  -1.800  -2.386  1.00  0.00    -0.201 OA
BRANCH  24  27
ATOM     27  N   UNL     1      -3.027  -0.345  -0.415  1.00  0.00    -0.280 N 
ATOM     28  H   UNL     1      -3.564   0.356   0.019  1.00  0.00     0.180 HD
BRANCH  27  29
ATOM     29  C   UNL     1      -1.531  -0.046  -0.513  1.00  0.00     0.049 A 
ATOM     30  C   UNL     1       3.570  -0.387  -0.832  1.00  0.00     0.044 C 
ATOM     31  C   UNL     1       2.086  -0.160  -0.875  1.00  0.00    -0.051 A 
ATOM     32  C   UNL     1       1.023  -1.261  -1.788  1.00  0.00     0.005 A 
ATOM     33  C   UNL     1       1.500   1.059   0.221  1.00  0.00     0.005 A 
ATOM     34  C   UNL     1      -0.748  -1.232  -1.651  1.00  0.00     0.027 A 
ATOM     35  C   UNL     1      -0.263   1.207   0.456  1.00  0.00     0.027 A 
ENDBRANCH  27  29
ENDBRANCH  24  27
ENDBRANCH  18  24
ENDBRANCH  14  17
ENDBRANCH   8  13
ENDBRANCH   4   7
ENDBRANCH   2   3
ENDBRANCH   1   2
BRANCH   1  36
ATOM     36  C   UNL     1      -4.971  -3.009   4.114  1.00  0.00     0.002 C 
BRANCH  36  37
ATOM     37  C   UNL     1      -4.934  -2.193   5.405  1.00  0.00     0.002 C 
BRANCH  37  38
ATOM     38  C   UNL     1      -5.670  -0.856   5.382  1.00  0.00     0.021 C 
BRANCH  38  39
ATOM     39  C   UNL     1      -7.123  -0.954   4.998  1.00  0.00     0.116 C 
BRANCH  39  40
ATOM     40  N   UNL     1      -7.917  -1.506   6.068  1.00  0.00    -0.352 N 
ATOM     41  C   UNL     1      -9.236  -1.270   6.383  1.00  0.00     0.251 C 
ATOM     42  H   UNL     1      -7.449  -2.140   6.658  1.00  0.00     0.163 HD
ATOM     43  O   UNL     1      -9.632  -1.541   7.513  1.00  0.00    -0.269 OA
BRANCH  41  44
ATOM     44  C   UNL     1     -10.216  -0.960   5.300  1.00  0.00     0.039 A 
ATOM     45  C   UNL     1     -11.393  -1.717   5.398  1.00  0.00     0.014 A 
ATOM     46  C   UNL     1      -9.754  -0.578   4.050  1.00  0.00     0.014 A 
ATOM     47  C   UNL     1     -11.827  -2.420   4.290  1.00  0.00     0.010 A 
ATOM     48  C   UNL     1     -10.019  -1.416   3.010  1.00  0.00     0.010 A 
ATOM     49  C   UNL     1     -11.019  -2.373   3.163  1.00  0.00    -0.014 A 
BRANCH  49  50
ATOM     50  C   UNL     1     -11.282  -3.061   1.927  1.00  0.00     0.031 A 
ATOM     51  C   UNL     1     -12.233  -2.313   1.080  1.00  0.00     0.074 A 
ATOM     52  C   UNL     1     -10.433  -4.079   1.644  1.00  0.00     0.049 A 
ATOM     53  N   UNL     1     -12.947  -2.808   0.147  1.00  0.00    -0.248 NA
ATOM     54  C   UNL     1     -12.533  -0.881   1.284  1.00  0.00     0.031 C 
ATOM     55  C   UNL     1     -10.117  -4.772   0.401  1.00  0.00     0.029 A 
ATOM     56  N   UNL     1      -9.755  -4.850   2.607  1.00  0.00    -0.354 N 
ATOM     57  C   UNL     1     -13.383  -1.744  -0.623  1.00  0.00     0.074 A 
ATOM     58  C   UNL     1     -13.273  -0.585   0.212  1.00  0.00     0.031 C 
ATOM     59  C   UNL     1      -9.688  -6.019   0.693  1.00  0.00     0.029 A 
ATOM     60  C   UNL     1      -9.794  -6.181   2.134  1.00  0.00     0.049 A 
ATOM     61  H   UNL     1      -9.339  -4.529   3.439  1.00  0.00     0.167 HD
ATOM     62  C   UNL     1     -13.556  -1.964  -1.956  1.00  0.00     0.037 A 
ATOM     63  C   UNL     1     -10.607  -7.077   2.774  1.00  0.00     0.037 A 
ATOM     64  C   UNL     1     -13.216  -3.360  -2.225  1.00  0.00     0.049 A 
ATOM     65  C   UNL     1     -11.795  -7.393   1.892  1.00  0.00     0.074 A 
ATOM     66  C   UNL     1     -12.020  -3.954  -2.599  1.00  0.00     0.029 A 
ATOM     67  N   UNL     1     -13.972  -4.351  -1.612  1.00  0.00    -0.354 N 
ATOM     68  N   UNL     1     -12.346  -6.544   1.059  1.00  0.00    -0.248 NA
ATOM     69  C   UNL     1     -12.312  -8.750   1.754  1.00  0.00     0.031 C 
ATOM     70  C   UNL     1     -12.050  -5.303  -2.145  1.00  0.00     0.029 A 
ATOM     71  C   UNL     1     -13.245  -5.518  -1.475  1.00  0.00     0.049 A 
ATOM     72  H   UNL     1     -14.903  -4.237  -1.313  1.00  0.00     0.167 HD
ATOM     73  C   UNL     1     -13.193  -7.229   0.223  1.00  0.00     0.074 A 
ATOM     74  C   UNL     1     -13.129  -8.601   0.700  1.00  0.00     0.031 C 
ATOM     75  C   UNL     1     -13.853  -6.679  -0.843  1.00  0.00     0.037 A 
BRANCH  62  76
ATOM     76  C   UNL     1     -13.717  -0.920  -3.032  1.00  0.00     0.057 A 
ATOM     77  C   UNL     1     -13.338  -1.216  -4.358  1.00  0.00     0.134 A 
ATOM     78  C   UNL     1     -14.249   0.370  -2.858  1.00  0.00     0.134 A 
ATOM     79  F   UNL     1     -12.843  -2.413  -4.698  1.00  0.00    -0.206 F 
ATOM     80  C   UNL     1     -13.447  -0.303  -5.414  1.00  0.00     0.040 A 
ATOM     81  C   UNL     1     -14.345   1.305  -3.905  1.00  0.00     0.040 A 
ATOM     82  F   UNL     1     -14.744   0.777  -1.682  1.00  0.00    -0.206 F 
ATOM     83  C   UNL     1     -13.944   0.969  -5.190  1.00  0.00     0.006 A 
ENDBRANCH  62  76
BRANCH  63  84
ATOM     84  C   UNL     1     -10.582  -6.837   4.255  1.00  0.00     0.057 A 
ATOM     85  C   UNL     1      -9.309  -6.920   4.866  1.00  0.00     0.134 A 
ATOM     86  C   UNL     1     -11.525  -6.019   4.880  1.00  0.00     0.134 A 
ATOM     87  F   UNL     1      -8.371  -7.735   4.354  1.00  0.00    -0.206 F 
ATOM     88  C   UNL     1      -8.909  -6.022   5.860  1.00  0.00     0.040 A 
ATOM     89  C   UNL     1     -11.148  -5.166   5.927  1.00  0.00     0.040 A 
ATOM     90  F   UNL     1     -12.768  -5.907   4.392  1.00  0.00    -0.206 F 
ATOM     91  C   UNL     1      -9.821  -5.101   6.354  1.00  0.00     0.006 A 
ENDBRANCH  63  84
BRANCH  75  92
ATOM     92  C   UNL     1     -15.108  -7.261  -1.463  1.00  0.00     0.057 A 
ATOM     93  C   UNL     1     -15.901  -8.241  -0.849  1.00  0.00     0.134 A 
ATOM     94  C   UNL     1     -15.656  -6.734  -2.659  1.00  0.00     0.134 A 
ATOM     95  F   UNL     1     -15.641  -8.703   0.380  1.00  0.00    -0.206 F 
ATOM     96  C   UNL     1     -17.057  -8.757  -1.441  1.00  0.00     0.040 A 
ATOM     97  C   UNL     1     -16.867  -7.164  -3.200  1.00  0.00     0.040 A 
ATOM     98  F   UNL     1     -15.069  -5.750  -3.355  1.00  0.00    -0.206 F 
ATOM     99  C   UNL     1     -17.551  -8.212  -2.615  1.00  0.00     0.006 A 
ENDBRANCH  75  92
ENDBRANCH  49  50
ENDBRANCH  41  44
ENDBRANCH  39  40
ENDBRANCH  38  39
ENDBRANCH  37  38
ENDBRANCH  36  37
ENDBRANCH   1  36
TORSDOF 18
