REMARK SMILES Cc1cc(C(=O)NCCCCCCNC(=O)c2ccc(-c3c4nc(c(-c5c(F)cccc5F)c5ccc([nH]5)c(-c5c(F)cccc5F)c5nc(c(-c6c(F)cccc6F)c6ccc3[nH]6)C=C5)C=C4)cc2)cc(S(=O)(=O)NNC(=O)c2c[nH]c3ccccc23)c1C
REMARK SMILES IDX 9 1 8 2 7 3 5 4 6 5 4 7 1 8 2 9 3 10 89 11 72 12 90 13 71 14
REMARK SMILES IDX 73 15 74 16 75 17 76 18 77 20 78 21 79 23 80 24 81 25 88 26
REMARK SMILES IDX 82 27 83 28 87 29 84 31 86 32 85 33 10 34 11 35 12 36 13 37
REMARK SMILES IDX 14 38 15 39 16 41 17 42 18 43 70 44 19 45 69 46 20 47 21 48
REMARK SMILES IDX 22 49 63 50 23 51 68 52 62 53 64 54 24 55 67 56 61 57 60 58
REMARK SMILES IDX 25 60 51 61 34 62 50 63 35 64 38 65 49 66 65 67 36 68 37 69
REMARK SMILES IDX 48 71 66 72 39 73 26 74 27 75 32 76 28 77 29 78 31 79 33 80
REMARK SMILES IDX 30 81 52 82 53 83 58 84 54 85 55 86 57 87 59 88 56 89 40 90
REMARK SMILES IDX 41 91 46 92 42 93 43 94 45 95 47 96 44 97
REMARK H PARENT 7 6 76 19 77 22 82 30 14 40 64 59 38 70
REMARK Flexibility Score: inf
ROOT
ATOM      1  C   UNL     1      -2.150   4.364  -0.677  1.00  0.00     0.021 C 
ENDROOT
BRANCH   1   2
ATOM      2  C   UNL     1      -2.382   3.450   0.531  1.00  0.00     0.116 C 
BRANCH   2   3
ATOM      3  N   UNL     1      -3.322   2.393   0.199  1.00  0.00    -0.352 N 
ATOM      4  C   UNL     1      -3.197   1.072  -0.145  1.00  0.00     0.251 C 
ATOM      5  O   UNL     1      -4.238   0.457  -0.387  1.00  0.00    -0.269 OA
ATOM      6  H   UNL     1      -4.259   2.693   0.226  1.00  0.00     0.163 HD
BRANCH   4   7
ATOM      7  C   UNL     1      -1.909   0.320  -0.209  1.00  0.00     0.041 A 
ATOM      8  C   UNL     1       1.851   0.878  -0.274  1.00  0.00     0.044 C 
ATOM      9  C   UNL     1       0.533   0.147  -0.280  1.00  0.00    -0.046 A 
ATOM     10  C   UNL     1      -0.649   0.908  -0.327  1.00  0.00     0.017 A 
ATOM     11  C   UNL     1       0.453  -1.261  -0.244  1.00  0.00    -0.028 A 
ATOM     12  C   UNL     1      -0.831  -1.864  -0.276  1.00  0.00     0.088 A 
ATOM     13  C   UNL     1       1.704  -2.107  -0.187  1.00  0.00     0.046 C 
ATOM     14  C   UNL     1      -1.988  -1.083  -0.203  1.00  0.00     0.036 A 
BRANCH  12  15
ATOM     15  S   UNL     1      -0.948  -3.613  -0.592  1.00  0.00     0.257 S 
ATOM     16  O   UNL     1      -0.418  -3.811  -1.943  1.00  0.00    -0.205 OA
ATOM     17  O   UNL     1      -0.381  -4.302   0.537  1.00  0.00    -0.205 OA
BRANCH  15  18
ATOM     18  N   UNL     1      -2.586  -4.069  -0.610  1.00  0.00    -0.123 NA
ATOM     19  H   UNL     1      -3.024  -3.611   0.190  1.00  0.00     0.167 HD
BRANCH  18  20
ATOM     20  N   UNL     1      -3.435  -3.779  -1.775  1.00  0.00    -0.273 N 
ATOM     21  C   UNL     1      -4.380  -4.704  -2.201  1.00  0.00     0.268 C 
ATOM     22  H   UNL     1      -3.333  -2.926  -2.256  1.00  0.00     0.186 HD
ATOM     23  O   UNL     1      -5.582  -4.493  -2.075  1.00  0.00    -0.268 OA
BRANCH  21  24
ATOM     24  C   UNL     1      -3.840  -5.732  -3.092  1.00  0.00     0.066 A 
ATOM     25  C   UNL     1      -2.506  -5.911  -3.414  1.00  0.00     0.097 A 
ATOM     26  C   UNL     1      -4.556  -6.608  -3.974  1.00  0.00     0.012 A 
ATOM     27  N   UNL     1      -2.473  -6.356  -4.707  1.00  0.00    -0.360 N 
ATOM     28  C   UNL     1      -3.719  -6.790  -5.078  1.00  0.00     0.046 A 
ATOM     29  C   UNL     1      -5.859  -7.144  -4.036  1.00  0.00     0.011 A 
ATOM     30  H   UNL     1      -1.675  -6.364  -5.284  1.00  0.00     0.166 HD
ATOM     31  C   UNL     1      -4.168  -7.299  -6.298  1.00  0.00     0.027 A 
ATOM     32  C   UNL     1      -6.279  -7.790  -5.207  1.00  0.00     0.001 A 
ATOM     33  C   UNL     1      -5.466  -7.810  -6.338  1.00  0.00     0.002 A 
ENDBRANCH  21  24
ENDBRANCH  18  20
ENDBRANCH  15  18
ENDBRANCH  12  15
ENDBRANCH   4   7
ENDBRANCH   2   3
ENDBRANCH   1   2
BRANCH   1  34
ATOM     34  C   UNL     1      -3.258   5.412  -0.868  1.00  0.00     0.002 C 
BRANCH  34  35
ATOM     35  C   UNL     1      -3.349   6.471   0.240  1.00  0.00     0.002 C 
BRANCH  35  36
ATOM     36  C   UNL     1      -2.076   7.291   0.469  1.00  0.00     0.021 C 
BRANCH  36  37
ATOM     37  C   UNL     1      -1.637   8.135  -0.725  1.00  0.00     0.116 C 
BRANCH  37  38
ATOM     38  N   UNL     1      -2.594   9.188  -1.028  1.00  0.00    -0.352 N 
ATOM     39  C   UNL     1      -2.401  10.543  -1.126  1.00  0.00     0.251 C 
ATOM     40  H   UNL     1      -3.517   8.883  -1.187  1.00  0.00     0.163 HD
ATOM     41  O   UNL     1      -3.366  11.299  -1.186  1.00  0.00    -0.269 OA
BRANCH  39  42
ATOM     42  C   UNL     1      -1.032  11.100  -1.148  1.00  0.00     0.039 A 
ATOM     43  C   UNL     1      -0.752  12.236  -0.383  1.00  0.00     0.014 A 
ATOM     44  C   UNL     1      -0.035  10.526  -1.942  1.00  0.00     0.014 A 
ATOM     45  C   UNL     1       0.541  12.764  -0.371  1.00  0.00     0.010 A 
ATOM     46  C   UNL     1       1.268  11.016  -1.882  1.00  0.00     0.010 A 
ATOM     47  C   UNL     1       1.568  12.141  -1.099  1.00  0.00    -0.014 A 
BRANCH  47  48
ATOM     48  C   UNL     1       2.961  12.653  -1.056  1.00  0.00     0.031 A 
ATOM     49  C   UNL     1       3.599  13.213  -2.297  1.00  0.00     0.074 A 
ATOM     50  C   UNL     1       3.672  12.556   0.084  1.00  0.00     0.049 A 
ATOM     51  N   UNL     1       4.826  13.630  -2.480  1.00  0.00    -0.248 NA
ATOM     52  C   UNL     1       2.753  13.292  -3.498  1.00  0.00     0.031 C 
ATOM     53  C   UNL     1       3.181  11.993   1.343  1.00  0.00     0.029 A 
ATOM     54  N   UNL     1       4.967  12.915   0.363  1.00  0.00    -0.354 N 
ATOM     55  C   UNL     1       4.902  14.008  -3.814  1.00  0.00     0.074 A 
ATOM     56  C   UNL     1       3.613  13.726  -4.408  1.00  0.00     0.031 C 
ATOM     57  C   UNL     1       4.157  12.057   2.263  1.00  0.00     0.029 A 
ATOM     58  C   UNL     1       5.351  12.633   1.652  1.00  0.00     0.049 A 
ATOM     59  H   UNL     1       5.564  13.335  -0.297  1.00  0.00     0.167 HD
ATOM     60  C   UNL     1       5.945  14.561  -4.479  1.00  0.00     0.037 A 
ATOM     61  C   UNL     1       6.535  12.810   2.268  1.00  0.00     0.037 A 
ATOM     62  C   UNL     1       7.218  14.865  -3.882  1.00  0.00     0.049 A 
ATOM     63  C   UNL     1       7.676  13.427   1.507  1.00  0.00     0.074 A 
ATOM     64  C   UNL     1       8.321  15.469  -4.462  1.00  0.00     0.029 A 
ATOM     65  N   UNL     1       7.558  14.591  -2.567  1.00  0.00    -0.354 N 
ATOM     66  N   UNL     1       7.715  13.829   0.260  1.00  0.00    -0.248 NA
ATOM     67  C   UNL     1       8.934  13.621   2.241  1.00  0.00     0.031 C 
ATOM     68  C   UNL     1       9.340  15.530  -3.506  1.00  0.00     0.029 A 
ATOM     69  C   UNL     1       8.858  15.001  -2.319  1.00  0.00     0.049 A 
ATOM     70  H   UNL     1       6.964  14.167  -1.906  1.00  0.00     0.167 HD
ATOM     71  C   UNL     1       8.989  14.346   0.068  1.00  0.00     0.074 A 
ATOM     72  C   UNL     1       9.687  14.221   1.331  1.00  0.00     0.031 C 
ATOM     73  C   UNL     1       9.534  14.877  -1.054  1.00  0.00     0.037 A 
BRANCH  60  74
ATOM     74  C   UNL     1       5.747  14.885  -5.931  1.00  0.00     0.057 A 
ATOM     75  C   UNL     1       4.928  15.945  -6.343  1.00  0.00     0.134 A 
ATOM     76  C   UNL     1       6.413  14.159  -6.926  1.00  0.00     0.134 A 
ATOM     77  F   UNL     1       4.253  16.672  -5.441  1.00  0.00    -0.206 F 
ATOM     78  C   UNL     1       4.763  16.258  -7.693  1.00  0.00     0.040 A 
ATOM     79  C   UNL     1       6.275  14.478  -8.278  1.00  0.00     0.040 A 
ATOM     80  F   UNL     1       7.216  13.135  -6.601  1.00  0.00    -0.206 F 
ATOM     81  C   UNL     1       5.444  15.527  -8.665  1.00  0.00     0.006 A 
ENDBRANCH  60  74
BRANCH  61  82
ATOM     82  C   UNL     1       6.701  12.414   3.689  1.00  0.00     0.057 A 
ATOM     83  C   UNL     1       6.842  13.377   4.695  1.00  0.00     0.134 A 
ATOM     84  C   UNL     1       6.739  11.069   4.073  1.00  0.00     0.134 A 
ATOM     85  F   UNL     1       6.833  14.682   4.385  1.00  0.00    -0.206 F 
ATOM     86  C   UNL     1       7.037  13.017   6.029  1.00  0.00     0.040 A 
ATOM     87  C   UNL     1       6.909  10.695   5.407  1.00  0.00     0.040 A 
ATOM     88  F   UNL     1       6.601  10.098   3.158  1.00  0.00    -0.206 F 
ATOM     89  C   UNL     1       7.067  11.671   6.388  1.00  0.00     0.006 A 
ENDBRANCH  61  82
BRANCH  73  90
ATOM     90  C   UNL     1      10.938  15.393  -0.956  1.00  0.00     0.057 A 
ATOM     91  C   UNL     1      12.038  14.530  -0.879  1.00  0.00     0.134 A 
ATOM     92  C   UNL     1      11.194  16.770  -0.977  1.00  0.00     0.134 A 
ATOM     93  F   UNL     1      11.858  13.201  -0.841  1.00  0.00    -0.206 F 
ATOM     94  C   UNL     1      13.343  15.019  -0.805  1.00  0.00     0.040 A 
ATOM     95  C   UNL     1      12.496  17.270  -0.928  1.00  0.00     0.040 A 
ATOM     96  F   UNL     1      10.185  17.650  -1.058  1.00  0.00    -0.206 F 
ATOM     97  C   UNL     1      13.575  16.393  -0.836  1.00  0.00     0.006 A 
ENDBRANCH  73  90
ENDBRANCH  47  48
ENDBRANCH  39  42
ENDBRANCH  37  38
ENDBRANCH  36  37
ENDBRANCH  35  36
ENDBRANCH  34  35
ENDBRANCH   1  34
TORSDOF 17
