REMARK SMILES O=C(CNC(=O)CN1C(=O)S/C(=C\c2cccc(F)c2)C1=O)NCCCCCCNC(=O)c1ccc(-c2c3nc(c(-c4c(F)cccc4F)c4ccc([nH]4)c(-c4c(F)cccc4F)c4nc(c(-c5c(F)cccc5F)c5ccc2[nH]5)C=C4)C=C3)cc1
REMARK SMILES IDX 25 1 24 2 23 3 1 4 2 5 3 7 4 8 5 9 6 11 7 12 8 13 9 14 21 15
REMARK SMILES IDX 10 16 11 17 12 18 22 19 13 20 14 21 15 22 20 23 16 24 18 25
REMARK SMILES IDX 17 26 19 27 26 28 27 29 28 30 29 31 30 32 31 33 32 35 33 36
REMARK SMILES IDX 34 37 86 38 35 39 85 40 36 41 37 42 38 43 79 44 39 45 84 46
REMARK SMILES IDX 78 47 80 48 40 49 83 50 77 51 76 52 41 54 67 55 50 56 66 57
REMARK SMILES IDX 51 58 54 59 65 60 81 61 52 62 53 63 64 65 82 66 55 67 42 68
REMARK SMILES IDX 43 69 48 70 44 71 45 72 47 73 49 74 46 75 68 76 69 77 74 78
REMARK SMILES IDX 70 79 71 80 73 81 75 82 72 83 56 84 57 85 62 86 58 87 59 88
REMARK SMILES IDX 61 89 63 90 60 91
REMARK H PARENT 23 6 4 10 30 34 80 53 54 64
REMARK Flexibility Score: inf
ROOT
ATOM      1  C   UNL     1       1.824   1.376   2.643  1.00  0.00     0.021 C 
ENDROOT
BRANCH   1   2
ATOM      2  C   UNL     1       1.381   1.813   1.249  1.00  0.00     0.116 C 
BRANCH   2   3
ATOM      3  N   UNL     1       2.121   1.110   0.215  1.00  0.00    -0.355 N 
ATOM      4  O   UNL     1       0.769  -0.742   0.124  1.00  0.00    -0.273 OA
ATOM      5  C   UNL     1       1.776  -0.144  -0.241  1.00  0.00     0.239 C 
ATOM      6  H   UNL     1       2.908   1.552  -0.179  1.00  0.00     0.163 HD
BRANCH   5   7
ATOM      7  C   UNL     1       2.817  -0.796  -1.164  1.00  0.00     0.216 C 
BRANCH   7   8
ATOM      8  N   UNL     1       3.823   0.145  -1.638  1.00  0.00    -0.345 N 
ATOM      9  C   UNL     1       5.181   0.087  -1.617  1.00  0.00     0.240 C 
ATOM     10  H   UNL     1       3.456   0.964  -2.044  1.00  0.00     0.164 HD
ATOM     11  O   UNL     1       5.776   0.941  -2.281  1.00  0.00    -0.273 OA
BRANCH   9  12
ATOM     12  C   UNL     1       5.950  -1.060  -0.955  1.00  0.00     0.229 C 
BRANCH  12  13
ATOM     13  N   UNL     1       5.706  -1.274   0.464  1.00  0.00    -0.259 N 
ATOM     14  C   UNL     1       5.316  -2.492   0.941  1.00  0.00     0.294 C 
ATOM     15  C   UNL     1       6.105  -0.352   1.405  1.00  0.00     0.268 C 
ATOM     16  O   UNL     1       5.077  -3.495   0.278  1.00  0.00    -0.261 OA
ATOM     17  S   UNL     1       5.231  -2.472   2.692  1.00  0.00    -0.022 SA
ATOM     18  C   UNL     1       5.870  -0.882   2.784  1.00  0.00     0.083 C 
ATOM     19  O   UNL     1       6.560   0.756   1.170  1.00  0.00    -0.268 OA
ATOM     20  C   UNL     1       6.107  -0.154   3.886  1.00  0.00     0.029 C 
BRANCH  20  21
ATOM     21  C   UNL     1       5.824  -0.532   5.282  1.00  0.00    -0.021 A 
ATOM     22  C   UNL     1       6.845  -1.030   6.095  1.00  0.00     0.008 A 
ATOM     23  C   UNL     1       4.561  -0.338   5.852  1.00  0.00     0.047 A 
ATOM     24  C   UNL     1       6.604  -1.306   7.448  1.00  0.00     0.004 A 
ATOM     25  C   UNL     1       4.338  -0.582   7.201  1.00  0.00     0.123 A 
ATOM     26  C   UNL     1       5.349  -1.068   8.007  1.00  0.00     0.039 A 
ATOM     27  F   UNL     1       3.134  -0.312   7.723  1.00  0.00    -0.207 F 
ENDBRANCH  20  21
ENDBRANCH  12  13
ENDBRANCH   9  12
ENDBRANCH   7   8
ENDBRANCH   5   7
ENDBRANCH   2   3
ENDBRANCH   1   2
BRANCH   1  28
ATOM     28  C   UNL     1       3.324   1.549   2.886  1.00  0.00     0.002 C 
BRANCH  28  29
ATOM     29  C   UNL     1       3.873   2.918   3.284  1.00  0.00     0.002 C 
BRANCH  29  30
ATOM     30  C   UNL     1       3.282   3.633   4.503  1.00  0.00     0.021 C 
BRANCH  30  31
ATOM     31  C   UNL     1       3.680   3.181   5.913  1.00  0.00     0.116 C 
BRANCH  31  32
ATOM     32  N   UNL     1       5.109   3.108   6.183  1.00  0.00    -0.352 N 
ATOM     33  C   UNL     1       5.782   3.319   7.371  1.00  0.00     0.251 C 
ATOM     34  H   UNL     1       5.675   2.876   5.411  1.00  0.00     0.163 HD
ATOM     35  O   UNL     1       7.004   3.215   7.416  1.00  0.00    -0.269 OA
BRANCH  33  36
ATOM     36  C   UNL     1       5.040   3.735   8.586  1.00  0.00     0.039 A 
ATOM     37  C   UNL     1       5.482   4.860   9.291  1.00  0.00     0.014 A 
ATOM     38  C   UNL     1       3.901   3.052   9.014  1.00  0.00     0.014 A 
ATOM     39  C   UNL     1       4.722   5.358  10.355  1.00  0.00     0.010 A 
ATOM     40  C   UNL     1       3.111   3.584  10.036  1.00  0.00     0.010 A 
ATOM     41  C   UNL     1       3.499   4.757  10.701  1.00  0.00    -0.014 A 
BRANCH  41  42
ATOM     42  C   UNL     1       2.590   5.397  11.691  1.00  0.00     0.031 A 
ATOM     43  C   UNL     1       2.244   4.723  12.988  1.00  0.00     0.074 A 
ATOM     44  C   UNL     1       2.026   6.585  11.391  1.00  0.00     0.049 A 
ATOM     45  N   UNL     1       1.483   5.153  13.964  1.00  0.00    -0.248 NA
ATOM     46  C   UNL     1       2.805   3.383  13.211  1.00  0.00     0.031 C 
ATOM     47  C   UNL     1       2.226   7.318  10.140  1.00  0.00     0.029 A 
ATOM     48  N   UNL     1       1.176   7.387  12.112  1.00  0.00    -0.354 N 
ATOM     49  C   UNL     1       1.482   4.145  14.919  1.00  0.00     0.074 A 
ATOM     50  C   UNL     1       2.262   3.053  14.374  1.00  0.00     0.031 C 
ATOM     51  C   UNL     1       1.557   8.479  10.199  1.00  0.00     0.029 A 
ATOM     52  C   UNL     1       0.850   8.559  11.473  1.00  0.00     0.049 A 
ATOM     53  H   UNL     1       0.832   7.144  13.002  1.00  0.00     0.167 HD
ATOM     54  C   UNL     1       0.909   4.139  16.147  1.00  0.00     0.037 A 
ATOM     55  C   UNL     1       0.077   9.590  11.867  1.00  0.00     0.037 A 
ATOM     56  C   UNL     1       0.126   5.223  16.684  1.00  0.00     0.049 A 
ATOM     57  C   UNL     1      -0.568   9.555  13.222  1.00  0.00     0.074 A 
ATOM     58  C   UNL     1      -0.457   5.327  17.936  1.00  0.00     0.029 A 
ATOM     59  N   UNL     1      -0.197   6.386  15.999  1.00  0.00    -0.354 N 
ATOM     60  N   UNL     1      -0.498   8.627  14.145  1.00  0.00    -0.248 NA
ATOM     61  C   UNL     1      -1.393  10.713  13.595  1.00  0.00     0.031 C 
ATOM     62  C   UNL     1      -1.179   6.523  17.987  1.00  0.00     0.029 A 
ATOM     63  C   UNL     1      -0.995   7.198  16.791  1.00  0.00     0.049 A 
ATOM     64  H   UNL     1       0.098   6.604  15.085  1.00  0.00     0.167 HD
ATOM     65  C   UNL     1      -1.255   9.092  15.213  1.00  0.00     0.074 A 
ATOM     66  C   UNL     1      -1.757  10.396  14.831  1.00  0.00     0.031 C 
ATOM     67  C   UNL     1      -1.509   8.489  16.401  1.00  0.00     0.037 A 
BRANCH  54  68
ATOM     68  C   UNL     1       1.117   2.920  17.003  1.00  0.00     0.057 A 
ATOM     69  C   UNL     1       0.045   2.086  17.345  1.00  0.00     0.134 A 
ATOM     70  C   UNL     1       2.376   2.596  17.529  1.00  0.00     0.134 A 
ATOM     71  F   UNL     1      -1.190   2.341  16.887  1.00  0.00    -0.206 F 
ATOM     72  C   UNL     1       0.216   0.979  18.178  1.00  0.00     0.040 A 
ATOM     73  C   UNL     1       2.566   1.474  18.337  1.00  0.00     0.040 A 
ATOM     74  F   UNL     1       3.449   3.347  17.237  1.00  0.00    -0.206 F 
ATOM     75  C   UNL     1       1.482   0.666  18.671  1.00  0.00     0.006 A 
ENDBRANCH  54  68
BRANCH  55  76
ATOM     76  C   UNL     1      -0.076  10.765  10.971  1.00  0.00     0.057 A 
ATOM     77  C   UNL     1      -0.792  10.684   9.771  1.00  0.00     0.134 A 
ATOM     78  C   UNL     1       0.546  11.982  11.270  1.00  0.00     0.134 A 
ATOM     79  F   UNL     1      -1.404   9.542   9.423  1.00  0.00    -0.206 F 
ATOM     80  C   UNL     1      -0.860  11.761   8.886  1.00  0.00     0.040 A 
ATOM     81  C   UNL     1       0.466  13.076  10.406  1.00  0.00     0.040 A 
ATOM     82  F   UNL     1       1.231  12.127  12.414  1.00  0.00    -0.206 F 
ATOM     83  C   UNL     1      -0.229  12.962   9.203  1.00  0.00     0.006 A 
ENDBRANCH  55  76
BRANCH  67  84
ATOM     84  C   UNL     1      -2.371   9.230  17.384  1.00  0.00     0.057 A 
ATOM     85  C   UNL     1      -1.834   9.715  18.585  1.00  0.00     0.134 A 
ATOM     86  C   UNL     1      -3.743   9.417  17.171  1.00  0.00     0.134 A 
ATOM     87  F   UNL     1      -0.530   9.563  18.860  1.00  0.00    -0.206 F 
ATOM     88  C   UNL     1      -2.632  10.348  19.540  1.00  0.00     0.040 A 
ATOM     89  C   UNL     1      -4.545  10.076  18.105  1.00  0.00     0.040 A 
ATOM     90  F   UNL     1      -4.320   8.987  16.039  1.00  0.00    -0.206 F 
ATOM     91  C   UNL     1      -3.991  10.536  19.298  1.00  0.00     0.006 A 
ENDBRANCH  67  84
ENDBRANCH  41  42
ENDBRANCH  33  36
ENDBRANCH  31  32
ENDBRANCH  30  31
ENDBRANCH  29  30
ENDBRANCH  28  29
ENDBRANCH   1  28
TORSDOF 17
