REMARK SMILES O=C(N[C@]1(C(=O)NCCCCCCNC(=O)c2ccc(-c3c4nc(c(-c5c(F)cccc5F)c5ccc([nH]5)c(-c5c(F)cccc5F)c5nc(c(-c6c(F)cccc6F)c6ccc3[nH]6)C=C5)C=C4)cc2)CC[C@H](c2ccccc2)CC1)OCC1c2ccccc2-c2ccccc21
REMARK SMILES IDX 9 1 8 2 7 3 5 4 6 5 4 7 71 8 81 9 72 10 80 11 73 12 3 13
REMARK SMILES IDX 1 14 2 15 82 17 83 18 84 19 85 20 96 21 86 22 90 23 91 24
REMARK SMILES IDX 95 25 87 26 89 27 92 28 94 29 88 30 93 31 74 32 75 33 79 34
REMARK SMILES IDX 76 35 78 36 77 37 10 38 11 39 12 40 13 41 14 42 15 43 16 45
REMARK SMILES IDX 17 46 18 47 70 48 19 49 69 50 20 51 21 52 22 53 63 54 23 55
REMARK SMILES IDX 68 56 62 57 64 58 24 59 67 60 61 61 60 62 25 64 51 65 34 66
REMARK SMILES IDX 50 67 35 68 38 69 49 70 65 71 36 72 37 73 48 75 66 76 39 77
REMARK SMILES IDX 26 78 27 79 32 80 28 81 29 82 31 83 33 84 30 85 52 86 53 87
REMARK SMILES IDX 58 88 54 89 55 90 57 91 59 92 56 93 40 94 41 95 46 96 42 97
REMARK SMILES IDX 43 98 45 99 47 100 44 101
REMARK H PARENT 7 6 3 16 14 44 64 63 38 74
REMARK Flexibility Score: inf
ROOT
ATOM      1  C   UNL     1       8.701  -1.910   1.103  1.00  0.00     0.021 C 
ENDROOT
BRANCH   1   2
ATOM      2  C   UNL     1       7.725  -2.903   0.490  1.00  0.00     0.116 C 
BRANCH   2   3
ATOM      3  N   UNL     1       6.448  -2.897   1.157  1.00  0.00    -0.354 N 
ATOM      4  C   UNL     1       5.218  -2.432   0.822  1.00  0.00     0.245 C 
ATOM      5  O   UNL     1       4.333  -2.780   1.621  1.00  0.00    -0.272 OA
ATOM      6  H   UNL     1       6.472  -3.322   2.045  1.00  0.00     0.163 HD
BRANCH   4   7
ATOM      7  C   UNL     1       4.871  -1.574  -0.468  1.00  0.00     0.122 C 
ATOM      8  C   UNL     1       4.981  -2.381  -1.788  1.00  0.00     0.039 C 
ATOM      9  C   UNL     1       5.592  -0.219  -0.572  1.00  0.00     0.039 C 
ATOM     10  C   UNL     1       6.224  -2.196  -2.673  1.00  0.00     0.011 C 
ATOM     11  C   UNL     1       6.878  -0.135  -1.365  1.00  0.00     0.011 C 
ATOM     12  C   UNL     1       6.809  -0.772  -2.755  1.00  0.00     0.019 C 
BRANCH   7  13
ATOM     13  N   UNL     1       3.401  -1.292  -0.287  1.00  0.00    -0.307 N 
ATOM     14  O   UNL     1       1.615  -0.129   0.472  1.00  0.00    -0.225 OA
ATOM     15  C   UNL     1       2.809  -0.392   0.553  1.00  0.00     0.408 C 
ATOM     16  H   UNL     1       2.790  -1.824  -0.846  1.00  0.00     0.168 HD
BRANCH  15  17
ATOM     17  O   UNL     1       3.679   0.232   1.384  1.00  0.00    -0.449 OA
BRANCH  17  18
ATOM     18  C   UNL     1       3.478   1.646   1.448  1.00  0.00     0.248 C 
BRANCH  18  19
ATOM     19  C   UNL     1       4.439   2.356   2.425  1.00  0.00     0.088 C 
ATOM     20  C   UNL     1       5.795   1.705   2.688  1.00  0.00    -0.029 A 
ATOM     21  C   UNL     1       4.875   3.688   1.807  1.00  0.00    -0.029 A 
ATOM     22  C   UNL     1       6.071   0.573   3.440  1.00  0.00     0.005 A 
ATOM     23  C   UNL     1       6.838   2.500   2.163  1.00  0.00    -0.014 A 
ATOM     24  C   UNL     1       6.266   3.685   1.566  1.00  0.00    -0.014 A 
ATOM     25  C   UNL     1       4.089   4.777   1.468  1.00  0.00     0.005 A 
ATOM     26  C   UNL     1       7.409   0.258   3.691  1.00  0.00     0.000 A 
ATOM     27  C   UNL     1       8.166   2.163   2.374  1.00  0.00     0.009 A 
ATOM     28  C   UNL     1       6.870   4.738   0.901  1.00  0.00     0.009 A 
ATOM     29  C   UNL     1       4.705   5.855   0.830  1.00  0.00     0.000 A 
ATOM     30  C   UNL     1       8.447   1.045   3.162  1.00  0.00     0.001 A 
ATOM     31  C   UNL     1       6.077   5.826   0.527  1.00  0.00     0.001 A 
ENDBRANCH  18  19
ENDBRANCH  17  18
ENDBRANCH  15  17
ENDBRANCH   7  13
BRANCH  12  32
ATOM     32  C   UNL     1       6.214   0.177  -3.791  1.00  0.00    -0.045 A 
ATOM     33  C   UNL     1       5.192  -0.188  -4.675  1.00  0.00     0.004 A 
ATOM     34  C   UNL     1       6.769   1.466  -3.933  1.00  0.00     0.004 A 
ATOM     35  C   UNL     1       4.731   0.706  -5.647  1.00  0.00     0.000 A 
ATOM     36  C   UNL     1       6.292   2.367  -4.885  1.00  0.00     0.000 A 
ATOM     37  C   UNL     1       5.273   1.984  -5.746  1.00  0.00     0.000 A 
ENDBRANCH  12  32
ENDBRANCH   4   7
ENDBRANCH   2   3
ENDBRANCH   1   2
BRANCH   1  38
ATOM     38  C   UNL     1       9.611  -2.524   2.163  1.00  0.00     0.002 C 
BRANCH  38  39
ATOM     39  C   UNL     1      10.771  -3.336   1.571  1.00  0.00     0.002 C 
BRANCH  39  40
ATOM     40  C   UNL     1      11.679  -2.573   0.598  1.00  0.00     0.021 C 
BRANCH  40  41
ATOM     41  C   UNL     1      12.161  -1.217   1.105  1.00  0.00     0.116 C 
BRANCH  41  42
ATOM     42  N   UNL     1      12.979  -1.349   2.301  1.00  0.00    -0.352 N 
ATOM     43  C   UNL     1      14.325  -1.125   2.445  1.00  0.00     0.251 C 
ATOM     44  H   UNL     1      12.504  -1.636   3.114  1.00  0.00     0.163 HD
ATOM     45  O   UNL     1      14.926  -1.487   3.449  1.00  0.00    -0.269 OA
BRANCH  43  46
ATOM     46  C   UNL     1      15.044  -0.445   1.353  1.00  0.00     0.039 A 
ATOM     47  C   UNL     1      16.155  -1.059   0.773  1.00  0.00     0.014 A 
ATOM     48  C   UNL     1      14.573   0.782   0.880  1.00  0.00     0.014 A 
ATOM     49  C   UNL     1      16.765  -0.466  -0.333  1.00  0.00     0.010 A 
ATOM     50  C   UNL     1      15.139   1.337  -0.260  1.00  0.00     0.010 A 
ATOM     51  C   UNL     1      16.242   0.720  -0.874  1.00  0.00    -0.014 A 
BRANCH  51  52
ATOM     52  C   UNL     1      16.834   1.359  -2.074  1.00  0.00     0.031 A 
ATOM     53  C   UNL     1      17.448   2.724  -1.954  1.00  0.00     0.074 A 
ATOM     54  C   UNL     1      16.717   0.769  -3.278  1.00  0.00     0.049 A 
ATOM     55  N   UNL     1      17.875   3.526  -2.894  1.00  0.00    -0.248 NA
ATOM     56  C   UNL     1      17.558   3.275  -0.594  1.00  0.00     0.031 C 
ATOM     57  C   UNL     1      16.094  -0.531  -3.527  1.00  0.00     0.029 A 
ATOM     58  N   UNL     1      17.089   1.206  -4.524  1.00  0.00    -0.354 N 
ATOM     59  C   UNL     1      18.272   4.686  -2.244  1.00  0.00     0.074 A 
ATOM     60  C   UNL     1      17.992   4.502  -0.837  1.00  0.00     0.031 C 
ATOM     61  C   UNL     1      16.125  -0.786  -4.845  1.00  0.00     0.029 A 
ATOM     62  C   UNL     1      16.734   0.347  -5.535  1.00  0.00     0.049 A 
ATOM     63  H   UNL     1      17.566   2.054  -4.679  1.00  0.00     0.167 HD
ATOM     64  C   UNL     1      18.835   5.799  -2.770  1.00  0.00     0.037 A 
ATOM     65  C   UNL     1      16.866   0.470  -6.870  1.00  0.00     0.037 A 
ATOM     66  C   UNL     1      19.143   5.960  -4.166  1.00  0.00     0.049 A 
ATOM     67  C   UNL     1      17.514   1.702  -7.435  1.00  0.00     0.074 A 
ATOM     68  C   UNL     1      19.789   7.011  -4.791  1.00  0.00     0.029 A 
ATOM     69  N   UNL     1      18.820   5.041  -5.154  1.00  0.00    -0.354 N 
ATOM     70  N   UNL     1      17.955   2.764  -6.804  1.00  0.00    -0.248 NA
ATOM     71  C   UNL     1      17.690   1.754  -8.893  1.00  0.00     0.031 C 
ATOM     72  C   UNL     1      19.820   6.748  -6.165  1.00  0.00     0.029 A 
ATOM     73  C   UNL     1      19.234   5.511  -6.389  1.00  0.00     0.049 A 
ATOM     74  H   UNL     1      18.365   4.182  -5.000  1.00  0.00     0.167 HD
ATOM     75  C   UNL     1      18.483   3.597  -7.781  1.00  0.00     0.074 A 
ATOM     76  C   UNL     1      18.310   2.917  -9.048  1.00  0.00     0.031 C 
ATOM     77  C   UNL     1      19.062   4.814  -7.639  1.00  0.00     0.037 A 
BRANCH  64  78
ATOM     78  C   UNL     1      19.142   6.925  -1.827  1.00  0.00     0.057 A 
ATOM     79  C   UNL     1      20.146   6.827  -0.854  1.00  0.00     0.134 A 
ATOM     80  C   UNL     1      18.417   8.122  -1.887  1.00  0.00     0.134 A 
ATOM     81  F   UNL     1      20.868   5.703  -0.734  1.00  0.00    -0.206 F 
ATOM     82  C   UNL     1      20.389   7.861   0.052  1.00  0.00     0.040 A 
ATOM     83  C   UNL     1      18.672   9.175  -1.006  1.00  0.00     0.040 A 
ATOM     84  F   UNL     1      17.446   8.287  -2.798  1.00  0.00    -0.206 F 
ATOM     85  C   UNL     1      19.653   9.041  -0.025  1.00  0.00     0.006 A 
ENDBRANCH  64  78
BRANCH  65  86
ATOM     86  C   UNL     1      16.384  -0.620  -7.754  1.00  0.00     0.057 A 
ATOM     87  C   UNL     1      17.282  -1.479  -8.397  1.00  0.00     0.134 A 
ATOM     88  C   UNL     1      15.016  -0.853  -7.945  1.00  0.00     0.134 A 
ATOM     89  F   UNL     1      18.603  -1.296  -8.263  1.00  0.00    -0.206 F 
ATOM     90  C   UNL     1      16.838  -2.528  -9.203  1.00  0.00     0.040 A 
ATOM     91  C   UNL     1      14.559  -1.911  -8.732  1.00  0.00     0.040 A 
ATOM     92  F   UNL     1      14.106  -0.071  -7.346  1.00  0.00    -0.206 F 
ATOM     93  C   UNL     1      15.472  -2.751  -9.366  1.00  0.00     0.006 A 
ENDBRANCH  65  86
BRANCH  77  94
ATOM     94  C   UNL     1      19.586   5.482  -8.875  1.00  0.00     0.057 A 
ATOM     95  C   UNL     1      18.734   6.092  -9.802  1.00  0.00     0.134 A 
ATOM     96  C   UNL     1      20.966   5.588  -9.092  1.00  0.00     0.134 A 
ATOM     97  F   UNL     1      17.403   6.016  -9.655  1.00  0.00    -0.206 F 
ATOM     98  C   UNL     1      19.236   6.783 -10.906  1.00  0.00     0.040 A 
ATOM     99  C   UNL     1      21.480   6.294 -10.180  1.00  0.00     0.040 A 
ATOM    100  F   UNL     1      21.835   5.032  -8.235  1.00  0.00    -0.206 F 
ATOM    101  C   UNL     1      20.614   6.894 -11.091  1.00  0.00     0.006 A 
ENDBRANCH  77  94
ENDBRANCH  51  52
ENDBRANCH  43  46
ENDBRANCH  41  42
ENDBRANCH  40  41
ENDBRANCH  39  40
ENDBRANCH  38  39
ENDBRANCH   1  38
TORSDOF 18
