REMARK SMILES O=C(NCCCCCCNC(=O)c1sccc1S(=O)(=O)Nc1ccccc1N1CCCCC1)c1ccc(-c2c3nc(c(-c4c(F)cccc4F)c4ccc([nH]4)c(-c4c(F)cccc4F)c4nc(c(-c5c(F)cccc5F)c5ccc2[nH]5)C=C4)C=C3)cc1
REMARK SMILES IDX 7 1 6 2 5 3 4 4 3 5 1 6 2 7 34 9 35 10 87 11 36 12 86 13
REMARK SMILES IDX 37 14 38 15 39 16 80 17 40 18 85 19 79 20 81 21 41 22 84 23
REMARK SMILES IDX 78 24 77 25 42 27 68 28 51 29 67 30 52 31 55 32 66 33 82 34
REMARK SMILES IDX 53 35 54 36 65 38 83 39 56 40 43 41 44 42 49 43 45 44 46 45
REMARK SMILES IDX 48 46 50 47 47 48 69 49 70 50 75 51 71 52 72 53 74 54 76 55
REMARK SMILES IDX 73 56 57 57 58 58 63 59 59 60 60 61 62 62 64 63 61 64 8 65
REMARK SMILES IDX 9 66 10 67 11 68 12 70 13 71 14 72 17 73 15 74 16 75 18 76
REMARK SMILES IDX 19 77 20 78 21 79 22 81 23 82 27 83 24 84 26 85 25 86 28 87
REMARK SMILES IDX 29 88 33 89 30 90 32 91 31 92
REMARK H PARENT 3 8 81 26 55 37 10 69 21 80
REMARK Flexibility Score: inf
ROOT
ATOM      1  C   UNL     1       4.563  -4.070   0.337  1.00  0.00     0.002 C 
ENDROOT
BRANCH   1   2
ATOM      2  C   UNL     1       4.207  -3.313   1.622  1.00  0.00     0.002 C 
BRANCH   2   3
ATOM      3  C   UNL     1       4.633  -1.853   1.700  1.00  0.00     0.021 C 
BRANCH   3   4
ATOM      4  C   UNL     1       4.246  -1.006   0.503  1.00  0.00     0.116 C 
BRANCH   4   5
ATOM      5  N   UNL     1       2.816  -0.960   0.258  1.00  0.00    -0.352 N 
ATOM      6  O   UNL     1       0.857   0.041  -0.278  1.00  0.00    -0.269 OA
ATOM      7  C   UNL     1       2.076   0.115  -0.172  1.00  0.00     0.251 C 
ATOM      8  H   UNL     1       2.320  -1.795   0.417  1.00  0.00     0.163 HD
BRANCH   7   9
ATOM      9  C   UNL     1       2.778   1.382  -0.457  1.00  0.00     0.039 A 
ATOM     10  C   UNL     1       3.924   1.389  -1.258  1.00  0.00     0.014 A 
ATOM     11  C   UNL     1       2.326   2.557   0.146  1.00  0.00     0.014 A 
ATOM     12  C   UNL     1       4.698   2.538  -1.335  1.00  0.00     0.010 A 
ATOM     13  C   UNL     1       3.055   3.736  -0.014  1.00  0.00     0.010 A 
ATOM     14  C   UNL     1       4.260   3.728  -0.733  1.00  0.00    -0.014 A 
BRANCH  14  15
ATOM     15  C   UNL     1       5.037   4.974  -0.938  1.00  0.00     0.031 A 
ATOM     16  C   UNL     1       5.683   5.691   0.212  1.00  0.00     0.074 A 
ATOM     17  C   UNL     1       5.154   5.450  -2.192  1.00  0.00     0.049 A 
ATOM     18  N   UNL     1       6.359   6.812   0.206  1.00  0.00    -0.248 NA
ATOM     19  C   UNL     1       5.547   5.079   1.543  1.00  0.00     0.031 C 
ATOM     20  C   UNL     1       4.561   4.837  -3.384  1.00  0.00     0.029 A 
ATOM     21  N   UNL     1       5.814   6.548  -2.678  1.00  0.00    -0.354 N 
ATOM     22  C   UNL     1       6.708   7.055   1.528  1.00  0.00     0.074 A 
ATOM     23  C   UNL     1       6.153   5.973   2.314  1.00  0.00     0.031 C 
ATOM     24  C   UNL     1       4.918   5.542  -4.466  1.00  0.00     0.029 A 
ATOM     25  C   UNL     1       5.700   6.694  -4.038  1.00  0.00     0.049 A 
ATOM     26  H   UNL     1       6.320   7.170  -2.107  1.00  0.00     0.167 HD
ATOM     27  C   UNL     1       7.428   8.085   2.034  1.00  0.00     0.037 A 
ATOM     28  C   UNL     1       6.150   7.664  -4.852  1.00  0.00     0.037 A 
ATOM     29  C   UNL     1       7.988   9.148   1.237  1.00  0.00     0.049 A 
ATOM     30  C   UNL     1       6.921   8.805  -4.261  1.00  0.00     0.074 A 
ATOM     31  C   UNL     1       8.760  10.221   1.649  1.00  0.00     0.029 A 
ATOM     32  N   UNL     1       7.832   9.274  -0.136  1.00  0.00    -0.354 N 
ATOM     33  N   UNL     1       7.260   9.012  -3.012  1.00  0.00    -0.248 NA
ATOM     34  C   UNL     1       7.366   9.851  -5.190  1.00  0.00     0.031 C 
ATOM     35  C   UNL     1       9.035  11.018   0.533  1.00  0.00     0.029 A 
ATOM     36  C   UNL     1       8.475  10.418  -0.583  1.00  0.00     0.049 A 
ATOM     37  H   UNL     1       7.337   8.644  -0.708  1.00  0.00     0.167 HD
ATOM     38  C   UNL     1       7.971  10.202  -3.004  1.00  0.00     0.074 A 
ATOM     39  C   UNL     1       8.031  10.661  -4.378  1.00  0.00     0.031 C 
ATOM     40  C   UNL     1       8.522  10.858  -1.954  1.00  0.00     0.037 A 
BRANCH  27  41
ATOM     41  C   UNL     1       7.634   8.129   3.521  1.00  0.00     0.057 A 
ATOM     42  C   UNL     1       8.494   7.239   4.178  1.00  0.00     0.134 A 
ATOM     43  C   UNL     1       6.997   9.104   4.300  1.00  0.00     0.134 A 
ATOM     44  F   UNL     1       9.127   6.275   3.493  1.00  0.00    -0.206 F 
ATOM     45  C   UNL     1       8.697   7.304   5.558  1.00  0.00     0.040 A 
ATOM     46  C   UNL     1       7.211   9.194   5.677  1.00  0.00     0.040 A 
ATOM     47  F   UNL     1       6.167   9.992   3.735  1.00  0.00    -0.206 F 
ATOM     48  C   UNL     1       8.059   8.289   6.311  1.00  0.00     0.006 A 
ENDBRANCH  27  41
BRANCH  28  49
ATOM     49  C   UNL     1       5.867   7.592  -6.306  1.00  0.00     0.057 A 
ATOM     50  C   UNL     1       6.885   7.332  -7.228  1.00  0.00     0.134 A 
ATOM     51  C   UNL     1       4.567   7.748  -6.803  1.00  0.00     0.134 A 
ATOM     52  F   UNL     1       8.152   7.186  -6.812  1.00  0.00    -0.206 F 
ATOM     53  C   UNL     1       6.624   7.241  -8.596  1.00  0.00     0.040 A 
ATOM     54  C   UNL     1       4.287   7.632  -8.164  1.00  0.00     0.040 A 
ATOM     55  F   UNL     1       3.546   7.986  -5.966  1.00  0.00    -0.206 F 
ATOM     56  C   UNL     1       5.319   7.384  -9.066  1.00  0.00     0.006 A 
ENDBRANCH  28  49
BRANCH  40  57
ATOM     57  C   UNL     1       9.260  12.126  -2.262  1.00  0.00     0.057 A 
ATOM     58  C   UNL     1       8.589  13.305  -2.611  1.00  0.00     0.134 A 
ATOM     59  C   UNL     1      10.658  12.172  -2.190  1.00  0.00     0.134 A 
ATOM     60  F   UNL     1       7.251  13.320  -2.714  1.00  0.00    -0.206 F 
ATOM     61  C   UNL     1       9.284  14.480  -2.899  1.00  0.00     0.040 A 
ATOM     62  C   UNL     1      11.363  13.347  -2.451  1.00  0.00     0.040 A 
ATOM     63  F   UNL     1      11.359  11.078  -1.857  1.00  0.00    -0.206 F 
ATOM     64  C   UNL     1      10.675  14.504  -2.813  1.00  0.00     0.006 A 
ENDBRANCH  40  57
ENDBRANCH  14  15
ENDBRANCH   7   9
ENDBRANCH   4   5
ENDBRANCH   3   4
ENDBRANCH   2   3
ENDBRANCH   1   2
BRANCH   1  65
ATOM     65  C   UNL     1       6.016  -3.950  -0.146  1.00  0.00     0.021 C 
BRANCH  65  66
ATOM     66  C   UNL     1       7.049  -4.417   0.868  1.00  0.00     0.116 C 
BRANCH  66  67
ATOM     67  N   UNL     1       7.057  -5.852   1.001  1.00  0.00    -0.351 N 
ATOM     68  C   UNL     1       8.081  -6.676   1.377  1.00  0.00     0.262 C 
ATOM     69  H   UNL     1       6.207  -6.301   0.791  1.00  0.00     0.163 HD
ATOM     70  O   UNL     1       7.912  -7.881   1.182  1.00  0.00    -0.268 OA
BRANCH  68  71
ATOM     71  C   UNL     1       9.317  -6.126   1.887  1.00  0.00     0.112 A 
ATOM     72  S   UNL     1      10.735  -6.695   1.066  1.00  0.00    -0.137 S 
ATOM     73  C   UNL     1       9.653  -5.285   2.938  1.00  0.00     0.111 A 
ATOM     74  C   UNL     1      11.778  -5.789   2.053  1.00  0.00     0.067 A 
ATOM     75  C   UNL     1      11.083  -5.072   2.993  1.00  0.00     0.035 A 
BRANCH  73  76
ATOM     76  S   UNL     1       8.651  -4.453   4.087  1.00  0.00     0.263 S 
ATOM     77  O   UNL     1       9.495  -4.349   5.262  1.00  0.00    -0.201 OA
ATOM     78  O   UNL     1       8.338  -3.225   3.378  1.00  0.00    -0.201 OA
BRANCH  76  79
ATOM     79  N   UNL     1       7.173  -5.039   4.601  1.00  0.00    -0.277 N 
ATOM     80  H   UNL     1       6.628  -4.454   5.176  1.00  0.00     0.180 HD
BRANCH  79  81
ATOM     81  C   UNL     1       6.641  -6.319   4.271  1.00  0.00     0.072 A 
ATOM     82  C   UNL     1       5.332  -6.336   3.767  1.00  0.00     0.029 A 
ATOM     83  C   UNL     1       7.341  -7.525   4.468  1.00  0.00     0.061 A 
ATOM     84  C   UNL     1       4.757  -7.513   3.303  1.00  0.00     0.002 A 
ATOM     85  C   UNL     1       6.746  -8.701   3.979  1.00  0.00     0.028 A 
ATOM     86  C   UNL     1       5.479  -8.694   3.383  1.00  0.00     0.002 A 
BRANCH  83  87
ATOM     87  N   UNL     1       8.529  -7.586   5.175  1.00  0.00    -0.370 N 
ATOM     88  C   UNL     1       9.712  -8.249   4.640  1.00  0.00     0.116 C 
ATOM     89  C   UNL     1       8.535  -7.127   6.566  1.00  0.00     0.116 C 
ATOM     90  C   UNL     1      10.220  -9.330   5.585  1.00  0.00     0.021 C 
ATOM     91  C   UNL     1       9.027  -8.238   7.490  1.00  0.00     0.021 C 
ATOM     92  C   UNL     1      10.363  -8.793   7.006  1.00  0.00     0.004 C 
ENDBRANCH  83  87
ENDBRANCH  79  81
ENDBRANCH  76  79
ENDBRANCH  73  76
ENDBRANCH  68  71
ENDBRANCH  66  67
ENDBRANCH  65  66
ENDBRANCH   1  65
TORSDOF 17
