REMARK SMILES NC(=O)C[C@H](C(=O)NCCCCCCNC(=O)c1ccc(-c2c3nc(c(-c4c(F)cccc4F)c4ccc([nH]4)c(-c4c(F)cccc4F)c4nc(c(-c5c(F)cccc5F)c5ccc2[nH]5)C=C4)C=C3)cc1)N1C(=O)/C(=C/c2ccccc2)SC1=S
REMARK SMILES IDX 11 1 10 2 9 3 8 4 6 5 7 6 5 8 4 9 2 10 1 11 3 14 72 15 73 16
REMARK SMILES IDX 84 17 74 18 75 19 83 20 85 21 76 22 77 23 78 24 82 25 79 26
REMARK SMILES IDX 81 27 80 28 12 29 13 30 14 31 15 32 16 33 17 35 18 36 19 37
REMARK SMILES IDX 71 38 20 39 70 40 21 41 22 42 23 43 64 44 24 45 69 46 63 47
REMARK SMILES IDX 65 48 25 49 68 50 62 51 61 52 26 54 52 55 35 56 51 57 36 58
REMARK SMILES IDX 39 59 50 60 66 61 37 62 38 63 49 65 67 66 40 67 27 68 28 69
REMARK SMILES IDX 33 70 29 71 30 72 32 73 34 74 31 75 53 76 54 77 59 78 55 79
REMARK SMILES IDX 56 80 58 81 60 82 57 83 41 84 42 85 47 86 43 87 44 88 46 89
REMARK SMILES IDX 48 90 45 91
REMARK H PARENT 8 7 1 12 1 13 15 34 65 53 39 64
REMARK Flexibility Score: inf
ROOT
ATOM      1  C   UNL     1      -2.557  -2.402   4.509  1.00  0.00     0.002 C 
ENDROOT
BRANCH   1   2
ATOM      2  C   UNL     1      -1.226  -3.125   4.285  1.00  0.00     0.021 C 
BRANCH   2   3
ATOM      3  C   UNL     1      -0.643  -2.905   2.897  1.00  0.00     0.116 C 
BRANCH   3   4
ATOM      4  N   UNL     1      -0.186  -1.543   2.737  1.00  0.00    -0.354 N 
ATOM      5  C   UNL     1       1.036  -1.072   2.361  1.00  0.00     0.243 C 
ATOM      6  O   UNL     1       1.183   0.147   2.321  1.00  0.00    -0.273 OA
ATOM      7  H   UNL     1      -0.860  -0.852   2.930  1.00  0.00     0.163 HD
BRANCH   5   8
ATOM      8  C   UNL     1       2.163  -2.070   2.033  1.00  0.00     0.190 C 
BRANCH   8   9
ATOM      9  C   UNL     1       3.124  -1.509   0.985  1.00  0.00     0.135 C 
BRANCH   9  10
ATOM     10  C   UNL     1       2.387  -1.103  -0.278  1.00  0.00     0.220 C 
ATOM     11  N   UNL     1       1.561  -2.031  -0.842  1.00  0.00    -0.370 N 
ATOM     12  H   UNL     1       1.062  -1.812  -1.662  1.00  0.00     0.159 HD
ATOM     13  H   UNL     1       1.463  -2.919  -0.429  1.00  0.00     0.159 HD
ATOM     14  O   UNL     1       2.547  -0.021  -0.831  1.00  0.00    -0.275 OA
ENDBRANCH   9  10
ENDBRANCH   8   9
BRANCH   8  15
ATOM     15  N   UNL     1       2.820  -2.565   3.266  1.00  0.00    -0.280 N 
ATOM     16  C   UNL     1       3.434  -1.669   4.130  1.00  0.00     0.266 C 
ATOM     17  C   UNL     1       2.963  -3.900   3.593  1.00  0.00     0.149 C 
ATOM     18  O   UNL     1       3.566  -0.470   3.958  1.00  0.00    -0.268 OA
ATOM     19  C   UNL     1       3.987  -2.381   5.316  1.00  0.00     0.081 C 
ATOM     20  S   UNL     1       3.675  -4.061   5.189  1.00  0.00    -0.054 SA
ATOM     21  S   UNL     1       2.587  -5.247   2.678  1.00  0.00    -0.052 S 
ATOM     22  C   UNL     1       4.637  -1.733   6.294  1.00  0.00     0.029 C 
BRANCH  22  23
ATOM     23  C   UNL     1       5.291  -2.332   7.467  1.00  0.00    -0.024 A 
ATOM     24  C   UNL     1       5.000  -1.848   8.748  1.00  0.00     0.008 A 
ATOM     25  C   UNL     1       6.265  -3.330   7.325  1.00  0.00     0.008 A 
ATOM     26  C   UNL     1       5.654  -2.372   9.867  1.00  0.00     0.001 A 
ATOM     27  C   UNL     1       6.913  -3.857   8.444  1.00  0.00     0.001 A 
ATOM     28  C   UNL     1       6.607  -3.377   9.715  1.00  0.00     0.000 A 
ENDBRANCH  22  23
ENDBRANCH   8  15
ENDBRANCH   5   8
ENDBRANCH   3   4
ENDBRANCH   2   3
ENDBRANCH   1   2
BRANCH   1  29
ATOM     29  C   UNL     1      -3.643  -2.724   3.476  1.00  0.00     0.002 C 
BRANCH  29  30
ATOM     30  C   UNL     1      -3.912  -4.217   3.272  1.00  0.00     0.021 C 
BRANCH  30  31
ATOM     31  C   UNL     1      -4.292  -4.962   4.545  1.00  0.00     0.116 C 
BRANCH  31  32
ATOM     32  N   UNL     1      -5.520  -4.446   5.125  1.00  0.00    -0.352 N 
ATOM     33  C   UNL     1      -6.669  -5.118   5.454  1.00  0.00     0.251 C 
ATOM     34  H   UNL     1      -5.529  -3.479   5.307  1.00  0.00     0.163 HD
ATOM     35  O   UNL     1      -7.692  -4.500   5.728  1.00  0.00    -0.269 OA
BRANCH  33  36
ATOM     36  C   UNL     1      -6.670  -6.595   5.460  1.00  0.00     0.039 A 
ATOM     37  C   UNL     1      -7.743  -7.271   4.877  1.00  0.00     0.014 A 
ATOM     38  C   UNL     1      -5.615  -7.307   6.038  1.00  0.00     0.014 A 
ATOM     39  C   UNL     1      -7.732  -8.665   4.827  1.00  0.00     0.010 A 
ATOM     40  C   UNL     1      -5.566  -8.691   5.915  1.00  0.00     0.010 A 
ATOM     41  C   UNL     1      -6.628  -9.385   5.316  1.00  0.00    -0.014 A 
BRANCH  41  42
ATOM     42  C   UNL     1      -6.570 -10.864   5.211  1.00  0.00     0.031 A 
ATOM     43  C   UNL     1      -6.532 -11.709   6.454  1.00  0.00     0.074 A 
ATOM     44  C   UNL     1      -6.497 -11.441   3.996  1.00  0.00     0.049 A 
ATOM     45  N   UNL     1      -6.426 -13.009   6.566  1.00  0.00    -0.248 NA
ATOM     46  C   UNL     1      -6.593 -10.999   7.741  1.00  0.00     0.031 C 
ATOM     47  C   UNL     1      -6.481 -10.727   2.718  1.00  0.00     0.029 A 
ATOM     48  N   UNL     1      -6.413 -12.763   3.638  1.00  0.00    -0.354 N 
ATOM     49  C   UNL     1      -6.399 -13.269   7.930  1.00  0.00     0.074 A 
ATOM     50  C   UNL     1      -6.437 -11.990   8.605  1.00  0.00     0.031 C 
ATOM     51  C   UNL     1      -6.422 -11.618   1.717  1.00  0.00     0.029 A 
ATOM     52  C   UNL     1      -6.350 -12.963   2.280  1.00  0.00     0.049 A 
ATOM     53  H   UNL     1      -6.400 -13.499   4.291  1.00  0.00     0.167 HD
ATOM     54  C   UNL     1      -6.369 -14.466   8.563  1.00  0.00     0.037 A 
ATOM     55  C   UNL     1      -6.237 -14.101   1.569  1.00  0.00     0.037 A 
ATOM     56  C   UNL     1      -6.346 -15.736   7.886  1.00  0.00     0.049 A 
ATOM     57  C   UNL     1      -6.181 -15.416   2.297  1.00  0.00     0.074 A 
ATOM     58  C   UNL     1      -6.370 -17.006   8.436  1.00  0.00     0.029 A 
ATOM     59  N   UNL     1      -6.287 -15.897   6.510  1.00  0.00    -0.354 N 
ATOM     60  N   UNL     1      -6.228 -15.651   3.586  1.00  0.00    -0.248 NA
ATOM     61  C   UNL     1      -6.063 -16.625   1.470  1.00  0.00     0.031 C 
ATOM     62  C   UNL     1      -6.267 -17.934   7.395  1.00  0.00     0.029 A 
ATOM     63  C   UNL     1      -6.244 -17.245   6.193  1.00  0.00     0.049 A 
ATOM     64  H   UNL     1      -6.277 -15.162   5.854  1.00  0.00     0.167 HD
ATOM     65  C   UNL     1      -6.177 -17.032   3.724  1.00  0.00     0.074 A 
ATOM     66  C   UNL     1      -6.112 -17.582   2.385  1.00  0.00     0.031 C 
ATOM     67  C   UNL     1      -6.186 -17.778   4.855  1.00  0.00     0.037 A 
BRANCH  54  68
ATOM     68  C   UNL     1      -6.356 -14.457  10.066  1.00  0.00     0.057 A 
ATOM     69  C   UNL     1      -7.468 -14.046  10.814  1.00  0.00     0.134 A 
ATOM     70  C   UNL     1      -5.231 -14.897  10.774  1.00  0.00     0.134 A 
ATOM     71  F   UNL     1      -8.575 -13.601  10.200  1.00  0.00    -0.206 F 
ATOM     72  C   UNL     1      -7.451 -14.046  12.210  1.00  0.00     0.040 A 
ATOM     73  C   UNL     1      -5.213 -14.932  12.169  1.00  0.00     0.040 A 
ATOM     74  F   UNL     1      -4.134 -15.311  10.122  1.00  0.00    -0.206 F 
ATOM     75  C   UNL     1      -6.323 -14.498  12.892  1.00  0.00     0.006 A 
ENDBRANCH  54  68
BRANCH  55  76
ATOM     76  C   UNL     1      -6.187 -14.051   0.085  1.00  0.00     0.057 A 
ATOM     77  C   UNL     1      -7.237 -14.556  -0.691  1.00  0.00     0.134 A 
ATOM     78  C   UNL     1      -5.086 -13.513  -0.592  1.00  0.00     0.134 A 
ATOM     79  F   UNL     1      -8.311 -15.100  -0.101  1.00  0.00    -0.206 F 
ATOM     80  C   UNL     1      -7.184 -14.550  -2.086  1.00  0.00     0.040 A 
ATOM     81  C   UNL     1      -5.033 -13.475  -1.987  1.00  0.00     0.040 A 
ATOM     82  F   UNL     1      -4.051 -13.004   0.092  1.00  0.00    -0.206 F 
ATOM     83  C   UNL     1      -6.080 -14.004  -2.737  1.00  0.00     0.006 A 
ENDBRANCH  55  76
BRANCH  67  84
ATOM     84  C   UNL     1      -6.165 -19.272   4.696  1.00  0.00     0.057 A 
ATOM     85  C   UNL     1      -5.027 -19.956   4.249  1.00  0.00     0.134 A 
ATOM     86  C   UNL     1      -7.288 -20.038   5.033  1.00  0.00     0.134 A 
ATOM     87  F   UNL     1      -3.921 -19.282   3.898  1.00  0.00    -0.206 F 
ATOM     88  C   UNL     1      -5.018 -21.346   4.117  1.00  0.00     0.040 A 
ATOM     89  C   UNL     1      -7.280 -21.430   4.936  1.00  0.00     0.040 A 
ATOM     90  F   UNL     1      -8.408 -19.447   5.478  1.00  0.00    -0.206 F 
ATOM     91  C   UNL     1      -6.144 -22.087   4.469  1.00  0.00     0.006 A 
ENDBRANCH  67  84
ENDBRANCH  41  42
ENDBRANCH  33  36
ENDBRANCH  31  32
ENDBRANCH  30  31
ENDBRANCH  29  30
ENDBRANCH   1  29
TORSDOF 17
