REMARK SMILES CCc1ccc(C[NH+]2CCC3(CC2)[C@@H](C(=O)NCCCCCCNC(=O)c2ccc(-c4c5nc(c(-c6c(F)cccc6F)c6ccc([nH]6)c(-c6c(F)cccc6F)c6nc(c(-c7c(F)cccc7F)c7ccc4[nH]7)C=C6)C=C5)cc2)CC(=O)N3C)nc1
REMARK SMILES IDX 20 1 19 2 18 3 17 4 15 5 16 6 14 8 8 9 9 10 13 11 10 13
REMARK SMILES IDX 12 14 11 15 84 16 81 17 82 18 85 19 83 20 7 21 6 22 3 23
REMARK SMILES IDX 4 24 87 25 5 26 86 27 2 28 1 29 21 30 22 31 23 32 24 33
REMARK SMILES IDX 25 34 26 36 27 37 28 38 80 39 29 40 79 41 30 42 31 43 32 44
REMARK SMILES IDX 73 45 33 46 78 47 72 48 74 49 34 50 77 51 71 52 70 53 35 55
REMARK SMILES IDX 61 56 44 57 60 58 45 59 48 60 59 61 75 62 46 63 47 64 58 66
REMARK SMILES IDX 76 67 49 68 36 69 37 70 42 71 38 72 39 73 41 74 43 75 40 76
REMARK SMILES IDX 62 77 63 78 68 79 64 80 65 81 67 82 69 83 66 84 50 85 51 86
REMARK SMILES IDX 56 87 52 88 53 89 55 90 57 91 54 92
REMARK H PARENT 17 7 8 12 24 35 74 54 48 65
REMARK Flexibility Score: inf
ROOT
ATOM      1  C   UNL     1       1.451   1.913  -5.994  1.00  0.00     0.002 C 
ENDROOT
BRANCH   1   2
ATOM      2  C   UNL     1       2.647   2.036  -5.051  1.00  0.00     0.021 C 
BRANCH   2   3
ATOM      3  C   UNL     1       2.278   1.817  -3.578  1.00  0.00     0.116 C 
BRANCH   3   4
ATOM      4  N   UNL     1       3.238   0.957  -2.907  1.00  0.00    -0.356 N 
ATOM      5  C   UNL     1       4.031   1.032  -1.812  1.00  0.00     0.226 C 
ATOM      6  O   UNL     1       4.610  -0.037  -1.571  1.00  0.00    -0.275 OA
ATOM      7  H   UNL     1       3.338   0.093  -3.370  1.00  0.00     0.163 HD
BRANCH   5   8
ATOM      8  C   UNL     1       4.126   2.220  -0.824  1.00  0.00     0.114 C 
ATOM      9  N   UNL     1       3.247   6.061  -1.951  1.00  0.00    -0.330 N 
ATOM     10  C   UNL     1       3.936   6.069  -0.683  1.00  0.00     0.265 C 
ATOM     11  C   UNL     1       4.016   5.404  -2.985  1.00  0.00     0.265 C 
ATOM     12  H   UNL     1       3.227   7.041  -2.236  1.00  0.00     0.348 HD
ATOM     13  C   UNL     1       4.193   4.667  -0.151  1.00  0.00     0.091 C 
ATOM     14  C   UNL     1       4.618   4.038  -2.652  1.00  0.00     0.091 C 
ATOM     15  C   UNL     1       4.753   3.623  -1.179  1.00  0.00     0.065 C 
ATOM     16  N   UNL     1       6.171   3.412  -0.829  1.00  0.00    -0.339 N 
ATOM     17  C   UNL     1       5.012   1.774   0.380  1.00  0.00     0.116 C 
ATOM     18  C   UNL     1       6.350   2.404   0.101  1.00  0.00     0.223 C 
ATOM     19  C   UNL     1       7.259   4.274  -1.251  1.00  0.00     0.147 C 
ATOM     20  O   UNL     1       7.401   2.121   0.664  1.00  0.00    -0.275 OA
BRANCH   9  21
ATOM     21  C   UNL     1       1.777   6.001  -1.983  1.00  0.00     0.319 C 
BRANCH  21  22
ATOM     22  C   UNL     1       1.058   4.923  -1.184  1.00  0.00     0.095 A 
ATOM     23  C   UNL     1       0.150   2.747   0.287  1.00  0.00    -0.030 A 
ATOM     24  C   UNL     1       0.374   3.970   0.919  1.00  0.00     0.007 A 
ATOM     25  C   UNL     1       0.236   2.753  -1.094  1.00  0.00     0.115 A 
ATOM     26  C   UNL     1       0.819   5.071   0.180  1.00  0.00     0.030 A 
ATOM     27  N   UNL     1       0.687   3.797  -1.832  1.00  0.00    -0.255 NA
BRANCH  23  28
ATOM     28  C   UNL     1      -0.177   1.500   1.065  1.00  0.00     0.034 C 
ATOM     29  C   UNL     1       0.527   0.238   0.560  1.00  0.00     0.009 C 
ENDBRANCH  23  28
ENDBRANCH  21  22
ENDBRANCH   9  21
ENDBRANCH   5   8
ENDBRANCH   3   4
ENDBRANCH   2   3
ENDBRANCH   1   2
BRANCH   1  30
ATOM     30  C   UNL     1       0.300   2.887  -5.724  1.00  0.00     0.002 C 
BRANCH  30  31
ATOM     31  C   UNL     1       0.642   4.370  -5.869  1.00  0.00     0.021 C 
BRANCH  31  32
ATOM     32  C   UNL     1       1.317   4.754  -7.181  1.00  0.00     0.116 C 
BRANCH  32  33
ATOM     33  N   UNL     1       0.592   4.263  -8.343  1.00  0.00    -0.352 N 
ATOM     34  C   UNL     1       0.128   4.938  -9.440  1.00  0.00     0.251 C 
ATOM     35  H   UNL     1       0.406   3.296  -8.339  1.00  0.00     0.163 HD
ATOM     36  O   UNL     1      -0.632   4.386 -10.230  1.00  0.00    -0.269 OA
BRANCH  34  37
ATOM     37  C   UNL     1       0.538   6.336  -9.666  1.00  0.00     0.039 A 
ATOM     38  C   UNL     1      -0.423   7.263 -10.075  1.00  0.00     0.014 A 
ATOM     39  C   UNL     1       1.869   6.726  -9.489  1.00  0.00     0.014 A 
ATOM     40  C   UNL     1      -0.057   8.594 -10.262  1.00  0.00     0.010 A 
ATOM     41  C   UNL     1       2.214   8.067  -9.594  1.00  0.00     0.010 A 
ATOM     42  C   UNL     1       1.258   9.011  -9.996  1.00  0.00    -0.014 A 
BRANCH  42  43
ATOM     43  C   UNL     1       1.658  10.429 -10.162  1.00  0.00     0.031 A 
ATOM     44  C   UNL     1       2.686  10.800 -11.195  1.00  0.00     0.074 A 
ATOM     45  C   UNL     1       1.126  11.369  -9.357  1.00  0.00     0.049 A 
ATOM     46  N   UNL     1       3.211  11.969 -11.456  1.00  0.00    -0.248 NA
ATOM     47  C   UNL     1       3.213   9.706 -12.029  1.00  0.00     0.031 C 
ATOM     48  C   UNL     1       0.148  11.121  -8.295  1.00  0.00     0.029 A 
ATOM     49  N   UNL     1       1.337  12.723  -9.305  1.00  0.00    -0.354 N 
ATOM     50  C   UNL     1       4.123  11.752 -12.481  1.00  0.00     0.074 A 
ATOM     51  C   UNL     1       4.137  10.330 -12.744  1.00  0.00     0.031 C 
ATOM     52  C   UNL     1      -0.176  12.289  -7.716  1.00  0.00     0.029 A 
ATOM     53  C   UNL     1       0.600  13.358  -8.334  1.00  0.00     0.049 A 
ATOM     54  H   UNL     1       1.957  13.196  -9.906  1.00  0.00     0.167 HD
ATOM     55  C   UNL     1       4.858  12.660 -13.165  1.00  0.00     0.037 A 
ATOM     56  C   UNL     1       0.566  14.656  -7.979  1.00  0.00     0.037 A 
ATOM     57  C   UNL     1       4.833  14.074 -12.905  1.00  0.00     0.049 A 
ATOM     58  C   UNL     1       1.430  15.636  -8.726  1.00  0.00     0.074 A 
ATOM     59  C   UNL     1       5.523  15.083 -13.552  1.00  0.00     0.029 A 
ATOM     60  N   UNL     1       4.073  14.679 -11.914  1.00  0.00    -0.354 N 
ATOM     61  N   UNL     1       2.247  15.425  -9.730  1.00  0.00    -0.248 NA
ATOM     62  C   UNL     1       1.362  17.039  -8.294  1.00  0.00     0.031 C 
ATOM     63  C   UNL     1       5.216  16.294 -12.924  1.00  0.00     0.029 A 
ATOM     64  C   UNL     1       4.291  16.047 -11.922  1.00  0.00     0.049 A 
ATOM     65  H   UNL     1       3.469  14.206 -11.297  1.00  0.00     0.167 HD
ATOM     66  C   UNL     1       2.759  16.669 -10.073  1.00  0.00     0.074 A 
ATOM     67  C   UNL     1       2.147  17.632  -9.181  1.00  0.00     0.031 C 
ATOM     68  C   UNL     1       3.655  16.989 -11.038  1.00  0.00     0.037 A 
BRANCH  55  69
ATOM     69  C   UNL     1       5.737  12.149 -14.270  1.00  0.00     0.057 A 
ATOM     70  C   UNL     1       5.199  11.631 -15.457  1.00  0.00     0.134 A 
ATOM     71  C   UNL     1       7.132  12.207 -14.167  1.00  0.00     0.134 A 
ATOM     72  F   UNL     1       3.870  11.534 -15.616  1.00  0.00    -0.206 F 
ATOM     73  C   UNL     1       6.016  11.168 -16.490  1.00  0.00     0.040 A 
ATOM     74  C   UNL     1       7.960  11.775 -15.206  1.00  0.00     0.040 A 
ATOM     75  F   UNL     1       7.715  12.695 -13.062  1.00  0.00    -0.206 F 
ATOM     76  C   UNL     1       7.402  11.247 -16.369  1.00  0.00     0.006 A 
ENDBRANCH  55  69
BRANCH  56  77
ATOM     77  C   UNL     1      -0.316  15.114  -6.874  1.00  0.00     0.057 A 
ATOM     78  C   UNL     1      -1.396  15.970  -7.118  1.00  0.00     0.134 A 
ATOM     79  C   UNL     1      -0.076  14.745  -5.544  1.00  0.00     0.134 A 
ATOM     80  F   UNL     1      -1.669  16.373  -8.368  1.00  0.00    -0.206 F 
ATOM     81  C   UNL     1      -2.182  16.473  -6.079  1.00  0.00     0.040 A 
ATOM     82  C   UNL     1      -0.874  15.214  -4.499  1.00  0.00     0.040 A 
ATOM     83  F   UNL     1       0.935  13.918  -5.241  1.00  0.00    -0.206 F 
ATOM     84  C   UNL     1      -1.922  16.093  -4.764  1.00  0.00     0.006 A 
ENDBRANCH  56  77
BRANCH  68  85
ATOM     85  C   UNL     1       3.986  18.443 -11.213  1.00  0.00     0.057 A 
ATOM     86  C   UNL     1       4.744  19.152 -10.272  1.00  0.00     0.134 A 
ATOM     87  C   UNL     1       3.569  19.132 -12.360  1.00  0.00     0.134 A 
ATOM     88  F   UNL     1       5.162  18.555  -9.146  1.00  0.00    -0.206 F 
ATOM     89  C   UNL     1       5.051  20.501 -10.453  1.00  0.00     0.040 A 
ATOM     90  C   UNL     1       3.898  20.472 -12.566  1.00  0.00     0.040 A 
ATOM     91  F   UNL     1       2.849  18.509 -13.305  1.00  0.00    -0.206 F 
ATOM     92  C   UNL     1       4.635  21.163 -11.607  1.00  0.00     0.006 A 
ENDBRANCH  68  85
ENDBRANCH  42  43
ENDBRANCH  34  37
ENDBRANCH  32  33
ENDBRANCH  31  32
ENDBRANCH  30  31
ENDBRANCH   1  30
TORSDOF 16
