REMARK SMILES Cc1nsc(NC(=O)CC[C@H](C)CC[NH3+])c1C(=O)NCCCCCCNC(=O)c1ccc(-c2c3nc(c(-c4c(F)cccc4F)c4ccc([nH]4)c(-c4c(F)cccc4F)c4nc(c(-c5c(F)cccc5F)c5ccc2[nH]5)C=C4)C=C3)cc1
REMARK SMILES IDX 20 1 19 2 17 3 18 4 16 6 1 7 2 8 3 9 4 10 5 11 6 12 7 13
REMARK SMILES IDX 8 15 9 16 10 17 11 18 12 19 13 20 14 21 15 22 21 26 22 27
REMARK SMILES IDX 23 28 24 29 25 30 26 31 27 32 28 34 29 35 30 36 82 37 31 38
REMARK SMILES IDX 81 39 32 40 33 41 34 42 75 43 35 44 80 45 74 46 76 47 36 48
REMARK SMILES IDX 79 49 73 50 72 51 37 53 63 54 46 55 62 56 47 57 50 58 61 59
REMARK SMILES IDX 77 60 48 61 49 62 60 64 78 65 51 66 38 67 39 68 44 69 40 70
REMARK SMILES IDX 41 71 43 72 45 73 42 74 64 75 65 76 70 77 66 78 67 79 69 80
REMARK SMILES IDX 71 81 68 82 52 83 53 84 58 85 54 86 55 87 57 88 59 89 56 90
REMARK H PARENT 19 5 6 14 15 23 15 24 15 25 26 33 76 52 50 63
REMARK Flexibility Score: inf
ROOT
ATOM      1  C   UNL     1      -4.676   4.961  -3.152  1.00  0.00     0.116 C 
ENDROOT
BRANCH   1   2
ATOM      2  N   UNL     1      -4.772   3.563  -2.830  1.00  0.00    -0.352 N 
ATOM      3  C   UNL     1      -4.909   2.896  -1.635  1.00  0.00     0.256 C 
ATOM      4  O   UNL     1      -4.885   1.664  -1.739  1.00  0.00    -0.269 OA
ATOM      5  H   UNL     1      -4.731   2.970  -3.615  1.00  0.00     0.163 HD
BRANCH   3   6
ATOM      6  C   UNL     1      -5.064   3.505  -0.297  1.00  0.00     0.097 A 
ATOM      7  C   UNL     1      -5.541   6.152  -0.480  1.00  0.00     0.069 C 
ATOM      8  C   UNL     1      -5.406   4.838   0.208  1.00  0.00     0.066 A 
ATOM      9  N   UNL     1      -5.606   4.930   1.527  1.00  0.00    -0.195 NA
ATOM     10  S   UNL     1      -5.322   3.482   2.232  1.00  0.00    -0.017 S 
ATOM     11  C   UNL     1      -4.729   2.738   0.835  1.00  0.00     0.129 A 
BRANCH  11  12
ATOM     12  N   UNL     1      -4.064   1.525   0.901  1.00  0.00    -0.316 N 
ATOM     13  C   UNL     1      -3.045   1.127   1.734  1.00  0.00     0.225 C 
ATOM     14  H   UNL     1      -4.367   0.846   0.256  1.00  0.00     0.170 HD
ATOM     15  O   UNL     1      -2.540   0.018   1.511  1.00  0.00    -0.275 OA
BRANCH  13  16
ATOM     16  C   UNL     1      -2.437   1.992   2.850  1.00  0.00     0.101 C 
BRANCH  16  17
ATOM     17  C   UNL     1      -0.991   2.493   2.596  1.00  0.00     0.013 C 
BRANCH  17  18
ATOM     18  C   UNL     1      -0.805   3.805   1.767  1.00  0.00    -0.008 C 
ATOM     19  C   UNL     1      -1.299   5.024   2.552  1.00  0.00     0.008 C 
BRANCH  18  20
ATOM     20  C   UNL     1      -1.477   3.650   0.403  1.00  0.00     0.064 C 
BRANCH  20  21
ATOM     21  C   UNL     1      -1.641   4.832  -0.540  1.00  0.00     0.259 C 
BRANCH  21  22
ATOM     22  N   UNL     1      -0.543   4.976  -1.475  1.00  0.00    -0.358 N 
ATOM     23  H   UNL     1       0.322   5.145  -0.961  1.00  0.00     0.344 HD
ATOM     24  H   UNL     1      -0.728   5.763  -2.097  1.00  0.00     0.344 HD
ATOM     25  H   UNL     1      -0.450   4.122  -2.025  1.00  0.00     0.344 HD
ENDBRANCH  21  22
ENDBRANCH  20  21
ENDBRANCH  18  20
ENDBRANCH  17  18
ENDBRANCH  16  17
ENDBRANCH  13  16
ENDBRANCH  11  12
ENDBRANCH   3   6
ENDBRANCH   1   2
BRANCH   1  26
ATOM     26  C   UNL     1      -4.109   5.298  -4.529  1.00  0.00     0.021 C 
BRANCH  26  27
ATOM     27  C   UNL     1      -4.952   4.900  -5.742  1.00  0.00     0.002 C 
BRANCH  27  28
ATOM     28  C   UNL     1      -6.454   5.215  -5.704  1.00  0.00     0.002 C 
BRANCH  28  29
ATOM     29  C   UNL     1      -6.893   6.660  -5.424  1.00  0.00     0.021 C 
BRANCH  29  30
ATOM     30  C   UNL     1      -6.402   7.697  -6.419  1.00  0.00     0.116 C 
BRANCH  30  31
ATOM     31  N   UNL     1      -6.856   7.468  -7.795  1.00  0.00    -0.352 N 
ATOM     32  C   UNL     1      -6.499   8.147  -8.957  1.00  0.00     0.251 C 
ATOM     33  H   UNL     1      -7.503   6.735  -7.913  1.00  0.00     0.163 HD
ATOM     34  O   UNL     1      -7.194   8.111  -9.954  1.00  0.00    -0.269 OA
BRANCH  32  35
ATOM     35  C   UNL     1      -5.233   8.904  -8.955  1.00  0.00     0.039 A 
ATOM     36  C   UNL     1      -5.062  10.127  -9.609  1.00  0.00     0.014 A 
ATOM     37  C   UNL     1      -4.203   8.357  -8.208  1.00  0.00     0.014 A 
ATOM     38  C   UNL     1      -3.854  10.804  -9.436  1.00  0.00     0.010 A 
ATOM     39  C   UNL     1      -3.189   9.157  -7.788  1.00  0.00     0.010 A 
ATOM     40  C   UNL     1      -2.925  10.304  -8.510  1.00  0.00    -0.014 A 
BRANCH  40  41
ATOM     41  C   UNL     1      -1.666  10.962  -8.206  1.00  0.00     0.031 A 
ATOM     42  C   UNL     1      -1.832  12.343  -7.707  1.00  0.00     0.074 A 
ATOM     43  C   UNL     1      -0.496  10.285  -8.127  1.00  0.00     0.049 A 
ATOM     44  N   UNL     1      -1.616  13.440  -8.349  1.00  0.00    -0.248 NA
ATOM     45  C   UNL     1      -2.491  12.536  -6.403  1.00  0.00     0.031 C 
ATOM     46  C   UNL     1      -0.284   8.828  -8.219  1.00  0.00     0.029 A 
ATOM     47  N   UNL     1       0.754  10.743  -7.836  1.00  0.00    -0.354 N 
ATOM     48  C   UNL     1      -1.838  14.453  -7.423  1.00  0.00     0.074 A 
ATOM     49  C   UNL     1      -2.606  13.866  -6.360  1.00  0.00     0.031 C 
ATOM     50  C   UNL     1       0.945   8.511  -7.758  1.00  0.00     0.029 A 
ATOM     51  C   UNL     1       1.676   9.741  -7.539  1.00  0.00     0.049 A 
ATOM     52  H   UNL     1       0.987  11.700  -7.837  1.00  0.00     0.167 HD
ATOM     53  C   UNL     1      -1.065  15.574  -7.443  1.00  0.00     0.037 A 
ATOM     54  C   UNL     1       2.961   9.912  -7.150  1.00  0.00     0.037 A 
ATOM     55  C   UNL     1      -0.265  15.609  -8.643  1.00  0.00     0.049 A 
ATOM     56  C   UNL     1       3.372  11.269  -7.572  1.00  0.00     0.074 A 
ATOM     57  C   UNL     1      -0.463  15.881  -9.977  1.00  0.00     0.029 A 
ATOM     58  N   UNL     1       0.898  14.890  -8.538  1.00  0.00    -0.354 N 
ATOM     59  N   UNL     1       3.466  11.631  -8.823  1.00  0.00    -0.248 NA
ATOM     60  C   UNL     1       3.313  12.361  -6.609  1.00  0.00     0.031 C 
ATOM     61  C   UNL     1       0.552  15.168 -10.684  1.00  0.00     0.029 A 
ATOM     62  C   UNL     1       1.373  14.518  -9.765  1.00  0.00     0.049 A 
ATOM     63  H   UNL     1       1.336  14.670  -7.684  1.00  0.00     0.167 HD
ATOM     64  C   UNL     1       3.050  12.949  -8.830  1.00  0.00     0.074 A 
ATOM     65  C   UNL     1       3.143  13.390  -7.444  1.00  0.00     0.031 C 
ATOM     66  C   UNL     1       2.349  13.456  -9.885  1.00  0.00     0.037 A 
BRANCH  53  67
ATOM     67  C   UNL     1      -0.625  16.350  -6.221  1.00  0.00     0.057 A 
ATOM     68  C   UNL     1       0.047  17.573  -6.403  1.00  0.00     0.134 A 
ATOM     69  C   UNL     1      -0.553  15.821  -4.916  1.00  0.00     0.134 A 
ATOM     70  F   UNL     1       0.073  18.171  -7.604  1.00  0.00    -0.206 F 
ATOM     71  C   UNL     1       0.782  18.188  -5.381  1.00  0.00     0.040 A 
ATOM     72  C   UNL     1       0.134  16.453  -3.875  1.00  0.00     0.040 A 
ATOM     73  F   UNL     1      -1.047  14.619  -4.597  1.00  0.00    -0.206 F 
ATOM     74  C   UNL     1       0.831  17.626  -4.112  1.00  0.00     0.006 A 
ENDBRANCH  53  67
BRANCH  54  75
ATOM     75  C   UNL     1       3.762   9.088  -6.222  1.00  0.00     0.057 A 
ATOM     76  C   UNL     1       5.163   9.120  -6.232  1.00  0.00     0.134 A 
ATOM     77  C   UNL     1       3.163   8.469  -5.111  1.00  0.00     0.134 A 
ATOM     78  F   UNL     1       5.821   9.719  -7.235  1.00  0.00    -0.206 F 
ATOM     79  C   UNL     1       5.926   8.593  -5.181  1.00  0.00     0.040 A 
ATOM     80  C   UNL     1       3.912   7.940  -4.055  1.00  0.00     0.040 A 
ATOM     81  F   UNL     1       1.828   8.444  -4.975  1.00  0.00    -0.206 F 
ATOM     82  C   UNL     1       5.299   8.014  -4.080  1.00  0.00     0.006 A 
ENDBRANCH  54  75
BRANCH  66  83
ATOM     83  C   UNL     1       2.487  12.767 -11.208  1.00  0.00     0.057 A 
ATOM     84  C   UNL     1       2.005  11.483 -11.498  1.00  0.00     0.134 A 
ATOM     85  C   UNL     1       3.071  13.479 -12.261  1.00  0.00     0.134 A 
ATOM     86  F   UNL     1       1.369  10.755 -10.573  1.00  0.00    -0.206 F 
ATOM     87  C   UNL     1       2.131  10.924 -12.774  1.00  0.00     0.040 A 
ATOM     88  C   UNL     1       3.175  12.945 -13.546  1.00  0.00     0.040 A 
ATOM     89  F   UNL     1       3.519  14.729 -12.063  1.00  0.00    -0.206 F 
ATOM     90  C   UNL     1       2.713  11.658 -13.804  1.00  0.00     0.006 A 
ENDBRANCH  66  83
ENDBRANCH  40  41
ENDBRANCH  32  35
ENDBRANCH  30  31
ENDBRANCH  29  30
ENDBRANCH  28  29
ENDBRANCH  27  28
ENDBRANCH  26  27
ENDBRANCH   1  26
TORSDOF 20
