REMARK SMILES NS(=O)(=O)c1ccc(N2N=C(C(=O)NCCCCCCNC(=O)c3ccc(-c4c5nc(c(-c6c(F)cccc6F)c6ccc([nH]6)c(-c6c(F)cccc6F)c6nc(c(-c7c(F)cccc7F)c7ccc4[nH]7)C=C6)C=C5)cc3)C[C@H]2c2ccco2)cc1
REMARK SMILES IDX 17 1 16 2 15 3 14 4 12 5 13 6 11 8 9 9 10 10 79 11 78 12
REMARK SMILES IDX 8 13 5 14 6 15 86 16 7 17 85 18 2 19 3 20 4 21 1 22 80 25
REMARK SMILES IDX 81 26 84 27 82 28 83 29 18 30 19 31 20 32 21 33 22 34 23 36
REMARK SMILES IDX 24 37 25 38 77 39 26 40 76 41 27 42 28 43 29 44 70 45 30 46
REMARK SMILES IDX 75 47 69 48 71 49 31 50 74 51 68 52 67 53 32 55 58 56 41 57
REMARK SMILES IDX 57 58 42 59 45 60 56 61 72 62 43 63 44 64 55 66 73 67 46 68
REMARK SMILES IDX 33 69 34 70 39 71 35 72 36 73 38 74 40 75 37 76 59 77 60 78
REMARK SMILES IDX 65 79 61 80 62 81 64 82 66 83 63 84 47 85 48 86 53 87 49 88
REMARK SMILES IDX 50 89 52 90 54 91 51 92
REMARK H PARENT 14 7 1 23 1 24 21 35 71 54 45 65
REMARK Flexibility Score: inf
ROOT
ATOM      1  C   UNL     1       6.254  12.720  -0.101  1.00  0.00     0.002 C 
ENDROOT
BRANCH   1   2
ATOM      2  C   UNL     1       5.246  11.711   0.456  1.00  0.00     0.021 C 
BRANCH   2   3
ATOM      3  C   UNL     1       4.269  11.153  -0.575  1.00  0.00     0.116 C 
BRANCH   3   4
ATOM      4  N   UNL     1       4.920  10.206  -1.455  1.00  0.00    -0.351 N 
ATOM      5  C   UNL     1       4.697   8.895  -1.784  1.00  0.00     0.267 C 
ATOM      6  O   UNL     1       5.518   8.351  -2.520  1.00  0.00    -0.268 OA
ATOM      7  H   UNL     1       5.697  10.591  -1.922  1.00  0.00     0.163 HD
BRANCH   5   8
ATOM      8  C   UNL     1       3.486   8.092  -1.331  1.00  0.00     0.128 C 
ATOM      9  N   UNL     1       2.089   6.476  -1.294  1.00  0.00    -0.254 N 
ATOM     10  N   UNL     1       3.322   6.864  -1.721  1.00  0.00    -0.171 NA
ATOM     11  C   UNL     1       1.440   7.445  -0.409  1.00  0.00     0.180 C 
ATOM     12  C   UNL     1       2.413   8.628  -0.446  1.00  0.00     0.099 C 
BRANCH   9  13
ATOM     13  C   UNL     1       1.743   5.130  -1.310  1.00  0.00     0.060 A 
ATOM     14  C   UNL     1       1.032   2.412  -1.387  1.00  0.00     0.082 A 
ATOM     15  C   UNL     1       2.277   2.787  -0.878  1.00  0.00     0.024 A 
ATOM     16  C   UNL     1       0.141   3.375  -1.858  1.00  0.00     0.024 A 
ATOM     17  C   UNL     1       2.628   4.141  -0.853  1.00  0.00     0.029 A 
ATOM     18  C   UNL     1       0.504   4.721  -1.822  1.00  0.00     0.029 A 
BRANCH  14  19
ATOM     19  S   UNL     1       0.565   0.712  -1.454  1.00  0.00     0.238 S 
ATOM     20  O   UNL     1       1.310   0.065  -2.505  1.00  0.00    -0.207 OA
ATOM     21  O   UNL     1      -0.874   0.617  -1.341  1.00  0.00    -0.207 OA
BRANCH  19  22
ATOM     22  N   UNL     1       1.149   0.081  -0.009  1.00  0.00    -0.225 NA
ATOM     23  H   UNL     1       0.922  -0.913   0.045  1.00  0.00     0.137 HD
ATOM     24  H   UNL     1       0.717   0.570   0.775  1.00  0.00     0.137 HD
ENDBRANCH  19  22
ENDBRANCH  14  19
ENDBRANCH   9  13
BRANCH  11  25
ATOM     25  C   UNL     1       0.029   7.849  -0.722  1.00  0.00     0.128 A 
ATOM     26  C   UNL     1      -1.196   7.311  -0.372  1.00  0.00     0.048 A 
ATOM     27  O   UNL     1      -0.169   8.962  -1.490  1.00  0.00    -0.467 OA
ATOM     28  C   UNL     1      -2.184   8.127  -0.972  1.00  0.00     0.042 A 
ATOM     29  C   UNL     1      -1.508   9.126  -1.629  1.00  0.00     0.195 A 
ENDBRANCH  11  25
ENDBRANCH   5   8
ENDBRANCH   3   4
ENDBRANCH   2   3
ENDBRANCH   1   2
BRANCH   1  30
ATOM     30  C   UNL     1       5.644  13.949  -0.784  1.00  0.00     0.002 C 
BRANCH  30  31
ATOM     31  C   UNL     1       4.576  14.692   0.023  1.00  0.00     0.021 C 
BRANCH  31  32
ATOM     32  C   UNL     1       5.016  15.156   1.408  1.00  0.00     0.116 C 
BRANCH  32  33
ATOM     33  N   UNL     1       6.117  16.101   1.350  1.00  0.00    -0.352 N 
ATOM     34  C   UNL     1       6.239  17.336   1.934  1.00  0.00     0.251 C 
ATOM     35  H   UNL     1       6.889  15.812   0.813  1.00  0.00     0.163 HD
ATOM     36  O   UNL     1       7.177  18.067   1.632  1.00  0.00    -0.269 OA
BRANCH  34  37
ATOM     37  C   UNL     1       5.232  17.801   2.913  1.00  0.00     0.039 A 
ATOM     38  C   UNL     1       4.769  19.116   2.823  1.00  0.00     0.014 A 
ATOM     39  C   UNL     1       4.763  16.961   3.928  1.00  0.00     0.014 A 
ATOM     40  C   UNL     1       3.800  19.574   3.718  1.00  0.00     0.010 A 
ATOM     41  C   UNL     1       3.748  17.397   4.777  1.00  0.00     0.010 A 
ATOM     42  C   UNL     1       3.260  18.709   4.684  1.00  0.00    -0.014 A 
BRANCH  42  43
ATOM     43  C   UNL     1       2.187  19.167   5.602  1.00  0.00     0.031 A 
ATOM     44  C   UNL     1       2.440  19.265   7.080  1.00  0.00     0.074 A 
ATOM     45  C   UNL     1       0.966  19.449   5.107  1.00  0.00     0.049 A 
ATOM     46  N   UNL     1       1.617  19.608   8.039  1.00  0.00    -0.248 NA
ATOM     47  C   UNL     1       3.788  18.905   7.547  1.00  0.00     0.031 C 
ATOM     48  C   UNL     1       0.580  19.346   3.698  1.00  0.00     0.029 A 
ATOM     49  N   UNL     1      -0.177  19.874   5.734  1.00  0.00    -0.354 N 
ATOM     50  C   UNL     1       2.342  19.496   9.219  1.00  0.00     0.074 A 
ATOM     51  C   UNL     1       3.654  19.003   8.862  1.00  0.00     0.031 C 
ATOM     52  C   UNL     1      -0.702  19.722   3.566  1.00  0.00     0.029 A 
ATOM     53  C   UNL     1      -1.237  20.061   4.880  1.00  0.00     0.049 A 
ATOM     54  H   UNL     1      -0.233  20.030   6.705  1.00  0.00     0.167 HD
ATOM     55  C   UNL     1       1.957  19.799  10.482  1.00  0.00     0.037 A 
ATOM     56  C   UNL     1      -2.498  20.460   5.130  1.00  0.00     0.037 A 
ATOM     57  C   UNL     1       0.658  20.313  10.832  1.00  0.00     0.049 A 
ATOM     58  C   UNL     1      -2.899  20.794   6.539  1.00  0.00     0.074 A 
ATOM     59  C   UNL     1       0.193  20.706  12.075  1.00  0.00     0.029 A 
ATOM     60  N   UNL     1      -0.383  20.504   9.937  1.00  0.00    -0.354 N 
ATOM     61  N   UNL     1      -2.182  20.747   7.636  1.00  0.00    -0.248 NA
ATOM     62  C   UNL     1      -4.283  21.244   6.744  1.00  0.00     0.031 C 
ATOM     63  C   UNL     1      -1.144  21.097  11.938  1.00  0.00     0.029 A 
ATOM     64  C   UNL     1      -1.497  20.990  10.603  1.00  0.00     0.049 A 
ATOM     65  H   UNL     1      -0.338  20.321   8.970  1.00  0.00     0.167 HD
ATOM     66  C   UNL     1      -3.018  21.185   8.655  1.00  0.00     0.074 A 
ATOM     67  C   UNL     1      -4.290  21.508   8.042  1.00  0.00     0.031 C 
ATOM     68  C   UNL     1      -2.756  21.308   9.979  1.00  0.00     0.037 A 
BRANCH  55  69
ATOM     69  C   UNL     1       2.958  19.585  11.579  1.00  0.00     0.057 A 
ATOM     70  C   UNL     1       4.090  20.401  11.716  1.00  0.00     0.134 A 
ATOM     71  C   UNL     1       2.775  18.573  12.529  1.00  0.00     0.134 A 
ATOM     72  F   UNL     1       4.331  21.382  10.832  1.00  0.00    -0.206 F 
ATOM     73  C   UNL     1       5.016  20.201  12.741  1.00  0.00     0.040 A 
ATOM     74  C   UNL     1       3.680  18.380  13.575  1.00  0.00     0.040 A 
ATOM     75  F   UNL     1       1.711  17.759  12.461  1.00  0.00    -0.206 F 
ATOM     76  C   UNL     1       4.808  19.191  13.678  1.00  0.00     0.006 A 
ENDBRANCH  55  69
BRANCH  56  77
ATOM     77  C   UNL     1      -3.467  20.595   4.013  1.00  0.00     0.057 A 
ATOM     78  C   UNL     1      -3.901  21.855   3.584  1.00  0.00     0.134 A 
ATOM     79  C   UNL     1      -3.985  19.474   3.354  1.00  0.00     0.134 A 
ATOM     80  F   UNL     1      -3.454  22.965   4.190  1.00  0.00    -0.206 F 
ATOM     81  C   UNL     1      -4.830  21.995   2.553  1.00  0.00     0.040 A 
ATOM     82  C   UNL     1      -4.896  19.601   2.304  1.00  0.00     0.040 A 
ATOM     83  F   UNL     1      -3.601  18.240   3.713  1.00  0.00    -0.206 F 
ATOM     84  C   UNL     1      -5.326  20.865   1.906  1.00  0.00     0.006 A 
ENDBRANCH  56  77
BRANCH  68  85
ATOM     85  C   UNL     1      -3.858  21.839  10.847  1.00  0.00     0.057 A 
ATOM     86  C   UNL     1      -4.988  21.072  11.159  1.00  0.00     0.134 A 
ATOM     87  C   UNL     1      -3.776  23.125  11.397  1.00  0.00     0.134 A 
ATOM     88  F   UNL     1      -5.133  19.838  10.653  1.00  0.00    -0.206 F 
ATOM     89  C   UNL     1      -6.009  21.575  11.967  1.00  0.00     0.040 A 
ATOM     90  C   UNL     1      -4.778  23.628  12.227  1.00  0.00     0.040 A 
ATOM     91  F   UNL     1      -2.717  23.908  11.144  1.00  0.00    -0.206 F 
ATOM     92  C   UNL     1      -5.903  22.855  12.508  1.00  0.00     0.006 A 
ENDBRANCH  68  85
ENDBRANCH  42  43
ENDBRANCH  34  37
ENDBRANCH  32  33
ENDBRANCH  31  32
ENDBRANCH  30  31
ENDBRANCH   1  30
TORSDOF 17
