REMARK SMILES C/C(=N/[NH+]=C1\NC(=O)[C@H](CC(=O)NCCCCCCNC(=O)c2ccc(-c3c4nc(c(-c5c(F)cccc5F)c5ccc([nH]5)c(-c5c(F)cccc5F)c5nc(c(-c6c(F)cccc6F)c6ccc3[nH]6)C=C5)C=C4)cc2)S1)c1ccc(OC(C)C)cc1
REMARK SMILES IDX 15 1 14 2 13 3 11 4 12 5 10 7 9 8 4 9 5 10 6 12 77 13 7 14
REMARK SMILES IDX 8 16 3 17 1 18 2 19 78 20 79 21 87 22 80 23 86 24 81 25
REMARK SMILES IDX 82 26 83 27 84 28 85 29 16 30 17 31 18 32 19 33 20 34 21 35
REMARK SMILES IDX 22 37 23 38 24 39 76 40 25 41 75 42 26 43 27 44 28 45 69 46
REMARK SMILES IDX 29 47 74 48 68 49 70 50 30 51 73 52 67 53 66 54 31 56 57 57
REMARK SMILES IDX 40 58 56 59 41 60 44 61 55 62 71 63 42 64 43 65 54 67 72 68
REMARK SMILES IDX 45 69 32 70 33 71 38 72 34 73 35 74 37 75 39 76 36 77 58 78
REMARK SMILES IDX 59 79 64 80 60 81 61 82 63 83 65 84 62 85 46 86 47 87 52 88
REMARK SMILES IDX 48 89 49 90 51 91 53 92 50 93
REMARK H PARENT 13 6 4 11 6 15 20 36 70 55 44 66
REMARK Flexibility Score: inf
ROOT
ATOM      1  C   UNL     1       4.882  -2.962  -3.368  1.00  0.00     0.021 C 
ENDROOT
BRANCH   1   2
ATOM      2  C   UNL     1       3.833  -2.904  -4.471  1.00  0.00     0.116 C 
BRANCH   2   3
ATOM      3  N   UNL     1       3.901  -4.031  -5.377  1.00  0.00    -0.356 N 
ATOM      4  C   UNL     1       2.887  -4.798  -5.871  1.00  0.00     0.221 C 
ATOM      5  O   UNL     1       3.152  -5.726  -6.633  1.00  0.00    -0.275 OA
ATOM      6  H   UNL     1       4.805  -4.279  -5.678  1.00  0.00     0.163 HD
BRANCH   4   7
ATOM      7  C   UNL     1       1.460  -4.489  -5.488  1.00  0.00     0.127 C 
BRANCH   7   8
ATOM      8  C   UNL     1       0.988  -5.322  -4.301  1.00  0.00     0.183 C 
ATOM      9  N   UNL     1      -0.867  -2.874  -2.041  1.00  0.00    -0.142 N 
ATOM     10  C   UNL     1      -0.160  -3.815  -2.563  1.00  0.00     0.337 C 
ATOM     11  H   UNL     1      -1.784  -2.685  -2.345  1.00  0.00     0.343 HD
ATOM     12  N   UNL     1       1.097  -4.156  -2.213  1.00  0.00    -0.202 N 
ATOM     13  S   UNL     1      -0.721  -4.782  -3.894  1.00  0.00    -0.020 SA
ATOM     14  C   UNL     1       1.756  -5.046  -3.013  1.00  0.00     0.322 C 
ATOM     15  H   UNL     1       1.524  -3.778  -1.411  1.00  0.00     0.316 HD
ATOM     16  O   UNL     1       2.852  -5.502  -2.738  1.00  0.00    -0.246 OA
BRANCH   9  17
ATOM     17  N   UNL     1      -0.264  -2.136  -1.019  1.00  0.00    -0.090 NA
ATOM     18  C   UNL     1       0.837  -0.158  -0.219  1.00  0.00     0.071 C 
ATOM     19  C   UNL     1       0.331  -1.023  -1.357  1.00  0.00     0.088 C 
BRANCH  19  20
ATOM     20  C   UNL     1       0.647  -0.567  -2.749  1.00  0.00    -0.000 A 
ATOM     21  C   UNL     1      -0.259  -0.707  -3.797  1.00  0.00     0.014 A 
ATOM     22  C   UNL     1       1.935  -0.102  -3.036  1.00  0.00     0.014 A 
ATOM     23  C   UNL     1       0.153  -0.478  -5.116  1.00  0.00     0.047 A 
ATOM     24  C   UNL     1       2.334   0.140  -4.364  1.00  0.00     0.047 A 
ATOM     25  C   UNL     1       1.459  -0.074  -5.417  1.00  0.00     0.119 A 
BRANCH  25  26
ATOM     26  O   UNL     1       1.704   0.041  -6.746  1.00  0.00    -0.491 OA
BRANCH  26  27
ATOM     27  C   UNL     1       2.921   0.452  -7.376  1.00  0.00     0.167 C 
ATOM     28  C   UNL     1       3.522   1.767  -6.893  1.00  0.00     0.052 C 
ATOM     29  C   UNL     1       3.949  -0.664  -7.498  1.00  0.00     0.052 C 
ENDBRANCH  26  27
ENDBRANCH  25  26
ENDBRANCH  19  20
ENDBRANCH   9  17
ENDBRANCH   7   8
ENDBRANCH   4   7
ENDBRANCH   2   3
ENDBRANCH   1   2
BRANCH   1  30
ATOM     30  C   UNL     1       6.302  -2.599  -3.814  1.00  0.00     0.002 C 
BRANCH  30  31
ATOM     31  C   UNL     1       6.540  -1.135  -4.202  1.00  0.00     0.002 C 
BRANCH  31  32
ATOM     32  C   UNL     1       6.063  -0.089  -3.197  1.00  0.00     0.021 C 
BRANCH  32  33
ATOM     33  C   UNL     1       6.605  -0.260  -1.785  1.00  0.00     0.116 C 
BRANCH  33  34
ATOM     34  N   UNL     1       8.040  -0.058  -1.725  1.00  0.00    -0.352 N 
ATOM     35  C   UNL     1       8.760   0.930  -1.100  1.00  0.00     0.251 C 
ATOM     36  H   UNL     1       8.579  -0.730  -2.203  1.00  0.00     0.163 HD
ATOM     37  O   UNL     1       9.955   1.066  -1.341  1.00  0.00    -0.269 OA
BRANCH  35  38
ATOM     38  C   UNL     1       8.091   1.849  -0.153  1.00  0.00     0.039 A 
ATOM     39  C   UNL     1       8.393   3.212  -0.207  1.00  0.00     0.014 A 
ATOM     40  C   UNL     1       7.179   1.371   0.792  1.00  0.00     0.014 A 
ATOM     41  C   UNL     1       7.734   4.101   0.644  1.00  0.00     0.010 A 
ATOM     42  C   UNL     1       6.460   2.267   1.577  1.00  0.00     0.010 A 
ATOM     43  C   UNL     1       6.734   3.641   1.517  1.00  0.00    -0.014 A 
BRANCH  43  44
ATOM     44  C   UNL     1       5.971   4.577   2.380  1.00  0.00     0.031 A 
ATOM     45  C   UNL     1       6.060   4.466   3.877  1.00  0.00     0.074 A 
ATOM     46  C   UNL     1       5.149   5.484   1.817  1.00  0.00     0.049 A 
ATOM     47  N   UNL     1       5.411   5.135   4.796  1.00  0.00    -0.248 NA
ATOM     48  C   UNL     1       6.979   3.448   4.412  1.00  0.00     0.031 C 
ATOM     49  C   UNL     1       4.943   5.663   0.378  1.00  0.00     0.029 A 
ATOM     50  N   UNL     1       4.323   6.419   2.389  1.00  0.00    -0.354 N 
ATOM     51  C   UNL     1       5.832   4.611   6.012  1.00  0.00     0.074 A 
ATOM     52  C   UNL     1       6.747   3.531   5.714  1.00  0.00     0.031 C 
ATOM     53  C   UNL     1       4.068   6.662   0.180  1.00  0.00     0.029 A 
ATOM     54  C   UNL     1       3.618   7.164   1.474  1.00  0.00     0.049 A 
ATOM     55  H   UNL     1       4.243   6.544   3.362  1.00  0.00     0.167 HD
ATOM     56  C   UNL     1       5.504   5.009   7.265  1.00  0.00     0.037 A 
ATOM     57  C   UNL     1       2.704   8.135   1.659  1.00  0.00     0.037 A 
ATOM     58  C   UNL     1       4.611   6.099   7.558  1.00  0.00     0.049 A 
ATOM     59  C   UNL     1       2.341   8.545   3.059  1.00  0.00     0.074 A 
ATOM     60  C   UNL     1       4.264   6.621   8.791  1.00  0.00     0.029 A 
ATOM     61  N   UNL     1       3.920   6.831   6.604  1.00  0.00    -0.354 N 
ATOM     62  N   UNL     1       2.799   8.086   4.199  1.00  0.00    -0.248 NA
ATOM     63  C   UNL     1       1.336   9.607   3.199  1.00  0.00     0.031 C 
ATOM     64  C   UNL     1       3.324   7.636   8.587  1.00  0.00     0.029 A 
ATOM     65  C   UNL     1       3.124   7.781   7.223  1.00  0.00     0.049 A 
ATOM     66  H   UNL     1       3.986   6.696   5.631  1.00  0.00     0.167 HD
ATOM     67  C   UNL     1       2.155   8.817   5.189  1.00  0.00     0.074 A 
ATOM     68  C   UNL     1       1.291   9.763   4.514  1.00  0.00     0.031 C 
ATOM     69  C   UNL     1       2.267   8.714   6.536  1.00  0.00     0.037 A 
BRANCH  56  70
ATOM     70  C   UNL     1       6.117   4.259   8.413  1.00  0.00     0.057 A 
ATOM     71  C   UNL     1       7.484   4.352   8.713  1.00  0.00     0.134 A 
ATOM     72  C   UNL     1       5.328   3.459   9.248  1.00  0.00     0.134 A 
ATOM     73  F   UNL     1       8.299   5.091   7.945  1.00  0.00    -0.206 F 
ATOM     74  C   UNL     1       8.046   3.654   9.783  1.00  0.00     0.040 A 
ATOM     75  C   UNL     1       5.874   2.780  10.339  1.00  0.00     0.040 A 
ATOM     76  F   UNL     1       4.011   3.330   9.023  1.00  0.00    -0.206 F 
ATOM     77  C   UNL     1       7.239   2.870  10.604  1.00  0.00     0.006 A 
ENDBRANCH  56  70
BRANCH  57  78
ATOM     78  C   UNL     1       2.074   8.797   0.487  1.00  0.00     0.057 A 
ATOM     79  C   UNL     1       2.352  10.133   0.177  1.00  0.00     0.134 A 
ATOM     80  C   UNL     1       1.176   8.116  -0.344  1.00  0.00     0.134 A 
ATOM     81  F   UNL     1       3.190  10.844   0.946  1.00  0.00    -0.206 F 
ATOM     82  C   UNL     1       1.745  10.775  -0.904  1.00  0.00     0.040 A 
ATOM     83  C   UNL     1       0.583   8.737  -1.444  1.00  0.00     0.040 A 
ATOM     84  F   UNL     1       0.875   6.830  -0.106  1.00  0.00    -0.206 F 
ATOM     85  C   UNL     1       0.861  10.074  -1.721  1.00  0.00     0.006 A 
ENDBRANCH  57  78
BRANCH  69  86
ATOM     86  C   UNL     1       1.450   9.660   7.367  1.00  0.00     0.057 A 
ATOM     87  C   UNL     1       0.060   9.529   7.482  1.00  0.00     0.134 A 
ATOM     88  C   UNL     1       2.066  10.690   8.090  1.00  0.00     0.134 A 
ATOM     89  F   UNL     1      -0.591   8.572   6.804  1.00  0.00    -0.206 F 
ATOM     90  C   UNL     1      -0.691  10.404   8.268  1.00  0.00     0.040 A 
ATOM     91  C   UNL     1       1.329  11.553   8.902  1.00  0.00     0.040 A 
ATOM     92  F   UNL     1       3.394  10.864   8.031  1.00  0.00    -0.206 F 
ATOM     93  C   UNL     1      -0.055  11.415   8.987  1.00  0.00     0.006 A 
ENDBRANCH  69  86
ENDBRANCH  43  44
ENDBRANCH  35  38
ENDBRANCH  33  34
ENDBRANCH  32  33
ENDBRANCH  31  32
ENDBRANCH  30  31
ENDBRANCH   1  30
TORSDOF 18
