REMARK SMILES O=C(NCCCCCCNC(=O)c1sccc1S(=O)(=O)Nc1ccc(Cn2cncn2)cc1)c1ccc(-c2c3nc(c(-c4c(F)cccc4F)c4ccc([nH]4)c(-c4c(F)cccc4F)c4nc(c(-c5c(F)cccc5F)c5ccc2[nH]5)C=C4)C=C3)cc1
REMARK SMILES IDX 8 1 7 2 6 3 5 4 4 5 3 6 1 7 2 8 34 10 35 11 87 12 36 13
REMARK SMILES IDX 86 14 37 15 38 16 39 17 80 18 40 19 85 20 79 21 81 22 41 23
REMARK SMILES IDX 84 24 78 25 77 26 42 28 68 29 51 30 67 31 52 32 55 33 66 34
REMARK SMILES IDX 82 35 53 36 54 37 65 39 83 40 56 41 43 42 44 43 49 44 45 45
REMARK SMILES IDX 46 46 48 47 50 48 47 49 69 50 70 51 75 52 71 53 72 54 74 55
REMARK SMILES IDX 76 56 73 57 57 58 58 59 63 60 59 61 60 62 62 63 64 64 61 65
REMARK SMILES IDX 9 66 10 67 11 68 12 70 13 71 14 72 17 73 15 74 16 75 18 76
REMARK SMILES IDX 19 77 20 78 21 79 22 81 23 82 33 83 24 84 32 85 25 86 26 87
REMARK SMILES IDX 27 88 28 89 31 90 29 91 30 92
REMARK H PARENT 3 9 81 27 55 38 10 69 21 80
REMARK Flexibility Score: inf
ROOT
ATOM      1  C   UNL     1       6.359  -2.641   2.789  1.00  0.00     0.021 C 
ENDROOT
BRANCH   1   2
ATOM      2  C   UNL     1       4.863  -2.429   3.071  1.00  0.00     0.002 C 
BRANCH   2   3
ATOM      3  C   UNL     1       4.426  -0.970   3.240  1.00  0.00     0.002 C 
BRANCH   3   4
ATOM      4  C   UNL     1       4.841  -0.018   2.115  1.00  0.00     0.021 C 
BRANCH   4   5
ATOM      5  C   UNL     1       4.585  -0.543   0.703  1.00  0.00     0.116 C 
BRANCH   5   6
ATOM      6  N   UNL     1       3.194  -0.809   0.416  1.00  0.00    -0.352 N 
ATOM      7  O   UNL     1       1.101  -0.636  -0.266  1.00  0.00    -0.269 OA
ATOM      8  C   UNL     1       2.141  -0.038   0.018  1.00  0.00     0.251 C 
ATOM      9  H   UNL     1       2.953  -1.756   0.532  1.00  0.00     0.163 HD
BRANCH   8  10
ATOM     10  C   UNL     1       2.146   1.448  -0.017  1.00  0.00     0.039 A 
ATOM     11  C   UNL     1       3.278   2.265   0.007  1.00  0.00     0.014 A 
ATOM     12  C   UNL     1       0.877   2.055  -0.066  1.00  0.00     0.014 A 
ATOM     13  C   UNL     1       3.146   3.648   0.068  1.00  0.00     0.010 A 
ATOM     14  C   UNL     1       0.739   3.435  -0.022  1.00  0.00     0.010 A 
ATOM     15  C   UNL     1       1.876   4.228   0.074  1.00  0.00    -0.014 A 
BRANCH  15  16
ATOM     16  C   UNL     1       1.785   5.681  -0.012  1.00  0.00     0.031 A 
ATOM     17  C   UNL     1       2.275   6.245  -1.303  1.00  0.00     0.074 A 
ATOM     18  C   UNL     1       1.170   6.447   0.910  1.00  0.00     0.049 A 
ATOM     19  N   UNL     1       3.259   7.061  -1.496  1.00  0.00    -0.248 NA
ATOM     20  C   UNL     1       1.664   5.744  -2.546  1.00  0.00     0.031 C 
ATOM     21  C   UNL     1       0.381   6.012   2.064  1.00  0.00     0.029 A 
ATOM     22  N   UNL     1       1.038   7.803   0.945  1.00  0.00    -0.354 N 
ATOM     23  C   UNL     1       3.279   7.323  -2.866  1.00  0.00     0.074 A 
ATOM     24  C   UNL     1       2.379   6.380  -3.474  1.00  0.00     0.031 C 
ATOM     25  C   UNL     1      -0.324   7.063   2.543  1.00  0.00     0.029 A 
ATOM     26  C   UNL     1       0.060   8.263   1.818  1.00  0.00     0.049 A 
ATOM     27  H   UNL     1       1.590   8.407   0.397  1.00  0.00     0.167 HD
ATOM     28  C   UNL     1       3.872   8.440  -3.372  1.00  0.00     0.037 A 
ATOM     29  C   UNL     1      -0.436   9.524   1.889  1.00  0.00     0.037 A 
ATOM     30  C   UNL     1       4.771   9.034  -2.420  1.00  0.00     0.049 A 
ATOM     31  C   UNL     1       0.529  10.428   1.217  1.00  0.00     0.074 A 
ATOM     32  C   UNL     1       5.921   8.627  -1.774  1.00  0.00     0.029 A 
ATOM     33  N   UNL     1       4.333  10.142  -1.740  1.00  0.00    -0.354 N 
ATOM     34  N   UNL     1       1.708  10.717   1.688  1.00  0.00    -0.248 NA
ATOM     35  C   UNL     1       0.348  10.671  -0.207  1.00  0.00     0.031 C 
ATOM     36  C   UNL     1       5.833   9.201  -0.472  1.00  0.00     0.029 A 
ATOM     37  C   UNL     1       4.668   9.967  -0.424  1.00  0.00     0.049 A 
ATOM     38  H   UNL     1       3.866  10.918  -2.126  1.00  0.00     0.167 HD
ATOM     39  C   UNL     1       2.532  10.746   0.575  1.00  0.00     0.074 A 
ATOM     40  C   UNL     1       1.626  10.805  -0.570  1.00  0.00     0.031 C 
ATOM     41  C   UNL     1       3.857  10.432   0.674  1.00  0.00     0.037 A 
BRANCH  28  42
ATOM     42  C   UNL     1       3.365   9.209  -4.567  1.00  0.00     0.057 A 
ATOM     43  C   UNL     1       4.136  10.272  -5.077  1.00  0.00     0.134 A 
ATOM     44  C   UNL     1       2.034   9.160  -5.028  1.00  0.00     0.134 A 
ATOM     45  F   UNL     1       5.415  10.435  -4.707  1.00  0.00    -0.206 F 
ATOM     46  C   UNL     1       3.595  11.259  -5.910  1.00  0.00     0.040 A 
ATOM     47  C   UNL     1       1.500  10.112  -5.901  1.00  0.00     0.040 A 
ATOM     48  F   UNL     1       1.153   8.259  -4.579  1.00  0.00    -0.206 F 
ATOM     49  C   UNL     1       2.269  11.186  -6.317  1.00  0.00     0.006 A 
ENDBRANCH  28  42
BRANCH  29  50
ATOM     50  C   UNL     1      -1.809   9.972   2.224  1.00  0.00     0.057 A 
ATOM     51  C   UNL     1      -2.080  11.312   2.543  1.00  0.00     0.134 A 
ATOM     52  C   UNL     1      -2.928   9.165   1.958  1.00  0.00     0.134 A 
ATOM     53  F   UNL     1      -1.078  12.174   2.772  1.00  0.00    -0.206 F 
ATOM     54  C   UNL     1      -3.384  11.825   2.569  1.00  0.00     0.040 A 
ATOM     55  C   UNL     1      -4.236   9.663   1.987  1.00  0.00     0.040 A 
ATOM     56  F   UNL     1      -2.786   7.890   1.569  1.00  0.00    -0.206 F 
ATOM     57  C   UNL     1      -4.467  11.001   2.278  1.00  0.00     0.006 A 
ENDBRANCH  29  50
BRANCH  41  58
ATOM     58  C   UNL     1       4.454  10.323   2.048  1.00  0.00     0.057 A 
ATOM     59  C   UNL     1       4.064   9.374   3.006  1.00  0.00     0.134 A 
ATOM     60  C   UNL     1       5.568  11.111   2.355  1.00  0.00     0.134 A 
ATOM     61  F   UNL     1       3.073   8.507   2.764  1.00  0.00    -0.206 F 
ATOM     62  C   UNL     1       4.728   9.249   4.230  1.00  0.00     0.040 A 
ATOM     63  C   UNL     1       6.262  10.971   3.558  1.00  0.00     0.040 A 
ATOM     64  F   UNL     1       6.032  12.001   1.463  1.00  0.00    -0.206 F 
ATOM     65  C   UNL     1       5.836  10.044   4.505  1.00  0.00     0.006 A 
ENDBRANCH  41  58
ENDBRANCH  15  16
ENDBRANCH   8  10
ENDBRANCH   5   6
ENDBRANCH   4   5
ENDBRANCH   3   4
ENDBRANCH   2   3
ENDBRANCH   1   2
BRANCH   1  66
ATOM     66  C   UNL     1       7.260  -2.338   3.978  1.00  0.00     0.116 C 
BRANCH  66  67
ATOM     67  N   UNL     1       7.112  -3.362   4.985  1.00  0.00    -0.351 N 
ATOM     68  C   UNL     1       8.011  -3.825   5.901  1.00  0.00     0.262 C 
ATOM     69  H   UNL     1       6.227  -3.792   5.015  1.00  0.00     0.163 HD
ATOM     70  O   UNL     1       7.714  -4.879   6.469  1.00  0.00    -0.268 OA
BRANCH  68  71
ATOM     71  C   UNL     1       9.263  -3.137   6.099  1.00  0.00     0.112 A 
ATOM     72  S   UNL     1      10.651  -4.174   6.023  1.00  0.00    -0.137 S 
ATOM     73  C   UNL     1       9.635  -1.831   6.380  1.00  0.00     0.111 A 
ATOM     74  C   UNL     1      11.735  -2.882   6.215  1.00  0.00     0.067 A 
ATOM     75  C   UNL     1      11.073  -1.693   6.385  1.00  0.00     0.035 A 
BRANCH  73  76
ATOM     76  S   UNL     1       8.692  -0.402   6.685  1.00  0.00     0.263 S 
ATOM     77  O   UNL     1       9.319   0.141   7.874  1.00  0.00    -0.201 OA
ATOM     78  O   UNL     1       8.791   0.301   5.422  1.00  0.00    -0.201 OA
BRANCH  76  79
ATOM     79  N   UNL     1       7.066  -0.489   6.993  1.00  0.00    -0.280 N 
ATOM     80  H   UNL     1       6.524   0.294   6.745  1.00  0.00     0.180 HD
BRANCH  79  81
ATOM     81  C   UNL     1       6.386  -1.574   7.575  1.00  0.00     0.049 A 
ATOM     82  C   UNL     1       5.135  -1.872   7.032  1.00  0.00     0.027 A 
ATOM     83  C   UNL     1       6.926  -2.384   8.564  1.00  0.00     0.027 A 
ATOM     84  C   UNL     1       4.540  -3.101   7.285  1.00  0.00     0.008 A 
ATOM     85  C   UNL     1       6.313  -3.609   8.845  1.00  0.00     0.008 A 
ATOM     86  C   UNL     1       5.165  -4.014   8.142  1.00  0.00    -0.026 A 
BRANCH  86  87
ATOM     87  C   UNL     1       4.703  -5.451   8.200  1.00  0.00     0.181 C 
BRANCH  87  88
ATOM     88  N   UNL     1       3.385  -5.582   8.780  1.00  0.00    -0.249 N 
ATOM     89  C   UNL     1       2.183  -5.470   8.150  1.00  0.00     0.220 A 
ATOM     90  N   UNL     1       3.221  -5.928  10.071  1.00  0.00    -0.160 NA
ATOM     91  N   UNL     1       1.215  -5.692   9.008  1.00  0.00    -0.224 NA
ATOM     92  C   UNL     1       1.890  -5.967  10.163  1.00  0.00     0.246 A 
ENDBRANCH  87  88
ENDBRANCH  86  87
ENDBRANCH  79  81
ENDBRANCH  76  79
ENDBRANCH  73  76
ENDBRANCH  68  71
ENDBRANCH  66  67
ENDBRANCH   1  66
TORSDOF 18
