REMARK SMILES CC[C@@H]1CCCN(S(=O)(=O)c2cc(C(=O)NCCCCCCNC(=O)c3ccc(-c4c5nc(c(-c6c(F)cccc6F)c6ccc([nH]6)c(-c6c(F)cccc6F)c6nc(c(-c7c(F)cccc7F)c7ccc4[nH]7)C=C6)C=C5)cc3)ccc2F)C1
REMARK SMILES IDX 19 1 18 2 17 3 16 4 14 5 15 6 13 8 11 9 12 10 82 11 81 12
REMARK SMILES IDX 83 13 80 14 8 15 9 16 10 17 7 18 3 19 4 20 84 21 5 22 6 23
REMARK SMILES IDX 2 24 1 25 20 26 21 27 22 28 23 29 24 30 25 32 26 33 27 34
REMARK SMILES IDX 79 35 28 36 78 37 29 38 30 39 31 40 72 41 32 42 77 43 71 44
REMARK SMILES IDX 73 45 33 46 76 47 70 48 69 49 34 51 60 52 43 53 59 54 44 55
REMARK SMILES IDX 47 56 58 57 74 58 45 59 46 60 57 62 75 63 48 64 35 65 36 66
REMARK SMILES IDX 41 67 37 68 38 69 40 70 42 71 39 72 61 73 62 74 67 75 63 76
REMARK SMILES IDX 64 77 66 78 68 79 65 80 49 81 50 82 55 83 51 84 52 85 54 86
REMARK SMILES IDX 56 87 53 88
REMARK H PARENT 16 7 23 31 73 50 47 61
REMARK Flexibility Score: inf
ROOT
ATOM      1  C   UNL     1       3.597  12.277   3.708  1.00  0.00     0.002 C 
ENDROOT
BRANCH   1   2
ATOM      2  C   UNL     1       4.094  11.162   2.776  1.00  0.00     0.021 C 
BRANCH   2   3
ATOM      3  C   UNL     1       3.559   9.775   3.143  1.00  0.00     0.116 C 
BRANCH   3   4
ATOM      4  N   UNL     1       2.204   9.613   2.658  1.00  0.00    -0.352 N 
ATOM      5  C   UNL     1       1.653   8.950   1.596  1.00  0.00     0.251 C 
ATOM      6  O   UNL     1       0.428   9.001   1.487  1.00  0.00    -0.269 OA
ATOM      7  H   UNL     1       1.537  10.080   3.211  1.00  0.00     0.163 HD
BRANCH   5   8
ATOM      8  C   UNL     1       2.426   8.160   0.592  1.00  0.00     0.041 A 
ATOM      9  C   UNL     1       2.322   6.464  -1.164  1.00  0.00     0.119 A 
ATOM     10  C   UNL     1       1.700   7.212  -0.156  1.00  0.00     0.038 A 
ATOM     11  C   UNL     1       3.668   6.661  -1.436  1.00  0.00     0.143 A 
ATOM     12  C   UNL     1       4.405   7.579  -0.698  1.00  0.00     0.041 A 
ATOM     13  F   UNL     1       4.302   5.975  -2.395  1.00  0.00    -0.206 F 
ATOM     14  C   UNL     1       3.780   8.349   0.289  1.00  0.00     0.017 A 
BRANCH   9  15
ATOM     15  S   UNL     1       1.363   5.413  -2.209  1.00  0.00     0.246 S 
ATOM     16  O   UNL     1       1.862   5.531  -3.562  1.00  0.00    -0.207 OA
ATOM     17  O   UNL     1      -0.033   5.686  -1.929  1.00  0.00    -0.207 OA
BRANCH  15  18
ATOM     18  N   UNL     1       1.679   3.800  -1.661  1.00  0.00    -0.197 NA
ATOM     19  C   UNL     1       0.950   1.397  -1.848  1.00  0.00     0.004 C 
ATOM     20  C   UNL     1       2.417   0.992  -2.020  1.00  0.00     0.006 C 
ATOM     21  C   UNL     1       0.761   2.834  -2.362  1.00  0.00     0.106 C 
ATOM     22  C   UNL     1       3.330   1.963  -1.292  1.00  0.00     0.017 C 
ATOM     23  C   UNL     1       3.110   3.389  -1.779  1.00  0.00     0.102 C 
BRANCH  19  24
ATOM     24  C   UNL     1       0.411   1.258  -0.408  1.00  0.00     0.001 C 
ATOM     25  C   UNL     1       0.685  -0.097   0.229  1.00  0.00     0.004 C 
ENDBRANCH  19  24
ENDBRANCH  15  18
ENDBRANCH   9  15
ENDBRANCH   5   8
ENDBRANCH   3   4
ENDBRANCH   2   3
ENDBRANCH   1   2
BRANCH   1  26
ATOM     26  C   UNL     1       3.985  12.110   5.183  1.00  0.00     0.002 C 
BRANCH  26  27
ATOM     27  C   UNL     1       5.479  11.891   5.438  1.00  0.00     0.021 C 
BRANCH  27  28
ATOM     28  C   UNL     1       6.367  13.045   4.984  1.00  0.00     0.116 C 
BRANCH  28  29
ATOM     29  N   UNL     1       6.104  14.255   5.745  1.00  0.00    -0.352 N 
ATOM     30  C   UNL     1       6.965  15.012   6.499  1.00  0.00     0.251 C 
ATOM     31  H   UNL     1       5.175  14.579   5.715  1.00  0.00     0.163 HD
ATOM     32  O   UNL     1       6.528  15.863   7.268  1.00  0.00    -0.269 OA
BRANCH  30  33
ATOM     33  C   UNL     1       8.423  14.796   6.391  1.00  0.00     0.039 A 
ATOM     34  C   UNL     1       9.190  14.768   7.558  1.00  0.00     0.014 A 
ATOM     35  C   UNL     1       9.033  14.647   5.143  1.00  0.00     0.014 A 
ATOM     36  C   UNL     1      10.565  14.538   7.475  1.00  0.00     0.010 A 
ATOM     37  C   UNL     1      10.391  14.350   5.066  1.00  0.00     0.010 A 
ATOM     38  C   UNL     1      11.171  14.298   6.231  1.00  0.00    -0.014 A 
BRANCH  38  39
ATOM     39  C   UNL     1      12.620  13.990   6.129  1.00  0.00     0.031 A 
ATOM     40  C   UNL     1      13.544  14.931   5.407  1.00  0.00     0.074 A 
ATOM     41  C   UNL     1      13.091  12.835   6.640  1.00  0.00     0.049 A 
ATOM     42  N   UNL     1      14.819  14.795   5.148  1.00  0.00    -0.248 NA
ATOM     43  C   UNL     1      12.956  16.176   4.886  1.00  0.00     0.031 C 
ATOM     44  C   UNL     1      12.286  11.824   7.329  1.00  0.00     0.029 A 
ATOM     45  N   UNL     1      14.360  12.312   6.652  1.00  0.00    -0.354 N 
ATOM     46  C   UNL     1      15.181  15.928   4.430  1.00  0.00     0.074 A 
ATOM     47  C   UNL     1      13.985  16.719   4.250  1.00  0.00     0.031 C 
ATOM     48  C   UNL     1      13.083  10.815   7.713  1.00  0.00     0.029 A 
ATOM     49  C   UNL     1      14.445  11.085   7.264  1.00  0.00     0.049 A 
ATOM     50  H   UNL     1      15.136  12.773   6.258  1.00  0.00     0.167 HD
ATOM     51  C   UNL     1      16.408  16.285   3.984  1.00  0.00     0.037 A 
ATOM     52  C   UNL     1      15.500  10.265   7.437  1.00  0.00     0.037 A 
ATOM     53  C   UNL     1      17.603  15.514   4.197  1.00  0.00     0.049 A 
ATOM     54  C   UNL     1      16.850  10.686   6.926  1.00  0.00     0.074 A 
ATOM     55  C   UNL     1      18.901  15.825   3.830  1.00  0.00     0.029 A 
ATOM     56  N   UNL     1      17.649  14.285   4.835  1.00  0.00    -0.354 N 
ATOM     57  N   UNL     1      17.186  11.785   6.294  1.00  0.00    -0.248 NA
ATOM     58  C   UNL     1      17.968   9.759   7.152  1.00  0.00     0.031 C 
ATOM     59  C   UNL     1      19.727  14.764   4.208  1.00  0.00     0.029 A 
ATOM     60  C   UNL     1      18.952  13.816   4.855  1.00  0.00     0.049 A 
ATOM     61  H   UNL     1      16.873  13.816   5.217  1.00  0.00     0.167 HD
ATOM     62  C   UNL     1      18.553  11.694   6.072  1.00  0.00     0.074 A 
ATOM     63  C   UNL     1      18.989  10.439   6.647  1.00  0.00     0.031 C 
ATOM     64  C   UNL     1      19.373  12.571   5.444  1.00  0.00     0.037 A 
BRANCH  51  65
ATOM     65  C   UNL     1      16.541  17.580   3.239  1.00  0.00     0.057 A 
ATOM     66  C   UNL     1      16.853  17.591   1.873  1.00  0.00     0.134 A 
ATOM     67  C   UNL     1      16.468  18.814   3.897  1.00  0.00     0.134 A 
ATOM     68  F   UNL     1      16.944  16.443   1.186  1.00  0.00    -0.206 F 
ATOM     69  C   UNL     1      17.111  18.783   1.194  1.00  0.00     0.040 A 
ATOM     70  C   UNL     1      16.701  20.014   3.223  1.00  0.00     0.040 A 
ATOM     71  F   UNL     1      16.163  18.872   5.202  1.00  0.00    -0.206 F 
ATOM     72  C   UNL     1      17.037  19.999   1.871  1.00  0.00     0.006 A 
ENDBRANCH  51  65
BRANCH  52  73
ATOM     73  C   UNL     1      15.323   8.968   8.140  1.00  0.00     0.057 A 
ATOM     74  C   UNL     1      14.597   7.917   7.566  1.00  0.00     0.134 A 
ATOM     75  C   UNL     1      15.874   8.752   9.408  1.00  0.00     0.134 A 
ATOM     76  F   UNL     1      14.036   8.063   6.356  1.00  0.00    -0.206 F 
ATOM     77  C   UNL     1      14.416   6.704   8.231  1.00  0.00     0.040 A 
ATOM     78  C   UNL     1      15.725   7.534  10.074  1.00  0.00     0.040 A 
ATOM     79  F   UNL     1      16.595   9.714  10.003  1.00  0.00    -0.206 F 
ATOM     80  C   UNL     1      14.988   6.507   9.487  1.00  0.00     0.006 A 
ENDBRANCH  52  73
BRANCH  64  81
ATOM     81  C   UNL     1      20.831  12.229   5.364  1.00  0.00     0.057 A 
ATOM     82  C   UNL     1      21.775  12.961   6.097  1.00  0.00     0.134 A 
ATOM     83  C   UNL     1      21.308  11.241   4.495  1.00  0.00     0.134 A 
ATOM     84  F   UNL     1      21.383  13.930   6.937  1.00  0.00    -0.206 F 
ATOM     85  C   UNL     1      23.144  12.733   5.955  1.00  0.00     0.040 A 
ATOM     86  C   UNL     1      22.674  10.986   4.364  1.00  0.00     0.040 A 
ATOM     87  F   UNL     1      20.455  10.500   3.773  1.00  0.00    -0.206 F 
ATOM     88  C   UNL     1      23.596  11.741   5.087  1.00  0.00     0.006 A 
ENDBRANCH  64  81
ENDBRANCH  38  39
ENDBRANCH  30  33
ENDBRANCH  28  29
ENDBRANCH  27  28
ENDBRANCH  26  27
ENDBRANCH   1  26
TORSDOF 16
