REMARK SMILES CC(=O)Oc1cc(CCC(=O)NCCCCCCNC(=O)c2ccc(-c3c4nc(c(-c5c(F)cccc5F)c5ccc([nH]5)c(-c5c(F)cccc5F)c5nc(c(-c6c(F)cccc6F)c6ccc3[nH]6)C=C5)C=C4)cc2)c(OC(C)=O)c2c1C(=O)c1ccccc1C2=O
REMARK SMILES IDX 14 1 13 2 12 3 10 4 11 5 9 7 8 8 7 9 5 10 6 11 82 12 81 13
REMARK SMILES IDX 83 14 76 15 91 16 84 17 85 18 90 19 92 20 86 21 89 22 87 23
REMARK SMILES IDX 88 24 4 25 2 26 1 27 3 28 77 29 78 30 79 31 80 32 15 33
REMARK SMILES IDX 16 34 17 35 18 36 19 37 20 38 21 40 22 41 23 42 75 43 24 44
REMARK SMILES IDX 74 45 25 46 26 47 27 48 68 49 28 50 73 51 67 52 69 53 29 54
REMARK SMILES IDX 72 55 66 56 65 57 30 59 56 60 39 61 55 62 40 63 43 64 54 65
REMARK SMILES IDX 70 66 41 67 42 68 53 70 71 71 44 72 31 73 32 74 37 75 33 76
REMARK SMILES IDX 34 77 36 78 38 79 35 80 57 81 58 82 63 83 59 84 60 85 62 86
REMARK SMILES IDX 64 87 61 88 45 89 46 90 51 91 47 92 48 93 50 94 52 95 49 96
REMARK H PARENT 12 6 19 39 69 58 43 69
REMARK Flexibility Score: inf
ROOT
ATOM      1  C   UNL     1      -1.370  -2.657  -5.810  1.00  0.00     0.021 C 
ENDROOT
BRANCH   1   2
ATOM      2  C   UNL     1      -0.058  -3.434  -5.914  1.00  0.00     0.116 C 
BRANCH   2   3
ATOM      3  N   UNL     1       0.546  -3.264  -7.228  1.00  0.00    -0.356 N 
ATOM      4  C   UNL     1       1.574  -2.474  -7.642  1.00  0.00     0.220 C 
ATOM      5  O   UNL     1       1.824  -2.427  -8.848  1.00  0.00    -0.275 OA
ATOM      6  H   UNL     1       0.141  -3.814  -7.938  1.00  0.00     0.163 HD
BRANCH   4   7
ATOM      7  C   UNL     1       2.413  -1.683  -6.658  1.00  0.00     0.105 C 
BRANCH   7   8
ATOM      8  C   UNL     1       2.183  -0.171  -6.761  1.00  0.00     0.049 C 
BRANCH   8   9
ATOM      9  C   UNL     1       1.027   0.302  -5.908  1.00  0.00    -0.000 A 
ATOM     10  C   UNL     1       0.169   0.810  -3.708  1.00  0.00     0.143 A 
ATOM     11  C   UNL     1       1.237   0.486  -4.543  1.00  0.00     0.055 A 
ATOM     12  C   UNL     1      -1.135   0.972  -4.207  1.00  0.00     0.080 A 
ATOM     13  C   UNL     1      -1.379   0.761  -5.574  1.00  0.00     0.081 A 
ATOM     14  C   UNL     1      -2.247   1.332  -3.293  1.00  0.00     0.198 C 
ATOM     15  C   UNL     1      -0.279   0.478  -6.409  1.00  0.00     0.146 A 
ATOM     16  C   UNL     1      -2.783   0.729  -6.041  1.00  0.00     0.198 C 
ATOM     17  O   UNL     1      -2.041   1.723  -2.150  1.00  0.00    -0.288 OA
ATOM     18  C   UNL     1      -3.634   1.159  -3.750  1.00  0.00     0.034 A 
ATOM     19  C   UNL     1      -3.886   0.775  -5.060  1.00  0.00     0.034 A 
ATOM     20  O   UNL     1      -3.063   0.641  -7.227  1.00  0.00    -0.288 OA
ATOM     21  C   UNL     1      -4.692   1.312  -2.844  1.00  0.00     0.013 A 
ATOM     22  C   UNL     1      -5.193   0.447  -5.444  1.00  0.00     0.013 A 
ATOM     23  C   UNL     1      -5.993   0.990  -3.228  1.00  0.00     0.001 A 
ATOM     24  C   UNL     1      -6.240   0.535  -4.522  1.00  0.00     0.001 A 
BRANCH  10  25
ATOM     25  O   UNL     1       0.483   0.936  -2.352  1.00  0.00    -0.426 OA
BRANCH  25  26
ATOM     26  C   UNL     1       0.203  -0.227  -1.641  1.00  0.00     0.308 C 
ATOM     27  C   UNL     1       0.652  -0.050  -0.221  1.00  0.00     0.139 C 
ATOM     28  O   UNL     1      -0.277  -1.258  -2.099  1.00  0.00    -0.252 OA
ENDBRANCH  25  26
ENDBRANCH  10  25
BRANCH  15  29
ATOM     29  O   UNL     1      -0.352   0.340  -7.873  1.00  0.00    -0.426 OA
BRANCH  29  30
ATOM     30  C   UNL     1      -0.807   0.128  -9.213  1.00  0.00     0.308 C 
ATOM     31  C   UNL     1       0.337   0.434 -10.139  1.00  0.00     0.139 C 
ATOM     32  O   UNL     1      -1.913  -0.264  -9.552  1.00  0.00    -0.252 OA
ENDBRANCH  29  30
ENDBRANCH  15  29
ENDBRANCH   8   9
ENDBRANCH   7   8
ENDBRANCH   4   7
ENDBRANCH   2   3
ENDBRANCH   1   2
BRANCH   1  33
ATOM     33  C   UNL     1      -2.661  -3.470  -5.920  1.00  0.00     0.002 C 
BRANCH  33  34
ATOM     34  C   UNL     1      -2.920  -4.501  -4.818  1.00  0.00     0.002 C 
BRANCH  34  35
ATOM     35  C   UNL     1      -2.709  -4.040  -3.372  1.00  0.00     0.021 C 
BRANCH  35  36
ATOM     36  C   UNL     1      -3.560  -2.864  -2.891  1.00  0.00     0.116 C 
BRANCH  36  37
ATOM     37  N   UNL     1      -4.978  -3.175  -2.821  1.00  0.00    -0.352 N 
ATOM     38  C   UNL     1      -5.907  -3.027  -1.820  1.00  0.00     0.251 C 
ATOM     39  H   UNL     1      -5.342  -3.565  -3.649  1.00  0.00     0.163 HD
ATOM     40  O   UNL     1      -7.032  -3.493  -2.003  1.00  0.00    -0.269 OA
BRANCH  38  41
ATOM     41  C   UNL     1      -5.621  -2.349  -0.525  1.00  0.00     0.039 A 
ATOM     42  C   UNL     1      -6.323  -2.781   0.611  1.00  0.00     0.014 A 
ATOM     43  C   UNL     1      -4.750  -1.266  -0.397  1.00  0.00     0.014 A 
ATOM     44  C   UNL     1      -6.108  -2.180   1.857  1.00  0.00     0.010 A 
ATOM     45  C   UNL     1      -4.508  -0.680   0.853  1.00  0.00     0.010 A 
ATOM     46  C   UNL     1      -5.174  -1.143   1.994  1.00  0.00    -0.014 A 
BRANCH  46  47
ATOM     47  C   UNL     1      -4.807  -0.634   3.340  1.00  0.00     0.031 A 
ATOM     48  C   UNL     1      -5.236   0.719   3.826  1.00  0.00     0.074 A 
ATOM     49  C   UNL     1      -4.020  -1.402   4.118  1.00  0.00     0.049 A 
ATOM     50  N   UNL     1      -5.051   1.269   5.001  1.00  0.00    -0.248 NA
ATOM     51  C   UNL     1      -5.945   1.576   2.866  1.00  0.00     0.031 C 
ATOM     52  C   UNL     1      -3.467  -2.701   3.729  1.00  0.00     0.029 A 
ATOM     53  N   UNL     1      -3.548  -1.205   5.391  1.00  0.00    -0.354 N 
ATOM     54  C   UNL     1      -5.620   2.533   4.927  1.00  0.00     0.074 A 
ATOM     55  C   UNL     1      -6.122   2.684   3.575  1.00  0.00     0.031 C 
ATOM     56  C   UNL     1      -2.751  -3.195   4.750  1.00  0.00     0.029 A 
ATOM     57  C   UNL     1      -2.791  -2.250   5.861  1.00  0.00     0.049 A 
ATOM     58  H   UNL     1      -3.734  -0.394   5.916  1.00  0.00     0.167 HD
ATOM     59  C   UNL     1      -5.726   3.472   5.899  1.00  0.00     0.037 A 
ATOM     60  C   UNL     1      -2.213  -2.439   7.062  1.00  0.00     0.037 A 
ATOM     61  C   UNL     1      -5.229   3.317   7.245  1.00  0.00     0.049 A 
ATOM     62  C   UNL     1      -2.399  -1.414   8.141  1.00  0.00     0.074 A 
ATOM     63  C   UNL     1      -5.351   4.184   8.318  1.00  0.00     0.029 A 
ATOM     64  N   UNL     1      -4.508   2.223   7.700  1.00  0.00    -0.354 N 
ATOM     65  N   UNL     1      -3.034  -0.269   8.090  1.00  0.00    -0.248 NA
ATOM     66  C   UNL     1      -1.809  -1.719   9.452  1.00  0.00     0.031 C 
ATOM     67  C   UNL     1      -4.676   3.630   9.413  1.00  0.00     0.029 A 
ATOM     68  C   UNL     1      -4.165   2.401   9.032  1.00  0.00     0.049 A 
ATOM     69  H   UNL     1      -4.272   1.437   7.157  1.00  0.00     0.167 HD
ATOM     70  C   UNL     1      -2.941   0.273   9.365  1.00  0.00     0.074 A 
ATOM     71  C   UNL     1      -2.203  -0.677  10.171  1.00  0.00     0.031 C 
ATOM     72  C   UNL     1      -3.425   1.452   9.824  1.00  0.00     0.037 A 
BRANCH  59  73
ATOM     73  C   UNL     1      -6.421   4.758   5.553  1.00  0.00     0.057 A 
ATOM     74  C   UNL     1      -7.809   4.814   5.365  1.00  0.00     0.134 A 
ATOM     75  C   UNL     1      -5.710   5.962   5.468  1.00  0.00     0.134 A 
ATOM     76  F   UNL     1      -8.549   3.697   5.429  1.00  0.00    -0.206 F 
ATOM     77  C   UNL     1      -8.461   6.017   5.086  1.00  0.00     0.040 A 
ATOM     78  C   UNL     1      -6.354   7.174   5.212  1.00  0.00     0.040 A 
ATOM     79  F   UNL     1      -4.381   5.982   5.649  1.00  0.00    -0.206 F 
ATOM     80  C   UNL     1      -7.733   7.203   5.016  1.00  0.00     0.006 A 
ENDBRANCH  59  73
BRANCH  60  81
ATOM     81  C   UNL     1      -1.472  -3.696   7.323  1.00  0.00     0.057 A 
ATOM     82  C   UNL     1      -2.028  -4.700   8.123  1.00  0.00     0.134 A 
ATOM     83  C   UNL     1      -0.214  -3.935   6.760  1.00  0.00     0.134 A 
ATOM     84  F   UNL     1      -3.225  -4.519   8.699  1.00  0.00    -0.206 F 
ATOM     85  C   UNL     1      -1.353  -5.897   8.364  1.00  0.00     0.040 A 
ATOM     86  C   UNL     1       0.463  -5.136   6.976  1.00  0.00     0.040 A 
ATOM     87  F   UNL     1       0.363  -3.014   5.974  1.00  0.00    -0.206 F 
ATOM     88  C   UNL     1      -0.106  -6.120   7.784  1.00  0.00     0.006 A 
ENDBRANCH  60  81
BRANCH  72  89
ATOM     89  C   UNL     1      -3.179   1.769  11.269  1.00  0.00     0.057 A 
ATOM     90  C   UNL     1      -1.912   2.145  11.734  1.00  0.00     0.134 A 
ATOM     91  C   UNL     1      -4.219   1.704  12.204  1.00  0.00     0.134 A 
ATOM     92  F   UNL     1      -0.870   2.211  10.891  1.00  0.00    -0.206 F 
ATOM     93  C   UNL     1      -1.682   2.418  13.084  1.00  0.00     0.040 A 
ATOM     94  C   UNL     1      -4.006   1.995  13.552  1.00  0.00     0.040 A 
ATOM     95  F   UNL     1      -5.457   1.355  11.822  1.00  0.00    -0.206 F 
ATOM     96  C   UNL     1      -2.733   2.347  13.996  1.00  0.00     0.006 A 
ENDBRANCH  72  89
ENDBRANCH  46  47
ENDBRANCH  38  41
ENDBRANCH  36  37
ENDBRANCH  35  36
ENDBRANCH  34  35
ENDBRANCH  33  34
ENDBRANCH   1  33
TORSDOF 19
