REMARK SMILES Cc1nn([C@H]2CCS(=O)(=O)C2)c(C)c1[C@@H]([NH3+])C(=O)NCCCCCCNC(=O)c1ccc(-c2c3nc(c(-c4c(F)cccc4F)c4ccc([nH]4)c(-c4c(F)cccc4F)c4nc(c(-c5c(F)cccc5F)c5ccc2[nH]5)C=C4)C=C3)cc1
REMARK SMILES IDX 22 1 21 2 20 3 19 4 17 5 18 6 15 8 14 9 1 10 2 11 3 12 4 13
REMARK SMILES IDX 12 14 13 15 5 16 6 17 11 18 7 19 8 20 9 21 10 22 16 23 23 27
REMARK SMILES IDX 24 28 25 29 26 30 27 31 28 33 29 34 30 35 82 36 31 37 81 38
REMARK SMILES IDX 32 39 33 40 34 41 75 42 35 43 80 44 74 45 76 46 36 47 79 48
REMARK SMILES IDX 73 49 72 50 37 52 63 53 46 54 62 55 47 56 50 57 61 58 77 59
REMARK SMILES IDX 48 60 49 61 60 63 78 64 51 65 38 66 39 67 44 68 40 69 41 70
REMARK SMILES IDX 43 71 45 72 42 73 64 74 65 75 70 76 66 77 67 78 69 79 71 80
REMARK SMILES IDX 68 81 52 82 53 83 58 84 54 85 55 86 57 87 59 88 56 89
REMARK H PARENT 19 7 16 24 16 25 16 26 26 32 76 51 50 62
REMARK Flexibility Score: inf
ROOT
ATOM      1  C   UNL     1      -5.871   6.723   2.546  1.00  0.00     0.002 C 
ENDROOT
BRANCH   1   2
ATOM      2  C   UNL     1      -5.297   5.443   1.929  1.00  0.00     0.021 C 
BRANCH   2   3
ATOM      3  C   UNL     1      -6.019   4.147   2.312  1.00  0.00     0.116 C 
BRANCH   3   4
ATOM      4  N   UNL     1      -6.926   3.700   1.272  1.00  0.00    -0.351 N 
ATOM      5  C   UNL     1      -6.864   2.612   0.447  1.00  0.00     0.283 C 
ATOM      6  O   UNL     1      -7.809   2.459  -0.340  1.00  0.00    -0.268 OA
ATOM      7  H   UNL     1      -7.715   4.273   1.139  1.00  0.00     0.163 HD
BRANCH   5   8
ATOM      8  C   UNL     1      -5.706   1.571   0.469  1.00  0.00     0.306 C 
BRANCH   8   9
ATOM      9  C   UNL     1      -4.421   2.100  -0.110  1.00  0.00     0.063 A 
ATOM     10  C   UNL     1      -4.727   1.370  -2.632  1.00  0.00     0.069 C 
ATOM     11  C   UNL     1      -4.067   2.063  -1.496  1.00  0.00     0.069 A 
ATOM     12  N   UNL     1      -2.929   2.715  -1.737  1.00  0.00    -0.177 NA
ATOM     13  N   UNL     1      -2.563   3.192  -0.541  1.00  0.00    -0.265 N 
ATOM     14  C   UNL     1      -3.264   2.602   0.490  1.00  0.00     0.046 A 
ATOM     15  C   UNL     1      -2.787   2.565   1.902  1.00  0.00     0.067 C 
BRANCH  13  16
ATOM     16  C   UNL     1      -1.558   4.248  -0.525  1.00  0.00     0.123 C 
ATOM     17  C   UNL     1      -1.804   5.292  -1.645  1.00  0.00     0.044 C 
ATOM     18  C   UNL     1      -1.543   5.028   0.775  1.00  0.00     0.164 C 
ATOM     19  C   UNL     1      -0.898   6.468  -1.345  1.00  0.00     0.139 C 
ATOM     20  S   UNL     1      -1.019   6.654   0.407  1.00  0.00     0.152 S 
ATOM     21  O   UNL     1       0.284   6.849   0.977  1.00  0.00    -0.229 OA
ATOM     22  O   UNL     1      -2.163   7.505   0.702  1.00  0.00    -0.229 OA
ENDBRANCH  13  16
ENDBRANCH   8   9
BRANCH   8  23
ATOM     23  N   UNL     1      -5.523   0.980   1.804  1.00  0.00    -0.343 N 
ATOM     24  H   UNL     1      -5.235   1.705   2.461  1.00  0.00     0.345 HD
ATOM     25  H   UNL     1      -4.806   0.256   1.760  1.00  0.00     0.345 HD
ATOM     26  H   UNL     1      -6.402   0.568   2.117  1.00  0.00     0.345 HD
ENDBRANCH   8  23
ENDBRANCH   5   8
ENDBRANCH   3   4
ENDBRANCH   2   3
ENDBRANCH   1   2
BRANCH   1  27
ATOM     27  C   UNL     1      -5.760   6.833   4.079  1.00  0.00     0.002 C 
BRANCH  27  28
ATOM     28  C   UNL     1      -4.355   6.699   4.692  1.00  0.00     0.021 C 
BRANCH  28  29
ATOM     29  C   UNL     1      -3.395   7.829   4.328  1.00  0.00     0.116 C 
BRANCH  29  30
ATOM     30  N   UNL     1      -3.719   9.097   4.986  1.00  0.00    -0.352 N 
ATOM     31  C   UNL     1      -2.982  10.270   5.032  1.00  0.00     0.251 C 
ATOM     32  H   UNL     1      -4.580   9.120   5.463  1.00  0.00     0.163 HD
ATOM     33  O   UNL     1      -3.241  11.136   5.861  1.00  0.00    -0.269 OA
BRANCH  31  34
ATOM     34  C   UNL     1      -1.884  10.484   4.066  1.00  0.00     0.039 A 
ATOM     35  C   UNL     1      -0.685  11.124   4.407  1.00  0.00     0.014 A 
ATOM     36  C   UNL     1      -2.070  10.037   2.772  1.00  0.00     0.014 A 
ATOM     37  C   UNL     1       0.362  11.183   3.471  1.00  0.00     0.010 A 
ATOM     38  C   UNL     1      -1.008  10.006   1.903  1.00  0.00     0.010 A 
ATOM     39  C   UNL     1       0.212  10.573   2.216  1.00  0.00    -0.014 A 
BRANCH  39  40
ATOM     40  C   UNL     1       1.326  10.347   1.281  1.00  0.00     0.031 A 
ATOM     41  C   UNL     1       2.557   9.783   1.913  1.00  0.00     0.074 A 
ATOM     42  C   UNL     1       1.227  10.348  -0.075  1.00  0.00     0.049 A 
ATOM     43  N   UNL     1       3.725  10.330   1.986  1.00  0.00    -0.248 NA
ATOM     44  C   UNL     1       2.465   8.497   2.624  1.00  0.00     0.031 C 
ATOM     45  C   UNL     1       0.035  10.522  -0.921  1.00  0.00     0.029 A 
ATOM     46  N   UNL     1       2.196  10.098  -1.008  1.00  0.00    -0.354 N 
ATOM     47  C   UNL     1       4.563   9.387   2.577  1.00  0.00     0.074 A 
ATOM     48  C   UNL     1       3.714   8.331   3.062  1.00  0.00     0.031 C 
ATOM     49  C   UNL     1       0.308  10.163  -2.196  1.00  0.00     0.029 A 
ATOM     50  C   UNL     1       1.733   9.926  -2.313  1.00  0.00     0.049 A 
ATOM     51  H   UNL     1       3.151  10.043  -0.776  1.00  0.00     0.167 HD
ATOM     52  C   UNL     1       5.915   9.459   2.433  1.00  0.00     0.037 A 
ATOM     53  C   UNL     1       2.464   9.634  -3.420  1.00  0.00     0.037 A 
ATOM     54  C   UNL     1       6.326  10.773   2.007  1.00  0.00     0.049 A 
ATOM     55  C   UNL     1       3.870   9.976  -3.113  1.00  0.00     0.074 A 
ATOM     56  C   UNL     1       6.153  12.048   2.513  1.00  0.00     0.029 A 
ATOM     57  N   UNL     1       6.667  10.948   0.688  1.00  0.00    -0.354 N 
ATOM     58  N   UNL     1       4.312  11.191  -2.968  1.00  0.00    -0.248 NA
ATOM     59  C   UNL     1       4.706   8.930  -2.552  1.00  0.00     0.031 C 
ATOM     60  C   UNL     1       5.877  12.859   1.371  1.00  0.00     0.029 A 
ATOM     61  C   UNL     1       5.978  12.048   0.240  1.00  0.00     0.049 A 
ATOM     62  H   UNL     1       7.287  10.392   0.164  1.00  0.00     0.167 HD
ATOM     63  C   UNL     1       5.215  11.106  -1.922  1.00  0.00     0.074 A 
ATOM     64  C   UNL     1       5.492   9.678  -1.775  1.00  0.00     0.031 C 
ATOM     65  C   UNL     1       5.437  12.168  -1.093  1.00  0.00     0.037 A 
BRANCH  52  66
ATOM     66  C   UNL     1       6.819   8.257   2.343  1.00  0.00     0.057 A 
ATOM     67  C   UNL     1       8.213   8.433   2.394  1.00  0.00     0.134 A 
ATOM     68  C   UNL     1       6.390   6.982   1.923  1.00  0.00     0.134 A 
ATOM     69  F   UNL     1       8.745   9.611   2.754  1.00  0.00    -0.206 F 
ATOM     70  C   UNL     1       9.111   7.433   1.999  1.00  0.00     0.040 A 
ATOM     71  C   UNL     1       7.278   5.960   1.574  1.00  0.00     0.040 A 
ATOM     72  F   UNL     1       5.098   6.690   1.730  1.00  0.00    -0.206 F 
ATOM     73  C   UNL     1       8.644   6.192   1.582  1.00  0.00     0.006 A 
ENDBRANCH  52  66
BRANCH  53  74
ATOM     74  C   UNL     1       2.118   8.904  -4.662  1.00  0.00     0.057 A 
ATOM     75  C   UNL     1       2.925   8.997  -5.808  1.00  0.00     0.134 A 
ATOM     76  C   UNL     1       1.189   7.853  -4.653  1.00  0.00     0.134 A 
ATOM     77  F   UNL     1       3.857   9.955  -5.909  1.00  0.00    -0.206 F 
ATOM     78  C   UNL     1       2.852   8.065  -6.852  1.00  0.00     0.040 A 
ATOM     79  C   UNL     1       1.105   6.914  -5.688  1.00  0.00     0.040 A 
ATOM     80  F   UNL     1       0.398   7.649  -3.593  1.00  0.00    -0.206 F 
ATOM     81  C   UNL     1       1.954   7.005  -6.784  1.00  0.00     0.006 A 
ENDBRANCH  53  74
BRANCH  65  82
ATOM     82  C   UNL     1       4.878  13.508  -1.499  1.00  0.00     0.057 A 
ATOM     83  C   UNL     1       3.516  13.777  -1.713  1.00  0.00     0.134 A 
ATOM     84  C   UNL     1       5.749  14.601  -1.569  1.00  0.00     0.134 A 
ATOM     85  F   UNL     1       2.585  12.826  -1.572  1.00  0.00    -0.206 F 
ATOM     86  C   UNL     1       3.055  15.059  -2.036  1.00  0.00     0.040 A 
ATOM     87  C   UNL     1       5.297  15.892  -1.855  1.00  0.00     0.040 A 
ATOM     88  F   UNL     1       7.059  14.439  -1.327  1.00  0.00    -0.206 F 
ATOM     89  C   UNL     1       3.948  16.123  -2.104  1.00  0.00     0.006 A 
ENDBRANCH  65  82
ENDBRANCH  39  40
ENDBRANCH  31  34
ENDBRANCH  29  30
ENDBRANCH  28  29
ENDBRANCH  27  28
ENDBRANCH   1  27
TORSDOF 16
