REMARK SMILES CS(=O)(=O)CCSCc1cc(F)cc(/C=C/C(=O)NCCCCCCNC(=O)c2ccc(-c3c4nc(c(-c5c(F)cccc5F)c5ccc([nH]5)c(-c5c(F)cccc5F)c5nc(c(-c6c(F)cccc6F)c6ccc3[nH]6)C=C5)C=C4)cc2)c1
REMARK SMILES IDX 20 1 19 2 17 3 18 4 16 6 15 7 14 8 9 9 10 10 83 11 11 12
REMARK SMILES IDX 12 13 13 14 8 15 7 16 6 17 5 18 2 19 1 20 3 21 4 22 21 23
REMARK SMILES IDX 22 24 23 25 24 26 25 27 26 28 27 29 28 31 29 32 30 33 82 34
REMARK SMILES IDX 31 35 81 36 32 37 33 38 34 39 75 40 35 41 80 42 74 43 76 44
REMARK SMILES IDX 36 45 79 46 73 47 72 48 37 50 63 51 46 52 62 53 47 54 50 55
REMARK SMILES IDX 61 56 77 57 48 58 49 59 60 61 78 62 51 63 38 64 39 65 44 66
REMARK SMILES IDX 40 67 41 68 43 69 45 70 42 71 64 72 65 73 70 74 66 75 67 76
REMARK SMILES IDX 69 77 71 78 68 79 52 80 53 81 58 82 54 83 55 84 57 85 59 86
REMARK SMILES IDX 56 87
REMARK H PARENT 19 5 26 30 76 49 50 60
REMARK Flexibility Score: inf
ROOT
ATOM      1  C   UNL     1      -3.976   4.998   1.637  1.00  0.00     0.116 C 
ENDROOT
BRANCH   1   2
ATOM      2  N   UNL     1      -5.393   4.698   1.513  1.00  0.00    -0.353 N 
ATOM      3  C   UNL     1      -6.085   3.529   1.547  1.00  0.00     0.243 C 
ATOM      4  O   UNL     1      -7.311   3.550   1.452  1.00  0.00    -0.270 OA
ATOM      5  H   UNL     1      -5.959   5.493   1.380  1.00  0.00     0.163 HD
BRANCH   3   6
ATOM      6  C   UNL     1      -5.402   2.246   1.811  1.00  0.00     0.072 C 
ATOM      7  C   UNL     1      -4.278   1.861   1.198  1.00  0.00     0.014 C 
BRANCH   7   8
ATOM      8  C   UNL     1      -3.541   0.648   1.553  1.00  0.00    -0.022 A 
ATOM      9  C   UNL     1      -1.333  -0.287   2.066  1.00  0.00    -0.035 A 
ATOM     10  C   UNL     1      -1.902  -1.567   1.958  1.00  0.00     0.043 A 
ATOM     11  C   UNL     1      -2.191   0.804   1.905  1.00  0.00     0.013 A 
ATOM     12  C   UNL     1      -3.260  -1.724   1.675  1.00  0.00     0.124 A 
ATOM     13  F   UNL     1      -3.764  -2.960   1.558  1.00  0.00    -0.207 F 
ATOM     14  C   UNL     1      -4.083  -0.628   1.454  1.00  0.00     0.047 A 
BRANCH   9  15
ATOM     15  C   UNL     1       0.171  -0.172   2.138  1.00  0.00     0.105 C 
BRANCH  15  16
ATOM     16  S   UNL     1       0.965   1.293   2.865  1.00  0.00    -0.156 SA
BRANCH  16  17
ATOM     17  C   UNL     1       0.763   2.640   1.631  1.00  0.00     0.086 C 
BRANCH  17  18
ATOM     18  C   UNL     1       1.625   2.659   0.380  1.00  0.00     0.147 C 
BRANCH  18  19
ATOM     19  S   UNL     1       0.985   1.719  -0.990  1.00  0.00     0.148 S 
ATOM     20  C   UNL     1       1.999   0.256  -1.010  1.00  0.00     0.158 C 
ATOM     21  O   UNL     1       1.274   2.460  -2.205  1.00  0.00    -0.229 OA
ATOM     22  O   UNL     1      -0.377   1.333  -0.690  1.00  0.00    -0.229 OA
ENDBRANCH  18  19
ENDBRANCH  17  18
ENDBRANCH  16  17
ENDBRANCH  15  16
ENDBRANCH   9  15
ENDBRANCH   7   8
ENDBRANCH   3   6
ENDBRANCH   1   2
BRANCH   1  23
ATOM     23  C   UNL     1      -3.472   5.700   0.374  1.00  0.00     0.021 C 
BRANCH  23  24
ATOM     24  C   UNL     1      -3.937   7.159   0.263  1.00  0.00     0.002 C 
BRANCH  24  25
ATOM     25  C   UNL     1      -3.455   8.075   1.394  1.00  0.00     0.002 C 
BRANCH  25  26
ATOM     26  C   UNL     1      -1.936   8.122   1.576  1.00  0.00     0.021 C 
BRANCH  26  27
ATOM     27  C   UNL     1      -1.178   8.627   0.353  1.00  0.00     0.116 C 
BRANCH  27  28
ATOM     28  N   UNL     1      -1.515  10.008   0.043  1.00  0.00    -0.352 N 
ATOM     29  C   UNL     1      -0.693  11.101  -0.065  1.00  0.00     0.251 C 
ATOM     30  H   UNL     1      -2.471  10.184  -0.111  1.00  0.00     0.163 HD
ATOM     31  O   UNL     1      -1.167  12.232  -0.098  1.00  0.00    -0.269 OA
BRANCH  29  32
ATOM     32  C   UNL     1       0.770  10.911  -0.127  1.00  0.00     0.039 A 
ATOM     33  C   UNL     1       1.595  11.753   0.622  1.00  0.00     0.014 A 
ATOM     34  C   UNL     1       1.326   9.912  -0.932  1.00  0.00     0.014 A 
ATOM     35  C   UNL     1       2.977  11.554   0.608  1.00  0.00     0.010 A 
ATOM     36  C   UNL     1       2.695   9.666  -0.882  1.00  0.00     0.010 A 
ATOM     37  C   UNL     1       3.534  10.487  -0.116  1.00  0.00    -0.014 A 
BRANCH  37  38
ATOM     38  C   UNL     1       4.993  10.214  -0.081  1.00  0.00     0.031 A 
ATOM     39  C   UNL     1       5.812  10.310  -1.338  1.00  0.00     0.074 A 
ATOM     40  C   UNL     1       5.569   9.829   1.075  1.00  0.00     0.049 A 
ATOM     41  N   UNL     1       7.082  10.049  -1.516  1.00  0.00    -0.248 NA
ATOM     42  C   UNL     1       5.111  10.734  -2.561  1.00  0.00     0.031 C 
ATOM     43  C   UNL     1       4.873   9.666   2.353  1.00  0.00     0.029 A 
ATOM     44  N   UNL     1       6.871   9.502   1.363  1.00  0.00    -0.354 N 
ATOM     45  C   UNL     1       7.328  10.271  -2.865  1.00  0.00     0.074 A 
ATOM     46  C   UNL     1       6.067  10.632  -3.473  1.00  0.00     0.031 C 
ATOM     47  C   UNL     1       5.759   9.302   3.293  1.00  0.00     0.029 A 
ATOM     48  C   UNL     1       7.075   9.159   2.679  1.00  0.00     0.049 A 
ATOM     49  H   UNL     1       7.590   9.512   0.692  1.00  0.00     0.167 HD
ATOM     50  C   UNL     1       8.505  10.207  -3.528  1.00  0.00     0.037 A 
ATOM     51  C   UNL     1       8.194   8.766   3.317  1.00  0.00     0.037 A 
ATOM     52  C   UNL     1       9.762   9.873  -2.912  1.00  0.00     0.049 A 
ATOM     53  C   UNL     1       9.484   8.676   2.549  1.00  0.00     0.074 A 
ATOM     54  C   UNL     1      11.017   9.830  -3.494  1.00  0.00     0.029 A 
ATOM     55  N   UNL     1       9.925   9.527  -1.580  1.00  0.00    -0.354 N 
ATOM     56  N   UNL     1       9.710   8.938   1.285  1.00  0.00    -0.248 NA
ATOM     57  C   UNL     1      10.674   8.238   3.293  1.00  0.00     0.031 C 
ATOM     58  C   UNL     1      11.931   9.402  -2.529  1.00  0.00     0.029 A 
ATOM     59  C   UNL     1      11.257   9.242  -1.329  1.00  0.00     0.049 A 
ATOM     60  H   UNL     1       9.203   9.490  -0.912  1.00  0.00     0.167 HD
ATOM     61  C   UNL     1      11.069   8.726   1.089  1.00  0.00     0.074 A 
ATOM     62  C   UNL     1      11.619   8.325   2.366  1.00  0.00     0.031 C 
ATOM     63  C   UNL     1      11.794   8.853  -0.049  1.00  0.00     0.037 A 
BRANCH  50  64
ATOM     64  C   UNL     1       8.507  10.523  -4.996  1.00  0.00     0.057 A 
ATOM     65  C   UNL     1       8.796   9.529  -5.941  1.00  0.00     0.134 A 
ATOM     66  C   UNL     1       8.319  11.828  -5.468  1.00  0.00     0.134 A 
ATOM     67  F   UNL     1       8.994   8.259  -5.556  1.00  0.00    -0.206 F 
ATOM     68  C   UNL     1       8.920   9.828  -7.299  1.00  0.00     0.040 A 
ATOM     69  C   UNL     1       8.412  12.133  -6.827  1.00  0.00     0.040 A 
ATOM     70  F   UNL     1       8.029  12.824  -4.617  1.00  0.00    -0.206 F 
ATOM     71  C   UNL     1       8.727  11.133  -7.745  1.00  0.00     0.006 A 
ENDBRANCH  50  64
BRANCH  51  72
ATOM     72  C   UNL     1       8.145   8.453   4.769  1.00  0.00     0.057 A 
ATOM     73  C   UNL     1       7.450   7.338   5.255  1.00  0.00     0.134 A 
ATOM     74  C   UNL     1       8.781   9.274   5.707  1.00  0.00     0.134 A 
ATOM     75  F   UNL     1       6.812   6.515   4.410  1.00  0.00    -0.206 F 
ATOM     76  C   UNL     1       7.377   7.060   6.622  1.00  0.00     0.040 A 
ATOM     77  C   UNL     1       8.740   8.992   7.074  1.00  0.00     0.040 A 
ATOM     78  F   UNL     1       9.477  10.346   5.303  1.00  0.00    -0.206 F 
ATOM     79  C   UNL     1       8.028   7.886   7.535  1.00  0.00     0.006 A 
ENDBRANCH  51  72
BRANCH  63  80
ATOM     80  C   UNL     1      13.269   8.584   0.026  1.00  0.00     0.057 A 
ATOM     81  C   UNL     1      14.191   9.626  -0.144  1.00  0.00     0.134 A 
ATOM     82  C   UNL     1      13.777   7.288   0.170  1.00  0.00     0.134 A 
ATOM     83  F   UNL     1      13.771  10.890  -0.300  1.00  0.00    -0.206 F 
ATOM     84  C   UNL     1      15.564   9.385  -0.193  1.00  0.00     0.040 A 
ATOM     85  C   UNL     1      15.150   7.038   0.152  1.00  0.00     0.040 A 
ATOM     86  F   UNL     1      12.948   6.248   0.344  1.00  0.00    -0.206 F 
ATOM     87  C   UNL     1      16.047   8.087  -0.043  1.00  0.00     0.006 A 
ENDBRANCH  63  80
ENDBRANCH  37  38
ENDBRANCH  29  32
ENDBRANCH  27  28
ENDBRANCH  26  27
ENDBRANCH  25  26
ENDBRANCH  24  25
ENDBRANCH  23  24
ENDBRANCH   1  23
TORSDOF 19
