REMARK SMILES C[NH+](C)Cc1noc(C[C@@](C)(C(=O)NCCCCCCNC(=O)c2ccc(-c3c4nc(c(-c5c(F)cccc5F)c5ccc([nH]5)c(-c5c(F)cccc5F)c5nc(c(-c6c(F)cccc6F)c6ccc3[nH]6)C=C5)C=C4)cc2)c2ccccc2)n1
REMARK SMILES IDX 16 1 15 2 14 3 12 4 13 5 10 7 11 8 9 9 8 10 5 11 6 12 84 13
REMARK SMILES IDX 7 14 4 15 2 16 1 17 3 18 78 20 79 21 83 22 80 23 82 24 81 25
REMARK SMILES IDX 17 26 18 27 19 28 20 29 21 30 22 31 23 33 24 34 25 35 77 36
REMARK SMILES IDX 26 37 76 38 27 39 28 40 29 41 70 42 30 43 75 44 69 45 71 46
REMARK SMILES IDX 31 47 74 48 68 49 67 50 32 52 58 53 41 54 57 55 42 56 45 57
REMARK SMILES IDX 56 58 72 59 43 60 44 61 55 63 73 64 46 65 33 66 34 67 39 68
REMARK SMILES IDX 35 69 36 70 38 71 40 72 37 73 59 74 60 75 65 76 61 77 62 78
REMARK SMILES IDX 64 79 66 80 63 81 47 82 48 83 53 84 49 85 50 86 52 87 54 88
REMARK SMILES IDX 51 89
REMARK H PARENT 14 6 2 19 21 32 71 51 45 62
REMARK Flexibility Score: inf
ROOT
ATOM      1  C   UNL     1       2.183  -8.116  -2.801  1.00  0.00     0.021 C 
ENDROOT
BRANCH   1   2
ATOM      2  C   UNL     1       0.731  -7.638  -2.827  1.00  0.00     0.116 C 
BRANCH   2   3
ATOM      3  N   UNL     1      -0.095  -8.393  -1.898  1.00  0.00    -0.355 N 
ATOM      4  C   UNL     1      -0.855  -8.072  -0.810  1.00  0.00     0.230 C 
ATOM      5  O   UNL     1      -1.480  -9.036  -0.358  1.00  0.00    -0.274 OA
ATOM      6  H   UNL     1      -0.109  -9.356  -2.101  1.00  0.00     0.163 HD
BRANCH   4   7
ATOM      7  C   UNL     1      -0.974  -6.614  -0.252  1.00  0.00     0.080 C 
ATOM      8  C   UNL     1      -1.716  -5.847  -1.380  1.00  0.00     0.027 C 
BRANCH   7   9
ATOM      9  C   UNL     1       0.462  -6.120   0.090  1.00  0.00     0.122 C 
BRANCH   9  10
ATOM     10  C   UNL     1       0.625  -4.650   0.219  1.00  0.00     0.228 A 
ATOM     11  C   UNL     1       0.901  -2.646   0.780  1.00  0.00     0.226 A 
ATOM     12  N   UNL     1       0.773  -2.586  -0.555  1.00  0.00    -0.056 NA
ATOM     13  N   UNL     1       0.837  -3.924   1.291  1.00  0.00    -0.190 NA
ATOM     14  O   UNL     1       0.591  -3.915  -0.929  1.00  0.00    -0.339 OA
BRANCH  11  15
ATOM     15  C   UNL     1       1.195  -1.475   1.676  1.00  0.00     0.344 C 
BRANCH  15  16
ATOM     16  N   UNL     1       0.575  -0.176   1.348  1.00  0.00    -0.333 N 
ATOM     17  C   UNL     1       1.095   0.430   0.128  1.00  0.00     0.332 C 
ATOM     18  C   UNL     1      -0.882  -0.210   1.362  1.00  0.00     0.332 C 
ATOM     19  H   UNL     1       0.856   0.439   2.111  1.00  0.00     0.348 HD
ENDBRANCH  15  16
ENDBRANCH  11  15
ENDBRANCH   9  10
ENDBRANCH   7   9
BRANCH   7  20
ATOM     20  C   UNL     1      -1.814  -6.457   1.064  1.00  0.00    -0.032 A 
ATOM     21  C   UNL     1      -2.232  -5.170   1.480  1.00  0.00     0.005 A 
ATOM     22  C   UNL     1      -2.105  -7.515   1.940  1.00  0.00     0.005 A 
ATOM     23  C   UNL     1      -2.900  -4.957   2.689  1.00  0.00     0.000 A 
ATOM     24  C   UNL     1      -2.805  -7.309   3.137  1.00  0.00     0.000 A 
ATOM     25  C   UNL     1      -3.196  -6.030   3.515  1.00  0.00     0.000 A 
ENDBRANCH   7  20
ENDBRANCH   4   7
ENDBRANCH   2   3
ENDBRANCH   1   2
BRANCH   1  26
ATOM     26  C   UNL     1       2.389  -9.572  -3.237  1.00  0.00     0.002 C 
BRANCH  26  27
ATOM     27  C   UNL     1       1.844  -9.933  -4.622  1.00  0.00     0.002 C 
BRANCH  27  28
ATOM     28  C   UNL     1       2.309  -9.027  -5.764  1.00  0.00     0.021 C 
BRANCH  28  29
ATOM     29  C   UNL     1       3.820  -8.940  -5.935  1.00  0.00     0.116 C 
BRANCH  29  30
ATOM     30  N   UNL     1       4.406 -10.198  -6.368  1.00  0.00    -0.352 N 
ATOM     31  C   UNL     1       5.306 -10.412  -7.385  1.00  0.00     0.251 C 
ATOM     32  H   UNL     1       4.122 -10.998  -5.870  1.00  0.00     0.163 HD
ATOM     33  O   UNL     1       5.600 -11.549  -7.737  1.00  0.00    -0.269 OA
BRANCH  31  34
ATOM     34  C   UNL     1       5.900  -9.246  -8.070  1.00  0.00     0.039 A 
ATOM     35  C   UNL     1       5.855  -9.178  -9.465  1.00  0.00     0.014 A 
ATOM     36  C   UNL     1       6.466  -8.208  -7.325  1.00  0.00     0.014 A 
ATOM     37  C   UNL     1       6.326  -8.034 -10.114  1.00  0.00     0.010 A 
ATOM     38  C   UNL     1       6.874  -7.046  -7.969  1.00  0.00     0.010 A 
ATOM     39  C   UNL     1       6.810  -6.948  -9.369  1.00  0.00    -0.014 A 
BRANCH  39  40
ATOM     40  C   UNL     1       7.287  -5.701 -10.015  1.00  0.00     0.031 A 
ATOM     41  C   UNL     1       8.730  -5.306  -9.877  1.00  0.00     0.074 A 
ATOM     42  C   UNL     1       6.415  -4.879 -10.630  1.00  0.00     0.049 A 
ATOM     43  N   UNL     1       9.316  -4.180 -10.194  1.00  0.00    -0.248 NA
ATOM     44  C   UNL     1       9.626  -6.302  -9.267  1.00  0.00     0.031 C 
ATOM     45  C   UNL     1       4.985  -5.137 -10.808  1.00  0.00     0.029 A 
ATOM     46  N   UNL     1       6.604  -3.643 -11.197  1.00  0.00    -0.354 N 
ATOM     47  C   UNL     1      10.638  -4.320  -9.792  1.00  0.00     0.074 A 
ATOM     48  C   UNL     1      10.759  -5.623  -9.175  1.00  0.00     0.031 C 
ATOM     49  C   UNL     1       4.428  -4.094 -11.446  1.00  0.00     0.029 A 
ATOM     50  C   UNL     1       5.449  -3.078 -11.680  1.00  0.00     0.049 A 
ATOM     51  H   UNL     1       7.483  -3.204 -11.251  1.00  0.00     0.167 HD
ATOM     52  C   UNL     1      11.662  -3.447  -9.938  1.00  0.00     0.037 A 
ATOM     53  C   UNL     1       5.236  -1.868 -12.232  1.00  0.00     0.037 A 
ATOM     54  C   UNL     1      11.546  -2.168 -10.586  1.00  0.00     0.049 A 
ATOM     55  C   UNL     1       6.391  -0.916 -12.387  1.00  0.00     0.074 A 
ATOM     56  C   UNL     1      12.535  -1.231 -10.828  1.00  0.00     0.029 A 
ATOM     57  N   UNL     1      10.368  -1.652 -11.104  1.00  0.00    -0.354 N 
ATOM     58  N   UNL     1       7.643  -1.072 -12.033  1.00  0.00    -0.248 NA
ATOM     59  C   UNL     1       6.103   0.380 -13.019  1.00  0.00     0.031 C 
ATOM     60  C   UNL     1      11.948  -0.133 -11.466  1.00  0.00     0.029 A 
ATOM     61  C   UNL     1      10.603  -0.406 -11.657  1.00  0.00     0.049 A 
ATOM     62  H   UNL     1       9.494  -2.105 -11.081  1.00  0.00     0.167 HD
ATOM     63  C   UNL     1       8.299   0.086 -12.432  1.00  0.00     0.074 A 
ATOM     64  C   UNL     1       7.306   0.936 -13.055  1.00  0.00     0.031 C 
ATOM     65  C   UNL     1       9.606   0.413 -12.298  1.00  0.00     0.037 A 
BRANCH  52  66
ATOM     66  C   UNL     1      12.997  -3.850  -9.383  1.00  0.00     0.057 A 
ATOM     67  C   UNL     1      13.768  -4.860  -9.973  1.00  0.00     0.134 A 
ATOM     68  C   UNL     1      13.526  -3.206  -8.258  1.00  0.00     0.134 A 
ATOM     69  F   UNL     1      13.310  -5.526 -11.044  1.00  0.00    -0.206 F 
ATOM     70  C   UNL     1      15.005  -5.235  -9.447  1.00  0.00     0.040 A 
ATOM     71  C   UNL     1      14.774  -3.554  -7.739  1.00  0.00     0.040 A 
ATOM     72  F   UNL     1      12.842  -2.227  -7.647  1.00  0.00    -0.206 F 
ATOM     73  C   UNL     1      15.514  -4.576  -8.329  1.00  0.00     0.006 A 
ENDBRANCH  52  66
BRANCH  53  74
ATOM     74  C   UNL     1       3.878  -1.490 -12.696  1.00  0.00     0.057 A 
ATOM     75  C   UNL     1       3.586  -1.394 -14.061  1.00  0.00     0.134 A 
ATOM     76  C   UNL     1       2.845  -1.210 -11.794  1.00  0.00     0.134 A 
ATOM     77  F   UNL     1       4.541  -1.632 -14.973  1.00  0.00    -0.206 F 
ATOM     78  C   UNL     1       2.322  -1.016 -14.515  1.00  0.00     0.040 A 
ATOM     79  C   UNL     1       1.569  -0.853 -12.233  1.00  0.00     0.040 A 
ATOM     80  F   UNL     1       3.058  -1.292 -10.472  1.00  0.00    -0.206 F 
ATOM     81  C   UNL     1       1.307  -0.748 -13.598  1.00  0.00     0.006 A 
ENDBRANCH  53  74
BRANCH  65  82
ATOM     82  C   UNL     1      10.056   1.717 -12.886  1.00  0.00     0.057 A 
ATOM     83  C   UNL     1       9.767   2.944 -12.278  1.00  0.00     0.134 A 
ATOM     84  C   UNL     1      10.843   1.735 -14.045  1.00  0.00     0.134 A 
ATOM     85  F   UNL     1       9.008   2.993 -11.173  1.00  0.00    -0.206 F 
ATOM     86  C   UNL     1      10.236   4.146 -12.809  1.00  0.00     0.040 A 
ATOM     87  C   UNL     1      11.336   2.928 -14.572  1.00  0.00     0.040 A 
ATOM     88  F   UNL     1      11.161   0.591 -14.670  1.00  0.00    -0.206 F 
ATOM     89  C   UNL     1      11.030   4.139 -13.955  1.00  0.00     0.006 A 
ENDBRANCH  65  82
ENDBRANCH  39  40
ENDBRANCH  31  34
ENDBRANCH  29  30
ENDBRANCH  28  29
ENDBRANCH  27  28
ENDBRANCH  26  27
ENDBRANCH   1  26
TORSDOF 18
