REMARK SMILES O=C(NCCCCCCNC(=O)c1ccc(-c2c3nc(c(-c4c(F)cccc4F)c4ccc([nH]4)c(-c4c(F)cccc4F)c4nc(c(-c5c(F)cccc5F)c5ccc2[nH]5)C=C4)C=C3)cc1)C1=N[C@@H]2NC=NN2[C@@H]([C@H]2C=NN=C2c2ccc(F)cc2)C1
REMARK SMILES IDX 6 1 5 2 4 3 3 4 1 5 2 6 67 8 68 9 87 10 69 11 74 12 70 13
REMARK SMILES IDX 73 14 71 15 72 17 75 18 76 19 79 20 77 21 78 22 80 23 81 24
REMARK SMILES IDX 86 25 82 26 85 27 83 28 84 29 7 30 8 31 9 32 10 33 11 34
REMARK SMILES IDX 12 36 13 37 14 38 66 39 15 40 65 41 16 42 17 43 18 44 59 45
REMARK SMILES IDX 19 46 64 47 58 48 60 49 20 50 63 51 57 52 56 53 21 55 47 56
REMARK SMILES IDX 30 57 46 58 31 59 34 60 45 61 61 62 32 63 33 64 44 66 62 67
REMARK SMILES IDX 35 68 22 69 23 70 28 71 24 72 25 73 27 74 29 75 26 76 48 77
REMARK SMILES IDX 49 78 54 79 50 80 51 81 53 82 55 83 52 84 36 85 37 86 42 87
REMARK SMILES IDX 38 88 39 89 41 90 43 91 40 92
REMARK H PARENT 3 7 70 16 10 35 60 54 34 65
REMARK Flexibility Score: inf
ROOT
ATOM      1  C   UNL     1      12.302  -4.588  -4.783  1.00  0.00     0.002 C 
ENDROOT
BRANCH   1   2
ATOM      2  C   UNL     1      11.721  -3.180  -4.633  1.00  0.00     0.021 C 
BRANCH   2   3
ATOM      3  C   UNL     1      10.264  -3.051  -4.195  1.00  0.00     0.116 C 
BRANCH   3   4
ATOM      4  N   UNL     1       9.938  -3.649  -2.919  1.00  0.00    -0.351 N 
ATOM      5  O   UNL     1       8.647  -4.173  -1.149  1.00  0.00    -0.268 OA
ATOM      6  C   UNL     1       8.861  -3.415  -2.091  1.00  0.00     0.265 C 
ATOM      7  H   UNL     1      10.580  -4.321  -2.594  1.00  0.00     0.163 HD
BRANCH   6   8
ATOM      8  C   UNL     1       7.991  -2.151  -2.227  1.00  0.00     0.106 C 
ATOM      9  N   UNL     1       7.806  -1.483  -1.139  1.00  0.00    -0.237 NA
ATOM     10  C   UNL     1       7.400  -1.780  -3.568  1.00  0.00     0.090 C 
ATOM     11  C   UNL     1       7.285  -0.144  -1.215  1.00  0.00     0.319 C 
ATOM     12  C   UNL     1       6.472  -0.571  -3.435  1.00  0.00     0.127 C 
ATOM     13  N   UNL     1       6.103   0.206  -0.480  1.00  0.00    -0.335 N 
ATOM     14  N   UNL     1       7.068   0.463  -2.549  1.00  0.00    -0.249 NA
ATOM     15  C   UNL     1       5.602   1.269  -1.169  1.00  0.00     0.217 C 
ATOM     16  H   UNL     1       5.740  -0.221   0.330  1.00  0.00     0.165 HD
ATOM     17  N   UNL     1       6.150   1.521  -2.330  1.00  0.00    -0.164 NA
BRANCH  12  18
ATOM     18  C   UNL     1       6.050   0.118  -4.745  1.00  0.00     0.109 C 
ATOM     19  C   UNL     1       7.207   0.588  -5.558  1.00  0.00     0.120 C 
ATOM     20  C   UNL     1       5.426  -0.761  -5.781  1.00  0.00     0.081 C 
ATOM     21  N   UNL     1       7.237   0.077  -6.744  1.00  0.00    -0.162 NA
ATOM     22  N   UNL     1       6.108  -0.782  -6.887  1.00  0.00    -0.155 NA
BRANCH  20  23
ATOM     23  C   UNL     1       4.183  -1.527  -5.557  1.00  0.00    -0.001 A 
ATOM     24  C   UNL     1       3.334  -1.272  -4.471  1.00  0.00     0.013 A 
ATOM     25  C   UNL     1       3.883  -2.565  -6.447  1.00  0.00     0.013 A 
ATOM     26  C   UNL     1       2.232  -2.099  -4.242  1.00  0.00     0.040 A 
ATOM     27  C   UNL     1       2.776  -3.382  -6.221  1.00  0.00     0.040 A 
ATOM     28  C   UNL     1       1.970  -3.152  -5.112  1.00  0.00     0.123 A 
ATOM     29  F   UNL     1       0.925  -3.956  -4.878  1.00  0.00    -0.207 F 
ENDBRANCH  20  23
ENDBRANCH  12  18
ENDBRANCH   6   8
ENDBRANCH   3   4
ENDBRANCH   2   3
ENDBRANCH   1   2
BRANCH   1  30
ATOM     30  C   UNL     1      11.570  -5.548  -5.723  1.00  0.00     0.002 C 
BRANCH  30  31
ATOM     31  C   UNL     1      11.300  -5.045  -7.143  1.00  0.00     0.021 C 
BRANCH  31  32
ATOM     32  C   UNL     1      12.509  -4.529  -7.918  1.00  0.00     0.116 C 
BRANCH  32  33
ATOM     33  N   UNL     1      13.523  -5.545  -8.149  1.00  0.00    -0.352 N 
ATOM     34  C   UNL     1      14.133  -5.927  -9.318  1.00  0.00     0.251 C 
ATOM     35  H   UNL     1      13.817  -6.033  -7.346  1.00  0.00     0.163 HD
ATOM     36  O   UNL     1      14.886  -6.903  -9.325  1.00  0.00    -0.269 OA
BRANCH  34  37
ATOM     37  C   UNL     1      13.874  -5.199 -10.581  1.00  0.00     0.039 A 
ATOM     38  C   UNL     1      13.659  -5.936 -11.750  1.00  0.00     0.014 A 
ATOM     39  C   UNL     1      13.852  -3.803 -10.626  1.00  0.00     0.014 A 
ATOM     40  C   UNL     1      13.353  -5.276 -12.944  1.00  0.00     0.010 A 
ATOM     41  C   UNL     1      13.471  -3.150 -11.798  1.00  0.00     0.010 A 
ATOM     42  C   UNL     1      13.216  -3.879 -12.969  1.00  0.00    -0.014 A 
BRANCH  42  43
ATOM     43  C   UNL     1      12.796  -3.170 -14.207  1.00  0.00     0.031 A 
ATOM     44  C   UNL     1      13.713  -2.178 -14.868  1.00  0.00     0.074 A 
ATOM     45  C   UNL     1      11.561  -3.373 -14.707  1.00  0.00     0.049 A 
ATOM     46  N   UNL     1      13.498  -1.418 -15.913  1.00  0.00    -0.248 NA
ATOM     47  C   UNL     1      15.039  -1.996 -14.258  1.00  0.00     0.031 C 
ATOM     48  C   UNL     1      10.556  -4.271 -14.135  1.00  0.00     0.029 A 
ATOM     49  N   UNL     1      10.934  -2.828 -15.800  1.00  0.00    -0.354 N 
ATOM     50  C   UNL     1      14.656  -0.669 -16.082  1.00  0.00     0.074 A 
ATOM     51  C   UNL     1      15.544  -1.018 -14.994  1.00  0.00     0.031 C 
ATOM     52  C   UNL     1       9.447  -4.228 -14.890  1.00  0.00     0.029 A 
ATOM     53  C   UNL     1       9.644  -3.270 -15.973  1.00  0.00     0.049 A 
ATOM     54  H   UNL     1      11.368  -2.182 -16.403  1.00  0.00     0.167 HD
ATOM     55  C   UNL     1      14.963   0.210 -17.067  1.00  0.00     0.037 A 
ATOM     56  C   UNL     1       8.718  -2.931 -16.890  1.00  0.00     0.037 A 
ATOM     57  C   UNL     1      14.077   0.556 -18.149  1.00  0.00     0.049 A 
ATOM     58  C   UNL     1       9.070  -1.932 -17.958  1.00  0.00     0.074 A 
ATOM     59  C   UNL     1      14.311   1.405 -19.217  1.00  0.00     0.029 A 
ATOM     60  N   UNL     1      12.783   0.077 -18.296  1.00  0.00    -0.354 N 
ATOM     61  N   UNL     1      10.193  -1.282 -18.144  1.00  0.00    -0.248 NA
ATOM     62  C   UNL     1       8.028  -1.626 -18.948  1.00  0.00     0.031 C 
ATOM     63  C   UNL     1      13.141   1.481 -19.980  1.00  0.00     0.029 A 
ATOM     64  C   UNL     1      12.198   0.632 -19.424  1.00  0.00     0.049 A 
ATOM     65  H   UNL     1      12.345  -0.562 -17.689  1.00  0.00     0.167 HD
ATOM     66  C   UNL     1      10.003  -0.512 -19.285  1.00  0.00     0.074 A 
ATOM     67  C   UNL     1       8.662  -0.789 -19.757  1.00  0.00     0.031 C 
ATOM     68  C   UNL     1      10.863   0.347 -19.886  1.00  0.00     0.037 A 
BRANCH  55  69
ATOM     69  C   UNL     1      16.317   0.860 -17.012  1.00  0.00     0.057 A 
ATOM     70  C   UNL     1      17.496   0.130 -17.219  1.00  0.00     0.134 A 
ATOM     71  C   UNL     1      16.446   2.234 -16.771  1.00  0.00     0.134 A 
ATOM     72  F   UNL     1      17.447  -1.192 -17.446  1.00  0.00    -0.206 F 
ATOM     73  C   UNL     1      18.753   0.734 -17.151  1.00  0.00     0.040 A 
ATOM     74  C   UNL     1      17.696   2.855 -16.733  1.00  0.00     0.040 A 
ATOM     75  F   UNL     1      15.361   2.997 -16.574  1.00  0.00    -0.206 F 
ATOM     76  C   UNL     1      18.855   2.102 -16.913  1.00  0.00     0.006 A 
ENDBRANCH  55  69
BRANCH  56  77
ATOM     77  C   UNL     1       7.369  -3.551 -16.843  1.00  0.00     0.057 A 
ATOM     78  C   UNL     1       6.949  -4.454 -17.826  1.00  0.00     0.134 A 
ATOM     79  C   UNL     1       6.467  -3.257 -15.812  1.00  0.00     0.134 A 
ATOM     80  F   UNL     1       7.759  -4.763 -18.849  1.00  0.00    -0.206 F 
ATOM     81  C   UNL     1       5.676  -5.027 -17.798  1.00  0.00     0.040 A 
ATOM     82  C   UNL     1       5.203  -3.844 -15.755  1.00  0.00     0.040 A 
ATOM     83  F   UNL     1       6.811  -2.406 -14.834  1.00  0.00    -0.206 F 
ATOM     84  C   UNL     1       4.801  -4.727 -16.756  1.00  0.00     0.006 A 
ENDBRANCH  56  77
BRANCH  68  85
ATOM     85  C   UNL     1      10.394   1.024 -21.143  1.00  0.00     0.057 A 
ATOM     86  C   UNL     1       9.407   2.018 -21.130  1.00  0.00     0.134 A 
ATOM     87  C   UNL     1      10.968   0.702 -22.380  1.00  0.00     0.134 A 
ATOM     88  F   UNL     1       8.807   2.366 -19.981  1.00  0.00    -0.206 F 
ATOM     89  C   UNL     1       8.990   2.648 -22.304  1.00  0.00     0.040 A 
ATOM     90  C   UNL     1      10.581   1.346 -23.556  1.00  0.00     0.040 A 
ATOM     91  F   UNL     1      11.925  -0.234 -22.465  1.00  0.00    -0.206 F 
ATOM     92  C   UNL     1       9.583   2.317 -23.521  1.00  0.00     0.006 A 
ENDBRANCH  68  85
ENDBRANCH  42  43
ENDBRANCH  34  37
ENDBRANCH  32  33
ENDBRANCH  31  32
ENDBRANCH  30  31
ENDBRANCH   1  30
TORSDOF 15
