REMARK SMILES Cc1n[nH]c(C[N@H+]2CCC[C@H](c3cccc(C(=O)NCCCCCCNC(=O)c4ccc(-c5c6nc(c(-c7c(F)cccc7F)c7ccc([nH]7)c(-c7c(F)cccc7F)c7nc(c(-c8c(F)cccc8F)c8ccc5[nH]8)C=C7)C=C6)cc4)c3)C2)n1
REMARK SMILES IDX 22 1 21 2 20 3 19 4 17 5 18 6 16 8 12 9 13 10 83 11 14 12
REMARK SMILES IDX 15 13 11 14 7 15 8 16 84 17 9 19 10 20 6 21 5 22 1 23 2 24
REMARK SMILES IDX 3 25 85 26 4 27 23 29 24 30 25 31 26 32 27 33 28 35 29 36
REMARK SMILES IDX 30 37 82 38 31 39 81 40 32 41 33 42 34 43 75 44 35 45 80 46
REMARK SMILES IDX 74 47 76 48 36 49 79 50 73 51 72 52 37 54 63 55 46 56 62 57
REMARK SMILES IDX 47 58 50 59 61 60 77 61 48 62 49 63 60 65 78 66 51 67 38 68
REMARK SMILES IDX 39 69 44 70 40 71 41 72 43 73 45 74 42 75 64 76 65 77 70 78
REMARK SMILES IDX 66 79 67 80 69 81 71 82 68 83 52 84 53 85 58 86 54 87 55 88
REMARK SMILES IDX 57 89 59 90 56 91
REMARK H PARENT 19 7 7 18 4 28 26 34 76 53 50 64
REMARK Flexibility Score: inf
ROOT
ATOM      1  C   UNL     1      10.799   5.208   3.258  1.00  0.00     0.002 C 
ENDROOT
BRANCH   1   2
ATOM      2  C   UNL     1       9.615   4.992   2.322  1.00  0.00     0.021 C 
BRANCH   2   3
ATOM      3  C   UNL     1       8.406   5.892   2.533  1.00  0.00     0.116 C 
BRANCH   3   4
ATOM      4  N   UNL     1       8.633   7.310   2.293  1.00  0.00    -0.352 N 
ATOM      5  C   UNL     1       7.843   8.275   1.695  1.00  0.00     0.251 C 
ATOM      6  O   UNL     1       8.276   9.424   1.616  1.00  0.00    -0.269 OA
ATOM      7  H   UNL     1       9.504   7.640   2.613  1.00  0.00     0.163 HD
BRANCH   5   8
ATOM      8  C   UNL     1       6.521   7.954   1.086  1.00  0.00     0.040 A 
ATOM      9  C   UNL     1       4.714   6.348   0.767  1.00  0.00    -0.039 A 
ATOM     10  C   UNL     1       4.286   7.088  -0.342  1.00  0.00     0.004 A 
ATOM     11  C   UNL     1       5.748   6.889   1.538  1.00  0.00     0.018 A 
ATOM     12  C   UNL     1       4.925   8.281  -0.697  1.00  0.00     0.001 A 
ATOM     13  C   UNL     1       6.069   8.690  -0.011  1.00  0.00     0.014 A 
BRANCH   9  14
ATOM     14  C   UNL     1       4.256   4.919   1.062  1.00  0.00     0.074 C 
ATOM     15  N   UNL     1       1.790   5.179   0.860  1.00  0.00    -0.328 N 
ATOM     16  C   UNL     1       1.605   4.949   2.300  1.00  0.00     0.262 C 
ATOM     17  C   UNL     1       2.974   4.467   0.343  1.00  0.00     0.270 C 
ATOM     18  H   UNL     1       1.955   6.181   0.755  1.00  0.00     0.348 HD
ATOM     19  C   UNL     1       2.857   5.291   3.115  1.00  0.00     0.062 C 
ATOM     20  C   UNL     1       4.082   4.578   2.556  1.00  0.00     0.020 C 
BRANCH  15  21
ATOM     21  C   UNL     1       0.588   4.872   0.063  1.00  0.00     0.340 C 
BRANCH  21  22
ATOM     22  C   UNL     1       0.198   3.432   0.077  1.00  0.00     0.179 A 
ATOM     23  C   UNL     1       0.702  -0.048  -0.102  1.00  0.00     0.092 C 
ATOM     24  C   UNL     1       0.190   1.325   0.071  1.00  0.00     0.147 A 
ATOM     25  N   UNL     1      -0.907   1.620   0.779  1.00  0.00    -0.159 NA
ATOM     26  N   UNL     1       0.859   2.408  -0.424  1.00  0.00    -0.211 NA
ATOM     27  N   UNL     1      -0.894   2.963   0.748  1.00  0.00    -0.258 N 
ATOM     28  H   UNL     1      -1.583   3.535   1.157  1.00  0.00     0.192 HD
ENDBRANCH  21  22
ENDBRANCH  15  21
ENDBRANCH   9  14
ENDBRANCH   5   8
ENDBRANCH   3   4
ENDBRANCH   2   3
ENDBRANCH   1   2
BRANCH   1  29
ATOM     29  C   UNL     1      10.512   5.214   4.766  1.00  0.00     0.002 C 
BRANCH  29  30
ATOM     30  C   UNL     1       9.714   4.042   5.354  1.00  0.00     0.021 C 
BRANCH  30  31
ATOM     31  C   UNL     1      10.313   2.667   5.111  1.00  0.00     0.116 C 
BRANCH  31  32
ATOM     32  N   UNL     1      11.617   2.474   5.745  1.00  0.00    -0.352 N 
ATOM     33  C   UNL     1      12.437   1.358   5.690  1.00  0.00     0.251 C 
ATOM     34  H   UNL     1      11.954   3.231   6.276  1.00  0.00     0.163 HD
ATOM     35  O   UNL     1      13.300   1.162   6.527  1.00  0.00    -0.269 OA
BRANCH  33  36
ATOM     36  C   UNL     1      12.244   0.404   4.581  1.00  0.00     0.039 A 
ATOM     37  C   UNL     1      12.337  -0.978   4.767  1.00  0.00     0.014 A 
ATOM     38  C   UNL     1      11.925   0.932   3.336  1.00  0.00     0.014 A 
ATOM     39  C   UNL     1      12.027  -1.815   3.697  1.00  0.00     0.010 A 
ATOM     40  C   UNL     1      11.415   0.117   2.364  1.00  0.00     0.010 A 
ATOM     41  C   UNL     1      11.544  -1.255   2.502  1.00  0.00    -0.014 A 
BRANCH  41  42
ATOM     42  C   UNL     1      11.086  -2.092   1.402  1.00  0.00     0.031 A 
ATOM     43  C   UNL     1      10.097  -3.131   1.788  1.00  0.00     0.074 A 
ATOM     44  C   UNL     1      11.371  -1.831   0.107  1.00  0.00     0.049 A 
ATOM     45  N   UNL     1      10.277  -4.409   1.808  1.00  0.00    -0.248 NA
ATOM     46  C   UNL     1       8.810  -2.702   2.360  1.00  0.00     0.031 C 
ATOM     47  C   UNL     1      12.070  -0.680  -0.478  1.00  0.00     0.029 A 
ATOM     48  N   UNL     1      10.991  -2.529  -0.996  1.00  0.00    -0.354 N 
ATOM     49  C   UNL     1       9.061  -4.964   2.192  1.00  0.00     0.074 A 
ATOM     50  C   UNL     1       8.261  -3.874   2.688  1.00  0.00     0.031 C 
ATOM     51  C   UNL     1      11.846  -0.638  -1.810  1.00  0.00     0.029 A 
ATOM     52  C   UNL     1      11.148  -1.847  -2.197  1.00  0.00     0.049 A 
ATOM     53  H   UNL     1      10.632  -3.444  -0.947  1.00  0.00     0.167 HD
ATOM     54  C   UNL     1       8.737  -6.240   1.843  1.00  0.00     0.037 A 
ATOM     55  C   UNL     1      10.703  -2.251  -3.413  1.00  0.00     0.037 A 
ATOM     56  C   UNL     1       9.907  -6.976   1.425  1.00  0.00     0.049 A 
ATOM     57  C   UNL     1      10.484  -3.720  -3.329  1.00  0.00     0.074 A 
ATOM     58  C   UNL     1      11.118  -7.280   2.021  1.00  0.00     0.029 A 
ATOM     59  N   UNL     1      10.104  -7.164   0.077  1.00  0.00    -0.354 N 
ATOM     60  N   UNL     1      11.453  -4.584  -3.187  1.00  0.00    -0.248 NA
ATOM     61  C   UNL     1       9.171  -4.175  -2.894  1.00  0.00     0.031 C 
ATOM     62  C   UNL     1      12.085  -7.105   0.986  1.00  0.00     0.029 A 
ATOM     63  C   UNL     1      11.400  -6.800  -0.191  1.00  0.00     0.049 A 
ATOM     64  H   UNL     1       9.442  -7.497  -0.571  1.00  0.00     0.167 HD
ATOM     65  C   UNL     1      10.976  -5.499  -2.260  1.00  0.00     0.074 A 
ATOM     66  C   UNL     1       9.539  -5.233  -2.166  1.00  0.00     0.031 C 
ATOM     67  C   UNL     1      11.818  -6.183  -1.429  1.00  0.00     0.037 A 
BRANCH  54  68
ATOM     68  C   UNL     1       7.340  -6.704   1.514  1.00  0.00     0.057 A 
ATOM     69  C   UNL     1       7.111  -8.073   1.286  1.00  0.00     0.134 A 
ATOM     70  C   UNL     1       6.293  -5.848   1.119  1.00  0.00     0.134 A 
ATOM     71  F   UNL     1       8.035  -8.990   1.611  1.00  0.00    -0.206 F 
ATOM     72  C   UNL     1       5.965  -8.544   0.635  1.00  0.00     0.040 A 
ATOM     73  C   UNL     1       5.122  -6.312   0.514  1.00  0.00     0.040 A 
ATOM     74  F   UNL     1       6.382  -4.515   1.197  1.00  0.00    -0.206 F 
ATOM     75  C   UNL     1       4.969  -7.661   0.237  1.00  0.00     0.006 A 
ENDBRANCH  54  68
BRANCH  55  76
ATOM     76  C   UNL     1      10.154  -1.418  -4.509  1.00  0.00     0.057 A 
ATOM     77  C   UNL     1       9.962  -1.942  -5.796  1.00  0.00     0.134 A 
ATOM     78  C   UNL     1       9.549  -0.172  -4.258  1.00  0.00     0.134 A 
ATOM     79  F   UNL     1      10.462  -3.143  -6.122  1.00  0.00    -0.206 F 
ATOM     80  C   UNL     1       9.195  -1.281  -6.766  1.00  0.00     0.040 A 
ATOM     81  C   UNL     1       8.786   0.501  -5.219  1.00  0.00     0.040 A 
ATOM     82  F   UNL     1       9.602   0.394  -3.044  1.00  0.00    -0.206 F 
ATOM     83  C   UNL     1       8.594  -0.060  -6.475  1.00  0.00     0.006 A 
ENDBRANCH  55  76
BRANCH  67  84
ATOM     84  C   UNL     1      13.302  -6.091  -1.668  1.00  0.00     0.057 A 
ATOM     85  C   UNL     1      14.043  -4.900  -1.606  1.00  0.00     0.134 A 
ATOM     86  C   UNL     1      14.035  -7.278  -1.785  1.00  0.00     0.134 A 
ATOM     87  F   UNL     1      13.449  -3.721  -1.394  1.00  0.00    -0.206 F 
ATOM     88  C   UNL     1      15.440  -4.891  -1.695  1.00  0.00     0.040 A 
ATOM     89  C   UNL     1      15.431  -7.286  -1.840  1.00  0.00     0.040 A 
ATOM     90  F   UNL     1      13.404  -8.463  -1.793  1.00  0.00    -0.206 F 
ATOM     91  C   UNL     1      16.139  -6.088  -1.803  1.00  0.00     0.006 A 
ENDBRANCH  67  84
ENDBRANCH  41  42
ENDBRANCH  33  36
ENDBRANCH  31  32
ENDBRANCH  30  31
ENDBRANCH  29  30
ENDBRANCH   1  29
TORSDOF 16
