REMARK SMILES CNC(=O)[C@H](C)S(=O)(=O)c1cc(C(=O)NCCCCCCNC(=O)c2ccc(-c3c4nc(c(-c5c(F)cccc5F)c5ccc([nH]5)c(-c5c(F)cccc5F)c5nc(c(-c6c(F)cccc6F)c6ccc3[nH]6)C=C5)C=C4)cc2)c(C)cc1C
REMARK SMILES IDX 18 1 17 2 16 3 15 4 13 5 14 6 12 8 10 9 11 10 82 11 81 12
REMARK SMILES IDX 83 13 79 14 80 15 7 16 8 17 9 18 5 19 6 20 3 21 1 22 2 23
REMARK SMILES IDX 4 25 19 26 20 27 21 28 22 29 23 30 24 32 25 33 26 34 78 35
REMARK SMILES IDX 27 36 77 37 28 38 29 39 30 40 71 41 31 42 76 43 70 44 72 45
REMARK SMILES IDX 32 46 75 47 69 48 68 49 33 51 59 52 42 53 58 54 43 55 46 56
REMARK SMILES IDX 57 57 73 58 44 59 45 60 56 62 74 63 47 64 34 65 35 66 40 67
REMARK SMILES IDX 36 68 37 69 39 70 41 71 38 72 60 73 61 74 66 75 62 76 63 77
REMARK SMILES IDX 65 78 67 79 64 80 48 81 49 82 54 83 50 84 51 85 53 86 55 87
REMARK SMILES IDX 52 88
REMARK H PARENT 15 7 2 24 22 31 72 50 46 61
REMARK Flexibility Score: inf
ROOT
ATOM      1  C   UNL     1       5.080   3.939  -3.744  1.00  0.00     0.002 C 
ENDROOT
BRANCH   1   2
ATOM      2  C   UNL     1       3.858   4.114  -2.837  1.00  0.00     0.021 C 
BRANCH   2   3
ATOM      3  C   UNL     1       2.594   3.392  -3.319  1.00  0.00     0.116 C 
BRANCH   3   4
ATOM      4  N   UNL     1       2.559   2.057  -2.770  1.00  0.00    -0.352 N 
ATOM      5  C   UNL     1       1.860   1.441  -1.777  1.00  0.00     0.251 C 
ATOM      6  O   UNL     1       2.154   0.252  -1.602  1.00  0.00    -0.269 OA
ATOM      7  H   UNL     1       3.190   1.449  -3.219  1.00  0.00     0.163 HD
BRANCH   5   8
ATOM      8  C   UNL     1       0.771   2.013  -0.913  1.00  0.00     0.044 A 
ATOM      9  C   UNL     1      -1.043   1.238   0.578  1.00  0.00     0.071 A 
ATOM     10  C   UNL     1      -0.123   1.014  -0.451  1.00  0.00     0.034 A 
ATOM     11  C   UNL     1      -1.312   2.552   0.969  1.00  0.00    -0.032 A 
ATOM     12  C   UNL     1      -0.457   3.559   0.498  1.00  0.00     0.009 A 
ATOM     13  C   UNL     1      -2.430   2.962   1.887  1.00  0.00     0.046 C 
ATOM     14  C   UNL     1       0.643   3.294  -0.351  1.00  0.00    -0.038 A 
ATOM     15  C   UNL     1       1.611   4.426  -0.492  1.00  0.00     0.045 C 
BRANCH   9  16
ATOM     16  S   UNL     1      -1.827  -0.169   1.355  1.00  0.00     0.190 S 
ATOM     17  O   UNL     1      -2.788  -0.639   0.371  1.00  0.00    -0.223 OA
ATOM     18  O   UNL     1      -2.301   0.276   2.654  1.00  0.00    -0.223 OA
BRANCH  16  19
ATOM     19  C   UNL     1      -0.681  -1.480   1.667  1.00  0.00     0.199 C 
ATOM     20  C   UNL     1      -0.125  -2.237   0.477  1.00  0.00     0.036 C 
BRANCH  19  21
ATOM     21  C   UNL     1       0.254  -1.212   2.827  1.00  0.00     0.238 C 
ATOM     22  C   UNL     1       2.188   0.023   1.675  1.00  0.00     0.142 C 
ATOM     23  N   UNL     1       1.454  -0.590   2.750  1.00  0.00    -0.358 N 
ATOM     24  H   UNL     1       1.925  -0.549   3.614  1.00  0.00     0.163 HD
ATOM     25  O   UNL     1      -0.038  -1.633   3.955  1.00  0.00    -0.274 OA
ENDBRANCH  19  21
ENDBRANCH  16  19
ENDBRANCH   9  16
ENDBRANCH   5   8
ENDBRANCH   3   4
ENDBRANCH   2   3
ENDBRANCH   1   2
BRANCH   1  26
ATOM     26  C   UNL     1       4.977   4.619  -5.111  1.00  0.00     0.002 C 
BRANCH  26  27
ATOM     27  C   UNL     1       4.584   6.100  -5.080  1.00  0.00     0.021 C 
BRANCH  27  28
ATOM     28  C   UNL     1       5.499   6.994  -4.245  1.00  0.00     0.116 C 
BRANCH  28  29
ATOM     29  N   UNL     1       6.842   7.061  -4.794  1.00  0.00    -0.352 N 
ATOM     30  C   UNL     1       7.532   8.139  -5.289  1.00  0.00     0.251 C 
ATOM     31  H   UNL     1       7.330   6.206  -4.814  1.00  0.00     0.163 HD
ATOM     32  O   UNL     1       8.573   7.966  -5.915  1.00  0.00    -0.269 OA
BRANCH  30  33
ATOM     33  C   UNL     1       7.023   9.512  -5.081  1.00  0.00     0.039 A 
ATOM     34  C   UNL     1       7.037  10.406  -6.155  1.00  0.00     0.014 A 
ATOM     35  C   UNL     1       6.578   9.933  -3.824  1.00  0.00     0.014 A 
ATOM     36  C   UNL     1       6.556  11.706  -5.984  1.00  0.00     0.010 A 
ATOM     37  C   UNL     1       6.047  11.213  -3.667  1.00  0.00     0.010 A 
ATOM     38  C   UNL     1       6.036  12.112  -4.745  1.00  0.00    -0.014 A 
BRANCH  38  39
ATOM     39  C   UNL     1       5.478  13.474  -4.560  1.00  0.00     0.031 A 
ATOM     40  C   UNL     1       6.167  14.461  -3.660  1.00  0.00     0.074 A 
ATOM     41  C   UNL     1       4.317  13.803  -5.157  1.00  0.00     0.049 A 
ATOM     42  N   UNL     1       5.802  15.675  -3.333  1.00  0.00    -0.248 NA
ATOM     43  C   UNL     1       7.417  14.017  -3.025  1.00  0.00     0.031 C 
ATOM     44  C   UNL     1       3.528  12.919  -6.016  1.00  0.00     0.029 A 
ATOM     45  N   UNL     1       3.594  14.969  -5.125  1.00  0.00    -0.354 N 
ATOM     46  C   UNL     1       6.765  16.133  -2.443  1.00  0.00     0.074 A 
ATOM     47  C   UNL     1       7.709  15.053  -2.250  1.00  0.00     0.031 C 
ATOM     48  C   UNL     1       2.439  13.579  -6.442  1.00  0.00     0.029 A 
ATOM     49  C   UNL     1       2.440  14.920  -5.867  1.00  0.00     0.049 A 
ATOM     50  H   UNL     1       3.876  15.764  -4.617  1.00  0.00     0.167 HD
ATOM     51  C   UNL     1       6.865  17.349  -1.855  1.00  0.00     0.037 A 
ATOM     52  C   UNL     1       1.489  15.853  -6.061  1.00  0.00     0.037 A 
ATOM     53  C   UNL     1       5.945  18.434  -2.071  1.00  0.00     0.049 A 
ATOM     54  C   UNL     1       1.633  17.201  -5.415  1.00  0.00     0.074 A 
ATOM     55  C   UNL     1       6.001  19.725  -1.575  1.00  0.00     0.029 A 
ATOM     56  N   UNL     1       4.802  18.355  -2.852  1.00  0.00    -0.354 N 
ATOM     57  N   UNL     1       2.583  17.640  -4.626  1.00  0.00    -0.248 NA
ATOM     58  C   UNL     1       0.576  18.184  -5.691  1.00  0.00     0.031 C 
ATOM     59  C   UNL     1       4.874  20.419  -2.031  1.00  0.00     0.029 A 
ATOM     60  C   UNL     1       4.135  19.569  -2.838  1.00  0.00     0.049 A 
ATOM     61  H   UNL     1       4.508  17.555  -3.344  1.00  0.00     0.167 HD
ATOM     62  C   UNL     1       2.252  18.955  -4.329  1.00  0.00     0.074 A 
ATOM     63  C   UNL     1       1.019  19.246  -5.031  1.00  0.00     0.031 C 
ATOM     64  C   UNL     1       2.910  19.842  -3.544  1.00  0.00     0.037 A 
BRANCH  51  65
ATOM     65  C   UNL     1       8.017  17.570  -0.920  1.00  0.00     0.057 A 
ATOM     66  C   UNL     1       9.329  17.716  -1.391  1.00  0.00     0.134 A 
ATOM     67  C   UNL     1       7.810  17.667   0.461  1.00  0.00     0.134 A 
ATOM     68  F   UNL     1       9.595  17.621  -2.702  1.00  0.00    -0.206 F 
ATOM     69  C   UNL     1      10.397  17.927  -0.518  1.00  0.00     0.040 A 
ATOM     70  C   UNL     1       8.868  17.900   1.342  1.00  0.00     0.040 A 
ATOM     71  F   UNL     1       6.578  17.540   0.976  1.00  0.00    -0.206 F 
ATOM     72  C   UNL     1      10.167  18.025   0.853  1.00  0.00     0.006 A 
ENDBRANCH  51  65
BRANCH  52  73
ATOM     73  C   UNL     1       0.329  15.551  -6.934  1.00  0.00     0.057 A 
ATOM     74  C   UNL     1       0.225  16.116  -8.210  1.00  0.00     0.134 A 
ATOM     75  C   UNL     1      -0.693  14.689  -6.521  1.00  0.00     0.134 A 
ATOM     76  F   UNL     1       1.166  16.962  -8.652  1.00  0.00    -0.206 F 
ATOM     77  C   UNL     1      -0.862  15.844  -9.042  1.00  0.00     0.040 A 
ATOM     78  C   UNL     1      -1.776  14.393  -7.350  1.00  0.00     0.040 A 
ATOM     79  F   UNL     1      -0.644  14.112  -5.312  1.00  0.00    -0.206 F 
ATOM     80  C   UNL     1      -1.865  14.976  -8.613  1.00  0.00     0.006 A 
ENDBRANCH  52  73
BRANCH  64  81
ATOM     81  C   UNL     1       2.321  21.214  -3.422  1.00  0.00     0.057 A 
ATOM     82  C   UNL     1       1.189  21.461  -2.636  1.00  0.00     0.134 A 
ATOM     83  C   UNL     1       2.912  22.305  -4.072  1.00  0.00     0.134 A 
ATOM     84  F   UNL     1       0.571  20.454  -2.001  1.00  0.00    -0.206 F 
ATOM     85  C   UNL     1       0.654  22.744  -2.514  1.00  0.00     0.040 A 
ATOM     86  C   UNL     1       2.398  23.595  -3.941  1.00  0.00     0.040 A 
ATOM     87  F   UNL     1       4.001  22.135  -4.836  1.00  0.00    -0.206 F 
ATOM     88  C   UNL     1       1.263  23.817  -3.163  1.00  0.00     0.006 A 
ENDBRANCH  64  81
ENDBRANCH  38  39
ENDBRANCH  30  33
ENDBRANCH  28  29
ENDBRANCH  27  28
ENDBRANCH  26  27
ENDBRANCH   1  26
TORSDOF 16
