REMARK SMILES CN(C)c1cccc(C(C)(C)C(=O)NCCCCCCNC(=O)c2ccc(-c3c4nc(c(-c5c(F)cccc5F)c5ccc([nH]5)c(-c5c(F)cccc5F)c5nc(c(-c6c(F)cccc6F)c6ccc3[nH]6)C=C5)C=C4)cc2)c1
REMARK SMILES IDX 17 1 16 2 15 3 14 4 12 5 13 6 9 8 10 9 11 10 8 11 4 12 5 13
REMARK SMILES IDX 78 14 6 15 7 16 2 17 1 18 3 19 18 20 19 21 20 22 21 23 22 24
REMARK SMILES IDX 23 26 24 27 25 28 77 29 26 30 76 31 27 32 28 33 29 34 70 35
REMARK SMILES IDX 30 36 75 37 69 38 71 39 31 40 74 41 68 42 67 43 32 45 58 46
REMARK SMILES IDX 41 47 57 48 42 49 45 50 56 51 72 52 43 53 44 54 55 56 73 57
REMARK SMILES IDX 46 58 33 59 34 60 39 61 35 62 36 63 38 64 40 65 37 66 59 67
REMARK SMILES IDX 60 68 65 69 61 70 62 71 64 72 66 73 63 74 47 75 48 76 53 77
REMARK SMILES IDX 49 78 50 79 52 80 54 81 51 82
REMARK H PARENT 14 7 21 25 71 44 45 55
REMARK Flexibility Score: inf
ROOT
ATOM      1  C   UNL     1       8.587  -0.099   3.860  1.00  0.00     0.002 C 
ENDROOT
BRANCH   1   2
ATOM      2  C   UNL     1       7.672   0.759   4.744  1.00  0.00     0.021 C 
BRANCH   2   3
ATOM      3  C   UNL     1       7.049   1.959   4.034  1.00  0.00     0.116 C 
BRANCH   3   4
ATOM      4  N   UNL     1       6.215   1.526   2.930  1.00  0.00    -0.355 N 
ATOM      5  C   UNL     1       4.884   1.600   2.654  1.00  0.00     0.230 C 
ATOM      6  O   UNL     1       4.590   1.004   1.615  1.00  0.00    -0.274 OA
ATOM      7  H   UNL     1       6.728   1.077   2.220  1.00  0.00     0.163 HD
BRANCH   5   8
ATOM      8  C   UNL     1       3.875   2.393   3.547  1.00  0.00     0.068 C 
ATOM      9  C   UNL     1       4.361   3.867   3.549  1.00  0.00     0.026 C 
ATOM     10  C   UNL     1       3.859   1.776   4.964  1.00  0.00     0.026 C 
BRANCH   8  11
ATOM     11  C   UNL     1       2.381   2.431   3.084  1.00  0.00    -0.031 A 
ATOM     12  C   UNL     1       0.535   1.816   1.542  1.00  0.00     0.036 A 
ATOM     13  C   UNL     1      -0.322   2.641   2.276  1.00  0.00     0.026 A 
ATOM     14  C   UNL     1       1.869   1.712   1.988  1.00  0.00     0.030 A 
ATOM     15  C   UNL     1       0.127   3.334   3.397  1.00  0.00     0.002 A 
ATOM     16  C   UNL     1       1.460   3.231   3.791  1.00  0.00     0.005 A 
BRANCH  12  17
ATOM     17  N   UNL     1       0.078   1.141   0.408  1.00  0.00    -0.378 N 
ATOM     18  C   UNL     1       0.783  -0.043  -0.067  1.00  0.00     0.143 C 
ATOM     19  C   UNL     1      -0.602   1.952  -0.596  1.00  0.00     0.143 C 
ENDBRANCH  12  17
ENDBRANCH   8  11
ENDBRANCH   5   8
ENDBRANCH   3   4
ENDBRANCH   2   3
ENDBRANCH   1   2
BRANCH   1  20
ATOM     20  C   UNL     1       9.703   0.661   3.136  1.00  0.00     0.002 C 
BRANCH  20  21
ATOM     21  C   UNL     1      10.590   1.529   4.031  1.00  0.00     0.021 C 
BRANCH  21  22
ATOM     22  C   UNL     1      11.252   0.788   5.185  1.00  0.00     0.116 C 
BRANCH  22  23
ATOM     23  N   UNL     1      12.162  -0.246   4.728  1.00  0.00    -0.352 N 
ATOM     24  C   UNL     1      13.426  -0.537   5.165  1.00  0.00     0.251 C 
ATOM     25  H   UNL     1      11.823  -0.818   4.003  1.00  0.00     0.163 HD
ATOM     26  O   UNL     1      14.118  -1.348   4.548  1.00  0.00    -0.269 OA
BRANCH  24  27
ATOM     27  C   UNL     1      13.976   0.129   6.365  1.00  0.00     0.039 A 
ATOM     28  C   UNL     1      15.308   0.551   6.345  1.00  0.00     0.014 A 
ATOM     29  C   UNL     1      13.203   0.303   7.519  1.00  0.00     0.014 A 
ATOM     30  C   UNL     1      15.858   1.166   7.470  1.00  0.00     0.010 A 
ATOM     31  C   UNL     1      13.731   0.982   8.614  1.00  0.00     0.010 A 
ATOM     32  C   UNL     1      15.070   1.396   8.610  1.00  0.00    -0.014 A 
BRANCH  32  33
ATOM     33  C   UNL     1      15.658   2.018   9.822  1.00  0.00     0.031 A 
ATOM     34  C   UNL     1      15.791   1.220  11.089  1.00  0.00     0.074 A 
ATOM     35  C   UNL     1      16.042   3.308   9.793  1.00  0.00     0.049 A 
ATOM     36  N   UNL     1      16.273   1.585  12.251  1.00  0.00    -0.248 NA
ATOM     37  C   UNL     1      15.287  -0.162  11.056  1.00  0.00     0.031 C 
ATOM     38  C   UNL     1      15.907   4.205   8.644  1.00  0.00     0.029 A 
ATOM     39  N   UNL     1      16.620   4.088  10.761  1.00  0.00    -0.354 N 
ATOM     40  C   UNL     1      16.122   0.484  13.084  1.00  0.00     0.074 A 
ATOM     41  C   UNL     1      15.445  -0.538  12.316  1.00  0.00     0.031 C 
ATOM     42  C   UNL     1      16.408   5.408   8.968  1.00  0.00     0.029 A 
ATOM     43  C   UNL     1      16.880   5.372  10.349  1.00  0.00     0.049 A 
ATOM     44  H   UNL     1      16.829   3.759  11.665  1.00  0.00     0.167 HD
ATOM     45  C   UNL     1      16.536   0.325  14.364  1.00  0.00     0.037 A 
ATOM     46  C   UNL     1      17.442   6.401  11.009  1.00  0.00     0.037 A 
ATOM     47  C   UNL     1      17.229   1.335  15.120  1.00  0.00     0.049 A 
ATOM     48  C   UNL     1      17.929   6.193  12.416  1.00  0.00     0.074 A 
ATOM     49  C   UNL     1      17.735   1.259  16.405  1.00  0.00     0.029 A 
ATOM     50  N   UNL     1      17.515   2.609  14.652  1.00  0.00    -0.354 N 
ATOM     51  N   UNL     1      17.845   5.124  13.170  1.00  0.00    -0.248 NA
ATOM     52  C   UNL     1      18.607   7.329  13.056  1.00  0.00     0.031 C 
ATOM     53  C   UNL     1      18.298   2.499  16.727  1.00  0.00     0.029 A 
ATOM     54  C   UNL     1      18.181   3.333  15.627  1.00  0.00     0.049 A 
ATOM     55  H   UNL     1      17.280   2.949  13.758  1.00  0.00     0.167 HD
ATOM     56  C   UNL     1      18.478   5.448  14.363  1.00  0.00     0.074 A 
ATOM     57  C   UNL     1      18.955   6.809  14.225  1.00  0.00     0.031 C 
ATOM     58  C   UNL     1      18.649   4.688  15.472  1.00  0.00     0.037 A 
BRANCH  45  59
ATOM     59  C   UNL     1      16.250  -0.997  15.015  1.00  0.00     0.057 A 
ATOM     60  C   UNL     1      16.902  -2.172  14.616  1.00  0.00     0.134 A 
ATOM     61  C   UNL     1      15.310  -1.101  16.048  1.00  0.00     0.134 A 
ATOM     62  F   UNL     1      17.803  -2.145  13.622  1.00  0.00    -0.206 F 
ATOM     63  C   UNL     1      16.602  -3.408  15.193  1.00  0.00     0.040 A 
ATOM     64  C   UNL     1      15.022  -2.326  16.652  1.00  0.00     0.040 A 
ATOM     65  F   UNL     1      14.652  -0.016  16.483  1.00  0.00    -0.206 F 
ATOM     66  C   UNL     1      15.662  -3.486  16.218  1.00  0.00     0.006 A 
ENDBRANCH  45  59
BRANCH  46  67
ATOM     67  C   UNL     1      17.612   7.705  10.325  1.00  0.00     0.057 A 
ATOM     68  C   UNL     1      18.873   8.144   9.904  1.00  0.00     0.134 A 
ATOM     69  C   UNL     1      16.516   8.533  10.055  1.00  0.00     0.134 A 
ATOM     70  F   UNL     1      19.962   7.400  10.148  1.00  0.00    -0.206 F 
ATOM     71  C   UNL     1      19.041   9.365   9.251  1.00  0.00     0.040 A 
ATOM     72  C   UNL     1      16.666   9.747   9.384  1.00  0.00     0.040 A 
ATOM     73  F   UNL     1      15.281   8.163  10.424  1.00  0.00    -0.206 F 
ATOM     74  C   UNL     1      17.933  10.168   8.984  1.00  0.00     0.006 A 
ENDBRANCH  46  67
BRANCH  58  75
ATOM     75  C   UNL     1      19.405   5.304  16.612  1.00  0.00     0.057 A 
ATOM     76  C   UNL     1      18.844   6.305  17.415  1.00  0.00     0.134 A 
ATOM     77  C   UNL     1      20.699   4.870  16.926  1.00  0.00     0.134 A 
ATOM     78  F   UNL     1      17.613   6.773  17.159  1.00  0.00    -0.206 F 
ATOM     79  C   UNL     1      19.555   6.872  18.474  1.00  0.00     0.040 A 
ATOM     80  C   UNL     1      21.410   5.411  17.997  1.00  0.00     0.040 A 
ATOM     81  F   UNL     1      21.289   3.908  16.201  1.00  0.00    -0.206 F 
ATOM     82  C   UNL     1      20.840   6.420  18.771  1.00  0.00     0.006 A 
ENDBRANCH  58  75
ENDBRANCH  32  33
ENDBRANCH  24  27
ENDBRANCH  22  23
ENDBRANCH  21  22
ENDBRANCH  20  21
ENDBRANCH   1  20
TORSDOF 15
