REMARK SMILES CCC(=O)N1CCC[C@](C[C@H]2CC(c3ccc(C)cc3)=NO2)(C(=O)NCCCCCCNC(=O)c2ccc(-c3c4nc(c(-c5c(F)cccc5F)c5ccc([nH]5)c(-c5c(F)cccc5F)c5nc(c(-c6c(F)cccc6F)c6ccc3[nH]6)C=C5)C=C4)cc2)C1
REMARK SMILES IDX 28 1 27 2 26 3 25 4 23 5 24 6 9 8 5 9 6 10 89 11 7 12 8 13
REMARK SMILES IDX 3 14 4 15 2 16 1 17 10 18 11 19 12 20 22 21 13 22 21 23
REMARK SMILES IDX 14 24 15 25 20 26 16 27 19 28 17 29 18 30 29 31 30 32 31 33
REMARK SMILES IDX 32 34 33 35 34 37 35 38 36 39 88 40 37 41 87 42 38 43 39 44
REMARK SMILES IDX 40 45 81 46 41 47 86 48 80 49 82 50 42 51 85 52 79 53 78 54
REMARK SMILES IDX 43 56 69 57 52 58 68 59 53 60 56 61 67 62 83 63 54 64 55 65
REMARK SMILES IDX 66 67 84 68 57 69 44 70 45 71 50 72 46 73 47 74 49 75 51 76
REMARK SMILES IDX 48 77 70 78 71 79 76 80 72 81 73 82 75 83 77 84 74 85 58 86
REMARK SMILES IDX 59 87 64 88 60 89 61 90 63 91 65 92 62 93
REMARK H PARENT 25 7 32 36 82 55 56 66
REMARK Flexibility Score: inf
ROOT
ATOM      1  C   UNL     1       1.731  -0.025   5.468  1.00  0.00     0.002 C 
ENDROOT
BRANCH   1   2
ATOM      2  C   UNL     1       2.602   0.234   4.236  1.00  0.00     0.021 C 
BRANCH   2   3
ATOM      3  C   UNL     1       3.571  -0.882   3.862  1.00  0.00     0.116 C 
BRANCH   3   4
ATOM      4  N   UNL     1       2.930  -2.010   3.212  1.00  0.00    -0.356 N 
ATOM      5  C   UNL     1       3.375  -2.916   2.297  1.00  0.00     0.228 C 
ATOM      6  O   UNL     1       2.961  -4.061   2.511  1.00  0.00    -0.274 OA
ATOM      7  H   UNL     1       1.994  -2.147   3.484  1.00  0.00     0.163 HD
BRANCH   5   8
ATOM      8  C   UNL     1       4.246  -2.586   1.031  1.00  0.00     0.070 C 
ATOM      9  N   UNL     1       2.344  -2.755  -0.634  1.00  0.00    -0.342 N 
ATOM     10  C   UNL     1       2.862  -3.994  -1.207  1.00  0.00     0.119 C 
ATOM     11  C   UNL     1       3.334  -1.874  -0.007  1.00  0.00     0.136 C 
ATOM     12  C   UNL     1       3.679  -4.797  -0.214  1.00  0.00     0.023 C 
ATOM     13  C   UNL     1       4.754  -3.927   0.439  1.00  0.00     0.021 C 
BRANCH   9  14
ATOM     14  C   UNL     1       1.015  -2.451  -0.890  1.00  0.00     0.222 C 
ATOM     15  O   UNL     1       0.182  -3.338  -1.105  1.00  0.00    -0.275 OA
BRANCH  14  16
ATOM     16  C   UNL     1       0.604  -1.002  -1.117  1.00  0.00     0.097 C 
ATOM     17  C   UNL     1       0.663  -0.039   0.049  1.00  0.00     0.014 C 
ENDBRANCH  14  16
ENDBRANCH   9  14
BRANCH   8  18
ATOM     18  C   UNL     1       5.439  -1.672   1.442  1.00  0.00     0.067 C 
BRANCH  18  19
ATOM     19  C   UNL     1       6.622  -1.274   0.550  1.00  0.00     0.211 C 
ATOM     20  C   UNL     1       7.582  -2.334   0.074  1.00  0.00     0.108 C 
ATOM     21  O   UNL     1       6.160  -0.560  -0.600  1.00  0.00    -0.392 OA
ATOM     22  C   UNL     1       7.337  -2.215  -1.385  1.00  0.00     0.091 C 
ATOM     23  N   UNL     1       6.587  -1.233  -1.759  1.00  0.00    -0.090 NA
BRANCH  22  24
ATOM     24  C   UNL     1       7.977  -3.130  -2.330  1.00  0.00    -0.001 A 
ATOM     25  C   UNL     1       7.807  -4.508  -2.205  1.00  0.00     0.010 A 
ATOM     26  C   UNL     1       8.747  -2.591  -3.361  1.00  0.00     0.010 A 
ATOM     27  C   UNL     1       8.418  -5.358  -3.125  1.00  0.00     0.004 A 
ATOM     28  C   UNL     1       9.374  -3.446  -4.264  1.00  0.00     0.004 A 
ATOM     29  C   UNL     1       9.208  -4.834  -4.158  1.00  0.00    -0.051 A 
ATOM     30  C   UNL     1       9.894  -5.743  -5.134  1.00  0.00     0.044 C 
ENDBRANCH  22  24
ENDBRANCH  18  19
ENDBRANCH   8  18
ENDBRANCH   5   8
ENDBRANCH   3   4
ENDBRANCH   2   3
ENDBRANCH   1   2
BRANCH   1  31
ATOM     31  C   UNL     1       2.448  -0.465   6.757  1.00  0.00     0.002 C 
BRANCH  31  32
ATOM     32  C   UNL     1       3.746   0.261   7.125  1.00  0.00     0.021 C 
BRANCH  32  33
ATOM     33  C   UNL     1       3.592   1.750   7.397  1.00  0.00     0.116 C 
BRANCH  33  34
ATOM     34  N   UNL     1       3.495   2.100   8.806  1.00  0.00    -0.352 N 
ATOM     35  C   UNL     1       3.184   3.321   9.392  1.00  0.00     0.251 C 
ATOM     36  H   UNL     1       3.676   1.365   9.435  1.00  0.00     0.163 HD
ATOM     37  O   UNL     1       3.186   3.440  10.593  1.00  0.00    -0.269 OA
BRANCH  35  38
ATOM     38  C   UNL     1       2.714   4.434   8.527  1.00  0.00     0.039 A 
ATOM     39  C   UNL     1       1.560   5.121   8.926  1.00  0.00     0.014 A 
ATOM     40  C   UNL     1       3.256   4.663   7.261  1.00  0.00     0.014 A 
ATOM     41  C   UNL     1       0.815   5.818   7.980  1.00  0.00     0.010 A 
ATOM     42  C   UNL     1       2.475   5.275   6.297  1.00  0.00     0.010 A 
ATOM     43  C   UNL     1       1.222   5.786   6.647  1.00  0.00    -0.014 A 
BRANCH  43  44
ATOM     44  C   UNL     1       0.328   6.128   5.546  1.00  0.00     0.031 A 
ATOM     45  C   UNL     1       0.454   7.411   4.832  1.00  0.00     0.074 A 
ATOM     46  C   UNL     1      -0.617   5.243   5.159  1.00  0.00     0.049 A 
ATOM     47  N   UNL     1      -0.538   8.032   4.288  1.00  0.00    -0.248 NA
ATOM     48  C   UNL     1       1.723   8.116   4.700  1.00  0.00     0.031 C 
ATOM     49  C   UNL     1      -1.451   5.305   3.962  1.00  0.00     0.029 A 
ATOM     50  N   UNL     1      -1.162   4.195   5.912  1.00  0.00    -0.354 N 
ATOM     51  C   UNL     1      -0.022   9.048   3.519  1.00  0.00     0.074 A 
ATOM     52  C   UNL     1       1.383   9.101   3.862  1.00  0.00     0.031 C 
ATOM     53  C   UNL     1      -2.549   4.560   4.163  1.00  0.00     0.029 A 
ATOM     54  C   UNL     1      -2.520   4.107   5.543  1.00  0.00     0.049 A 
ATOM     55  H   UNL     1      -0.691   3.632   6.569  1.00  0.00     0.167 HD
ATOM     56  C   UNL     1      -0.799   9.643   2.568  1.00  0.00     0.037 A 
ATOM     57  C   UNL     1      -3.523   4.288   6.448  1.00  0.00     0.037 A 
ATOM     58  C   UNL     1      -2.136   9.060   2.527  1.00  0.00     0.049 A 
ATOM     59  C   UNL     1      -4.473   5.407   6.097  1.00  0.00     0.074 A 
ATOM     60  C   UNL     1      -2.695   8.081   1.720  1.00  0.00     0.029 A 
ATOM     61  N   UNL     1      -3.016   9.247   3.586  1.00  0.00    -0.354 N 
ATOM     62  N   UNL     1      -4.188   6.367   5.263  1.00  0.00    -0.248 NA
ATOM     63  C   UNL     1      -5.802   5.553   6.684  1.00  0.00     0.031 C 
ATOM     64  C   UNL     1      -3.908   7.659   2.311  1.00  0.00     0.029 A 
ATOM     65  C   UNL     1      -4.093   8.388   3.473  1.00  0.00     0.049 A 
ATOM     66  H   UNL     1      -2.890   9.898   4.314  1.00  0.00     0.167 HD
ATOM     67  C   UNL     1      -5.232   7.257   5.215  1.00  0.00     0.074 A 
ATOM     68  C   UNL     1      -6.228   6.688   6.101  1.00  0.00     0.031 C 
ATOM     69  C   UNL     1      -5.167   8.390   4.454  1.00  0.00     0.037 A 
BRANCH  56  70
ATOM     70  C   UNL     1      -0.231  10.512   1.470  1.00  0.00     0.057 A 
ATOM     71  C   UNL     1      -0.771  10.497   0.169  1.00  0.00     0.134 A 
ATOM     72  C   UNL     1       0.886  11.350   1.625  1.00  0.00     0.134 A 
ATOM     73  F   UNL     1      -1.910   9.854  -0.118  1.00  0.00    -0.206 F 
ATOM     74  C   UNL     1      -0.164  11.141  -0.916  1.00  0.00     0.040 A 
ATOM     75  C   UNL     1       1.535  11.959   0.540  1.00  0.00     0.040 A 
ATOM     76  F   UNL     1       1.372  11.643   2.839  1.00  0.00    -0.206 F 
ATOM     77  C   UNL     1       1.021  11.838  -0.742  1.00  0.00     0.006 A 
ENDBRANCH  56  70
BRANCH  57  78
ATOM     78  C   UNL     1      -3.154   3.896   7.832  1.00  0.00     0.057 A 
ATOM     79  C   UNL     1      -2.877   2.545   8.101  1.00  0.00     0.134 A 
ATOM     80  C   UNL     1      -2.722   4.836   8.771  1.00  0.00     0.134 A 
ATOM     81  F   UNL     1      -3.262   1.593   7.236  1.00  0.00    -0.206 F 
ATOM     82  C   UNL     1      -2.110   2.153   9.201  1.00  0.00     0.040 A 
ATOM     83  C   UNL     1      -1.962   4.454   9.883  1.00  0.00     0.040 A 
ATOM     84  F   UNL     1      -2.928   6.145   8.573  1.00  0.00    -0.206 F 
ATOM     85  C   UNL     1      -1.622   3.115  10.079  1.00  0.00     0.006 A 
ENDBRANCH  57  78
BRANCH  69  86
ATOM     86  C   UNL     1      -6.133   9.554   4.469  1.00  0.00     0.057 A 
ATOM     87  C   UNL     1      -6.941   9.906   5.560  1.00  0.00     0.134 A 
ATOM     88  C   UNL     1      -6.168  10.467   3.388  1.00  0.00     0.134 A 
ATOM     89  F   UNL     1      -6.929   9.204   6.700  1.00  0.00    -0.206 F 
ATOM     90  C   UNL     1      -7.762  11.043   5.555  1.00  0.00     0.040 A 
ATOM     91  C   UNL     1      -6.941  11.633   3.395  1.00  0.00     0.040 A 
ATOM     92  F   UNL     1      -5.433  10.284   2.281  1.00  0.00    -0.206 F 
ATOM     93  C   UNL     1      -7.755  11.918   4.477  1.00  0.00     0.006 A 
ENDBRANCH  69  86
ENDBRANCH  43  44
ENDBRANCH  35  38
ENDBRANCH  33  34
ENDBRANCH  32  33
ENDBRANCH  31  32
ENDBRANCH   1  31
TORSDOF 18
