REMARK SMILES CCc1cc(/C=C/C(=O)NCCCCCCNC(=O)c2ccc(-c3c4nc(c(-c5c(F)cccc5F)c5ccc([nH]5)c(-c5c(F)cccc5F)c5nc(c(-c6c(F)cccc6F)c6ccc3[nH]6)C=C5)C=C4)cc2)cc(C(=O)c2ccccc2)c1
REMARK SMILES IDX 13 1 12 2 11 3 10 4 8 5 9 6 7 8 6 9 5 10 3 11 4 12 84 13
REMARK SMILES IDX 75 14 74 15 2 16 1 17 76 18 77 19 78 20 79 21 83 22 80 23
REMARK SMILES IDX 82 24 81 25 14 26 15 27 16 28 17 29 18 30 19 32 20 33 21 34
REMARK SMILES IDX 73 35 22 36 72 37 23 38 24 39 25 40 66 41 26 42 71 43 65 44
REMARK SMILES IDX 67 45 27 46 70 47 64 48 63 49 28 51 54 52 37 53 53 54 38 55
REMARK SMILES IDX 41 56 52 57 68 58 39 59 40 60 51 62 69 63 42 64 29 65 30 66
REMARK SMILES IDX 35 67 31 68 32 69 34 70 36 71 33 72 55 73 56 74 61 75 57 76
REMARK SMILES IDX 58 77 60 78 62 79 59 80 43 81 44 82 49 83 45 84 46 85 48 86
REMARK SMILES IDX 50 87 47 88
REMARK H PARENT 10 7 17 31 67 50 41 61
REMARK Flexibility Score: inf
ROOT
ATOM      1  C   UNL     1      -1.884 -10.208   0.079  1.00  0.00     0.002 C 
ENDROOT
BRANCH   1   2
ATOM      2  C   UNL     1      -1.087  -8.905  -0.074  1.00  0.00     0.021 C 
BRANCH   2   3
ATOM      3  C   UNL     1      -1.022  -8.395  -1.515  1.00  0.00     0.116 C 
BRANCH   3   4
ATOM      4  N   UNL     1      -2.263  -7.738  -1.876  1.00  0.00    -0.353 N 
ATOM      5  C   UNL     1      -2.550  -6.437  -2.132  1.00  0.00     0.243 C 
ATOM      6  O   UNL     1      -3.687  -6.131  -2.487  1.00  0.00    -0.270 OA
ATOM      7  H   UNL     1      -3.035  -8.344  -1.948  1.00  0.00     0.163 HD
BRANCH   5   8
ATOM      8  C   UNL     1      -1.513  -5.380  -2.077  1.00  0.00     0.072 C 
ATOM      9  C   UNL     1      -0.563  -5.263  -1.137  1.00  0.00     0.014 C 
BRANCH   9  10
ATOM     10  C   UNL     1       0.415  -4.168  -1.088  1.00  0.00    -0.024 A 
ATOM     11  C   UNL     1       0.967  -1.791  -1.182  1.00  0.00    -0.047 A 
ATOM     12  C   UNL     1       0.044  -2.837  -1.324  1.00  0.00     0.011 A 
ATOM     13  C   UNL     1       2.287  -2.096  -0.826  1.00  0.00     0.016 A 
ATOM     14  C   UNL     1       2.660  -3.413  -0.538  1.00  0.00     0.023 A 
ATOM     15  C   UNL     1       1.729  -4.448  -0.689  1.00  0.00     0.020 A 
BRANCH  11  16
ATOM     16  C   UNL     1       0.534  -0.357  -1.369  1.00  0.00     0.032 C 
ATOM     17  C   UNL     1       0.767   0.481  -0.116  1.00  0.00     0.009 C 
ENDBRANCH  11  16
BRANCH  14  18
ATOM     18  C   UNL     1       4.030  -3.745  -0.057  1.00  0.00     0.193 C 
ATOM     19  O   UNL     1       4.489  -4.869  -0.236  1.00  0.00    -0.289 OA
BRANCH  18  20
ATOM     20  C   UNL     1       4.856  -2.725   0.638  1.00  0.00     0.022 A 
ATOM     21  C   UNL     1       6.195  -2.579   0.265  1.00  0.00     0.012 A 
ATOM     22  C   UNL     1       4.312  -1.914   1.643  1.00  0.00     0.012 A 
ATOM     23  C   UNL     1       6.974  -1.585   0.858  1.00  0.00     0.001 A 
ATOM     24  C   UNL     1       5.096  -0.920   2.231  1.00  0.00     0.001 A 
ATOM     25  C   UNL     1       6.422  -0.751   1.832  1.00  0.00     0.000 A 
ENDBRANCH  18  20
ENDBRANCH  14  18
ENDBRANCH   9  10
ENDBRANCH   5   8
ENDBRANCH   3   4
ENDBRANCH   2   3
ENDBRANCH   1   2
BRANCH   1  26
ATOM     26  C   UNL     1      -1.324 -11.403  -0.702  1.00  0.00     0.002 C 
BRANCH  26  27
ATOM     27  C   UNL     1       0.151 -11.717  -0.434  1.00  0.00     0.021 C 
BRANCH  27  28
ATOM     28  C   UNL     1       0.462 -12.074   1.016  1.00  0.00     0.116 C 
BRANCH  28  29
ATOM     29  N   UNL     1      -0.203 -13.304   1.420  1.00  0.00    -0.352 N 
ATOM     30  C   UNL     1       0.339 -14.461   1.919  1.00  0.00     0.251 C 
ATOM     31  H   UNL     1      -1.182 -13.305   1.322  1.00  0.00     0.163 HD
ATOM     32  O   UNL     1      -0.337 -15.482   1.985  1.00  0.00    -0.269 OA
BRANCH  30  33
ATOM     33  C   UNL     1       1.745 -14.478   2.371  1.00  0.00     0.039 A 
ATOM     34  C   UNL     1       2.558 -15.559   2.020  1.00  0.00     0.014 A 
ATOM     35  C   UNL     1       2.253 -13.441   3.160  1.00  0.00     0.014 A 
ATOM     36  C   UNL     1       3.895 -15.576   2.420  1.00  0.00     0.010 A 
ATOM     37  C   UNL     1       3.602 -13.426   3.499  1.00  0.00     0.010 A 
ATOM     38  C   UNL     1       4.434 -14.497   3.139  1.00  0.00    -0.014 A 
BRANCH  38  39
ATOM     39  C   UNL     1       5.864 -14.475   3.533  1.00  0.00     0.031 A 
ATOM     40  C   UNL     1       6.247 -14.506   4.986  1.00  0.00     0.074 A 
ATOM     41  C   UNL     1       6.813 -14.362   2.584  1.00  0.00     0.049 A 
ATOM     42  N   UNL     1       7.435 -14.427   5.530  1.00  0.00    -0.248 NA
ATOM     43  C   UNL     1       5.148 -14.614   5.958  1.00  0.00     0.031 C 
ATOM     44  C   UNL     1       6.563 -14.275   1.144  1.00  0.00     0.029 A 
ATOM     45  N   UNL     1       8.179 -14.289   2.690  1.00  0.00    -0.354 N 
ATOM     46  C   UNL     1       7.225 -14.460   6.903  1.00  0.00     0.074 A 
ATOM     47  C   UNL     1       5.794 -14.514   7.111  1.00  0.00     0.031 C 
ATOM     48  C   UNL     1       7.738 -14.181   0.500  1.00  0.00     0.029 A 
ATOM     49  C   UNL     1       8.818 -14.164   1.481  1.00  0.00     0.049 A 
ATOM     50  H   UNL     1       8.655 -14.323   3.551  1.00  0.00     0.167 HD
ATOM     51  C   UNL     1       8.142 -14.468   7.899  1.00  0.00     0.037 A 
ATOM     52  C   UNL     1      10.128 -14.041   1.197  1.00  0.00     0.037 A 
ATOM     53  C   UNL     1       9.565 -14.438   7.687  1.00  0.00     0.049 A 
ATOM     54  C   UNL     1      11.126 -14.048   2.321  1.00  0.00     0.074 A 
ATOM     55  C   UNL     1      10.579 -14.503   8.627  1.00  0.00     0.029 A 
ATOM     56  N   UNL     1      10.176 -14.329   6.446  1.00  0.00    -0.354 N 
ATOM     57  N   UNL     1      10.918 -14.150   3.611  1.00  0.00    -0.248 NA
ATOM     58  C   UNL     1      12.543 -13.928   1.949  1.00  0.00     0.031 C 
ATOM     59  C   UNL     1      11.803 -14.391   7.958  1.00  0.00     0.029 A 
ATOM     60  C   UNL     1      11.552 -14.305   6.598  1.00  0.00     0.049 A 
ATOM     61  H   UNL     1       9.701 -14.277   5.585  1.00  0.00     0.167 HD
ATOM     62  C   UNL     1      12.174 -14.135   4.202  1.00  0.00     0.074 A 
ATOM     63  C   UNL     1      13.140 -14.028   3.128  1.00  0.00     0.031 C 
ATOM     64  C   UNL     1      12.499 -14.204   5.516  1.00  0.00     0.037 A 
BRANCH  51  65
ATOM     65  C   UNL     1       7.631 -14.515   9.310  1.00  0.00     0.057 A 
ATOM     66  C   UNL     1       7.020 -15.660   9.837  1.00  0.00     0.134 A 
ATOM     67  C   UNL     1       7.777 -13.412  10.162  1.00  0.00     0.134 A 
ATOM     68  F   UNL     1       6.838 -16.747   9.072  1.00  0.00    -0.206 F 
ATOM     69  C   UNL     1       6.548 -15.699  11.151  1.00  0.00     0.040 A 
ATOM     70  C   UNL     1       7.335 -13.448  11.485  1.00  0.00     0.040 A 
ATOM     71  F   UNL     1       8.359 -12.285   9.724  1.00  0.00    -0.206 F 
ATOM     72  C   UNL     1       6.711 -14.592  11.981  1.00  0.00     0.006 A 
ENDBRANCH  51  65
BRANCH  52  73
ATOM     73  C   UNL     1      10.574 -13.926  -0.214  1.00  0.00     0.057 A 
ATOM     74  C   UNL     1      11.264 -14.971  -0.840  1.00  0.00     0.134 A 
ATOM     75  C   UNL     1      10.326 -12.774  -0.969  1.00  0.00     0.134 A 
ATOM     76  F   UNL     1      11.548 -16.093  -0.162  1.00  0.00    -0.206 F 
ATOM     77  C   UNL     1      11.709 -14.868  -2.159  1.00  0.00     0.040 A 
ATOM     78  C   UNL     1      10.742 -12.667  -2.297  1.00  0.00     0.040 A 
ATOM     79  F   UNL     1       9.662 -11.741  -0.430  1.00  0.00    -0.206 F 
ATOM     80  C   UNL     1      11.443 -13.713  -2.893  1.00  0.00     0.006 A 
ENDBRANCH  52  73
BRANCH  64  81
ATOM     81  C   UNL     1      13.960 -14.203   5.862  1.00  0.00     0.057 A 
ATOM     82  C   UNL     1      14.744 -13.048   5.754  1.00  0.00     0.134 A 
ATOM     83  C   UNL     1      14.578 -15.363   6.346  1.00  0.00     0.134 A 
ATOM     84  F   UNL     1      14.216 -11.908   5.285  1.00  0.00    -0.206 F 
ATOM     85  C   UNL     1      16.098 -13.053   6.093  1.00  0.00     0.040 A 
ATOM     86  C   UNL     1      15.923 -15.373   6.714  1.00  0.00     0.040 A 
ATOM     87  F   UNL     1      13.880 -16.501   6.482  1.00  0.00    -0.206 F 
ATOM     88  C   UNL     1      16.689 -14.217   6.582  1.00  0.00     0.006 A 
ENDBRANCH  64  81
ENDBRANCH  38  39
ENDBRANCH  30  33
ENDBRANCH  28  29
ENDBRANCH  27  28
ENDBRANCH  26  27
ENDBRANCH   1  26
TORSDOF 17
