REMARK SMILES N#Cc1cc2c(nc1N(CC(=O)NCCCCCCNC(=O)c1ccc(-c3c4nc(c(-c5c(F)cccc5F)c5ccc([nH]5)c(-c5c(F)cccc5F)c5nc(c(-c6c(F)cccc6F)c6ccc3[nH]6)C=C5)C=C4)cc1)CC(F)(F)F)CCC2
REMARK SMILES IDX 16 1 15 2 14 3 13 4 11 5 12 6 10 8 9 9 8 10 3 11 4 12 5 13
REMARK SMILES IDX 7 14 6 15 84 16 82 17 83 18 2 19 1 20 77 21 78 22 79 23
REMARK SMILES IDX 80 24 81 25 17 26 18 27 19 28 20 29 21 30 22 32 23 33 24 34
REMARK SMILES IDX 76 35 25 36 75 37 26 38 27 39 28 40 69 41 29 42 74 43 68 44
REMARK SMILES IDX 70 45 30 46 73 47 67 48 66 49 31 51 57 52 40 53 56 54 41 55
REMARK SMILES IDX 44 56 55 57 71 58 42 59 43 60 54 62 72 63 45 64 32 65 33 66
REMARK SMILES IDX 38 67 34 68 35 69 37 70 39 71 36 72 58 73 59 74 64 75 60 76
REMARK SMILES IDX 61 77 63 78 65 79 62 80 46 81 47 82 52 83 48 84 49 85 51 86
REMARK SMILES IDX 53 87 50 88
REMARK H PARENT 13 7 20 31 70 50 44 61
REMARK Flexibility Score: inf
ROOT
ATOM      1  C   UNL     1       3.978  -2.640   4.940  1.00  0.00     0.002 C 
ENDROOT
BRANCH   1   2
ATOM      2  C   UNL     1       4.338  -2.030   3.581  1.00  0.00     0.021 C 
BRANCH   2   3
ATOM      3  C   UNL     1       5.304  -2.889   2.769  1.00  0.00     0.116 C 
BRANCH   3   4
ATOM      4  N   UNL     1       4.662  -4.097   2.295  1.00  0.00    -0.355 N 
ATOM      5  C   UNL     1       4.235  -4.391   1.033  1.00  0.00     0.239 C 
ATOM      6  O   UNL     1       3.606  -5.436   0.852  1.00  0.00    -0.273 OA
ATOM      7  H   UNL     1       4.515  -4.797   2.971  1.00  0.00     0.163 HD
BRANCH   5   8
ATOM      8  C   UNL     1       4.541  -3.438  -0.130  1.00  0.00     0.218 C 
BRANCH   8   9
ATOM      9  N   UNL     1       3.695  -2.213  -0.120  1.00  0.00    -0.337 N 
BRANCH   9  10
ATOM     10  C   UNL     1       4.334  -0.982  -0.183  1.00  0.00     0.147 A 
ATOM     11  C   UNL     1       3.727   0.292  -0.286  1.00  0.00     0.095 A 
ATOM     12  C   UNL     1       4.503   1.470  -0.192  1.00  0.00     0.029 A 
ATOM     13  C   UNL     1       5.866   1.358  -0.071  1.00  0.00    -0.025 A 
ATOM     14  N   UNL     1       5.696  -1.039  -0.104  1.00  0.00    -0.234 NA
ATOM     15  C   UNL     1       6.412   0.096  -0.061  1.00  0.00     0.046 A 
ATOM     16  C   UNL     1       6.912   2.407   0.088  1.00  0.00     0.038 C 
ATOM     17  C   UNL     1       7.909   0.155   0.065  1.00  0.00     0.057 C 
ATOM     18  C   UNL     1       8.174   1.623  -0.305  1.00  0.00     0.011 C 
BRANCH  11  19
ATOM     19  C   UNL     1       2.334   0.506  -0.533  1.00  0.00     0.103 C 
ATOM     20  N   UNL     1       1.212   0.695  -0.751  1.00  0.00    -0.192 NA
ENDBRANCH  11  19
ENDBRANCH   9  10
BRANCH   9  21
ATOM     21  C   UNL     1       2.225  -2.460  -0.166  1.00  0.00     0.234 C 
BRANCH  21  22
ATOM     22  C   UNL     1       1.433  -2.209   1.132  1.00  0.00     0.405 C 
ATOM     23  F   UNL     1       1.726  -1.017   1.699  1.00  0.00    -0.169 F 
ATOM     24  F   UNL     1       0.102  -2.222   0.888  1.00  0.00    -0.169 F 
ATOM     25  F   UNL     1       1.672  -3.164   2.060  1.00  0.00    -0.169 F 
ENDBRANCH  21  22
ENDBRANCH   9  21
ENDBRANCH   8   9
ENDBRANCH   5   8
ENDBRANCH   3   4
ENDBRANCH   2   3
ENDBRANCH   1   2
BRANCH   1  26
ATOM     26  C   UNL     1       5.166  -2.776   5.897  1.00  0.00     0.002 C 
BRANCH  26  27
ATOM     27  C   UNL     1       5.930  -1.474   6.142  1.00  0.00     0.021 C 
BRANCH  27  28
ATOM     28  C   UNL     1       5.060  -0.343   6.677  1.00  0.00     0.116 C 
BRANCH  28  29
ATOM     29  N   UNL     1       4.538  -0.651   7.999  1.00  0.00    -0.352 N 
ATOM     30  C   UNL     1       4.766  -0.001   9.185  1.00  0.00     0.251 C 
ATOM     31  H   UNL     1       3.941  -1.432   8.050  1.00  0.00     0.163 HD
ATOM     32  O   UNL     1       4.458  -0.517  10.254  1.00  0.00    -0.269 OA
BRANCH  30  33
ATOM     33  C   UNL     1       5.403   1.329   9.160  1.00  0.00     0.039 A 
ATOM     34  C   UNL     1       6.462   1.592  10.031  1.00  0.00     0.014 A 
ATOM     35  C   UNL     1       4.959   2.307   8.264  1.00  0.00     0.014 A 
ATOM     36  C   UNL     1       7.111   2.824   9.966  1.00  0.00     0.010 A 
ATOM     37  C   UNL     1       5.659   3.502   8.146  1.00  0.00     0.010 A 
ATOM     38  C   UNL     1       6.734   3.776   9.004  1.00  0.00    -0.014 A 
BRANCH  38  39
ATOM     39  C   UNL     1       7.437   5.078   8.903  1.00  0.00     0.031 A 
ATOM     40  C   UNL     1       6.700   6.353   9.203  1.00  0.00     0.074 A 
ATOM     41  C   UNL     1       8.726   5.112   8.514  1.00  0.00     0.049 A 
ATOM     42  N   UNL     1       7.132   7.587   9.147  1.00  0.00    -0.248 NA
ATOM     43  C   UNL     1       5.288   6.229   9.600  1.00  0.00     0.031 C 
ATOM     44  C   UNL     1       9.536   3.943   8.167  1.00  0.00     0.029 A 
ATOM     45  N   UNL     1       9.584   6.171   8.348  1.00  0.00    -0.354 N 
ATOM     46  C   UNL     1       6.048   8.380   9.502  1.00  0.00     0.074 A 
ATOM     47  C   UNL     1       4.922   7.497   9.705  1.00  0.00     0.031 C 
ATOM     48  C   UNL     1      10.781   4.345   7.866  1.00  0.00     0.029 A 
ATOM     49  C   UNL     1      10.847   5.801   7.955  1.00  0.00     0.049 A 
ATOM     50  H   UNL     1       9.318   7.107   8.495  1.00  0.00     0.167 HD
ATOM     51  C   UNL     1       6.006   9.721   9.675  1.00  0.00     0.037 A 
ATOM     52  C   UNL     1      11.936   6.551   7.696  1.00  0.00     0.037 A 
ATOM     53  C   UNL     1       7.135  10.593   9.489  1.00  0.00     0.049 A 
ATOM     54  C   UNL     1      11.850   8.044   7.854  1.00  0.00     0.074 A 
ATOM     55  C   UNL     1       7.203  11.961   9.678  1.00  0.00     0.029 A 
ATOM     56  N   UNL     1       8.392  10.182   9.071  1.00  0.00    -0.354 N 
ATOM     57  N   UNL     1      10.835   8.777   8.245  1.00  0.00    -0.248 NA
ATOM     58  C   UNL     1      13.059   8.817   7.537  1.00  0.00     0.031 C 
ATOM     59  C   UNL     1       8.484  12.388   9.319  1.00  0.00     0.029 A 
ATOM     60  C   UNL     1       9.233  11.277   8.965  1.00  0.00     0.049 A 
ATOM     61  H   UNL     1       8.648   9.251   8.877  1.00  0.00     0.167 HD
ATOM     62  C   UNL     1      11.289  10.089   8.246  1.00  0.00     0.074 A 
ATOM     63  C   UNL     1      12.676  10.052   7.833  1.00  0.00     0.031 C 
ATOM     64  C   UNL     1      10.615  11.224   8.557  1.00  0.00     0.037 A 
BRANCH  51  65
ATOM     65  C   UNL     1       4.703  10.332  10.101  1.00  0.00     0.057 A 
ATOM     66  C   UNL     1       4.184  10.134  11.388  1.00  0.00     0.134 A 
ATOM     67  C   UNL     1       3.996  11.184   9.244  1.00  0.00     0.134 A 
ATOM     68  F   UNL     1       4.805   9.320  12.255  1.00  0.00    -0.206 F 
ATOM     69  C   UNL     1       3.002  10.751  11.801  1.00  0.00     0.040 A 
ATOM     70  C   UNL     1       2.829  11.829   9.655  1.00  0.00     0.040 A 
ATOM     71  F   UNL     1       4.439  11.420   8.000  1.00  0.00    -0.206 F 
ATOM     72  C   UNL     1       2.328  11.611  10.937  1.00  0.00     0.006 A 
ENDBRANCH  51  65
BRANCH  52  73
ATOM     73  C   UNL     1      13.206   5.896   7.290  1.00  0.00     0.057 A 
ATOM     74  C   UNL     1      14.321   5.896   8.137  1.00  0.00     0.134 A 
ATOM     75  C   UNL     1      13.335   5.244   6.057  1.00  0.00     0.134 A 
ATOM     76  F   UNL     1      14.267   6.519   9.323  1.00  0.00    -0.206 F 
ATOM     77  C   UNL     1      15.520   5.283   7.769  1.00  0.00     0.040 A 
ATOM     78  C   UNL     1      14.519   4.602   5.689  1.00  0.00     0.040 A 
ATOM     79  F   UNL     1      12.303   5.201   5.202  1.00  0.00    -0.206 F 
ATOM     80  C   UNL     1      15.618   4.626   6.544  1.00  0.00     0.006 A 
ENDBRANCH  52  73
BRANCH  64  81
ATOM     81  C   UNL     1      11.363  12.523   8.482  1.00  0.00     0.057 A 
ATOM     82  C   UNL     1      11.728  13.094   7.257  1.00  0.00     0.134 A 
ATOM     83  C   UNL     1      11.644  13.254   9.645  1.00  0.00     0.134 A 
ATOM     84  F   UNL     1      11.496  12.442   6.107  1.00  0.00    -0.206 F 
ATOM     85  C   UNL     1      12.357  14.338   7.191  1.00  0.00     0.040 A 
ATOM     86  C   UNL     1      12.243  14.513   9.589  1.00  0.00     0.040 A 
ATOM     87  F   UNL     1      11.309  12.771  10.851  1.00  0.00    -0.206 F 
ATOM     88  C   UNL     1      12.604  15.057   8.359  1.00  0.00     0.006 A 
ENDBRANCH  64  81
ENDBRANCH  38  39
ENDBRANCH  30  33
ENDBRANCH  28  29
ENDBRANCH  27  28
ENDBRANCH  26  27
ENDBRANCH   1  26
TORSDOF 18
