REMARK SMILES Cc1ccc2c(c1)c(-c1ccnc3c(C)cccc13)c(C)n2CC(=O)NCCCCCCNC(=O)c1ccc(-c2c3nc(c(-c4c(F)cccc4F)c4ccc([nH]4)c(-c4c(F)cccc4F)c4nc(c(-c5c(F)cccc5F)c5ccc2[nH]5)C=C4)C=C3)cc1
REMARK SMILES IDX 29 1 28 2 27 3 26 4 24 5 25 6 23 8 22 9 1 10 2 11 3 12 7 13
REMARK SMILES IDX 4 14 6 15 5 16 8 17 20 18 21 19 9 20 10 21 19 22 11 23 13 24
REMARK SMILES IDX 18 25 12 26 14 27 17 28 15 29 16 30 30 31 31 32 32 33 33 34
REMARK SMILES IDX 34 35 35 37 36 38 37 39 89 40 38 41 88 42 39 43 40 44 41 45
REMARK SMILES IDX 82 46 42 47 87 48 81 49 83 50 43 51 86 52 80 53 79 54 44 56
REMARK SMILES IDX 70 57 53 58 69 59 54 60 57 61 68 62 84 63 55 64 56 65 67 67
REMARK SMILES IDX 85 68 58 69 45 70 46 71 51 72 47 73 48 74 50 75 52 76 49 77
REMARK SMILES IDX 71 78 72 79 77 80 73 81 74 82 76 83 78 84 75 85 59 86 60 87
REMARK SMILES IDX 65 88 61 89 62 90 64 91 66 92 63 93
REMARK H PARENT 26 7 33 36 83 55 57 66
REMARK Flexibility Score: inf
ROOT
ATOM      1  C   UNL     1       4.086   3.492   5.516  1.00  0.00     0.002 C 
ENDROOT
BRANCH   1   2
ATOM      2  C   UNL     1       2.846   3.124   4.692  1.00  0.00     0.021 C 
BRANCH   2   3
ATOM      3  C   UNL     1       1.593   2.914   5.539  1.00  0.00     0.116 C 
BRANCH   3   4
ATOM      4  N   UNL     1       1.090   4.174   6.048  1.00  0.00    -0.355 N 
ATOM      5  C   UNL     1       0.029   4.917   5.618  1.00  0.00     0.239 C 
ATOM      6  O   UNL     1      -0.167   6.006   6.164  1.00  0.00    -0.273 OA
ATOM      7  H   UNL     1       1.584   4.547   6.813  1.00  0.00     0.163 HD
BRANCH   5   8
ATOM      8  C   UNL     1      -0.926   4.383   4.566  1.00  0.00     0.222 C 
BRANCH   8   9
ATOM      9  N   UNL     1      -0.352   4.290   3.228  1.00  0.00    -0.335 N 
ATOM     10  C   UNL     1       0.952  -0.081  -0.120  1.00  0.00     0.044 C 
ATOM     11  C   UNL     1       0.512   1.027   0.791  1.00  0.00    -0.050 A 
ATOM     12  C   UNL     1      -0.245   0.763   1.931  1.00  0.00     0.005 A 
ATOM     13  C   UNL     1       0.876   2.349   0.496  1.00  0.00     0.014 A 
ATOM     14  C   UNL     1      -0.630   1.790   2.801  1.00  0.00     0.027 A 
ATOM     15  C   UNL     1       0.507   3.401   1.363  1.00  0.00     0.008 A 
ATOM     16  C   UNL     1      -0.217   3.104   2.517  1.00  0.00     0.049 A 
ATOM     17  C   UNL     1       0.708   4.812   1.339  1.00  0.00     0.011 A 
ATOM     18  C   UNL     1       0.123   5.352   2.475  1.00  0.00     0.024 A 
ATOM     19  C   UNL     1       0.023   6.781   2.899  1.00  0.00     0.065 C 
BRANCH  17  20
ATOM     20  C   UNL     1       1.366   5.593   0.297  1.00  0.00    -0.005 A 
ATOM     21  C   UNL     1       0.701   5.717  -0.921  1.00  0.00     0.029 A 
ATOM     22  C   UNL     1       2.660   6.149   0.462  1.00  0.00     0.008 A 
ATOM     23  C   UNL     1       1.339   6.388  -1.938  1.00  0.00     0.112 A 
ATOM     24  C   UNL     1       3.229   6.814  -0.650  1.00  0.00     0.074 A 
ATOM     25  C   UNL     1       3.404   6.060   1.662  1.00  0.00     0.011 A 
ATOM     26  N   UNL     1       2.569   6.925  -1.822  1.00  0.00    -0.256 NA
ATOM     27  C   UNL     1       4.517   7.357  -0.522  1.00  0.00    -0.025 A 
ATOM     28  C   UNL     1       4.676   6.609   1.776  1.00  0.00     0.001 A 
ATOM     29  C   UNL     1       5.192   8.063  -1.669  1.00  0.00     0.047 C 
ATOM     30  C   UNL     1       5.232   7.254   0.685  1.00  0.00     0.005 A 
ENDBRANCH  17  20
ENDBRANCH   8   9
ENDBRANCH   5   8
ENDBRANCH   3   4
ENDBRANCH   2   3
ENDBRANCH   1   2
BRANCH   1  31
ATOM     31  C   UNL     1       4.559   2.396   6.477  1.00  0.00     0.002 C 
BRANCH  31  32
ATOM     32  C   UNL     1       4.841   1.042   5.817  1.00  0.00     0.021 C 
BRANCH  32  33
ATOM     33  C   UNL     1       5.836   1.110   4.656  1.00  0.00     0.116 C 
BRANCH  33  34
ATOM     34  N   UNL     1       7.146   1.595   5.040  1.00  0.00    -0.352 N 
ATOM     35  C   UNL     1       8.238   1.026   5.633  1.00  0.00     0.251 C 
ATOM     36  H   UNL     1       7.280   2.546   4.826  1.00  0.00     0.163 HD
ATOM     37  O   UNL     1       9.244   1.736   5.735  1.00  0.00    -0.269 OA
BRANCH  35  38
ATOM     38  C   UNL     1       8.265  -0.338   6.224  1.00  0.00     0.039 A 
ATOM     39  C   UNL     1       7.268  -1.301   6.076  1.00  0.00     0.014 A 
ATOM     40  C   UNL     1       9.370  -0.634   7.045  1.00  0.00     0.014 A 
ATOM     41  C   UNL     1       7.292  -2.461   6.834  1.00  0.00     0.010 A 
ATOM     42  C   UNL     1       9.422  -1.813   7.776  1.00  0.00     0.010 A 
ATOM     43  C   UNL     1       8.348  -2.694   7.714  1.00  0.00    -0.014 A 
BRANCH  43  44
ATOM     44  C   UNL     1       8.308  -3.929   8.483  1.00  0.00     0.031 A 
ATOM     45  C   UNL     1       8.317  -5.176   7.667  1.00  0.00     0.074 A 
ATOM     46  C   UNL     1       8.348  -3.950   9.829  1.00  0.00     0.049 A 
ATOM     47  N   UNL     1       7.429  -6.116   7.621  1.00  0.00    -0.248 NA
ATOM     48  C   UNL     1       9.409  -5.336   6.693  1.00  0.00     0.031 C 
ATOM     49  C   UNL     1       8.610  -2.834  10.740  1.00  0.00     0.029 A 
ATOM     50  N   UNL     1       8.263  -5.019  10.669  1.00  0.00    -0.354 N 
ATOM     51  C   UNL     1       7.938  -7.079   6.750  1.00  0.00     0.074 A 
ATOM     52  C   UNL     1       9.077  -6.483   6.103  1.00  0.00     0.031 C 
ATOM     53  C   UNL     1       8.895  -3.322  11.968  1.00  0.00     0.029 A 
ATOM     54  C   UNL     1       8.710  -4.763  11.957  1.00  0.00     0.049 A 
ATOM     55  H   UNL     1       7.915  -5.895  10.387  1.00  0.00     0.167 HD
ATOM     56  C   UNL     1       7.524  -8.375   6.797  1.00  0.00     0.037 A 
ATOM     57  C   UNL     1       8.984  -5.681  12.915  1.00  0.00     0.037 A 
ATOM     58  C   UNL     1       6.237  -8.496   7.432  1.00  0.00     0.049 A 
ATOM     59  C   UNL     1       8.315  -6.950  12.536  1.00  0.00     0.074 A 
ATOM     60  C   UNL     1       4.972  -7.999   7.183  1.00  0.00     0.029 A 
ATOM     61  N   UNL     1       6.190  -8.988   8.712  1.00  0.00    -0.354 N 
ATOM     62  N   UNL     1       7.025  -7.131  12.561  1.00  0.00    -0.248 NA
ATOM     63  C   UNL     1       9.060  -7.888  11.709  1.00  0.00     0.031 C 
ATOM     64  C   UNL     1       4.406  -7.768   8.472  1.00  0.00     0.029 A 
ATOM     65  C   UNL     1       5.343  -8.178   9.419  1.00  0.00     0.049 A 
ATOM     66  H   UNL     1       6.674  -9.774   9.056  1.00  0.00     0.167 HD
ATOM     67  C   UNL     1       6.756  -7.904  11.441  1.00  0.00     0.074 A 
ATOM     68  C   UNL     1       8.053  -8.420  11.012  1.00  0.00     0.031 C 
ATOM     69  C   UNL     1       5.552  -7.823  10.801  1.00  0.00     0.037 A 
BRANCH  56  70
ATOM     70  C   UNL     1       8.456  -9.558   6.645  1.00  0.00     0.057 A 
ATOM     71  C   UNL     1       9.855  -9.492   6.813  1.00  0.00     0.134 A 
ATOM     72  C   UNL     1       7.917 -10.859   6.667  1.00  0.00     0.134 A 
ATOM     73  F   UNL     1      10.524  -8.335   6.857  1.00  0.00    -0.206 F 
ATOM     74  C   UNL     1      10.645 -10.619   7.053  1.00  0.00     0.040 A 
ATOM     75  C   UNL     1       8.692 -11.989   6.956  1.00  0.00     0.040 A 
ATOM     76  F   UNL     1       6.601 -11.062   6.508  1.00  0.00    -0.206 F 
ATOM     77  C   UNL     1      10.059 -11.868   7.168  1.00  0.00     0.006 A 
ENDBRANCH  56  70
BRANCH  57  78
ATOM     78  C   UNL     1      10.010  -5.614  13.979  1.00  0.00     0.057 A 
ATOM     79  C   UNL     1      11.207  -4.896  13.801  1.00  0.00     0.134 A 
ATOM     80  C   UNL     1       9.961  -6.459  15.096  1.00  0.00     0.134 A 
ATOM     81  F   UNL     1      11.400  -4.126  12.720  1.00  0.00    -0.206 F 
ATOM     82  C   UNL     1      12.289  -5.009  14.679  1.00  0.00     0.040 A 
ATOM     83  C   UNL     1      11.042  -6.590  15.978  1.00  0.00     0.040 A 
ATOM     84  F   UNL     1       8.883  -7.222  15.326  1.00  0.00    -0.206 F 
ATOM     85  C   UNL     1      12.214  -5.869  15.767  1.00  0.00     0.006 A 
ENDBRANCH  57  78
BRANCH  69  86
ATOM     86  C   UNL     1       4.447  -7.075  11.488  1.00  0.00     0.057 A 
ATOM     87  C   UNL     1       3.239  -7.733  11.740  1.00  0.00     0.134 A 
ATOM     88  C   UNL     1       4.498  -5.704  11.781  1.00  0.00     0.134 A 
ATOM     89  F   UNL     1       3.096  -9.030  11.425  1.00  0.00    -0.206 F 
ATOM     90  C   UNL     1       2.137  -7.066  12.281  1.00  0.00     0.040 A 
ATOM     91  C   UNL     1       3.415  -5.033  12.354  1.00  0.00     0.040 A 
ATOM     92  F   UNL     1       5.573  -4.968  11.472  1.00  0.00    -0.206 F 
ATOM     93  C   UNL     1       2.227  -5.714  12.603  1.00  0.00     0.006 A 
ENDBRANCH  69  86
ENDBRANCH  43  44
ENDBRANCH  35  38
ENDBRANCH  33  34
ENDBRANCH  32  33
ENDBRANCH  31  32
ENDBRANCH   1  31
TORSDOF 15
