REMARK SMILES Cc1nnc(SCC2=C(C(=O)NCCCCCCNC(=O)c3ccc(-c4c5nc(c(-c6c(F)cccc6F)c6ccc([nH]6)c(-c6c(F)cccc6F)c6nc(c(-c7c(F)cccc7F)c7ccc4[nH]7)C=C6)C=C5)cc3)N3C(=O)[C@H](NC(=O)c4cn(C)nc4C)[C@@H]3SC2)s1
REMARK SMILES IDX 15 1 14 2 13 3 12 4 10 5 11 6 9 8 8 9 92 10 76 11 91 12
REMARK SMILES IDX 77 13 90 14 78 15 79 16 7 17 6 18 5 19 1 20 2 21 3 22 93 23
REMARK SMILES IDX 4 24 80 25 81 26 82 28 83 29 84 30 88 31 85 32 87 33 89 34
REMARK SMILES IDX 86 35 16 36 17 37 18 38 19 39 20 40 21 42 22 43 23 44 75 45
REMARK SMILES IDX 24 46 74 47 25 48 26 49 27 50 68 51 28 52 73 53 67 54 69 55
REMARK SMILES IDX 29 56 72 57 66 58 65 59 30 61 56 62 39 63 55 64 40 65 43 66
REMARK SMILES IDX 54 67 70 68 41 69 42 70 53 72 71 73 44 74 31 75 32 76 37 77
REMARK SMILES IDX 33 78 34 79 36 80 38 81 35 82 57 83 58 84 63 85 59 86 60 87
REMARK SMILES IDX 62 88 64 89 61 90 45 91 46 92 51 93 47 94 48 95 50 96 52 97
REMARK SMILES IDX 49 98
REMARK H PARENT 12 7 80 27 19 41 69 60 43 71
REMARK Flexibility Score: inf
ROOT
ATOM      1  C   UNL     1       7.111  -0.856  -3.458  1.00  0.00     0.002 C 
ENDROOT
BRANCH   1   2
ATOM      2  C   UNL     1       7.213  -0.520  -1.965  1.00  0.00     0.021 C 
BRANCH   2   3
ATOM      3  C   UNL     1       6.036  -0.849  -1.049  1.00  0.00     0.116 C 
BRANCH   3   4
ATOM      4  N   UNL     1       5.631  -2.230  -0.928  1.00  0.00    -0.351 N 
ATOM      5  C   UNL     1       4.774  -2.881  -0.076  1.00  0.00     0.268 C 
ATOM      6  O   UNL     1       4.430  -4.004  -0.451  1.00  0.00    -0.268 OA
ATOM      7  H   UNL     1       6.055  -2.823  -1.589  1.00  0.00     0.163 HD
BRANCH   5   8
ATOM      8  C   UNL     1       4.318  -2.360   1.303  1.00  0.00     0.111 C 
ATOM      9  C   UNL     1       3.794  -1.120   1.562  1.00  0.00    -0.020 C 
ATOM     10  C   UNL     1       3.369  -0.670   2.954  1.00  0.00     0.106 C 
ATOM     11  N   UNL     1       4.338  -3.297   2.319  1.00  0.00    -0.290 N 
ATOM     12  S   UNL     1       2.799  -1.982   4.043  1.00  0.00    -0.129 SA
ATOM     13  C   UNL     1       4.429  -4.645   2.467  1.00  0.00     0.253 C 
ATOM     14  C   UNL     1       4.245  -3.001   3.736  1.00  0.00     0.181 C 
ATOM     15  O   UNL     1       4.634  -5.583   1.738  1.00  0.00    -0.272 OA
ATOM     16  C   UNL     1       4.072  -4.527   3.985  1.00  0.00     0.206 C 
BRANCH   9  17
ATOM     17  C   UNL     1       3.584  -0.084   0.476  1.00  0.00     0.111 C 
BRANCH  17  18
ATOM     18  S   UNL     1       2.372   1.235   0.685  1.00  0.00    -0.089 SA
BRANCH  18  19
ATOM     19  C   UNL     1       0.879   0.411   0.348  1.00  0.00     0.174 A 
ATOM     20  C   UNL     1      -2.821  -0.416  -0.125  1.00  0.00     0.081 C 
ATOM     21  C   UNL     1      -1.350  -0.296   0.006  1.00  0.00     0.115 A 
ATOM     22  N   UNL     1      -0.490  -1.280  -0.149  1.00  0.00    -0.143 NA
ATOM     23  S   UNL     1      -0.631   1.215   0.386  1.00  0.00    -0.091 S 
ATOM     24  N   UNL     1       0.812  -0.867   0.053  1.00  0.00    -0.132 NA
ENDBRANCH  18  19
ENDBRANCH  17  18
ENDBRANCH   9  17
BRANCH  16  25
ATOM     25  N   UNL     1       2.710  -4.997   4.367  1.00  0.00    -0.337 N 
ATOM     26  C   UNL     1       2.276  -5.561   5.543  1.00  0.00     0.255 C 
ATOM     27  H   UNL     1       2.019  -4.889   3.674  1.00  0.00     0.164 HD
ATOM     28  O   UNL     1       1.106  -5.924   5.636  1.00  0.00    -0.269 OA
BRANCH  26  29
ATOM     29  C   UNL     1       3.222  -5.748   6.623  1.00  0.00     0.080 A 
ATOM     30  C   UNL     1       4.110  -4.832   7.158  1.00  0.00     0.122 A 
ATOM     31  C   UNL     1       3.403  -6.913   7.423  1.00  0.00     0.072 A 
ATOM     32  N   UNL     1       4.795  -5.489   8.136  1.00  0.00    -0.275 N 
ATOM     33  N   UNL     1       4.384  -6.751   8.323  1.00  0.00    -0.178 NA
ATOM     34  C   UNL     1       2.695  -8.216   7.339  1.00  0.00     0.069 C 
ATOM     35  C   UNL     1       5.895  -4.984   8.921  1.00  0.00     0.173 C 
ENDBRANCH  26  29
ENDBRANCH  16  25
ENDBRANCH   5   8
ENDBRANCH   3   4
ENDBRANCH   2   3
ENDBRANCH   1   2
BRANCH   1  36
ATOM     36  C   UNL     1       5.817  -0.565  -4.224  1.00  0.00     0.002 C 
BRANCH  36  37
ATOM     37  C   UNL     1       5.188   0.828  -4.140  1.00  0.00     0.021 C 
BRANCH  37  38
ATOM     38  C   UNL     1       6.091   2.037  -4.357  1.00  0.00     0.116 C 
BRANCH  38  39
ATOM     39  N   UNL     1       6.774   2.043  -5.637  1.00  0.00    -0.352 N 
ATOM     40  C   UNL     1       6.888   3.032  -6.585  1.00  0.00     0.251 C 
ATOM     41  H   UNL     1       7.231   1.200  -5.864  1.00  0.00     0.163 HD
ATOM     42  O   UNL     1       7.471   2.791  -7.639  1.00  0.00    -0.269 OA
BRANCH  40  43
ATOM     43  C   UNL     1       6.292   4.376  -6.380  1.00  0.00     0.039 A 
ATOM     44  C   UNL     1       5.639   4.981  -7.460  1.00  0.00     0.014 A 
ATOM     45  C   UNL     1       6.396   5.063  -5.168  1.00  0.00     0.014 A 
ATOM     46  C   UNL     1       5.036   6.233  -7.307  1.00  0.00     0.010 A 
ATOM     47  C   UNL     1       5.741   6.285  -4.996  1.00  0.00     0.010 A 
ATOM     48  C   UNL     1       5.050   6.881  -6.062  1.00  0.00    -0.014 A 
BRANCH  48  49
ATOM     49  C   UNL     1       4.333   8.168  -5.861  1.00  0.00     0.031 A 
ATOM     50  C   UNL     1       5.093   9.430  -5.555  1.00  0.00     0.074 A 
ATOM     51  C   UNL     1       2.986   8.192  -5.900  1.00  0.00     0.049 A 
ATOM     52  N   UNL     1       4.634  10.629  -5.296  1.00  0.00    -0.248 NA
ATOM     53  C   UNL     1       6.559   9.326  -5.512  1.00  0.00     0.031 C 
ATOM     54  C   UNL     1       2.128   7.032  -6.145  1.00  0.00     0.029 A 
ATOM     55  N   UNL     1       2.102   9.227  -5.725  1.00  0.00    -0.354 N 
ATOM     56  C   UNL     1       5.750  11.418  -5.048  1.00  0.00     0.074 A 
ATOM     57  C   UNL     1       6.906  10.551  -5.143  1.00  0.00     0.031 C 
ATOM     58  C   UNL     1       0.843   7.423  -6.124  1.00  0.00     0.029 A 
ATOM     59  C   UNL     1       0.785   8.852  -5.831  1.00  0.00     0.049 A 
ATOM     60  H   UNL     1       2.385  10.152  -5.540  1.00  0.00     0.167 HD
ATOM     61  C   UNL     1       5.810  12.745  -4.784  1.00  0.00     0.037 A 
ATOM     62  C   UNL     1      -0.344   9.574  -5.703  1.00  0.00     0.037 A 
ATOM     63  C   UNL     1       4.663  13.614  -4.715  1.00  0.00     0.049 A 
ATOM     64  C   UNL     1      -0.252  11.045  -5.411  1.00  0.00     0.074 A 
ATOM     65  C   UNL     1       4.630  14.983  -4.514  1.00  0.00     0.029 A 
ATOM     66  N   UNL     1       3.347  13.197  -4.845  1.00  0.00    -0.354 N 
ATOM     67  N   UNL     1       0.815  11.787  -5.239  1.00  0.00    -0.248 NA
ATOM     68  C   UNL     1      -1.520  11.780  -5.300  1.00  0.00     0.031 C 
ATOM     69  C   UNL     1       3.291  15.389  -4.483  1.00  0.00     0.029 A 
ATOM     70  C   UNL     1       2.493  14.280  -4.707  1.00  0.00     0.049 A 
ATOM     71  H   UNL     1       3.062  12.270  -5.010  1.00  0.00     0.167 HD
ATOM     72  C   UNL     1       0.349  13.078  -5.026  1.00  0.00     0.074 A 
ATOM     73  C   UNL     1      -1.096  13.021  -5.103  1.00  0.00     0.031 C 
ATOM     74  C   UNL     1       1.057  14.209  -4.789  1.00  0.00     0.037 A 
BRANCH  61  75
ATOM     75  C   UNL     1       7.167  13.345  -4.553  1.00  0.00     0.057 A 
ATOM     76  C   UNL     1       8.084  13.518  -5.597  1.00  0.00     0.134 A 
ATOM     77  C   UNL     1       7.546  13.789  -3.280  1.00  0.00     0.134 A 
ATOM     78  F   UNL     1       7.787  13.105  -6.838  1.00  0.00    -0.206 F 
ATOM     79  C   UNL     1       9.339  14.090  -5.379  1.00  0.00     0.040 A 
ATOM     80  C   UNL     1       8.788  14.385  -3.054  1.00  0.00     0.040 A 
ATOM     81  F   UNL     1       6.712  13.660  -2.236  1.00  0.00    -0.206 F 
ATOM     82  C   UNL     1       9.691  14.531  -4.105  1.00  0.00     0.006 A 
ENDBRANCH  61  75
BRANCH  62  83
ATOM     83  C   UNL     1      -1.665   8.919  -5.873  1.00  0.00     0.057 A 
ATOM     84  C   UNL     1      -2.455   9.173  -7.000  1.00  0.00     0.134 A 
ATOM     85  C   UNL     1      -2.171   8.030  -4.917  1.00  0.00     0.134 A 
ATOM     86  F   UNL     1      -2.033  10.031  -7.940  1.00  0.00    -0.206 F 
ATOM     87  C   UNL     1      -3.708   8.580  -7.164  1.00  0.00     0.040 A 
ATOM     88  C   UNL     1      -3.412   7.412  -5.079  1.00  0.00     0.040 A 
ATOM     89  F   UNL     1      -1.459   7.741  -3.818  1.00  0.00    -0.206 F 
ATOM     90  C   UNL     1      -4.187   7.692  -6.203  1.00  0.00     0.006 A 
ENDBRANCH  62  83
BRANCH  74  91
ATOM     91  C   UNL     1       0.279  15.481  -4.622  1.00  0.00     0.057 A 
ATOM     92  C   UNL     1      -0.461  15.747  -3.463  1.00  0.00     0.134 A 
ATOM     93  C   UNL     1       0.298  16.465  -5.619  1.00  0.00     0.134 A 
ATOM     94  F   UNL     1      -0.530  14.840  -2.478  1.00  0.00    -0.206 F 
ATOM     95  C   UNL     1      -1.171  16.939  -3.310  1.00  0.00     0.040 A 
ATOM     96  C   UNL     1      -0.389  17.670  -5.468  1.00  0.00     0.040 A 
ATOM     97  F   UNL     1       0.993  16.274  -6.751  1.00  0.00    -0.206 F 
ATOM     98  C   UNL     1      -1.131  17.907  -4.313  1.00  0.00     0.006 A 
ENDBRANCH  74  91
ENDBRANCH  48  49
ENDBRANCH  40  43
ENDBRANCH  38  39
ENDBRANCH  37  38
ENDBRANCH  36  37
ENDBRANCH   1  36
TORSDOF 18
