REMARK SMILES O=C(NCCCCCCNC(=O)[C@H]1[C@H]2CC[C@H](CC2)[C@@H]1C(=O)Nc1ccc(Cc2ccncc2)cc1)c1ccc(-c2c3nc(c(-c4c(F)cccc4F)c4ccc([nH]4)c(-c4c(F)cccc4F)c4nc(c(-c5c(F)cccc5F)c5ccc2[nH]5)C=C4)C=C3)cc1
REMARK SMILES IDX 7 1 6 2 5 3 4 4 3 5 1 6 2 7 37 9 38 10 90 11 39 12 89 13
REMARK SMILES IDX 40 14 41 15 42 16 83 17 43 18 88 19 82 20 84 21 44 22 87 23
REMARK SMILES IDX 81 24 80 25 45 27 71 28 54 29 70 30 55 31 58 32 69 33 85 34
REMARK SMILES IDX 56 35 57 36 68 38 86 39 59 40 46 41 47 42 52 43 48 44 49 45
REMARK SMILES IDX 51 46 53 47 50 48 72 49 73 50 78 51 74 52 75 53 77 54 79 55
REMARK SMILES IDX 76 56 60 57 61 58 66 59 62 60 63 61 65 62 67 63 64 64 8 65
REMARK SMILES IDX 9 66 10 67 11 68 12 70 13 71 14 72 20 73 15 74 19 75 17 76
REMARK SMILES IDX 16 77 18 78 21 79 22 80 23 81 24 83 25 84 36 85 26 86 35 87
REMARK SMILES IDX 27 88 28 89 29 90 30 91 34 92 31 93 33 94 32 95
REMARK H PARENT 3 8 84 26 58 37 10 69 23 82
REMARK Flexibility Score: inf
ROOT
ATOM      1  C   UNL     1       4.815   1.077   4.231  1.00  0.00     0.002 C 
ENDROOT
BRANCH   1   2
ATOM      2  C   UNL     1       4.127   2.070   3.288  1.00  0.00     0.002 C 
BRANCH   2   3
ATOM      3  C   UNL     1       4.572   1.970   1.830  1.00  0.00     0.021 C 
BRANCH   3   4
ATOM      4  C   UNL     1       4.352   0.597   1.215  1.00  0.00     0.116 C 
BRANCH   4   5
ATOM      5  N   UNL     1       2.938   0.273   1.109  1.00  0.00    -0.352 N 
ATOM      6  O   UNL     1       0.990  -0.093   0.026  1.00  0.00    -0.269 OA
ATOM      7  C   UNL     1       2.212  -0.051  -0.010  1.00  0.00     0.251 C 
ATOM      8  H   UNL     1       2.433   0.287   1.954  1.00  0.00     0.163 HD
BRANCH   7   9
ATOM      9  C   UNL     1       2.930  -0.336  -1.270  1.00  0.00     0.039 A 
ATOM     10  C   UNL     1       4.058  -1.161  -1.263  1.00  0.00     0.014 A 
ATOM     11  C   UNL     1       2.470   0.225  -2.462  1.00  0.00     0.014 A 
ATOM     12  C   UNL     1       4.799  -1.323  -2.425  1.00  0.00     0.010 A 
ATOM     13  C   UNL     1       3.165  -0.016  -3.649  1.00  0.00     0.010 A 
ATOM     14  C   UNL     1       4.343  -0.779  -3.636  1.00  0.00    -0.014 A 
BRANCH  14  15
ATOM     15  C   UNL     1       5.061  -1.107  -4.891  1.00  0.00     0.031 A 
ATOM     16  C   UNL     1       5.735  -0.044  -5.708  1.00  0.00     0.074 A 
ATOM     17  C   UNL     1       5.094  -2.395  -5.286  1.00  0.00     0.049 A 
ATOM     18  N   UNL     1       6.381  -0.164  -6.840  1.00  0.00    -0.248 NA
ATOM     19  C   UNL     1       5.671   1.333  -5.196  1.00  0.00     0.031 C 
ATOM     20  C   UNL     1       4.463  -3.510  -4.574  1.00  0.00     0.029 A 
ATOM     21  N   UNL     1       5.683  -2.987  -6.372  1.00  0.00    -0.354 N 
ATOM     22  C   UNL     1       6.786   1.118  -7.186  1.00  0.00     0.074 A 
ATOM     23  C   UNL     1       6.291   2.007  -6.156  1.00  0.00     0.031 C 
ATOM     24  C   UNL     1       4.728  -4.652  -5.221  1.00  0.00     0.029 A 
ATOM     25  C   UNL     1       5.482  -4.345  -6.429  1.00  0.00     0.049 A 
ATOM     26  H   UNL     1       6.201  -2.489  -7.045  1.00  0.00     0.167 HD
ATOM     27  C   UNL     1       7.509   1.510  -8.262  1.00  0.00     0.037 A 
ATOM     28  C   UNL     1       5.835  -5.241  -7.367  1.00  0.00     0.037 A 
ATOM     29  C   UNL     1       8.000   0.612  -9.278  1.00  0.00     0.049 A 
ATOM     30  C   UNL     1       6.592  -4.769  -8.572  1.00  0.00     0.074 A 
ATOM     31  C   UNL     1       8.778   0.906 -10.385  1.00  0.00     0.029 A 
ATOM     32  N   UNL     1       7.750  -0.752  -9.318  1.00  0.00    -0.354 N 
ATOM     33  N   UNL     1       7.010  -3.560  -8.863  1.00  0.00    -0.248 NA
ATOM     34  C   UNL     1       6.924  -5.781  -9.582  1.00  0.00     0.031 C 
ATOM     35  C   UNL     1       8.948  -0.268 -11.125  1.00  0.00     0.029 A 
ATOM     36  C   UNL     1       8.329  -1.307 -10.449  1.00  0.00     0.049 A 
ATOM     37  H   UNL     1       7.237  -1.252  -8.643  1.00  0.00     0.167 HD
ATOM     38  C   UNL     1       7.670  -3.670 -10.078  1.00  0.00     0.074 A 
ATOM     39  C   UNL     1       7.616  -5.067 -10.458  1.00  0.00     0.031 C 
ATOM     40  C   UNL     1       8.266  -2.700 -10.813  1.00  0.00     0.037 A 
BRANCH  27  41
ATOM     41  C   UNL     1       7.795   2.977  -8.417  1.00  0.00     0.057 A 
ATOM     42  C   UNL     1       8.690   3.654  -7.578  1.00  0.00     0.134 A 
ATOM     43  C   UNL     1       7.209   3.711  -9.458  1.00  0.00     0.134 A 
ATOM     44  F   UNL     1       9.281   3.015  -6.557  1.00  0.00    -0.206 F 
ATOM     45  C   UNL     1       8.975   5.010  -7.755  1.00  0.00     0.040 A 
ATOM     46  C   UNL     1       7.506   5.060  -9.661  1.00  0.00     0.040 A 
ATOM     47  F   UNL     1       6.350   3.124 -10.305  1.00  0.00    -0.206 F 
ATOM     48  C   UNL     1       8.388   5.715  -8.804  1.00  0.00     0.006 A 
ENDBRANCH  27  41
BRANCH  28  49
ATOM     49  C   UNL     1       5.452  -6.666  -7.208  1.00  0.00     0.057 A 
ATOM     50  C   UNL     1       6.415  -7.656  -6.990  1.00  0.00     0.134 A 
ATOM     51  C   UNL     1       4.111  -7.070  -7.264  1.00  0.00     0.134 A 
ATOM     52  F   UNL     1       7.716  -7.334  -6.941  1.00  0.00    -0.206 F 
ATOM     53  C   UNL     1       6.062  -9.000  -6.852  1.00  0.00     0.040 A 
ATOM     54  C   UNL     1       3.742  -8.405  -7.097  1.00  0.00     0.040 A 
ATOM     55  F   UNL     1       3.139  -6.168  -7.460  1.00  0.00    -0.206 F 
ATOM     56  C   UNL     1       4.721  -9.376  -6.899  1.00  0.00     0.006 A 
ENDBRANCH  28  49
BRANCH  40  57
ATOM     57  C   UNL     1       8.934  -3.124 -12.088  1.00  0.00     0.057 A 
ATOM     58  C   UNL     1       8.199  -3.519 -13.213  1.00  0.00     0.134 A 
ATOM     59  C   UNL     1      10.330  -3.106 -12.201  1.00  0.00     0.134 A 
ATOM     60  F   UNL     1       6.860  -3.575 -13.166  1.00  0.00    -0.206 F 
ATOM     61  C   UNL     1       8.830  -3.902 -14.398  1.00  0.00     0.040 A 
ATOM     62  C   UNL     1      10.971  -3.457 -13.389  1.00  0.00     0.040 A 
ATOM     63  F   UNL     1      11.093  -2.732 -11.163  1.00  0.00    -0.206 F 
ATOM     64  C   UNL     1      10.220  -3.863 -14.491  1.00  0.00     0.006 A 
ENDBRANCH  40  57
ENDBRANCH  14  15
ENDBRANCH   7   9
ENDBRANCH   4   5
ENDBRANCH   3   4
ENDBRANCH   2   3
ENDBRANCH   1   2
BRANCH   1  65
ATOM     65  C   UNL     1       6.350   1.116   4.193  1.00  0.00     0.021 C 
BRANCH  65  66
ATOM     66  C   UNL     1       6.927   2.505   4.469  1.00  0.00     0.116 C 
BRANCH  66  67
ATOM     67  N   UNL     1       6.631   2.899   5.833  1.00  0.00    -0.356 N 
ATOM     68  C   UNL     1       7.439   2.917   6.924  1.00  0.00     0.224 C 
ATOM     69  H   UNL     1       5.707   3.200   5.990  1.00  0.00     0.163 HD
ATOM     70  O   UNL     1       6.897   2.925   8.030  1.00  0.00    -0.275 OA
BRANCH  68  71
ATOM     71  C   UNL     1       8.950   2.963   6.753  1.00  0.00     0.094 C 
ATOM     72  C   UNL     1       9.537   4.230   7.447  1.00  0.00     0.002 C 
ATOM     73  C   UNL     1       9.630   1.653   7.283  1.00  0.00     0.094 C 
ATOM     74  C   UNL     1       9.408   4.167   8.978  1.00  0.00     0.005 C 
ATOM     75  C   UNL     1      11.043   4.274   7.123  1.00  0.00     0.005 C 
ATOM     76  C   UNL     1      10.682   2.097   8.338  1.00  0.00     0.002 C 
ATOM     77  C   UNL     1       9.954   2.834   9.479  1.00  0.00     0.005 C 
ATOM     78  C   UNL     1      11.725   3.034   7.705  1.00  0.00     0.005 C 
BRANCH  73  79
ATOM     79  C   UNL     1      10.136   0.818   6.078  1.00  0.00     0.228 C 
ATOM     80  O   UNL     1       9.657   0.974   4.947  1.00  0.00    -0.274 OA
ATOM     81  N   UNL     1      11.114  -0.125   6.158  1.00  0.00    -0.326 N 
ATOM     82  H   UNL     1      11.375  -0.527   5.298  1.00  0.00     0.169 HD
BRANCH  81  83
ATOM     83  C   UNL     1      11.803  -0.609   7.263  1.00  0.00     0.041 A 
ATOM     84  C   UNL     1      13.192  -0.517   7.228  1.00  0.00     0.026 A 
ATOM     85  C   UNL     1      11.153  -1.103   8.393  1.00  0.00     0.026 A 
ATOM     86  C   UNL     1      13.922  -0.757   8.386  1.00  0.00     0.006 A 
ATOM     87  C   UNL     1      11.896  -1.395   9.540  1.00  0.00     0.006 A 
ATOM     88  C   UNL     1      13.281  -1.176   9.561  1.00  0.00    -0.043 A 
BRANCH  88  89
ATOM     89  C   UNL     1      14.084  -1.383  10.825  1.00  0.00     0.071 C 
BRANCH  89  90
ATOM     90  C   UNL     1      14.817  -2.700  10.855  1.00  0.00    -0.041 A 
ATOM     91  C   UNL     1      15.955  -2.907  10.069  1.00  0.00     0.024 A 
ATOM     92  C   UNL     1      14.357  -3.756  11.643  1.00  0.00     0.024 A 
ATOM     93  C   UNL     1      16.561  -4.152  10.084  1.00  0.00     0.111 A 
ATOM     94  C   UNL     1      15.041  -4.960  11.603  1.00  0.00     0.111 A 
ATOM     95  N   UNL     1      16.131  -5.184  10.837  1.00  0.00    -0.265 NA
ENDBRANCH  89  90
ENDBRANCH  88  89
ENDBRANCH  81  83
ENDBRANCH  73  79
ENDBRANCH  68  71
ENDBRANCH  66  67
ENDBRANCH  65  66
ENDBRANCH   1  65
TORSDOF 17
