REMARK SMILES Cc1nn(C)c(OCC(C)(C)[NH+](C)C)c1C(=O)NCCCCCCNC(=O)c1ccc(-c2c3nc(c(-c4c(F)cccc4F)c4ccc([nH]4)c(-c4c(F)cccc4F)c4nc(c(-c5c(F)cccc5F)c5ccc2[nH]5)C=C4)C=C3)cc1
REMARK SMILES IDX 20 1 19 2 18 3 16 4 17 5 15 7 1 8 2 9 3 10 4 11 6 12 5 13
REMARK SMILES IDX 7 14 8 15 9 16 10 17 11 18 12 19 13 20 14 21 21 23 22 24
REMARK SMILES IDX 23 25 24 26 25 27 26 28 27 30 28 31 29 32 81 33 30 34 80 35
REMARK SMILES IDX 31 36 32 37 33 38 74 39 34 40 79 41 73 42 75 43 35 44 78 45
REMARK SMILES IDX 72 46 71 47 36 49 62 50 45 51 61 52 46 53 49 54 60 55 76 56
REMARK SMILES IDX 47 57 48 58 59 60 77 61 50 62 37 63 38 64 43 65 39 66 40 67
REMARK SMILES IDX 42 68 44 69 41 70 63 71 64 72 69 73 65 74 66 75 68 76 70 77
REMARK SMILES IDX 67 78 51 79 52 80 57 81 53 82 54 83 56 84 58 85 55 86
REMARK H PARENT 18 6 12 22 25 29 75 48 49 59
REMARK Flexibility Score: inf
ROOT
ATOM      1  C   UNL     1      -4.735  -1.063  -1.028  1.00  0.00     0.021 C 
ENDROOT
BRANCH   1   2
ATOM      2  C   UNL     1      -3.636  -1.514  -0.069  1.00  0.00     0.116 C 
BRANCH   2   3
ATOM      3  N   UNL     1      -2.707  -2.298  -0.846  1.00  0.00    -0.352 N 
ATOM      4  C   UNL     1      -1.471  -1.991  -1.336  1.00  0.00     0.258 C 
ATOM      5  O   UNL     1      -1.041  -2.710  -2.237  1.00  0.00    -0.269 OA
ATOM      6  H   UNL     1      -3.017  -3.208  -1.058  1.00  0.00     0.163 HD
BRANCH   4   7
ATOM      7  C   UNL     1      -0.659  -0.950  -0.740  1.00  0.00     0.124 A 
ATOM      8  C   UNL     1      -2.053   1.320  -0.821  1.00  0.00     0.070 C 
ATOM      9  C   UNL     1      -0.870   0.458  -0.573  1.00  0.00     0.076 A 
ATOM     10  N   UNL     1       0.232   1.075  -0.133  1.00  0.00    -0.174 NA
ATOM     11  N   UNL     1       1.148   0.100  -0.089  1.00  0.00    -0.236 N 
ATOM     12  C   UNL     1       0.629  -1.160  -0.251  1.00  0.00     0.225 A 
ATOM     13  C   UNL     1       2.537   0.459   0.078  1.00  0.00     0.178 C 
BRANCH  12  14
ATOM     14  O   UNL     1       1.426  -2.200   0.013  1.00  0.00    -0.471 OA
BRANCH  14  15
ATOM     15  C   UNL     1       0.913  -3.517   0.208  1.00  0.00     0.299 C 
BRANCH  15  16
ATOM     16  C   UNL     1       0.302  -3.893   1.620  1.00  0.00     0.126 C 
ATOM     17  C   UNL     1      -1.030  -3.161   1.873  1.00  0.00     0.082 C 
ATOM     18  C   UNL     1      -0.049  -5.406   1.484  1.00  0.00     0.082 C 
BRANCH  16  19
ATOM     19  N   UNL     1       1.258  -3.741   2.764  1.00  0.00    -0.333 N 
ATOM     20  C   UNL     1       1.894  -2.423   2.839  1.00  0.00     0.333 C 
ATOM     21  C   UNL     1       0.696  -4.059   4.082  1.00  0.00     0.333 C 
ATOM     22  H   UNL     1       1.966  -4.441   2.540  1.00  0.00     0.348 HD
ENDBRANCH  16  19
ENDBRANCH  15  16
ENDBRANCH  14  15
ENDBRANCH  12  14
ENDBRANCH   4   7
ENDBRANCH   2   3
ENDBRANCH   1   2
BRANCH   1  23
ATOM     23  C   UNL     1      -5.844  -2.113  -1.137  1.00  0.00     0.002 C 
BRANCH  23  24
ATOM     24  C   UNL     1      -6.791  -2.106   0.066  1.00  0.00     0.002 C 
BRANCH  24  25
ATOM     25  C   UNL     1      -7.484  -0.763   0.310  1.00  0.00     0.021 C 
BRANCH  25  26
ATOM     26  C   UNL     1      -8.212  -0.218  -0.911  1.00  0.00     0.116 C 
BRANCH  26  27
ATOM     27  N   UNL     1      -9.291  -1.103  -1.319  1.00  0.00    -0.352 N 
ATOM     28  C   UNL     1     -10.624  -0.811  -1.462  1.00  0.00     0.251 C 
ATOM     29  H   UNL     1      -9.031  -2.032  -1.519  1.00  0.00     0.163 HD
ATOM     30  O   UNL     1     -11.457  -1.701  -1.546  1.00  0.00    -0.269 OA
BRANCH  28  31
ATOM     31  C   UNL     1     -11.033   0.606  -1.501  1.00  0.00     0.039 A 
ATOM     32  C   UNL     1     -12.107   1.027  -0.716  1.00  0.00     0.014 A 
ATOM     33  C   UNL     1     -10.330   1.515  -2.298  1.00  0.00     0.014 A 
ATOM     34  C   UNL     1     -12.448   2.379  -0.696  1.00  0.00     0.010 A 
ATOM     35  C   UNL     1     -10.620   2.871  -2.212  1.00  0.00     0.010 A 
ATOM     36  C   UNL     1     -11.689   3.314  -1.420  1.00  0.00    -0.014 A 
BRANCH  36  37
ATOM     37  C   UNL     1     -12.004   4.762  -1.372  1.00  0.00     0.031 A 
ATOM     38  C   UNL     1     -12.429   5.479  -2.622  1.00  0.00     0.074 A 
ATOM     39  C   UNL     1     -11.849   5.439  -0.218  1.00  0.00     0.049 A 
ATOM     40  N   UNL     1     -12.689   6.750  -2.799  1.00  0.00    -0.248 NA
ATOM     41  C   UNL     1     -12.552   4.667  -3.844  1.00  0.00     0.031 C 
ATOM     42  C   UNL     1     -11.396   4.861   1.049  1.00  0.00     0.029 A 
ATOM     43  N   UNL     1     -12.047   6.764   0.074  1.00  0.00    -0.354 N 
ATOM     44  C   UNL     1     -12.992   6.888  -4.147  1.00  0.00     0.074 A 
ATOM     45  C   UNL     1     -12.824   5.588  -4.756  1.00  0.00     0.031 C 
ATOM     46  C   UNL     1     -11.377   5.820   1.988  1.00  0.00     0.029 A 
ATOM     47  C   UNL     1     -11.773   7.087   1.381  1.00  0.00     0.049 A 
ATOM     48  H   UNL     1     -12.355   7.422  -0.590  1.00  0.00     0.167 HD
ATOM     49  C   UNL     1     -13.398   7.995  -4.812  1.00  0.00     0.037 A 
ATOM     50  C   UNL     1     -11.829   8.273   2.015  1.00  0.00     0.037 A 
ATOM     51  C   UNL     1     -13.580   9.283  -4.196  1.00  0.00     0.049 A 
ATOM     52  C   UNL     1     -12.267   9.491   1.250  1.00  0.00     0.074 A 
ATOM     53  C   UNL     1     -14.040  10.455  -4.769  1.00  0.00     0.029 A 
ATOM     54  N   UNL     1     -13.305   9.567  -2.866  1.00  0.00    -0.354 N 
ATOM     55  N   UNL     1     -12.619   9.595  -0.009  1.00  0.00    -0.248 NA
ATOM     56  C   UNL     1     -12.322  10.757   1.995  1.00  0.00     0.031 C 
ATOM     57  C   UNL     1     -13.993  11.462  -3.800  1.00  0.00     0.029 A 
ATOM     58  C   UNL     1     -13.562  10.903  -2.607  1.00  0.00     0.049 A 
ATOM     59  H   UNL     1     -12.976   8.916  -2.205  1.00  0.00     0.167 HD
ATOM     60  C   UNL     1     -12.970  10.926  -0.198  1.00  0.00     0.074 A 
ATOM     61  C   UNL     1     -12.799  11.587   1.079  1.00  0.00     0.031 C 
ATOM     62  C   UNL     1     -13.398  11.543  -1.326  1.00  0.00     0.037 A 
BRANCH  49  63
ATOM     63  C   UNL     1     -13.673   7.860  -6.282  1.00  0.00     0.057 A 
ATOM     64  C   UNL     1     -14.762   7.122  -6.768  1.00  0.00     0.134 A 
ATOM     65  C   UNL     1     -12.860   8.502  -7.224  1.00  0.00     0.134 A 
ATOM     66  F   UNL     1     -15.574   6.472  -5.921  1.00  0.00    -0.206 F 
ATOM     67  C   UNL     1     -15.014   7.005  -8.136  1.00  0.00     0.040 A 
ATOM     68  C   UNL     1     -13.120   8.418  -8.593  1.00  0.00     0.040 A 
ATOM     69  F   UNL     1     -11.804   9.230  -6.830  1.00  0.00    -0.206 F 
ATOM     70  C   UNL     1     -14.196   7.661  -9.053  1.00  0.00     0.006 A 
ENDBRANCH  49  63
BRANCH  50  71
ATOM     71  C   UNL     1     -11.480   8.364   3.456  1.00  0.00     0.057 A 
ATOM     72  C   UNL     1     -12.457   8.644   4.420  1.00  0.00     0.134 A 
ATOM     73  C   UNL     1     -10.166   8.185   3.905  1.00  0.00     0.134 A 
ATOM     74  F   UNL     1     -13.731   8.842   4.051  1.00  0.00    -0.206 F 
ATOM     75  C   UNL     1     -12.137   8.766   5.773  1.00  0.00     0.040 A 
ATOM     76  C   UNL     1      -9.837   8.276   5.258  1.00  0.00     0.040 A 
ATOM     77  F   UNL     1      -9.185   7.903   3.035  1.00  0.00    -0.206 F 
ATOM     78  C   UNL     1     -10.823   8.577   6.196  1.00  0.00     0.006 A 
ENDBRANCH  50  71
BRANCH  62  79
ATOM     79  C   UNL     1     -13.758  12.997  -1.222  1.00  0.00     0.057 A 
ATOM     80  C   UNL     1     -12.789  13.994  -1.056  1.00  0.00     0.134 A 
ATOM     81  C   UNL     1     -15.094  13.406  -1.338  1.00  0.00     0.134 A 
ATOM     82  F   UNL     1     -11.494  13.669  -0.927  1.00  0.00    -0.206 F 
ATOM     83  C   UNL     1     -13.138  15.344  -0.986  1.00  0.00     0.040 A 
ATOM     84  C   UNL     1     -15.451  14.754  -1.300  1.00  0.00     0.040 A 
ATOM     85  F   UNL     1     -16.071  12.502  -1.509  1.00  0.00    -0.206 F 
ATOM     86  C   UNL     1     -14.472  15.727  -1.117  1.00  0.00     0.006 A 
ENDBRANCH  62  79
ENDBRANCH  36  37
ENDBRANCH  28  31
ENDBRANCH  26  27
ENDBRANCH  25  26
ENDBRANCH  24  25
ENDBRANCH  23  24
ENDBRANCH   1  23
TORSDOF 17
