REMARK SMILES C[C@H]1C[NH+](CC[C@@H]2CCC[C@]2([NH3+])C(=O)NCCCCCCNC(=O)c2ccc(-c3c4nc(c(-c5c(F)cccc5F)c5ccc([nH]5)c(-c5c(F)cccc5F)c5nc(c(-c6c(F)cccc6F)c6ccc3[nH]6)C=C5)C=C4)cc2)C[C@H](C)O1
REMARK SMILES IDX 18 1 17 2 16 3 15 4 13 5 14 6 11 8 7 9 8 10 9 11 10 12 6 13
REMARK SMILES IDX 5 14 4 15 1 16 2 17 3 18 82 19 80 20 79 21 81 23 12 24 19 28
REMARK SMILES IDX 20 29 21 30 22 31 23 32 24 34 25 35 26 36 78 37 27 38 77 39
REMARK SMILES IDX 28 40 29 41 30 42 71 43 31 44 76 45 70 46 72 47 32 48 75 49
REMARK SMILES IDX 69 50 68 51 33 53 59 54 42 55 58 56 43 57 46 58 57 59 73 60
REMARK SMILES IDX 44 61 45 62 56 64 74 65 47 66 34 67 35 68 40 69 36 70 37 71
REMARK SMILES IDX 39 72 41 73 38 74 60 75 61 76 66 77 62 78 63 79 65 80 67 81
REMARK SMILES IDX 64 82 48 83 49 84 54 85 50 86 51 87 53 88 55 89 52 90
REMARK H PARENT 15 7 4 22 12 25 12 26 12 27 22 33 72 52 46 63
REMARK Flexibility Score: inf
ROOT
ATOM      1  C   UNL     1       0.884  -6.293  -0.301  1.00  0.00     0.002 C 
ENDROOT
BRANCH   1   2
ATOM      2  C   UNL     1       0.072  -5.865  -1.520  1.00  0.00     0.021 C 
BRANCH   2   3
ATOM      3  C   UNL     1      -1.446  -5.748  -1.301  1.00  0.00     0.116 C 
BRANCH   3   4
ATOM      4  N   UNL     1      -1.804  -4.602  -0.471  1.00  0.00    -0.351 N 
ATOM      5  C   UNL     1      -2.551  -3.480  -0.735  1.00  0.00     0.281 C 
ATOM      6  O   UNL     1      -2.604  -2.640   0.170  1.00  0.00    -0.268 OA
ATOM      7  H   UNL     1      -1.444  -4.641   0.444  1.00  0.00     0.163 HD
BRANCH   5   8
ATOM      8  C   UNL     1      -3.320  -3.265  -2.096  1.00  0.00     0.177 C 
ATOM      9  C   UNL     1      -2.476  -2.768  -3.328  1.00  0.00     0.066 C 
ATOM     10  C   UNL     1      -2.915  -1.330  -3.629  1.00  0.00     0.011 C 
ATOM     11  C   UNL     1      -3.763  -0.880  -2.450  1.00  0.00     0.008 C 
ATOM     12  C   UNL     1      -4.400  -2.159  -1.936  1.00  0.00     0.079 C 
BRANCH   9  13
ATOM     13  C   UNL     1      -0.973  -3.103  -3.359  1.00  0.00     0.072 C 
BRANCH  13  14
ATOM     14  C   UNL     1       0.195  -2.097  -3.413  1.00  0.00     0.262 C 
BRANCH  14  15
ATOM     15  N   UNL     1       0.627  -1.347  -2.222  1.00  0.00    -0.331 N 
ATOM     16  C   UNL     1       1.295  -2.189   1.487  1.00  0.00     0.045 C 
ATOM     17  C   UNL     1       1.313  -1.328   0.221  1.00  0.00     0.170 C 
ATOM     18  C   UNL     1       0.905  -2.164  -1.025  1.00  0.00     0.294 C 
ATOM     19  O   UNL     1       0.431  -0.224   0.476  1.00  0.00    -0.364 OA
ATOM     20  C   UNL     1       0.156   0.571  -0.682  1.00  0.00     0.170 C 
ATOM     21  C   UNL     1      -0.323  -0.303  -1.848  1.00  0.00     0.294 C 
ATOM     22  H   UNL     1       1.512  -0.939  -2.525  1.00  0.00     0.348 HD
ATOM     23  C   UNL     1       1.339   1.459  -1.045  1.00  0.00     0.045 C 
ENDBRANCH  14  15
ENDBRANCH  13  14
ENDBRANCH   9  13
BRANCH   8  24
ATOM     24  N   UNL     1      -4.054  -4.525  -2.397  1.00  0.00    -0.345 N 
ATOM     25  H   UNL     1      -4.564  -4.420  -3.274  1.00  0.00     0.345 HD
ATOM     26  H   UNL     1      -4.712  -4.723  -1.643  1.00  0.00     0.345 HD
ATOM     27  H   UNL     1      -3.390  -5.294  -2.480  1.00  0.00     0.345 HD
ENDBRANCH   8  24
ENDBRANCH   5   8
ENDBRANCH   3   4
ENDBRANCH   2   3
ENDBRANCH   1   2
BRANCH   1  28
ATOM     28  C   UNL     1       0.714  -7.758   0.089  1.00  0.00     0.002 C 
BRANCH  28  29
ATOM     29  C   UNL     1       0.909  -8.757  -1.055  1.00  0.00     0.021 C 
BRANCH  29  30
ATOM     30  C   UNL     1       2.213  -8.597  -1.833  1.00  0.00     0.116 C 
BRANCH  30  31
ATOM     31  N   UNL     1       3.376  -8.878  -1.008  1.00  0.00    -0.352 N 
ATOM     32  C   UNL     1       4.319  -9.864  -1.156  1.00  0.00     0.251 C 
ATOM     33  H   UNL     1       3.504  -8.279  -0.237  1.00  0.00     0.163 HD
ATOM     34  O   UNL     1       5.108 -10.114  -0.253  1.00  0.00    -0.269 OA
BRANCH  32  35
ATOM     35  C   UNL     1       4.365 -10.639  -2.414  1.00  0.00     0.039 A 
ATOM     36  C   UNL     1       4.436 -12.031  -2.351  1.00  0.00     0.014 A 
ATOM     37  C   UNL     1       4.335  -9.986  -3.650  1.00  0.00     0.014 A 
ATOM     38  C   UNL     1       4.423 -12.776  -3.532  1.00  0.00     0.010 A 
ATOM     39  C   UNL     1       4.251 -10.732  -4.822  1.00  0.00     0.010 A 
ATOM     40  C   UNL     1       4.299 -12.134  -4.775  1.00  0.00    -0.014 A 
BRANCH  40  41
ATOM     41  C   UNL     1       4.223 -12.910  -6.039  1.00  0.00     0.031 A 
ATOM     42  C   UNL     1       5.305 -12.771  -7.074  1.00  0.00     0.074 A 
ATOM     43  C   UNL     1       3.150 -13.686  -6.283  1.00  0.00     0.049 A 
ATOM     44  N   UNL     1       5.379 -13.300  -8.269  1.00  0.00    -0.248 NA
ATOM     45  C   UNL     1       6.442 -11.902  -6.731  1.00  0.00     0.031 C 
ATOM     46  C   UNL     1       2.015 -13.871  -5.377  1.00  0.00     0.029 A 
ATOM     47  N   UNL     1       2.832 -14.456  -7.374  1.00  0.00    -0.354 N 
ATOM     48  C   UNL     1       6.558 -12.816  -8.823  1.00  0.00     0.074 A 
ATOM     49  C   UNL     1       7.140 -11.912  -7.856  1.00  0.00     0.031 C 
ATOM     50  C   UNL     1       1.134 -14.713  -5.942  1.00  0.00     0.029 A 
ATOM     51  C   UNL     1       1.621 -15.095  -7.263  1.00  0.00     0.049 A 
ATOM     52  H   UNL     1       3.416 -14.541  -8.162  1.00  0.00     0.167 HD
ATOM     53  C   UNL     1       7.114 -13.116 -10.021  1.00  0.00     0.037 A 
ATOM     54  C   UNL     1       0.970 -15.890  -8.134  1.00  0.00     0.037 A 
ATOM     55  C   UNL     1       6.542 -14.033 -10.972  1.00  0.00     0.049 A 
ATOM     56  C   UNL     1       1.604 -16.198  -9.463  1.00  0.00     0.074 A 
ATOM     57  C   UNL     1       7.058 -14.447 -12.187  1.00  0.00     0.029 A 
ATOM     58  N   UNL     1       5.324 -14.675 -10.814  1.00  0.00    -0.354 N 
ATOM     59  N   UNL     1       2.751 -15.786  -9.947  1.00  0.00    -0.248 NA
ATOM     60  C   UNL     1       0.857 -17.086 -10.365  1.00  0.00     0.031 C 
ATOM     61  C   UNL     1       6.129 -15.301 -12.788  1.00  0.00     0.029 A 
ATOM     62  C   UNL     1       5.060 -15.465 -11.922  1.00  0.00     0.049 A 
ATOM     63  H   UNL     1       4.733 -14.584 -10.032  1.00  0.00     0.167 HD
ATOM     64  C   UNL     1       2.878 -16.389 -11.192  1.00  0.00     0.074 A 
ATOM     65  C   UNL     1       1.696 -17.203 -11.384  1.00  0.00     0.031 C 
ATOM     66  C   UNL     1       3.884 -16.280 -12.094  1.00  0.00     0.037 A 
BRANCH  53  67
ATOM     67  C   UNL     1       8.411 -12.443 -10.372  1.00  0.00     0.057 A 
ATOM     68  C   UNL     1       9.608 -12.754  -9.713  1.00  0.00     0.134 A 
ATOM     69  C   UNL     1       8.470 -11.502 -11.408  1.00  0.00     0.134 A 
ATOM     70  F   UNL     1       9.620 -13.639  -8.705  1.00  0.00    -0.206 F 
ATOM     71  C   UNL     1      10.811 -12.133 -10.053  1.00  0.00     0.040 A 
ATOM     72  C   UNL     1       9.673 -10.896 -11.777  1.00  0.00     0.040 A 
ATOM     73  F   UNL     1       7.363 -11.162 -12.085  1.00  0.00    -0.206 F 
ATOM     74  C   UNL     1      10.847 -11.207 -11.094  1.00  0.00     0.006 A 
ENDBRANCH  53  67
BRANCH  54  75
ATOM     75  C   UNL     1      -0.350 -16.466  -7.773  1.00  0.00     0.057 A 
ATOM     76  C   UNL     1      -0.501 -17.838  -7.539  1.00  0.00     0.134 A 
ATOM     77  C   UNL     1      -1.493 -15.665  -7.664  1.00  0.00     0.134 A 
ATOM     78  F   UNL     1       0.553 -18.660  -7.646  1.00  0.00    -0.206 F 
ATOM     79  C   UNL     1      -1.743 -18.396  -7.232  1.00  0.00     0.040 A 
ATOM     80  C   UNL     1      -2.736 -16.205  -7.331  1.00  0.00     0.040 A 
ATOM     81  F   UNL     1      -1.415 -14.341  -7.868  1.00  0.00    -0.206 F 
ATOM     82  C   UNL     1      -2.865 -17.577  -7.122  1.00  0.00     0.006 A 
ENDBRANCH  54  75
BRANCH  66  83
ATOM     83  C   UNL     1       3.776 -17.095 -13.350  1.00  0.00     0.057 A 
ATOM     84  C   UNL     1       2.863 -16.780 -14.363  1.00  0.00     0.134 A 
ATOM     85  C   UNL     1       4.634 -18.182 -13.566  1.00  0.00     0.134 A 
ATOM     86  F   UNL     1       2.006 -15.759 -14.214  1.00  0.00    -0.206 F 
ATOM     87  C   UNL     1       2.791 -17.531 -15.538  1.00  0.00     0.040 A 
ATOM     88  C   UNL     1       4.591 -18.922 -14.748  1.00  0.00     0.040 A 
ATOM     89  F   UNL     1       5.538 -18.531 -12.639  1.00  0.00    -0.206 F 
ATOM     90  C   UNL     1       3.663 -18.601 -15.736  1.00  0.00     0.006 A 
ENDBRANCH  66  83
ENDBRANCH  40  41
ENDBRANCH  32  35
ENDBRANCH  30  31
ENDBRANCH  29  30
ENDBRANCH  28  29
ENDBRANCH   1  28
TORSDOF 17
