REMARK SMILES O=C(NCCCCCCNC(=O)c1cccc(CS(=O)(=O)NCc2ccccc2)c1)c1ccc(-c2c3nc(c(-c4c(F)cccc4F)c4ccc([nH]4)c(-c4c(F)cccc4F)c4nc(c(-c5c(F)cccc5F)c5ccc2[nH]5)C=C4)C=C3)cc1
REMARK SMILES IDX 8 1 7 2 6 3 5 4 4 5 3 6 1 7 2 8 31 10 32 11 84 12 33 13
REMARK SMILES IDX 83 14 34 15 35 16 36 17 77 18 37 19 82 20 76 21 78 22 38 23
REMARK SMILES IDX 81 24 75 25 74 26 39 28 65 29 48 30 64 31 49 32 52 33 63 34
REMARK SMILES IDX 79 35 50 36 51 37 62 39 80 40 53 41 40 42 41 43 46 44 42 45
REMARK SMILES IDX 43 46 45 47 47 48 44 49 66 50 67 51 72 52 68 53 69 54 71 55
REMARK SMILES IDX 73 56 70 57 54 58 55 59 60 60 56 61 57 62 59 63 61 64 58 65
REMARK SMILES IDX 9 66 10 67 11 68 12 70 13 71 14 72 30 73 15 74 17 75 16 76
REMARK SMILES IDX 18 77 19 78 20 79 21 80 22 81 23 83 24 84 25 85 29 86 26 87
REMARK SMILES IDX 28 88 27 89
REMARK H PARENT 3 9 78 27 52 38 10 69 22 82
REMARK Flexibility Score: inf
ROOT
ATOM      1  C   UNL     1       6.213   2.545   3.638  1.00  0.00     0.021 C 
ENDROOT
BRANCH   1   2
ATOM      2  C   UNL     1       4.694   2.670   3.531  1.00  0.00     0.002 C 
BRANCH   2   3
ATOM      3  C   UNL     1       4.183   3.232   2.201  1.00  0.00     0.002 C 
BRANCH   3   4
ATOM      4  C   UNL     1       4.703   2.518   0.953  1.00  0.00     0.021 C 
BRANCH   4   5
ATOM      5  C   UNL     1       4.452   1.018   0.939  1.00  0.00     0.116 C 
BRANCH   5   6
ATOM      6  N   UNL     1       3.034   0.705   0.926  1.00  0.00    -0.352 N 
ATOM      7  O   UNL     1       1.113  -0.082   0.039  1.00  0.00    -0.269 OA
ATOM      8  C   UNL     1       2.339  -0.070   0.034  1.00  0.00     0.251 C 
ATOM      9  H   UNL     1       2.502   1.101   1.654  1.00  0.00     0.163 HD
BRANCH   8  10
ATOM     10  C   UNL     1       3.087  -0.888  -0.943  1.00  0.00     0.039 A 
ATOM     11  C   UNL     1       4.180  -1.655  -0.528  1.00  0.00     0.014 A 
ATOM     12  C   UNL     1       2.673  -0.906  -2.276  1.00  0.00     0.014 A 
ATOM     13  C   UNL     1       4.918  -2.368  -1.464  1.00  0.00     0.010 A 
ATOM     14  C   UNL     1       3.366  -1.689  -3.201  1.00  0.00     0.010 A 
ATOM     15  C   UNL     1       4.492  -2.426  -2.800  1.00  0.00    -0.014 A 
BRANCH  15  16
ATOM     16  C   UNL     1       5.144  -3.381  -3.726  1.00  0.00     0.031 A 
ATOM     17  C   UNL     1       5.909  -2.913  -4.927  1.00  0.00     0.074 A 
ATOM     18  C   UNL     1       5.004  -4.697  -3.469  1.00  0.00     0.049 A 
ATOM     19  N   UNL     1       6.490  -3.628  -5.856  1.00  0.00    -0.248 NA
ATOM     20  C   UNL     1       6.036  -1.460  -5.119  1.00  0.00     0.031 C 
ATOM     21  C   UNL     1       4.260  -5.259  -2.337  1.00  0.00     0.029 A 
ATOM     22  N   UNL     1       5.470  -5.800  -4.136  1.00  0.00    -0.354 N 
ATOM     23  C   UNL     1       7.032  -2.718  -6.754  1.00  0.00     0.074 A 
ATOM     24  C   UNL     1       6.704  -1.396  -6.265  1.00  0.00     0.031 C 
ATOM     25  C   UNL     1       4.333  -6.596  -2.380  1.00  0.00     0.029 A 
ATOM     26  C   UNL     1       5.065  -6.988  -3.576  1.00  0.00     0.049 A 
ATOM     27  H   UNL     1       6.038  -5.746  -4.938  1.00  0.00     0.167 HD
ATOM     28  C   UNL     1       7.736  -2.975  -7.882  1.00  0.00     0.037 A 
ATOM     29  C   UNL     1       5.225  -8.253  -4.002  1.00  0.00     0.037 A 
ATOM     30  C   UNL     1       8.070  -4.299  -8.344  1.00  0.00     0.049 A 
ATOM     31  C   UNL     1       5.975  -8.497  -5.278  1.00  0.00     0.074 A 
ATOM     32  C   UNL     1       8.852  -4.658  -9.428  1.00  0.00     0.029 A 
ATOM     33  N   UNL     1       7.626  -5.477  -7.762  1.00  0.00    -0.354 N 
ATOM     34  N   UNL     1       6.553  -7.629  -6.072  1.00  0.00    -0.248 NA
ATOM     35  C   UNL     1       6.087  -9.891  -5.724  1.00  0.00     0.031 C 
ATOM     36  C   UNL     1       8.828  -6.051  -9.541  1.00  0.00     0.029 A 
ATOM     37  C   UNL     1       8.077  -6.563  -8.495  1.00  0.00     0.049 A 
ATOM     38  H   UNL     1       7.074  -5.533  -6.949  1.00  0.00     0.167 HD
ATOM     39  C   UNL     1       7.104  -8.371  -7.106  1.00  0.00     0.074 A 
ATOM     40  C   UNL     1       6.818  -9.762  -6.822  1.00  0.00     0.031 C 
ATOM     41  C   UNL     1       7.778  -7.940  -8.199  1.00  0.00     0.037 A 
BRANCH  28  42
ATOM     42  C   UNL     1       8.185  -1.815  -8.721  1.00  0.00     0.057 A 
ATOM     43  C   UNL     1       9.245  -0.986  -8.337  1.00  0.00     0.134 A 
ATOM     44  C   UNL     1       7.617  -1.595  -9.983  1.00  0.00     0.134 A 
ATOM     45  F   UNL     1       9.830  -1.139  -7.139  1.00  0.00    -0.206 F 
ATOM     46  C   UNL     1       9.723   0.023  -9.178  1.00  0.00     0.040 A 
ATOM     47  C   UNL     1       8.098  -0.605 -10.840  1.00  0.00     0.040 A 
ATOM     48  F   UNL     1       6.603  -2.360 -10.416  1.00  0.00    -0.206 F 
ATOM     49  C   UNL     1       9.156   0.208 -10.438  1.00  0.00     0.006 A 
ENDBRANCH  28  42
BRANCH  29  50
ATOM     50  C   UNL     1       4.615  -9.376  -3.245  1.00  0.00     0.057 A 
ATOM     51  C   UNL     1       5.405 -10.337  -2.606  1.00  0.00     0.134 A 
ATOM     52  C   UNL     1       3.224  -9.524  -3.162  1.00  0.00     0.134 A 
ATOM     53  F   UNL     1       6.743 -10.258  -2.663  1.00  0.00    -0.206 F 
ATOM     54  C   UNL     1       4.836 -11.419  -1.933  1.00  0.00     0.040 A 
ATOM     55  C   UNL     1       2.641 -10.582  -2.465  1.00  0.00     0.040 A 
ATOM     56  F   UNL     1       2.411  -8.632  -3.745  1.00  0.00    -0.206 F 
ATOM     57  C   UNL     1       3.449 -11.541  -1.858  1.00  0.00     0.006 A 
ENDBRANCH  29  50
BRANCH  41  58
ATOM     58  C   UNL     1       8.255  -8.986  -9.161  1.00  0.00     0.057 A 
ATOM     59  C   UNL     1       7.367  -9.671  -9.999  1.00  0.00     0.134 A 
ATOM     60  C   UNL     1       9.619  -9.282  -9.279  1.00  0.00     0.134 A 
ATOM     61  F   UNL     1       6.047  -9.445  -9.921  1.00  0.00    -0.206 F 
ATOM     62  C   UNL     1       7.817 -10.627 -10.910  1.00  0.00     0.040 A 
ATOM     63  C   UNL     1      10.084 -10.215 -10.205  1.00  0.00     0.040 A 
ATOM     64  F   UNL     1      10.521  -8.656  -8.508  1.00  0.00    -0.206 F 
ATOM     65  C   UNL     1       9.181 -10.894 -11.021  1.00  0.00     0.006 A 
ENDBRANCH  41  58
ENDBRANCH  15  16
ENDBRANCH   8  10
ENDBRANCH   5   6
ENDBRANCH   4   5
ENDBRANCH   3   4
ENDBRANCH   2   3
ENDBRANCH   1   2
BRANCH   1  66
ATOM     66  C   UNL     1       6.966   3.831   3.330  1.00  0.00     0.116 C 
BRANCH  66  67
ATOM     67  N   UNL     1       6.680   4.875   4.301  1.00  0.00    -0.352 N 
ATOM     68  C   UNL     1       7.578   5.539   5.098  1.00  0.00     0.251 C 
ATOM     69  H   UNL     1       5.735   5.135   4.398  1.00  0.00     0.163 HD
ATOM     70  O   UNL     1       7.223   6.313   5.976  1.00  0.00    -0.269 OA
BRANCH  68  71
ATOM     71  C   UNL     1       9.005   5.282   4.852  1.00  0.00     0.040 A 
ATOM     72  C   UNL     1       9.762   4.623   5.816  1.00  0.00     0.014 A 
ATOM     73  C   UNL     1       9.541   5.604   3.600  1.00  0.00     0.018 A 
ATOM     74  C   UNL     1      11.049   4.205   5.486  1.00  0.00     0.001 A 
ATOM     75  C   UNL     1      10.843   5.217   3.273  1.00  0.00    -0.031 A 
ATOM     76  C   UNL     1      11.573   4.473   4.213  1.00  0.00     0.005 A 
BRANCH  75  77
ATOM     77  C   UNL     1      11.405   5.576   1.926  1.00  0.00     0.189 C 
BRANCH  77  78
ATOM     78  S   UNL     1      12.584   6.938   1.992  1.00  0.00     0.216 S 
ATOM     79  O   UNL     1      13.687   6.580   2.858  1.00  0.00    -0.212 OA
ATOM     80  O   UNL     1      12.856   7.295   0.615  1.00  0.00    -0.212 OA
BRANCH  78  81
ATOM     81  N   UNL     1      11.792   8.272   2.592  1.00  0.00    -0.211 NA
ATOM     82  H   UNL     1      10.922   8.326   2.062  1.00  0.00     0.141 HD
BRANCH  81  83
ATOM     83  C   UNL     1      11.404   8.495   3.987  1.00  0.00     0.134 C 
BRANCH  83  84
ATOM     84  C   UNL     1      12.485   8.584   5.031  1.00  0.00    -0.033 A 
ATOM     85  C   UNL     1      13.010   7.419   5.604  1.00  0.00     0.005 A 
ATOM     86  C   UNL     1      12.938   9.814   5.520  1.00  0.00     0.005 A 
ATOM     87  C   UNL     1      13.962   7.459   6.618  1.00  0.00     0.000 A 
ATOM     88  C   UNL     1      13.882   9.861   6.553  1.00  0.00     0.000 A 
ATOM     89  C   UNL     1      14.395   8.685   7.099  1.00  0.00     0.000 A 
ENDBRANCH  83  84
ENDBRANCH  81  83
ENDBRANCH  78  81
ENDBRANCH  77  78
ENDBRANCH  75  77
ENDBRANCH  68  71
ENDBRANCH  66  67
ENDBRANCH   1  66
TORSDOF 18
