REMARK SMILES CN(CC(=O)N1C[C@@H](O)C[C@H]1C(=O)NCCCCCCNC(=O)c1ccc(-c2c3nc(c(-c4c(F)cccc4F)c4ccc([nH]4)c(-c4c(F)cccc4F)c4nc(c(-c5c(F)cccc5F)c5ccc2[nH]5)C=C4)C=C3)cc1)C(=O)c1cccs1
REMARK SMILES IDX 16 1 15 2 14 3 12 4 13 5 11 7 6 8 7 9 8 10 10 11 4 12 5 13
REMARK SMILES IDX 3 14 2 15 1 16 78 17 79 18 80 19 81 20 84 21 82 22 83 23
REMARK SMILES IDX 9 24 17 26 18 27 19 28 20 29 21 30 22 31 23 33 24 34 25 35
REMARK SMILES IDX 77 36 26 37 76 38 27 39 28 40 29 41 70 42 30 43 75 44 69 45
REMARK SMILES IDX 71 46 31 47 74 48 68 49 67 50 32 52 58 53 41 54 57 55 42 56
REMARK SMILES IDX 45 57 56 58 72 59 43 60 44 61 55 63 73 64 46 65 33 66 34 67
REMARK SMILES IDX 39 68 35 69 36 70 38 71 40 72 37 73 59 74 60 75 65 76 61 77
REMARK SMILES IDX 62 78 64 79 66 80 63 81 47 82 48 83 53 84 49 85 50 86 52 87
REMARK SMILES IDX 54 88 51 89
REMARK H PARENT 14 6 9 25 21 32 71 51 45 62
REMARK Flexibility Score: inf
ROOT
ATOM      1  C   UNL     1      -3.200  -4.423   1.536  1.00  0.00     0.021 C 
ENDROOT
BRANCH   1   2
ATOM      2  C   UNL     1      -4.116  -3.404   0.874  1.00  0.00     0.116 C 
BRANCH   2   3
ATOM      3  N   UNL     1      -4.790  -2.565   1.841  1.00  0.00    -0.354 N 
ATOM      4  C   UNL     1      -4.896  -1.209   1.938  1.00  0.00     0.242 C 
ATOM      5  O   UNL     1      -5.731  -0.780   2.741  1.00  0.00    -0.273 OA
ATOM      6  H   UNL     1      -5.255  -3.060   2.554  1.00  0.00     0.163 HD
BRANCH   4   7
ATOM      7  C   UNL     1      -4.139  -0.239   1.000  1.00  0.00     0.177 C 
ATOM      8  N   UNL     1      -2.672  -0.351   0.995  1.00  0.00    -0.326 N 
ATOM      9  C   UNL     1      -2.163  -0.573  -0.343  1.00  0.00     0.152 C 
ATOM     10  C   UNL     1      -3.326  -0.277  -1.288  1.00  0.00     0.136 C 
ATOM     11  C   UNL     1      -4.592  -0.413  -0.451  1.00  0.00     0.069 C 
BRANCH   8  12
ATOM     12  C   UNL     1      -1.960   0.087   2.095  1.00  0.00     0.242 C 
ATOM     13  O   UNL     1      -2.564   0.523   3.082  1.00  0.00    -0.273 OA
BRANCH  12  14
ATOM     14  C   UNL     1      -0.414   0.172   2.101  1.00  0.00     0.219 C 
BRANCH  14  15
ATOM     15  N   UNL     1       0.381  -0.726   1.264  1.00  0.00    -0.332 N 
ATOM     16  C   UNL     1       1.113  -0.118   0.158  1.00  0.00     0.147 C 
BRANCH  15  17
ATOM     17  C   UNL     1       0.791  -2.026   1.619  1.00  0.00     0.264 C 
ATOM     18  O   UNL     1       1.540  -2.632   0.846  1.00  0.00    -0.268 OA
BRANCH  17  19
ATOM     19  C   UNL     1       0.372  -2.632   2.883  1.00  0.00     0.092 A 
ATOM     20  C   UNL     1      -0.804  -2.581   3.608  1.00  0.00     0.025 A 
ATOM     21  S   UNL     1       1.498  -3.688   3.661  1.00  0.00    -0.139 S 
ATOM     22  C   UNL     1      -0.789  -3.408   4.770  1.00  0.00     0.012 A 
ATOM     23  C   UNL     1       0.409  -4.062   4.919  1.00  0.00     0.065 A 
ENDBRANCH  17  19
ENDBRANCH  15  17
ENDBRANCH  14  15
ENDBRANCH  12  14
ENDBRANCH   8  12
BRANCH  10  24
ATOM     24  O   UNL     1      -3.353  -1.153  -2.405  1.00  0.00    -0.391 OA
ATOM     25  H   UNL     1      -3.439  -2.069  -2.096  1.00  0.00     0.211 HD
ENDBRANCH  10  24
ENDBRANCH   4   7
ENDBRANCH   2   3
ENDBRANCH   1   2
BRANCH   1  26
ATOM     26  C   UNL     1      -3.923  -5.526   2.311  1.00  0.00     0.002 C 
BRANCH  26  27
ATOM     27  C   UNL     1      -4.807  -6.438   1.456  1.00  0.00     0.002 C 
BRANCH  27  28
ATOM     28  C   UNL     1      -4.104  -7.081   0.258  1.00  0.00     0.021 C 
BRANCH  28  29
ATOM     29  C   UNL     1      -2.854  -7.882   0.610  1.00  0.00     0.116 C 
BRANCH  29  30
ATOM     30  N   UNL     1      -3.159  -9.024   1.458  1.00  0.00    -0.352 N 
ATOM     31  C   UNL     1      -2.892 -10.352   1.246  1.00  0.00     0.251 C 
ATOM     32  H   UNL     1      -3.622  -8.814   2.301  1.00  0.00     0.163 HD
ATOM     33  O   UNL     1      -3.402 -11.211   1.962  1.00  0.00    -0.269 OA
BRANCH  31  34
ATOM     34  C   UNL     1      -2.001 -10.749   0.137  1.00  0.00     0.039 A 
ATOM     35  C   UNL     1      -2.392 -11.789  -0.708  1.00  0.00     0.014 A 
ATOM     36  C   UNL     1      -0.787 -10.087  -0.070  1.00  0.00     0.014 A 
ATOM     37  C   UNL     1      -1.593 -12.125  -1.802  1.00  0.00     0.010 A 
ATOM     38  C   UNL     1      -0.030 -10.373  -1.201  1.00  0.00     0.010 A 
ATOM     39  C   UNL     1      -0.424 -11.395  -2.078  1.00  0.00    -0.014 A 
BRANCH  39  40
ATOM     40  C   UNL     1       0.396 -11.682  -3.281  1.00  0.00     0.031 A 
ATOM     41  C   UNL     1       1.808 -12.176  -3.134  1.00  0.00     0.074 A 
ATOM     42  C   UNL     1      -0.109 -11.434  -4.505  1.00  0.00     0.049 A 
ATOM     43  N   UNL     1       2.701 -12.416  -4.061  1.00  0.00    -0.248 NA
ATOM     44  C   UNL     1       2.288 -12.406  -1.762  1.00  0.00     0.031 C 
ATOM     45  C   UNL     1      -1.450 -10.914  -4.778  1.00  0.00     0.029 A 
ATOM     46  N   UNL     1       0.451 -11.576  -5.750  1.00  0.00    -0.354 N 
ATOM     47  C   UNL     1       3.848 -12.813  -3.385  1.00  0.00     0.074 A 
ATOM     48  C   UNL     1       3.556 -12.727  -1.971  1.00  0.00     0.031 C 
ATOM     49  C   UNL     1      -1.617 -10.804  -6.105  1.00  0.00     0.029 A 
ATOM     50  C   UNL     1      -0.384 -11.203  -6.775  1.00  0.00     0.049 A 
ATOM     51  H   UNL     1       1.365 -11.913  -5.894  1.00  0.00     0.167 HD
ATOM     52  C   UNL     1       5.029 -13.233  -3.897  1.00  0.00     0.037 A 
ATOM     53  C   UNL     1      -0.175 -11.176  -8.105  1.00  0.00     0.037 A 
ATOM     54  C   UNL     1       5.311 -13.328  -5.306  1.00  0.00     0.049 A 
ATOM     55  C   UNL     1       1.155 -11.620  -8.648  1.00  0.00     0.074 A 
ATOM     56  C   UNL     1       6.457 -13.793  -5.926  1.00  0.00     0.029 A 
ATOM     57  N   UNL     1       4.439 -12.943  -6.313  1.00  0.00    -0.354 N 
ATOM     58  N   UNL     1       2.208 -12.059  -8.002  1.00  0.00    -0.248 NA
ATOM     59  C   UNL     1       1.325 -11.568 -10.107  1.00  0.00     0.031 C 
ATOM     60  C   UNL     1       6.299 -13.640  -7.308  1.00  0.00     0.029 A 
ATOM     61  C   UNL     1       5.032 -13.134  -7.551  1.00  0.00     0.049 A 
ATOM     62  H   UNL     1       3.532 -12.587  -6.170  1.00  0.00     0.167 HD
ATOM     63  C   UNL     1       3.152 -12.363  -8.973  1.00  0.00     0.074 A 
ATOM     64  C   UNL     1       2.543 -12.070 -10.254  1.00  0.00     0.031 C 
ATOM     65  C   UNL     1       4.411 -12.842  -8.818  1.00  0.00     0.037 A 
BRANCH  52  66
ATOM     66  C   UNL     1       6.106 -13.618  -2.924  1.00  0.00     0.057 A 
ATOM     67  C   UNL     1       6.004 -14.763  -2.121  1.00  0.00     0.134 A 
ATOM     68  C   UNL     1       7.271 -12.850  -2.803  1.00  0.00     0.134 A 
ATOM     69  F   UNL     1       4.910 -15.538  -2.179  1.00  0.00    -0.206 F 
ATOM     70  C   UNL     1       7.005 -15.111  -1.213  1.00  0.00     0.040 A 
ATOM     71  C   UNL     1       8.293 -13.204  -1.920  1.00  0.00     0.040 A 
ATOM     72  F   UNL     1       7.440 -11.745  -3.546  1.00  0.00    -0.206 F 
ATOM     73  C   UNL     1       8.157 -14.334  -1.115  1.00  0.00     0.006 A 
ENDBRANCH  52  66
BRANCH  53  74
ATOM     74  C   UNL     1      -1.258 -10.730  -9.018  1.00  0.00     0.057 A 
ATOM     75  C   UNL     1      -1.900 -11.636  -9.870  1.00  0.00     0.134 A 
ATOM     76  C   UNL     1      -1.675  -9.394  -9.065  1.00  0.00     0.134 A 
ATOM     77  F   UNL     1      -1.533 -12.925  -9.884  1.00  0.00    -0.206 F 
ATOM     78  C   UNL     1      -2.905 -11.227 -10.749  1.00  0.00     0.040 A 
ATOM     79  C   UNL     1      -2.696  -8.977  -9.919  1.00  0.00     0.040 A 
ATOM     80  F   UNL     1      -1.105  -8.478  -8.268  1.00  0.00    -0.206 F 
ATOM     81  C   UNL     1      -3.309  -9.894 -10.771  1.00  0.00     0.006 A 
ENDBRANCH  53  74
BRANCH  65  82
ATOM     82  C   UNL     1       5.202 -13.114 -10.065  1.00  0.00     0.057 A 
ATOM     83  C   UNL     1       5.709 -12.081 -10.862  1.00  0.00     0.134 A 
ATOM     84  C   UNL     1       5.496 -14.430 -10.448  1.00  0.00     0.134 A 
ATOM     85  F   UNL     1       5.452 -10.799 -10.559  1.00  0.00    -0.206 F 
ATOM     86  C   UNL     1       6.462 -12.345 -12.008  1.00  0.00     0.040 A 
ATOM     87  C   UNL     1       6.272 -14.706 -11.574  1.00  0.00     0.040 A 
ATOM     88  F   UNL     1       5.049 -15.467  -9.724  1.00  0.00    -0.206 F 
ATOM     89  C   UNL     1       6.752 -13.662 -12.361  1.00  0.00     0.006 A 
ENDBRANCH  65  82
ENDBRANCH  39  40
ENDBRANCH  31  34
ENDBRANCH  29  30
ENDBRANCH  28  29
ENDBRANCH  27  28
ENDBRANCH  26  27
ENDBRANCH   1  26
TORSDOF 19
