REMARK SMILES CC[C@@H]1CCC[C@@](Cc2ccccn2)(C(=O)NCCCCCCNC(=O)c2ccc(-c3c4nc(c(-c5c(F)cccc5F)c5ccc([nH]5)c(-c5c(F)cccc5F)c5nc(c(-c6c(F)cccc6F)c6ccc3[nH]6)C=C5)C=C4)cc2)C1
REMARK SMILES IDX 20 1 19 2 18 3 17 4 15 5 16 6 7 8 3 9 4 10 81 11 5 12 6 13
REMARK SMILES IDX 2 14 1 15 8 16 9 17 10 18 14 19 11 20 13 21 12 22 21 23
REMARK SMILES IDX 22 24 23 25 24 26 25 27 26 29 27 30 28 31 80 32 29 33 79 34
REMARK SMILES IDX 30 35 31 36 32 37 73 38 33 39 78 40 72 41 74 42 34 43 77 44
REMARK SMILES IDX 71 45 70 46 35 48 61 49 44 50 60 51 45 52 48 53 59 54 75 55
REMARK SMILES IDX 46 56 47 57 58 59 76 60 49 61 36 62 37 63 42 64 38 65 39 66
REMARK SMILES IDX 41 67 43 68 40 69 62 70 63 71 68 72 64 73 65 74 67 75 69 76
REMARK SMILES IDX 66 77 50 78 51 79 56 80 52 81 53 82 55 83 57 84 54 85
REMARK H PARENT 17 7 24 28 74 47 48 58
REMARK Flexibility Score: inf
ROOT
ATOM      1  C   UNL     1       4.038   5.736   6.312  1.00  0.00     0.002 C 
ENDROOT
BRANCH   1   2
ATOM      2  C   UNL     1       2.591   5.353   5.986  1.00  0.00     0.021 C 
BRANCH   2   3
ATOM      3  C   UNL     1       2.250   5.402   4.505  1.00  0.00     0.116 C 
BRANCH   3   4
ATOM      4  N   UNL     1       2.826   4.318   3.738  1.00  0.00    -0.356 N 
ATOM      5  C   UNL     1       2.357   3.620   2.670  1.00  0.00     0.226 C 
ATOM      6  O   UNL     1       3.221   3.022   2.017  1.00  0.00    -0.274 OA
ATOM      7  H   UNL     1       3.717   4.035   4.046  1.00  0.00     0.163 HD
BRANCH   5   8
ATOM      8  C   UNL     1       0.868   3.588   2.233  1.00  0.00     0.055 C 
ATOM      9  C   UNL     1       0.796   0.965   2.105  1.00  0.00    -0.010 C 
ATOM     10  C   UNL     1      -0.026   0.940   3.404  1.00  0.00     0.003 C 
ATOM     11  C   UNL     1       0.651   2.303   1.351  1.00  0.00     0.021 C 
ATOM     12  C   UNL     1       0.120   2.208   4.234  1.00  0.00     0.001 C 
ATOM     13  C   UNL     1      -0.154   3.447   3.382  1.00  0.00     0.017 C 
BRANCH   9  14
ATOM     14  C   UNL     1       0.384  -0.243   1.233  1.00  0.00     0.000 C 
ATOM     15  C   UNL     1       1.029  -0.283  -0.144  1.00  0.00     0.004 C 
ENDBRANCH   9  14
BRANCH   8  16
ATOM     16  C   UNL     1       0.568   4.783   1.278  1.00  0.00     0.073 C 
BRANCH  16  17
ATOM     17  C   UNL     1       0.884   6.184   1.733  1.00  0.00     0.041 A 
ATOM     18  C   UNL     1       2.118   6.765   1.437  1.00  0.00     0.024 A 
ATOM     19  N   UNL     1      -0.078   6.845   2.421  1.00  0.00    -0.261 NA
ATOM     20  C   UNL     1       2.381   8.059   1.882  1.00  0.00     0.003 A 
ATOM     21  C   UNL     1       0.194   8.109   2.816  1.00  0.00     0.111 A 
ATOM     22  C   UNL     1       1.400   8.749   2.583  1.00  0.00     0.020 A 
ENDBRANCH  16  17
ENDBRANCH   8  16
ENDBRANCH   5   8
ENDBRANCH   3   4
ENDBRANCH   2   3
ENDBRANCH   1   2
BRANCH   1  23
ATOM     23  C   UNL     1       4.543   7.045   5.689  1.00  0.00     0.002 C 
BRANCH  23  24
ATOM     24  C   UNL     1       3.655   8.274   5.905  1.00  0.00     0.021 C 
BRANCH  24  25
ATOM     25  C   UNL     1       3.365   8.612   7.361  1.00  0.00     0.116 C 
BRANCH  25  26
ATOM     26  N   UNL     1       4.575   8.877   8.118  1.00  0.00    -0.352 N 
ATOM     27  C   UNL     1       4.873   9.925   8.948  1.00  0.00     0.251 C 
ATOM     28  H   UNL     1       5.287   8.204   8.020  1.00  0.00     0.163 HD
ATOM     29  O   UNL     1       6.021  10.068   9.368  1.00  0.00    -0.269 OA
BRANCH  27  30
ATOM     30  C   UNL     1       3.827  10.899   9.324  1.00  0.00     0.039 A 
ATOM     31  C   UNL     1       4.154  12.257   9.345  1.00  0.00     0.014 A 
ATOM     32  C   UNL     1       2.539  10.482   9.671  1.00  0.00     0.014 A 
ATOM     33  C   UNL     1       3.175  13.200   9.663  1.00  0.00     0.010 A 
ATOM     34  C   UNL     1       1.545  11.426   9.913  1.00  0.00     0.010 A 
ATOM     35  C   UNL     1       1.855  12.794   9.919  1.00  0.00    -0.014 A 
BRANCH  35  36
ATOM     36  C   UNL     1       0.791  13.791  10.191  1.00  0.00     0.031 A 
ATOM     37  C   UNL     1       0.101  13.822  11.526  1.00  0.00     0.074 A 
ATOM     38  C   UNL     1       0.409  14.635   9.214  1.00  0.00     0.049 A 
ATOM     39  N   UNL     1      -0.874  14.594  11.935  1.00  0.00    -0.248 NA
ATOM     40  C   UNL     1       0.547  12.838  12.524  1.00  0.00     0.031 C 
ATOM     41  C   UNL     1       0.965  14.665   7.860  1.00  0.00     0.029 A 
ATOM     42  N   UNL     1      -0.542  15.623   9.206  1.00  0.00    -0.354 N 
ATOM     43  C   UNL     1      -1.161  14.185  13.230  1.00  0.00     0.074 A 
ATOM     44  C   UNL     1      -0.302  13.056  13.517  1.00  0.00     0.031 C 
ATOM     45  C   UNL     1       0.363  15.639   7.160  1.00  0.00     0.029 A 
ATOM     46  C   UNL     1      -0.645  16.276   8.002  1.00  0.00     0.049 A 
ATOM     47  H   UNL     1      -1.097  15.844   9.988  1.00  0.00     0.167 HD
ATOM     48  C   UNL     1      -2.042  14.717  14.112  1.00  0.00     0.037 A 
ATOM     49  C   UNL     1      -1.465  17.272   7.617  1.00  0.00     0.037 A 
ATOM     50  C   UNL     1      -2.888  15.846  13.824  1.00  0.00     0.049 A 
ATOM     51  C   UNL     1      -2.441  17.842   8.607  1.00  0.00     0.074 A 
ATOM     52  C   UNL     1      -3.776  16.496  14.664  1.00  0.00     0.029 A 
ATOM     53  N   UNL     1      -2.957  16.489  12.596  1.00  0.00    -0.354 N 
ATOM     54  N   UNL     1      -2.652  17.494   9.853  1.00  0.00    -0.248 NA
ATOM     55  C   UNL     1      -3.287  18.948   8.140  1.00  0.00     0.031 C 
ATOM     56  C   UNL     1      -4.418  17.499  13.930  1.00  0.00     0.029 A 
ATOM     57  C   UNL     1      -3.892  17.511  12.648  1.00  0.00     0.049 A 
ATOM     58  H   UNL     1      -2.421  16.254  11.805  1.00  0.00     0.167 HD
ATOM     59  C   UNL     1      -3.638  18.350  10.326  1.00  0.00     0.074 A 
ATOM     60  C   UNL     1      -3.969  19.246   9.237  1.00  0.00     0.031 C 
ATOM     61  C   UNL     1      -4.216  18.390  11.552  1.00  0.00     0.037 A 
BRANCH  48  62
ATOM     62  C   UNL     1      -2.131  14.076  15.467  1.00  0.00     0.057 A 
ATOM     63  C   UNL     1      -1.080  14.151  16.393  1.00  0.00     0.134 A 
ATOM     64  C   UNL     1      -3.284  13.383  15.859  1.00  0.00     0.134 A 
ATOM     65  F   UNL     1       0.058  14.789  16.079  1.00  0.00    -0.206 F 
ATOM     66  C   UNL     1      -1.157  13.529  17.641  1.00  0.00     0.040 A 
ATOM     67  C   UNL     1      -3.385  12.784  17.116  1.00  0.00     0.040 A 
ATOM     68  F   UNL     1      -4.331  13.277  15.028  1.00  0.00    -0.206 F 
ATOM     69  C   UNL     1      -2.315  12.848  18.007  1.00  0.00     0.006 A 
ENDBRANCH  48  62
BRANCH  49  70
ATOM     70  C   UNL     1      -1.375  17.805   6.235  1.00  0.00     0.057 A 
ATOM     71  C   UNL     1      -0.853  19.079   5.983  1.00  0.00     0.134 A 
ATOM     72  C   UNL     1      -1.787  17.047   5.132  1.00  0.00     0.134 A 
ATOM     73  F   UNL     1      -0.455  19.858   6.999  1.00  0.00    -0.206 F 
ATOM     74  C   UNL     1      -0.755  19.585   4.686  1.00  0.00     0.040 A 
ATOM     75  C   UNL     1      -1.673  17.531   3.828  1.00  0.00     0.040 A 
ATOM     76  F   UNL     1      -2.286  15.814   5.306  1.00  0.00    -0.206 F 
ATOM     77  C   UNL     1      -1.160  18.807   3.603  1.00  0.00     0.006 A 
ENDBRANCH  49  70
BRANCH  61  78
ATOM     78  C   UNL     1      -5.252  19.452  11.786  1.00  0.00     0.057 A 
ATOM     79  C   UNL     1      -6.520  19.392  11.193  1.00  0.00     0.134 A 
ATOM     80  C   UNL     1      -4.988  20.530  12.641  1.00  0.00     0.134 A 
ATOM     81  F   UNL     1      -6.832  18.394  10.353  1.00  0.00    -0.206 F 
ATOM     82  C   UNL     1      -7.479  20.380  11.423  1.00  0.00     0.040 A 
ATOM     83  C   UNL     1      -5.949  21.507  12.902  1.00  0.00     0.040 A 
ATOM     84  F   UNL     1      -3.797  20.643  13.248  1.00  0.00    -0.206 F 
ATOM     85  C   UNL     1      -7.197  21.438  12.286  1.00  0.00     0.006 A 
ENDBRANCH  61  78
ENDBRANCH  35  36
ENDBRANCH  27  30
ENDBRANCH  25  26
ENDBRANCH  24  25
ENDBRANCH  23  24
ENDBRANCH   1  23
TORSDOF 16
