REMARK SMILES C[C@H]1CC[C@](C#N)([C@H](O)C(=O)NCCCCCCNC(=O)c2ccc(-c3c4nc(c(-c5c(F)cccc5F)c5ccc([nH]5)c(-c5c(F)cccc5F)c5nc(c(-c6c(F)cccc6F)c6ccc3[nH]6)C=C5)C=C4)cc2)C1
REMARK SMILES IDX 15 1 14 2 13 3 12 4 10 5 11 6 8 8 5 9 1 10 2 11 3 12 76 13
REMARK SMILES IDX 4 14 6 15 7 16 9 17 16 19 17 20 18 21 19 22 20 23 21 25
REMARK SMILES IDX 22 26 23 27 75 28 24 29 74 30 25 31 26 32 27 33 68 34 28 35
REMARK SMILES IDX 73 36 67 37 69 38 29 39 72 40 66 41 65 42 30 44 56 45 39 46
REMARK SMILES IDX 55 47 40 48 43 49 54 50 70 51 41 52 42 53 53 55 71 56 44 57
REMARK SMILES IDX 31 58 32 59 37 60 33 61 34 62 36 63 38 64 35 65 57 66 58 67
REMARK SMILES IDX 63 68 59 69 60 70 62 71 64 72 61 73 45 74 46 75 51 76 47 77
REMARK SMILES IDX 48 78 50 79 52 80 49 81
REMARK H PARENT 12 7 9 18 19 24 69 43 43 54
REMARK Flexibility Score: inf
ROOT
ATOM      1  C   UNL     1      -3.074  -1.504   2.793  1.00  0.00     0.002 C 
ENDROOT
BRANCH   1   2
ATOM      2  C   UNL     1      -2.465  -1.902   1.451  1.00  0.00     0.021 C 
BRANCH   2   3
ATOM      3  C   UNL     1      -1.061  -2.499   1.543  1.00  0.00     0.116 C 
BRANCH   3   4
ATOM      4  N   UNL     1      -1.091  -3.937   1.509  1.00  0.00    -0.354 N 
ATOM      5  C   UNL     1      -0.665  -4.874   0.643  1.00  0.00     0.250 C 
ATOM      6  O   UNL     1      -0.927  -6.039   1.000  1.00  0.00    -0.272 OA
ATOM      7  H   UNL     1      -1.522  -4.326   2.304  1.00  0.00     0.163 HD
BRANCH   5   8
ATOM      8  C   UNL     1       0.123  -4.715  -0.689  1.00  0.00     0.223 C 
BRANCH   8   9
ATOM      9  C   UNL     1       0.197  -3.470  -1.604  1.00  0.00     0.092 C 
ATOM     10  C   UNL     1       1.347  -0.532  -2.834  1.00  0.00     0.008 C 
ATOM     11  C   UNL     1       0.690  -1.052  -1.560  1.00  0.00    -0.013 C 
ATOM     12  C   UNL     1      -0.818  -1.218  -1.756  1.00  0.00     0.005 C 
ATOM     13  C   UNL     1       1.215  -2.420  -1.104  1.00  0.00     0.029 C 
ATOM     14  C   UNL     1      -1.130  -2.719  -1.802  1.00  0.00     0.026 C 
BRANCH   9  15
ATOM     15  C   UNL     1       0.684  -3.899  -2.950  1.00  0.00     0.072 C 
ATOM     16  N   UNL     1       1.087  -4.172  -4.006  1.00  0.00    -0.198 NA
ENDBRANCH   9  15
ENDBRANCH   8   9
BRANCH   8  17
ATOM     17  O   UNL     1      -0.442  -5.807  -1.470  1.00  0.00    -0.382 OA
ATOM     18  H   UNL     1      -1.381  -5.630  -1.641  1.00  0.00     0.211 HD
ENDBRANCH   8  17
ENDBRANCH   5   8
ENDBRANCH   3   4
ENDBRANCH   2   3
ENDBRANCH   1   2
BRANCH   1  19
ATOM     19  C   UNL     1      -2.220  -0.542   3.626  1.00  0.00     0.002 C 
BRANCH  19  20
ATOM     20  C   UNL     1      -1.701   0.696   2.884  1.00  0.00     0.021 C 
BRANCH  20  21
ATOM     21  C   UNL     1      -2.784   1.565   2.249  1.00  0.00     0.116 C 
BRANCH  21  22
ATOM     22  N   UNL     1      -3.806   1.933   3.212  1.00  0.00    -0.352 N 
ATOM     23  C   UNL     1      -4.155   3.158   3.711  1.00  0.00     0.251 C 
ATOM     24  H   UNL     1      -4.332   1.179   3.563  1.00  0.00     0.163 HD
ATOM     25  O   UNL     1      -4.836   3.220   4.732  1.00  0.00    -0.269 OA
BRANCH  23  26
ATOM     26  C   UNL     1      -3.727   4.400   3.037  1.00  0.00     0.039 A 
ATOM     27  C   UNL     1      -3.410   5.506   3.828  1.00  0.00     0.014 A 
ATOM     28  C   UNL     1      -3.699   4.507   1.642  1.00  0.00     0.014 A 
ATOM     29  C   UNL     1      -3.037   6.705   3.222  1.00  0.00     0.010 A 
ATOM     30  C   UNL     1      -3.240   5.678   1.040  1.00  0.00     0.010 A 
ATOM     31  C   UNL     1      -2.916   6.793   1.824  1.00  0.00    -0.014 A 
BRANCH  31  32
ATOM     32  C   UNL     1      -2.430   8.050   1.200  1.00  0.00     0.031 A 
ATOM     33  C   UNL     1      -3.307   8.852   0.279  1.00  0.00     0.074 A 
ATOM     34  C   UNL     1      -1.179   8.469   1.474  1.00  0.00     0.049 A 
ATOM     35  N   UNL     1      -3.068  10.010  -0.284  1.00  0.00    -0.248 NA
ATOM     36  C   UNL     1      -4.612   8.274  -0.075  1.00  0.00     0.031 C 
ATOM     37  C   UNL     1      -0.215   7.749   2.309  1.00  0.00     0.029 A 
ATOM     38  N   UNL     1      -0.510   9.606   1.100  1.00  0.00    -0.354 N 
ATOM     39  C   UNL     1      -4.188  10.297  -1.055  1.00  0.00     0.074 A 
ATOM     40  C   UNL     1      -5.080   9.164  -0.938  1.00  0.00     0.031 C 
ATOM     41  C   UNL     1       0.897   8.488   2.433  1.00  0.00     0.029 A 
ATOM     42  C   UNL     1       0.746   9.709   1.648  1.00  0.00     0.049 A 
ATOM     43  H   UNL     1      -0.892  10.283   0.496  1.00  0.00     0.167 HD
ATOM     44  C   UNL     1      -4.456  11.412  -1.777  1.00  0.00     0.037 A 
ATOM     45  C   UNL     1       1.671  10.680   1.537  1.00  0.00     0.037 A 
ATOM     46  C   UNL     1      -3.561  12.536  -1.889  1.00  0.00     0.049 A 
ATOM     47  C   UNL     1       1.354  11.897   0.714  1.00  0.00     0.074 A 
ATOM     48  C   UNL     1      -3.761  13.735  -2.552  1.00  0.00     0.029 A 
ATOM     49  N   UNL     1      -2.288  12.593  -1.340  1.00  0.00    -0.354 N 
ATOM     50  N   UNL     1       0.257  12.193   0.059  1.00  0.00    -0.248 NA
ATOM     51  C   UNL     1       2.403  12.921   0.624  1.00  0.00     0.031 C 
ATOM     52  C   UNL     1      -2.584  14.484  -2.467  1.00  0.00     0.029 A 
ATOM     53  C   UNL     1      -1.679  13.791  -1.680  1.00  0.00     0.049 A 
ATOM     54  H   UNL     1      -1.877  11.887  -0.790  1.00  0.00     0.167 HD
ATOM     55  C   UNL     1       0.469  13.452  -0.488  1.00  0.00     0.074 A 
ATOM     56  C   UNL     1       1.792  13.868  -0.072  1.00  0.00     0.031 C 
ATOM     57  C   UNL     1      -0.359  14.197  -1.262  1.00  0.00     0.037 A 
BRANCH  44  58
ATOM     58  C   UNL     1      -5.765  11.466  -2.518  1.00  0.00     0.057 A 
ATOM     59  C   UNL     1      -6.997  11.532  -1.853  1.00  0.00     0.134 A 
ATOM     60  C   UNL     1      -5.791  11.490  -3.919  1.00  0.00     0.134 A 
ATOM     61  F   UNL     1      -7.050  11.506  -0.512  1.00  0.00    -0.206 F 
ATOM     62  C   UNL     1      -8.205  11.588  -2.552  1.00  0.00     0.040 A 
ATOM     63  C   UNL     1      -6.990  11.580  -4.628  1.00  0.00     0.040 A 
ATOM     64  F   UNL     1      -4.650  11.438  -4.623  1.00  0.00    -0.206 F 
ATOM     65  C   UNL     1      -8.203  11.620  -3.945  1.00  0.00     0.006 A 
ENDBRANCH  44  58
BRANCH  45  66
ATOM     66  C   UNL     1       2.972  10.554   2.243  1.00  0.00     0.057 A 
ATOM     67  C   UNL     1       3.317  11.417   3.290  1.00  0.00     0.134 A 
ATOM     68  C   UNL     1       3.907   9.577   1.881  1.00  0.00     0.134 A 
ATOM     69  F   UNL     1       2.470  12.384   3.676  1.00  0.00    -0.206 F 
ATOM     70  C   UNL     1       4.554  11.333   3.932  1.00  0.00     0.040 A 
ATOM     71  C   UNL     1       5.134   9.459   2.537  1.00  0.00     0.040 A 
ATOM     72  F   UNL     1       3.634   8.709   0.895  1.00  0.00    -0.206 F 
ATOM     73  C   UNL     1       5.464  10.347   3.558  1.00  0.00     0.006 A 
ENDBRANCH  45  66
BRANCH  57  74
ATOM     74  C   UNL     1       0.124  15.564  -1.663  1.00  0.00     0.057 A 
ATOM     75  C   UNL     1       1.202  15.752  -2.538  1.00  0.00     0.134 A 
ATOM     76  C   UNL     1      -0.508  16.712  -1.167  1.00  0.00     0.134 A 
ATOM     77  F   UNL     1       1.861  14.698  -3.044  1.00  0.00    -0.206 F 
ATOM     78  C   UNL     1       1.662  17.029  -2.868  1.00  0.00     0.040 A 
ATOM     79  C   UNL     1      -0.083  17.993  -1.520  1.00  0.00     0.040 A 
ATOM     80  F   UNL     1      -1.556  16.609  -0.336  1.00  0.00    -0.206 F 
ATOM     81  C   UNL     1       1.015  18.154  -2.362  1.00  0.00     0.006 A 
ENDBRANCH  57  74
ENDBRANCH  31  32
ENDBRANCH  23  26
ENDBRANCH  21  22
ENDBRANCH  20  21
ENDBRANCH  19  20
ENDBRANCH   1  19
TORSDOF 16
