REMARK SMILES CC/C(=C/C(=O)[C@H](Cc1ccc(Cl)cc1Cl)C(=O)NCCCCCCNC(=O)c1ccc(-c2c3nc(c(-c4c(F)cccc4F)c4ccc([nH]4)c(-c4c(F)cccc4F)c4nc(c(-c5c(F)cccc5F)c5ccc2[nH]5)C=C4)C=C3)cc1)N(C)C
REMARK SMILES IDX 22 1 21 2 20 3 19 4 17 5 18 6 7 8 5 9 6 10 4 11 3 12 2 13
REMARK SMILES IDX 1 14 83 15 84 16 85 17 8 18 9 19 10 20 15 21 11 22 14 23
REMARK SMILES IDX 16 24 12 25 13 26 23 27 24 28 25 29 26 30 27 31 28 33 29 34
REMARK SMILES IDX 30 35 82 36 31 37 81 38 32 39 33 40 34 41 75 42 35 43 80 44
REMARK SMILES IDX 74 45 76 46 36 47 79 48 73 49 72 50 37 52 63 53 46 54 62 55
REMARK SMILES IDX 47 56 50 57 61 58 77 59 48 60 49 61 60 63 78 64 51 65 38 66
REMARK SMILES IDX 39 67 44 68 40 69 41 70 43 71 45 72 42 73 64 74 65 75 70 76
REMARK SMILES IDX 66 77 67 78 69 79 71 80 68 81 52 82 53 83 58 84 54 85 55 86
REMARK SMILES IDX 57 87 59 88 56 89
REMARK H PARENT 19 7 26 32 76 51 50 62
REMARK Flexibility Score: inf
ROOT
ATOM      1  C   UNL     1       1.567  -0.903   0.666  1.00  0.00     0.002 C 
ENDROOT
BRANCH   1   2
ATOM      2  C   UNL     1       1.019  -0.634  -0.743  1.00  0.00     0.021 C 
BRANCH   2   3
ATOM      3  C   UNL     1       2.094  -0.485  -1.822  1.00  0.00     0.116 C 
BRANCH   3   4
ATOM      4  N   UNL     1       3.031  -1.585  -1.781  1.00  0.00    -0.355 N 
ATOM      5  C   UNL     1       3.072  -2.749  -2.462  1.00  0.00     0.231 C 
ATOM      6  O   UNL     1       3.907  -3.577  -2.081  1.00  0.00    -0.274 OA
ATOM      7  H   UNL     1       3.770  -1.463  -1.142  1.00  0.00     0.163 HD
BRANCH   5   8
ATOM      8  C   UNL     1       2.182  -3.050  -3.653  1.00  0.00     0.154 C 
BRANCH   8   9
ATOM      9  C   UNL     1       2.671  -2.282  -4.872  1.00  0.00     0.170 C 
ATOM     10  O   UNL     1       1.931  -1.518  -5.499  1.00  0.00    -0.294 OA
BRANCH   9  11
ATOM     11  C   UNL     1       4.114  -2.304  -5.255  1.00  0.00     0.069 C 
ATOM     12  C   UNL     1       5.046  -3.282  -5.314  1.00  0.00     0.016 C 
BRANCH  12  13
ATOM     13  C   UNL     1       6.461  -2.790  -5.674  1.00  0.00     0.050 C 
ATOM     14  C   UNL     1       7.390  -2.616  -4.476  1.00  0.00     0.010 C 
ENDBRANCH  12  13
BRANCH  12  15
ATOM     15  N   UNL     1       4.892  -4.674  -5.173  1.00  0.00    -0.381 N 
ATOM     16  C   UNL     1       5.990  -5.552  -4.738  1.00  0.00     0.143 C 
ATOM     17  C   UNL     1       3.655  -5.417  -5.395  1.00  0.00     0.143 C 
ENDBRANCH  12  15
ENDBRANCH   9  11
ENDBRANCH   8   9
BRANCH   8  18
ATOM     18  C   UNL     1       0.649  -2.946  -3.489  1.00  0.00     0.059 C 
BRANCH  18  19
ATOM     19  C   UNL     1      -0.046  -3.639  -2.323  1.00  0.00    -0.028 A 
ATOM     20  C   UNL     1       0.664  -4.314  -1.317  1.00  0.00     0.007 A 
ATOM     21  C   UNL     1      -1.444  -3.518  -2.158  1.00  0.00     0.045 A 
ATOM     22  C   UNL     1       0.038  -4.721  -0.136  1.00  0.00     0.021 A 
ATOM     23  C   UNL     1      -2.079  -3.956  -0.990  1.00  0.00     0.041 A 
ATOM     24  Cl  UNL     1      -2.444  -2.787  -3.366  1.00  0.00    -0.084 Cl
ATOM     25  C   UNL     1      -1.326  -4.521   0.031  1.00  0.00     0.042 A 
ATOM     26  Cl  UNL     1      -2.077  -4.964   1.513  1.00  0.00    -0.084 Cl
ENDBRANCH  18  19
ENDBRANCH   8  18
ENDBRANCH   5   8
ENDBRANCH   3   4
ENDBRANCH   2   3
ENDBRANCH   1   2
BRANCH   1  27
ATOM     27  C   UNL     1       2.547   0.157   1.173  1.00  0.00     0.002 C 
BRANCH  27  28
ATOM     28  C   UNL     1       2.029   1.590   1.066  1.00  0.00     0.021 C 
BRANCH  28  29
ATOM     29  C   UNL     1       0.691   1.815   1.756  1.00  0.00     0.116 C 
BRANCH  29  30
ATOM     30  N   UNL     1       0.803   1.669   3.197  1.00  0.00    -0.352 N 
ATOM     31  C   UNL     1       0.520   2.594   4.170  1.00  0.00     0.251 C 
ATOM     32  H   UNL     1       1.122   0.794   3.516  1.00  0.00     0.163 HD
ATOM     33  O   UNL     1       0.888   2.424   5.324  1.00  0.00    -0.269 OA
BRANCH  31  34
ATOM     34  C   UNL     1      -0.218   3.817   3.794  1.00  0.00     0.039 A 
ATOM     35  C   UNL     1       0.273   5.056   4.207  1.00  0.00     0.014 A 
ATOM     36  C   UNL     1      -1.368   3.734   3.001  1.00  0.00     0.014 A 
ATOM     37  C   UNL     1      -0.358   6.221   3.770  1.00  0.00     0.010 A 
ATOM     38  C   UNL     1      -1.946   4.897   2.504  1.00  0.00     0.010 A 
ATOM     39  C   UNL     1      -1.446   6.151   2.883  1.00  0.00    -0.014 A 
BRANCH  39  40
ATOM     40  C   UNL     1      -2.054   7.383   2.323  1.00  0.00     0.031 A 
ATOM     41  C   UNL     1      -3.481   7.735   2.632  1.00  0.00     0.074 A 
ATOM     42  C   UNL     1      -1.331   8.154   1.488  1.00  0.00     0.049 A 
ATOM     43  N   UNL     1      -4.193   8.746   2.203  1.00  0.00    -0.248 NA
ATOM     44  C   UNL     1      -4.213   6.819   3.521  1.00  0.00     0.031 C 
ATOM     45  C   UNL     1       0.048   7.888   1.072  1.00  0.00     0.029 A 
ATOM     46  N   UNL     1      -1.657   9.313   0.831  1.00  0.00    -0.354 N 
ATOM     47  C   UNL     1      -5.454   8.584   2.762  1.00  0.00     0.074 A 
ATOM     48  C   UNL     1      -5.427   7.350   3.516  1.00  0.00     0.031 C 
ATOM     49  C   UNL     1       0.458   8.870   0.254  1.00  0.00     0.029 A 
ATOM     50  C   UNL     1      -0.640   9.809   0.051  1.00  0.00     0.049 A 
ATOM     51  H   UNL     1      -2.536   9.749   0.911  1.00  0.00     0.167 HD
ATOM     52  C   UNL     1      -6.528   9.403   2.674  1.00  0.00     0.037 A 
ATOM     53  C   UNL     1      -0.601  10.892  -0.748  1.00  0.00     0.037 A 
ATOM     54  C   UNL     1      -6.545  10.636   1.930  1.00  0.00     0.049 A 
ATOM     55  C   UNL     1      -1.818  11.768  -0.852  1.00  0.00     0.074 A 
ATOM     56  C   UNL     1      -7.562  11.570   1.833  1.00  0.00     0.029 A 
ATOM     57  N   UNL     1      -5.499  11.101   1.147  1.00  0.00    -0.354 N 
ATOM     58  N   UNL     1      -2.976  11.650  -0.249  1.00  0.00    -0.248 NA
ATOM     59  C   UNL     1      -1.722  12.929  -1.748  1.00  0.00     0.031 C 
ATOM     60  C   UNL     1      -7.154  12.569   0.943  1.00  0.00     0.029 A 
ATOM     61  C   UNL     1      -5.861  12.288   0.531  1.00  0.00     0.049 A 
ATOM     62  H   UNL     1      -4.628  10.654   1.044  1.00  0.00     0.167 HD
ATOM     63  C   UNL     1      -3.740  12.727  -0.678  1.00  0.00     0.074 A 
ATOM     64  C   UNL     1      -2.905  13.502  -1.572  1.00  0.00     0.031 C 
ATOM     65  C   UNL     1      -5.021  13.044  -0.364  1.00  0.00     0.037 A 
BRANCH  52  66
ATOM     66  C   UNL     1      -7.778   8.990   3.397  1.00  0.00     0.057 A 
ATOM     67  C   UNL     1      -7.857   8.987   4.797  1.00  0.00     0.134 A 
ATOM     68  C   UNL     1      -8.929   8.626   2.687  1.00  0.00     0.134 A 
ATOM     69  F   UNL     1      -6.789   9.315   5.539  1.00  0.00    -0.206 F 
ATOM     70  C   UNL     1      -9.026   8.612   5.462  1.00  0.00     0.040 A 
ATOM     71  C   UNL     1     -10.112   8.278   3.340  1.00  0.00     0.040 A 
ATOM     72  F   UNL     1      -8.926   8.613   1.345  1.00  0.00    -0.206 F 
ATOM     73  C   UNL     1     -10.160   8.263   4.733  1.00  0.00     0.006 A 
ENDBRANCH  52  66
BRANCH  53  74
ATOM     74  C   UNL     1       0.635  11.211  -1.507  1.00  0.00     0.057 A 
ATOM     75  C   UNL     1       1.405  12.337  -1.196  1.00  0.00     0.134 A 
ATOM     76  C   UNL     1       1.073  10.403  -2.563  1.00  0.00     0.134 A 
ATOM     77  F   UNL     1       1.028  13.160  -0.206  1.00  0.00    -0.206 F 
ATOM     78  C   UNL     1       2.556  12.659  -1.918  1.00  0.00     0.040 A 
ATOM     79  C   UNL     1       2.237  10.697  -3.276  1.00  0.00     0.040 A 
ATOM     80  F   UNL     1       0.385   9.304  -2.907  1.00  0.00    -0.206 F 
ATOM     81  C   UNL     1       2.977  11.834  -2.958  1.00  0.00     0.006 A 
ENDBRANCH  53  74
BRANCH  65  82
ATOM     82  C   UNL     1      -5.591  14.286  -0.985  1.00  0.00     0.057 A 
ATOM     83  C   UNL     1      -5.905  14.352  -2.348  1.00  0.00     0.134 A 
ATOM     84  C   UNL     1      -5.864  15.416  -0.203  1.00  0.00     0.134 A 
ATOM     85  F   UNL     1      -5.655  13.309  -3.155  1.00  0.00    -0.206 F 
ATOM     86  C   UNL     1      -6.448  15.505  -2.917  1.00  0.00     0.040 A 
ATOM     87  C   UNL     1      -6.435  16.564  -0.754  1.00  0.00     0.040 A 
ATOM     88  F   UNL     1      -5.595  15.418   1.111  1.00  0.00    -0.206 F 
ATOM     89  C   UNL     1      -6.722  16.613  -2.117  1.00  0.00     0.006 A 
ENDBRANCH  65  82
ENDBRANCH  39  40
ENDBRANCH  31  34
ENDBRANCH  29  30
ENDBRANCH  28  29
ENDBRANCH  27  28
ENDBRANCH   1  27
TORSDOF 19
