REMARK SMILES CO[C@H]1C[C@@H](C(=O)NCCCCCCNC(=O)c2ccc(-c3c4nc(c(-c5c(F)cccc5F)c5ccc([nH]5)c(-c5c(F)cccc5F)c5nc(c(-c6c(F)cccc6F)c6ccc3[nH]6)C=C5)C=C4)cc2)N(C(=O)Nc2cc(C)cc(F)c2)C1
REMARK SMILES IDX 11 1 10 2 9 3 8 4 6 5 7 6 5 8 3 9 4 10 84 11 72 12 2 13 1 14
REMARK SMILES IDX 73 15 74 16 75 17 76 19 77 20 83 21 78 22 81 23 79 24 80 25
REMARK SMILES IDX 82 26 12 27 13 28 14 29 15 30 16 31 17 33 18 34 19 35 71 36
REMARK SMILES IDX 20 37 70 38 21 39 22 40 23 41 64 42 24 43 69 44 63 45 65 46
REMARK SMILES IDX 25 47 68 48 62 49 61 50 26 52 52 53 35 54 51 55 36 56 39 57
REMARK SMILES IDX 50 58 66 59 37 60 38 61 49 63 67 64 40 65 27 66 28 67 33 68
REMARK SMILES IDX 29 69 30 70 32 71 34 72 31 73 53 74 54 75 59 76 55 77 56 78
REMARK SMILES IDX 58 79 60 80 57 81 41 82 42 83 47 84 43 85 44 86 46 87 48 88
REMARK SMILES IDX 45 89
REMARK H PARENT 8 7 75 18 15 32 65 51 39 62
REMARK Flexibility Score: inf
ROOT
ATOM      1  C   UNL     1      -6.067  -1.729  -3.856  1.00  0.00     0.002 C 
ENDROOT
BRANCH   1   2
ATOM      2  C   UNL     1      -5.402  -1.989  -2.500  1.00  0.00     0.021 C 
BRANCH   2   3
ATOM      3  C   UNL     1      -3.877  -2.088  -2.562  1.00  0.00     0.116 C 
BRANCH   3   4
ATOM      4  N   UNL     1      -3.276  -0.833  -2.965  1.00  0.00    -0.354 N 
ATOM      5  C   UNL     1      -1.959  -0.477  -2.978  1.00  0.00     0.242 C 
ATOM      6  O   UNL     1      -1.685   0.678  -3.309  1.00  0.00    -0.273 OA
ATOM      7  H   UNL     1      -3.905  -0.140  -3.271  1.00  0.00     0.163 HD
BRANCH   5   8
ATOM      8  C   UNL     1      -0.893  -1.508  -2.565  1.00  0.00     0.179 C 
ATOM      9  C   UNL     1       1.365  -1.803  -1.794  1.00  0.00     0.140 C 
ATOM     10  C   UNL     1       0.322  -0.723  -2.047  1.00  0.00     0.069 C 
ATOM     11  C   UNL     1       1.032  -2.862  -2.851  1.00  0.00     0.154 C 
ATOM     12  N   UNL     1      -0.227  -2.453  -3.478  1.00  0.00    -0.310 N 
BRANCH   9  13
ATOM     13  O   UNL     1       2.708  -1.356  -1.952  1.00  0.00    -0.380 OA
ATOM     14  C   UNL     1       3.054  -0.265  -1.111  1.00  0.00     0.195 C 
ENDBRANCH   9  13
BRANCH  12  15
ATOM     15  C   UNL     1      -0.848  -3.382  -4.263  1.00  0.00     0.322 C 
ATOM     16  O   UNL     1      -0.638  -4.591  -4.131  1.00  0.00    -0.248 OA
ATOM     17  N   UNL     1      -1.740  -3.010  -5.213  1.00  0.00    -0.308 N 
ATOM     18  H   UNL     1      -2.342  -3.737  -5.491  1.00  0.00     0.171 HD
BRANCH  17  19
ATOM     19  C   UNL     1      -1.981  -1.800  -5.880  1.00  0.00     0.046 A 
ATOM     20  C   UNL     1      -3.217  -1.675  -6.531  1.00  0.00     0.029 A 
ATOM     21  C   UNL     1      -1.089  -0.735  -5.919  1.00  0.00     0.065 A 
ATOM     22  C   UNL     1      -3.648  -0.450  -7.056  1.00  0.00    -0.046 A 
ATOM     23  C   UNL     1      -1.494   0.471  -6.487  1.00  0.00     0.125 A 
ATOM     24  C   UNL     1      -5.050  -0.301  -7.566  1.00  0.00     0.044 C 
ATOM     25  C   UNL     1      -2.772   0.635  -7.016  1.00  0.00     0.042 A 
ATOM     26  F   UNL     1      -0.648   1.510  -6.495  1.00  0.00    -0.207 F 
ENDBRANCH  17  19
ENDBRANCH  12  15
ENDBRANCH   5   8
ENDBRANCH   3   4
ENDBRANCH   2   3
ENDBRANCH   1   2
BRANCH   1  27
ATOM     27  C   UNL     1      -6.048  -2.921  -4.815  1.00  0.00     0.002 C 
BRANCH  27  28
ATOM     28  C   UNL     1      -6.887  -4.126  -4.407  1.00  0.00     0.021 C 
BRANCH  28  29
ATOM     29  C   UNL     1      -8.334  -3.817  -4.070  1.00  0.00     0.116 C 
BRANCH  29  30
ATOM     30  N   UNL     1      -9.093  -3.247  -5.175  1.00  0.00    -0.352 N 
ATOM     31  C   UNL     1     -10.438  -3.411  -5.428  1.00  0.00     0.251 C 
ATOM     32  H   UNL     1      -8.592  -2.685  -5.809  1.00  0.00     0.163 HD
ATOM     33  O   UNL     1     -10.963  -2.949  -6.434  1.00  0.00    -0.269 OA
BRANCH  31  34
ATOM     34  C   UNL     1     -11.224  -4.211  -4.468  1.00  0.00     0.039 A 
ATOM     35  C   UNL     1     -11.894  -5.349  -4.917  1.00  0.00     0.014 A 
ATOM     36  C   UNL     1     -11.162  -3.907  -3.106  1.00  0.00     0.014 A 
ATOM     37  C   UNL     1     -12.431  -6.237  -3.984  1.00  0.00     0.010 A 
ATOM     38  C   UNL     1     -11.613  -4.837  -2.180  1.00  0.00     0.010 A 
ATOM     39  C   UNL     1     -12.252  -6.011  -2.608  1.00  0.00    -0.014 A 
BRANCH  39  40
ATOM     40  C   UNL     1     -12.724  -6.985  -1.593  1.00  0.00     0.031 A 
ATOM     41  C   UNL     1     -13.747  -6.564  -0.576  1.00  0.00     0.074 A 
ATOM     42  C   UNL     1     -12.162  -8.208  -1.520  1.00  0.00     0.049 A 
ATOM     43  N   UNL     1     -14.216  -7.226   0.450  1.00  0.00    -0.248 NA
ATOM     44  C   UNL     1     -14.278  -5.197  -0.704  1.00  0.00     0.031 C 
ATOM     45  C   UNL     1     -11.098  -8.708  -2.393  1.00  0.00     0.029 A 
ATOM     46  N   UNL     1     -12.397  -9.248  -0.656  1.00  0.00    -0.354 N 
ATOM     47  C   UNL     1     -15.067  -6.346   1.105  1.00  0.00     0.074 A 
ATOM     48  C   UNL     1     -15.004  -5.087   0.397  1.00  0.00     0.031 C 
ATOM     49  C   UNL     1     -10.786  -9.963  -2.033  1.00  0.00     0.029 A 
ATOM     50  C   UNL     1     -11.607 -10.347  -0.888  1.00  0.00     0.049 A 
ATOM     51  H   UNL     1     -13.069  -9.209   0.062  1.00  0.00     0.167 HD
ATOM     52  C   UNL     1     -15.854  -6.574   2.183  1.00  0.00     0.037 A 
ATOM     53  C   UNL     1     -11.550 -11.531  -0.248  1.00  0.00     0.037 A 
ATOM     54  C   UNL     1     -15.955  -7.843   2.851  1.00  0.00     0.049 A 
ATOM     55  C   UNL     1     -12.479 -11.786   0.906  1.00  0.00     0.074 A 
ATOM     56  C   UNL     1     -16.796  -8.209   3.886  1.00  0.00     0.029 A 
ATOM     57  N   UNL     1     -15.187  -8.956   2.544  1.00  0.00    -0.354 N 
ATOM     58  N   UNL     1     -13.350 -10.976   1.458  1.00  0.00    -0.248 NA
ATOM     59  C   UNL     1     -12.426 -13.121   1.518  1.00  0.00     0.031 C 
ATOM     60  C   UNL     1     -16.513  -9.536   4.229  1.00  0.00     0.029 A 
ATOM     61  C   UNL     1     -15.522 -10.006   3.381  1.00  0.00     0.049 A 
ATOM     62  H   UNL     1     -14.504  -8.994   1.835  1.00  0.00     0.167 HD
ATOM     63  C   UNL     1     -13.962 -11.707   2.468  1.00  0.00     0.074 A 
ATOM     64  C   UNL     1     -13.373 -13.030   2.442  1.00  0.00     0.031 C 
ATOM     65  C   UNL     1     -14.924 -11.316   3.339  1.00  0.00     0.037 A 
BRANCH  52  66
ATOM     66  C   UNL     1     -16.670  -5.421   2.691  1.00  0.00     0.057 A 
ATOM     67  C   UNL     1     -17.750  -4.902   1.964  1.00  0.00     0.134 A 
ATOM     68  C   UNL     1     -16.370  -4.820   3.919  1.00  0.00     0.134 A 
ATOM     69  F   UNL     1     -18.081  -5.422   0.772  1.00  0.00    -0.206 F 
ATOM     70  C   UNL     1     -18.475  -3.800   2.420  1.00  0.00     0.040 A 
ATOM     71  C   UNL     1     -17.107  -3.736   4.400  1.00  0.00     0.040 A 
ATOM     72  F   UNL     1     -15.352  -5.270   4.668  1.00  0.00    -0.206 F 
ATOM     73  C   UNL     1     -18.156  -3.217   3.644  1.00  0.00     0.006 A 
ENDBRANCH  52  66
BRANCH  53  74
ATOM     74  C   UNL     1     -10.603 -12.575  -0.711  1.00  0.00     0.057 A 
ATOM     75  C   UNL     1     -11.056 -13.708  -1.395  1.00  0.00     0.134 A 
ATOM     76  C   UNL     1      -9.225 -12.457  -0.498  1.00  0.00     0.134 A 
ATOM     77  F   UNL     1     -12.368 -13.884  -1.615  1.00  0.00    -0.206 F 
ATOM     78  C   UNL     1     -10.175 -14.696  -1.840  1.00  0.00     0.040 A 
ATOM     79  C   UNL     1      -8.330 -13.427  -0.955  1.00  0.00     0.040 A 
ATOM     80  F   UNL     1      -8.727 -11.389   0.142  1.00  0.00    -0.206 F 
ATOM     81  C   UNL     1      -8.806 -14.553  -1.625  1.00  0.00     0.006 A 
ENDBRANCH  53  74
BRANCH  65  82
ATOM     82  C   UNL     1     -15.414 -12.337   4.322  1.00  0.00     0.057 A 
ATOM     83  C   UNL     1     -14.643 -12.726   5.425  1.00  0.00     0.134 A 
ATOM     84  C   UNL     1     -16.689 -12.900   4.190  1.00  0.00     0.134 A 
ATOM     85  F   UNL     1     -13.409 -12.231   5.599  1.00  0.00    -0.206 F 
ATOM     86  C   UNL     1     -15.119 -13.652   6.354  1.00  0.00     0.040 A 
ATOM     87  C   UNL     1     -17.184 -13.809   5.125  1.00  0.00     0.040 A 
ATOM     88  F   UNL     1     -17.479 -12.563   3.159  1.00  0.00    -0.206 F 
ATOM     89  C   UNL     1     -16.396 -14.191   6.209  1.00  0.00     0.006 A 
ENDBRANCH  65  82
ENDBRANCH  39  40
ENDBRANCH  31  34
ENDBRANCH  29  30
ENDBRANCH  28  29
ENDBRANCH  27  28
ENDBRANCH   1  27
TORSDOF 16
