REMARK SMILES O=C(/C=C/c1ccc(O)c(O)c1)NCCCCCCNC(=O)c1ccc(-c2c3nc(c(-c4c(F)cccc4F)c4ccc([nH]4)c(-c4c(F)cccc4F)c4nc(c(-c5c(F)cccc5F)c5ccc2[nH]5)C=C4)C=C3)cc1
REMARK SMILES IDX 16 1 15 2 14 3 13 4 1 5 2 6 3 8 4 9 5 10 6 11 12 12 7 13
REMARK SMILES IDX 10 14 8 15 11 16 9 18 17 20 18 21 19 22 20 23 21 24 22 26
REMARK SMILES IDX 23 27 24 28 76 29 25 30 75 31 26 32 27 33 28 34 69 35 29 36
REMARK SMILES IDX 74 37 68 38 70 39 30 40 73 41 67 42 66 43 31 45 57 46 40 47
REMARK SMILES IDX 56 48 41 49 44 50 55 51 71 52 42 53 43 54 54 56 72 57 45 58
REMARK SMILES IDX 32 59 33 60 38 61 34 62 35 63 37 64 39 65 36 66 58 67 59 68
REMARK SMILES IDX 64 69 60 70 61 71 63 72 65 73 62 74 46 75 47 76 52 77 48 78
REMARK SMILES IDX 49 79 51 80 53 81 50 82
REMARK H PARENT 13 7 11 17 9 19 20 25 70 44 44 55
REMARK Flexibility Score: inf
ROOT
ATOM      1  C   UNL     1       4.132   0.053   3.545  1.00  0.00     0.002 C 
ENDROOT
BRANCH   1   2
ATOM      2  C   UNL     1       2.630  -0.079   3.258  1.00  0.00     0.021 C 
BRANCH   2   3
ATOM      3  C   UNL     1       2.108   0.827   2.142  1.00  0.00     0.116 C 
BRANCH   3   4
ATOM      4  N   UNL     1       2.766   0.561   0.880  1.00  0.00    -0.353 N 
ATOM      5  O   UNL     1       0.965  -0.437  -0.137  1.00  0.00    -0.270 OA
ATOM      6  C   UNL     1       2.144  -0.097  -0.146  1.00  0.00     0.243 C 
ATOM      7  H   UNL     1       3.694   0.865   0.755  1.00  0.00     0.163 HD
BRANCH   6   8
ATOM      8  C   UNL     1       2.969  -0.360  -1.352  1.00  0.00     0.072 C 
ATOM      9  C   UNL     1       4.307  -0.469  -1.369  1.00  0.00     0.014 C 
BRANCH   9  10
ATOM     10  C   UNL     1       5.076  -0.825  -2.572  1.00  0.00    -0.022 A 
ATOM     11  C   UNL     1       4.720  -0.377  -3.856  1.00  0.00     0.012 A 
ATOM     12  C   UNL     1       6.228  -1.609  -2.422  1.00  0.00     0.058 A 
ATOM     13  C   UNL     1       5.478  -0.734  -4.979  1.00  0.00     0.051 A 
ATOM     14  C   UNL     1       6.974  -1.958  -3.540  1.00  0.00     0.157 A 
ATOM     15  C   UNL     1       6.602  -1.531  -4.811  1.00  0.00     0.157 A 
BRANCH  14  16
ATOM     16  O   UNL     1       8.085  -2.736  -3.381  1.00  0.00    -0.504 OA
ATOM     17  H   UNL     1       8.598  -2.980  -4.127  1.00  0.00     0.293 HD
ENDBRANCH  14  16
BRANCH  15  18
ATOM     18  O   UNL     1       7.379  -1.920  -5.866  1.00  0.00    -0.504 OA
ATOM     19  H   UNL     1       7.158  -1.650  -6.735  1.00  0.00     0.293 HD
ENDBRANCH  15  18
ENDBRANCH   9  10
ENDBRANCH   6   8
ENDBRANCH   3   4
ENDBRANCH   2   3
ENDBRANCH   1   2
BRANCH   1  20
ATOM     20  C   UNL     1       4.618   1.462   3.897  1.00  0.00     0.002 C 
BRANCH  20  21
ATOM     21  C   UNL     1       3.933   2.114   5.101  1.00  0.00     0.021 C 
BRANCH  21  22
ATOM     22  C   UNL     1       4.048   1.343   6.413  1.00  0.00     0.116 C 
BRANCH  22  23
ATOM     23  N   UNL     1       5.423   1.212   6.870  1.00  0.00    -0.352 N 
ATOM     24  C   UNL     1       5.962   1.457   8.108  1.00  0.00     0.251 C 
ATOM     25  H   UNL     1       6.062   0.901   6.190  1.00  0.00     0.163 HD
ATOM     26  O   UNL     1       7.182   1.426   8.262  1.00  0.00    -0.269 OA
BRANCH  24  27
ATOM     27  C   UNL     1       5.090   1.786   9.258  1.00  0.00     0.039 A 
ATOM     28  C   UNL     1       5.475   2.818  10.120  1.00  0.00     0.014 A 
ATOM     29  C   UNL     1       3.912   1.075   9.505  1.00  0.00     0.014 A 
ATOM     30  C   UNL     1       4.650   3.178  11.188  1.00  0.00     0.010 A 
ATOM     31  C   UNL     1       3.058   1.478  10.529  1.00  0.00     0.010 A 
ATOM     32  C   UNL     1       3.418   2.532  11.382  1.00  0.00    -0.014 A 
BRANCH  32  33
ATOM     33  C   UNL     1       2.494   2.954  12.466  1.00  0.00     0.031 A 
ATOM     34  C   UNL     1       2.173   2.022  13.601  1.00  0.00     0.074 A 
ATOM     35  C   UNL     1       1.895   4.159  12.398  1.00  0.00     0.049 A 
ATOM     36  N   UNL     1       1.364   2.201  14.615  1.00  0.00    -0.248 NA
ATOM     37  C   UNL     1       2.829   0.706  13.582  1.00  0.00     0.031 C 
ATOM     38  C   UNL     1       2.085   5.138  11.326  1.00  0.00     0.029 A 
ATOM     39  N   UNL     1       1.002   4.763  13.246  1.00  0.00    -0.354 N 
ATOM     40  C   UNL     1       1.398   1.018  15.341  1.00  0.00     0.074 A 
ATOM     41  C   UNL     1       2.272   0.112  14.627  1.00  0.00     0.031 C 
ATOM     42  C   UNL     1       1.357   6.233  11.599  1.00  0.00     0.029 A 
ATOM     43  C   UNL     1       0.624   6.021  12.843  1.00  0.00     0.049 A 
ATOM     44  H   UNL     1       0.664   4.336  14.066  1.00  0.00     0.167 HD
ATOM     45  C   UNL     1       0.774   0.718  16.506  1.00  0.00     0.037 A 
ATOM     46  C   UNL     1      -0.216   6.904  13.413  1.00  0.00     0.037 A 
ATOM     47  C   UNL     1      -0.071   1.630  17.231  1.00  0.00     0.049 A 
ATOM     48  C   UNL     1      -0.899   6.547  14.703  1.00  0.00     0.074 A 
ATOM     49  C   UNL     1      -0.682   1.448  18.460  1.00  0.00     0.029 A 
ATOM     50  N   UNL     1      -0.431   2.894  16.790  1.00  0.00    -0.354 N 
ATOM     51  N   UNL     1      -0.796   5.454  15.419  1.00  0.00    -0.248 NA
ATOM     52  C   UNL     1      -1.814   7.551  15.265  1.00  0.00     0.031 C 
ATOM     53  C   UNL     1      -1.447   2.586  18.742  1.00  0.00     0.029 A 
ATOM     54  C   UNL     1      -1.277   3.494  17.709  1.00  0.00     0.049 A 
ATOM     55  H   UNL     1      -0.129   3.306  15.948  1.00  0.00     0.167 HD
ATOM     56  C   UNL     1      -1.607   5.649  16.529  1.00  0.00     0.074 A 
ATOM     57  C   UNL     1      -2.187   6.969  16.396  1.00  0.00     0.031 C 
ATOM     58  C   UNL     1      -1.846   4.810  17.567  1.00  0.00     0.037 A 
BRANCH  45  59
ATOM     59  C   UNL     1       0.984  -0.660  17.064  1.00  0.00     0.057 A 
ATOM     60  C   UNL     1       2.213  -1.062  17.602  1.00  0.00     0.134 A 
ATOM     61  C   UNL     1      -0.063  -1.591  17.078  1.00  0.00     0.134 A 
ATOM     62  F   UNL     1       3.260  -0.223  17.609  1.00  0.00    -0.206 F 
ATOM     63  C   UNL     1       2.404  -2.351  18.104  1.00  0.00     0.040 A 
ATOM     64  C   UNL     1       0.108  -2.873  17.602  1.00  0.00     0.040 A 
ATOM     65  F   UNL     1      -1.268  -1.269  16.586  1.00  0.00    -0.206 F 
ATOM     66  C   UNL     1       1.347  -3.259  18.109  1.00  0.00     0.006 A 
ENDBRANCH  45  59
BRANCH  46  67
ATOM     67  C   UNL     1      -0.428   8.234  12.790  1.00  0.00     0.057 A 
ATOM     68  C   UNL     1       0.098   9.390  13.379  1.00  0.00     0.134 A 
ATOM     69  C   UNL     1      -1.154   8.385  11.604  1.00  0.00     0.134 A 
ATOM     70  F   UNL     1       0.786   9.309  14.527  1.00  0.00    -0.206 F 
ATOM     71  C   UNL     1      -0.102  10.652  12.817  1.00  0.00     0.040 A 
ATOM     72  C   UNL     1      -1.344   9.638  11.020  1.00  0.00     0.040 A 
ATOM     73  F   UNL     1      -1.678   7.314  10.989  1.00  0.00    -0.206 F 
ATOM     74  C   UNL     1      -0.821  10.777  11.630  1.00  0.00     0.006 A 
ENDBRANCH  46  67
BRANCH  58  75
ATOM     75  C   UNL     1      -2.749   5.310  18.655  1.00  0.00     0.057 A 
ATOM     76  C   UNL     1      -4.132   5.434  18.470  1.00  0.00     0.134 A 
ATOM     77  C   UNL     1      -2.231   5.651  19.911  1.00  0.00     0.134 A 
ATOM     78  F   UNL     1      -4.689   5.138  17.286  1.00  0.00    -0.206 F 
ATOM     79  C   UNL     1      -4.965   5.902  19.489  1.00  0.00     0.040 A 
ATOM     80  C   UNL     1      -3.056   6.096  20.945  1.00  0.00     0.040 A 
ATOM     81  F   UNL     1      -0.916   5.549  20.156  1.00  0.00    -0.206 F 
ATOM     82  C   UNL     1      -4.427   6.228  20.733  1.00  0.00     0.006 A 
ENDBRANCH  58  75
ENDBRANCH  32  33
ENDBRANCH  24  27
ENDBRANCH  22  23
ENDBRANCH  21  22
ENDBRANCH  20  21
ENDBRANCH   1  20
TORSDOF 16
