REMARK SMILES CCc1cccc(CC)c1NC(=O)C[C@@](C)(C(=O)NCCCCCCNC(=O)c1ccc(-c2c3nc(c(-c4c(F)cccc4F)c4ccc([nH]4)c(-c4c(F)cccc4F)c4nc(c(-c5c(F)cccc5F)c5ccc2[nH]5)C=C4)C=C3)cc1)c1ccccc1
REMARK SMILES IDX 21 1 20 2 19 3 17 4 18 5 15 7 16 8 14 9 12 10 11 11 13 13
REMARK SMILES IDX 10 14 3 15 4 16 5 17 7 18 6 19 2 20 1 21 8 22 9 23 83 24
REMARK SMILES IDX 84 25 88 26 85 27 87 28 86 29 22 30 23 31 24 32 25 33 26 34
REMARK SMILES IDX 27 35 28 37 29 38 30 39 82 40 31 41 81 42 32 43 33 44 34 45
REMARK SMILES IDX 75 46 35 47 80 48 74 49 76 50 36 51 79 52 73 53 72 54 37 56
REMARK SMILES IDX 63 57 46 58 62 59 47 60 50 61 61 62 77 63 48 64 49 65 60 67
REMARK SMILES IDX 78 68 51 69 38 70 39 71 44 72 40 73 41 74 43 75 45 76 42 77
REMARK SMILES IDX 64 78 65 79 70 80 66 81 67 82 69 83 71 84 68 85 52 86 53 87
REMARK SMILES IDX 58 88 54 89 55 90 57 91 59 92 56 93
REMARK H PARENT 19 6 11 12 26 36 76 55 50 66
REMARK Flexibility Score: inf
ROOT
ATOM      1  C   UNL     1       3.193   5.374   5.794  1.00  0.00     0.021 C 
ENDROOT
BRANCH   1   2
ATOM      2  C   UNL     1       1.718   5.003   6.009  1.00  0.00     0.116 C 
BRANCH   2   3
ATOM      3  N   UNL     1       0.844   5.238   4.853  1.00  0.00    -0.355 N 
ATOM      4  C   UNL     1      -0.439   4.691   4.785  1.00  0.00     0.230 C 
ATOM      5  O   UNL     1      -1.147   4.690   5.793  1.00  0.00    -0.274 OA
ATOM      6  H   UNL     1       1.169   5.794   4.108  1.00  0.00     0.163 HD
BRANCH   4   7
ATOM      7  C   UNL     1      -0.911   4.030   3.413  1.00  0.00     0.080 C 
ATOM      8  C   UNL     1      -1.468   2.633   3.833  1.00  0.00     0.027 C 
BRANCH   7   9
ATOM      9  C   UNL     1       0.296   3.949   2.436  1.00  0.00     0.121 C 
BRANCH   9  10
ATOM     10  C   UNL     1       0.378   2.809   1.457  1.00  0.00     0.225 C 
ATOM     11  N   UNL     1       0.686   1.510   1.651  1.00  0.00    -0.326 N 
ATOM     12  H   UNL     1       0.564   1.071   0.779  1.00  0.00     0.169 HD
ATOM     13  O   UNL     1       0.156   3.083   0.262  1.00  0.00    -0.275 OA
BRANCH  11  14
ATOM     14  C   UNL     1       1.106   0.490   2.546  1.00  0.00     0.047 A 
ATOM     15  C   UNL     1       1.074  -0.836   1.981  1.00  0.00    -0.024 A 
ATOM     16  C   UNL     1       1.504  -1.957   2.732  1.00  0.00     0.006 A 
ATOM     17  C   UNL     1       1.977  -1.823   4.019  1.00  0.00     0.001 A 
ATOM     18  C   UNL     1       1.554   0.592   3.885  1.00  0.00    -0.024 A 
ATOM     19  C   UNL     1       2.013  -0.564   4.574  1.00  0.00     0.006 A 
BRANCH  15  20
ATOM     20  C   UNL     1       0.481  -1.196   0.617  1.00  0.00     0.034 C 
ATOM     21  C   UNL     1       1.219  -0.686  -0.617  1.00  0.00     0.009 C 
ENDBRANCH  15  20
BRANCH  18  22
ATOM     22  C   UNL     1       1.609   1.813   4.753  1.00  0.00     0.034 C 
ATOM     23  C   UNL     1       0.890   1.614   6.106  1.00  0.00     0.009 C 
ENDBRANCH  18  22
ENDBRANCH  11  14
ENDBRANCH   9  10
ENDBRANCH   7   9
BRANCH   7  24
ATOM     24  C   UNL     1      -2.148   4.737   2.775  1.00  0.00    -0.032 A 
ATOM     25  C   UNL     1      -2.443   6.084   3.012  1.00  0.00     0.005 A 
ATOM     26  C   UNL     1      -3.110   3.989   2.046  1.00  0.00     0.005 A 
ATOM     27  C   UNL     1      -3.695   6.615   2.663  1.00  0.00     0.000 A 
ATOM     28  C   UNL     1      -4.371   4.505   1.740  1.00  0.00     0.000 A 
ATOM     29  C   UNL     1      -4.671   5.816   2.069  1.00  0.00     0.000 A 
ENDBRANCH   7  24
ENDBRANCH   4   7
ENDBRANCH   2   3
ENDBRANCH   1   2
BRANCH   1  30
ATOM     30  C   UNL     1       4.030   5.330   7.090  1.00  0.00     0.002 C 
BRANCH  30  31
ATOM     31  C   UNL     1       4.217   3.968   7.777  1.00  0.00     0.002 C 
BRANCH  31  32
ATOM     32  C   UNL     1       5.169   2.969   7.110  1.00  0.00     0.021 C 
BRANCH  32  33
ATOM     33  C   UNL     1       6.585   3.464   6.806  1.00  0.00     0.116 C 
BRANCH  33  34
ATOM     34  N   UNL     1       7.262   4.032   7.962  1.00  0.00    -0.352 N 
ATOM     35  C   UNL     1       8.518   3.791   8.475  1.00  0.00     0.251 C 
ATOM     36  H   UNL     1       6.736   4.698   8.460  1.00  0.00     0.163 HD
ATOM     37  O   UNL     1       8.849   4.289   9.537  1.00  0.00    -0.269 OA
BRANCH  35  38
ATOM     38  C   UNL     1       9.463   2.906   7.755  1.00  0.00     0.039 A 
ATOM     39  C   UNL     1      10.182   1.956   8.488  1.00  0.00     0.014 A 
ATOM     40  C   UNL     1       9.660   3.020   6.377  1.00  0.00     0.014 A 
ATOM     41  C   UNL     1      11.033   1.066   7.828  1.00  0.00     0.010 A 
ATOM     42  C   UNL     1      10.459   2.092   5.712  1.00  0.00     0.010 A 
ATOM     43  C   UNL     1      11.142   1.097   6.428  1.00  0.00    -0.014 A 
BRANCH  43  44
ATOM     44  C   UNL     1      11.921   0.067   5.695  1.00  0.00     0.031 A 
ATOM     45  C   UNL     1      13.135   0.450   4.897  1.00  0.00     0.074 A 
ATOM     46  C   UNL     1      11.479  -1.206   5.687  1.00  0.00     0.049 A 
ATOM     47  N   UNL     1      13.890  -0.298   4.133  1.00  0.00    -0.248 NA
ATOM     48  C   UNL     1      13.541   1.863   4.944  1.00  0.00     0.031 C 
ATOM     49  C   UNL     1      10.284  -1.689   6.381  1.00  0.00     0.029 A 
ATOM     50  N   UNL     1      11.971  -2.324   5.059  1.00  0.00    -0.354 N 
ATOM     51  C   UNL     1      14.850   0.552   3.600  1.00  0.00     0.074 A 
ATOM     52  C   UNL     1      14.555   1.881   4.091  1.00  0.00     0.031 C 
ATOM     53  C   UNL     1      10.143  -3.004   6.153  1.00  0.00     0.029 A 
ATOM     54  C   UNL     1      11.209  -3.450   5.263  1.00  0.00     0.049 A 
ATOM     55  H   UNL     1      12.791  -2.319   4.515  1.00  0.00     0.167 HD
ATOM     56  C   UNL     1      15.891   0.248   2.788  1.00  0.00     0.037 A 
ATOM     57  C   UNL     1      11.343  -4.697   4.773  1.00  0.00     0.037 A 
ATOM     58  C   UNL     1      16.186  -1.081   2.318  1.00  0.00     0.049 A 
ATOM     59  C   UNL     1      12.495  -5.003   3.857  1.00  0.00     0.074 A 
ATOM     60  C   UNL     1      17.263  -1.506   1.559  1.00  0.00     0.029 A 
ATOM     61  N   UNL     1      15.396  -2.197   2.551  1.00  0.00    -0.354 N 
ATOM     62  N   UNL     1      13.448  -4.207   3.434  1.00  0.00    -0.248 NA
ATOM     63  C   UNL     1      12.593  -6.378   3.350  1.00  0.00     0.031 C 
ATOM     64  C   UNL     1      17.093  -2.866   1.283  1.00  0.00     0.029 A 
ATOM     65  C   UNL     1      15.940  -3.301   1.915  1.00  0.00     0.049 A 
ATOM     66  H   UNL     1      14.571  -2.203   3.088  1.00  0.00     0.167 HD
ATOM     67  C   UNL     1      14.263  -4.986   2.625  1.00  0.00     0.074 A 
ATOM     68  C   UNL     1      13.709  -6.323   2.636  1.00  0.00     0.031 C 
ATOM     69  C   UNL     1      15.370  -4.625   1.930  1.00  0.00     0.037 A 
BRANCH  56  70
ATOM     70  C   UNL     1      16.788   1.369   2.352  1.00  0.00     0.057 A 
ATOM     71  C   UNL     1      17.659   2.011   3.242  1.00  0.00     0.134 A 
ATOM     72  C   UNL     1      16.821   1.778   1.012  1.00  0.00     0.134 A 
ATOM     73  F   UNL     1      17.673   1.675   4.541  1.00  0.00    -0.206 F 
ATOM     74  C   UNL     1      18.512   3.034   2.822  1.00  0.00     0.040 A 
ATOM     75  C   UNL     1      17.689   2.780   0.574  1.00  0.00     0.040 A 
ATOM     76  F   UNL     1      16.020   1.201   0.104  1.00  0.00    -0.206 F 
ATOM     77  C   UNL     1      18.534   3.414   1.481  1.00  0.00     0.006 A 
ENDBRANCH  56  70
BRANCH  57  78
ATOM     78  C   UNL     1      10.357  -5.748   5.133  1.00  0.00     0.057 A 
ATOM     79  C   UNL     1      10.717  -6.832   5.942  1.00  0.00     0.134 A 
ATOM     80  C   UNL     1       9.036  -5.699   4.673  1.00  0.00     0.134 A 
ATOM     81  F   UNL     1      11.973  -6.946   6.398  1.00  0.00    -0.206 F 
ATOM     82  C   UNL     1       9.806  -7.840   6.263  1.00  0.00     0.040 A 
ATOM     83  C   UNL     1       8.106  -6.685   5.009  1.00  0.00     0.040 A 
ATOM     84  F   UNL     1       8.624  -4.683   3.901  1.00  0.00    -0.206 F 
ATOM     85  C   UNL     1       8.494  -7.764   5.801  1.00  0.00     0.006 A 
ENDBRANCH  57  78
BRANCH  69  86
ATOM     86  C   UNL     1      16.055  -5.693   1.129  1.00  0.00     0.057 A 
ATOM     87  C   UNL     1      15.495  -6.203  -0.049  1.00  0.00     0.134 A 
ATOM     88  C   UNL     1      17.309  -6.184   1.515  1.00  0.00     0.134 A 
ATOM     89  F   UNL     1      14.290  -5.785  -0.465  1.00  0.00    -0.206 F 
ATOM     90  C   UNL     1      16.149  -7.176  -0.805  1.00  0.00     0.040 A 
ATOM     91  C   UNL     1      17.985  -7.137   0.752  1.00  0.00     0.040 A 
ATOM     92  F   UNL     1      17.905  -5.733   2.629  1.00  0.00    -0.206 F 
ATOM     93  C   UNL     1      17.402  -7.639  -0.409  1.00  0.00     0.006 A 
ENDBRANCH  69  86
ENDBRANCH  43  44
ENDBRANCH  35  38
ENDBRANCH  33  34
ENDBRANCH  32  33
ENDBRANCH  31  32
ENDBRANCH  30  31
ENDBRANCH   1  30
TORSDOF 19
