REMARK SMILES O=C(CCC(=O)/[NH+]=C1\S[C@H]2CS(=O)(=O)C[C@@H]2N1c1ccc(Oc2ccccc2)cc1)NCCCCCCNC(=O)c1ccc(-c2c3nc(c(-c4c(F)cccc4F)c4ccc([nH]4)c(-c4c(F)cccc4F)c4nc(c(-c5c(F)cccc5F)c5ccc2[nH]5)C=C4)C=C3)cc1
REMARK SMILES IDX 33 1 32 2 31 3 2 4 1 5 3 7 4 8 5 9 6 10 7 11 8 12 9 14 17 15
REMARK SMILES IDX 10 16 16 17 11 18 15 19 12 20 13 21 14 22 18 23 19 24 30 25
REMARK SMILES IDX 20 26 29 27 21 28 22 29 23 30 24 31 28 32 25 33 27 34 26 35
REMARK SMILES IDX 34 36 35 37 36 38 37 39 38 40 39 41 40 43 41 44 42 45 94 46
REMARK SMILES IDX 43 47 93 48 44 49 45 50 46 51 87 52 47 53 92 54 86 55 88 56
REMARK SMILES IDX 48 57 91 58 85 59 84 60 49 62 75 63 58 64 74 65 59 66 62 67
REMARK SMILES IDX 73 68 89 69 60 70 61 71 72 73 90 74 63 75 50 76 51 77 56 78
REMARK SMILES IDX 52 79 53 80 55 81 57 82 54 83 76 84 77 85 82 86 78 87 79 88
REMARK SMILES IDX 81 89 83 90 80 91 64 92 65 93 70 94 66 95 67 96 69 97 71 98
REMARK SMILES IDX 68 99
REMARK H PARENT 31 6 7 13 38 42 88 61 62 72
REMARK Flexibility Score: inf
ROOT
ATOM      1  C   UNL     1       1.789  -0.232   2.527  1.00  0.00     0.021 C 
ENDROOT
BRANCH   1   2
ATOM      2  C   UNL     1       2.202   1.226   2.342  1.00  0.00     0.116 C 
BRANCH   2   3
ATOM      3  N   UNL     1       3.631   1.383   2.122  1.00  0.00    -0.356 N 
ATOM      4  C   UNL     1       4.336   1.492   0.969  1.00  0.00     0.220 C 
ATOM      5  O   UNL     1       5.567   1.499   1.019  1.00  0.00    -0.275 OA
ATOM      6  H   UNL     1       4.173   1.417   2.942  1.00  0.00     0.163 HD
BRANCH   4   7
ATOM      7  C   UNL     1       3.609   1.641  -0.337  1.00  0.00     0.112 C 
BRANCH   7   8
ATOM      8  C   UNL     1       3.311   0.392  -1.154  1.00  0.00     0.138 C 
BRANCH   8   9
ATOM      9  C   UNL     1       3.182  -1.019  -0.571  1.00  0.00     0.308 C 
ATOM     10  O   UNL     1       2.371  -1.785  -1.094  1.00  0.00    -0.247 OA
ATOM     11  N   UNL     1       3.905  -1.419   0.524  1.00  0.00    -0.204 N 
ATOM     12  C   UNL     1       5.184  -1.569   0.494  1.00  0.00     0.319 C 
ATOM     13  H   UNL     1       3.428  -1.599   1.366  1.00  0.00     0.316 HD
ATOM     14  S   UNL     1       6.172  -1.155  -0.943  1.00  0.00    -0.029 SA
ATOM     15  N   UNL     1       6.025  -1.935   1.555  1.00  0.00    -0.217 N 
ATOM     16  C   UNL     1       7.693  -1.456  -0.047  1.00  0.00     0.120 C 
ATOM     17  C   UNL     1       7.325  -1.279   1.432  1.00  0.00     0.212 C 
ATOM     18  C   UNL     1       8.887  -0.561  -0.242  1.00  0.00     0.156 C 
ATOM     19  C   UNL     1       8.557  -1.789   2.150  1.00  0.00     0.188 C 
ATOM     20  S   UNL     1       9.884  -1.049   1.175  1.00  0.00     0.155 S 
ATOM     21  O   UNL     1      10.782  -2.103   0.760  1.00  0.00    -0.229 OA
ATOM     22  O   UNL     1      10.346   0.146   1.851  1.00  0.00    -0.229 OA
BRANCH  15  23
ATOM     23  C   UNL     1       5.657  -2.616   2.724  1.00  0.00     0.128 A 
ATOM     24  C   UNL     1       6.077  -2.202   3.998  1.00  0.00     0.056 A 
ATOM     25  C   UNL     1       4.863  -3.774   2.677  1.00  0.00     0.056 A 
ATOM     26  C   UNL     1       5.798  -2.951   5.151  1.00  0.00     0.051 A 
ATOM     27  C   UNL     1       4.564  -4.522   3.837  1.00  0.00     0.051 A 
ATOM     28  C   UNL     1       5.072  -4.139   5.077  1.00  0.00     0.127 A 
BRANCH  28  29
ATOM     29  O   UNL     1       4.893  -4.776   6.286  1.00  0.00    -0.457 OA
BRANCH  29  30
ATOM     30  C   UNL     1       4.344  -6.032   6.359  1.00  0.00     0.127 A 
ATOM     31  C   UNL     1       3.353  -6.225   7.322  1.00  0.00     0.047 A 
ATOM     32  C   UNL     1       4.790  -7.124   5.621  1.00  0.00     0.047 A 
ATOM     33  C   UNL     1       2.689  -7.446   7.437  1.00  0.00     0.004 A 
ATOM     34  C   UNL     1       4.148  -8.361   5.751  1.00  0.00     0.004 A 
ATOM     35  C   UNL     1       3.078  -8.513   6.636  1.00  0.00     0.000 A 
ENDBRANCH  29  30
ENDBRANCH  28  29
ENDBRANCH  15  23
ENDBRANCH   8   9
ENDBRANCH   7   8
ENDBRANCH   4   7
ENDBRANCH   2   3
ENDBRANCH   1   2
BRANCH   1  36
ATOM     36  C   UNL     1       2.711  -1.007   3.470  1.00  0.00     0.002 C 
BRANCH  36  37
ATOM     37  C   UNL     1       2.483  -0.722   4.950  1.00  0.00     0.002 C 
BRANCH  37  38
ATOM     38  C   UNL     1       1.073  -1.067   5.414  1.00  0.00     0.021 C 
BRANCH  38  39
ATOM     39  C   UNL     1       0.676  -2.503   5.089  1.00  0.00     0.116 C 
BRANCH  39  40
ATOM     40  N   UNL     1       1.385  -3.422   5.965  1.00  0.00    -0.352 N 
ATOM     41  C   UNL     1       0.854  -3.902   7.136  1.00  0.00     0.251 C 
ATOM     42  H   UNL     1       2.288  -3.714   5.705  1.00  0.00     0.163 HD
ATOM     43  O   UNL     1       1.504  -3.908   8.174  1.00  0.00    -0.269 OA
BRANCH  41  44
ATOM     44  C   UNL     1      -0.555  -4.343   7.132  1.00  0.00     0.039 A 
ATOM     45  C   UNL     1      -1.276  -4.251   8.321  1.00  0.00     0.014 A 
ATOM     46  C   UNL     1      -1.181  -4.741   5.945  1.00  0.00     0.014 A 
ATOM     47  C   UNL     1      -2.653  -4.423   8.293  1.00  0.00     0.010 A 
ATOM     48  C   UNL     1      -2.563  -4.790   5.894  1.00  0.00     0.010 A 
ATOM     49  C   UNL     1      -3.310  -4.606   7.065  1.00  0.00    -0.014 A 
BRANCH  49  50
ATOM     50  C   UNL     1      -4.784  -4.539   6.994  1.00  0.00     0.031 A 
ATOM     51  C   UNL     1      -5.569  -5.724   6.524  1.00  0.00     0.074 A 
ATOM     52  C   UNL     1      -5.393  -3.378   7.305  1.00  0.00     0.049 A 
ATOM     53  N   UNL     1      -6.864  -5.852   6.396  1.00  0.00    -0.248 NA
ATOM     54  C   UNL     1      -4.803  -6.912   6.113  1.00  0.00     0.031 C 
ATOM     55  C   UNL     1      -4.710  -2.141   7.701  1.00  0.00     0.029 A 
ATOM     56  N   UNL     1      -6.721  -3.046   7.347  1.00  0.00    -0.354 N 
ATOM     57  C   UNL     1      -7.064  -7.127   5.887  1.00  0.00     0.074 A 
ATOM     58  C   UNL     1      -5.760  -7.708   5.663  1.00  0.00     0.031 C 
ATOM     59  C   UNL     1      -5.626  -1.206   7.996  1.00  0.00     0.029 A 
ATOM     60  C   UNL     1      -6.955  -1.759   7.766  1.00  0.00     0.049 A 
ATOM     61  H   UNL     1      -7.441  -3.671   7.100  1.00  0.00     0.167 HD
ATOM     62  C   UNL     1      -8.235  -7.763   5.657  1.00  0.00     0.037 A 
ATOM     63  C   UNL     1      -8.115  -1.102   7.946  1.00  0.00     0.037 A 
ATOM     64  C   UNL     1      -9.524  -7.172   5.899  1.00  0.00     0.049 A 
ATOM     65  C   UNL     1      -9.400  -1.833   7.678  1.00  0.00     0.074 A 
ATOM     66  C   UNL     1     -10.774  -7.744   5.757  1.00  0.00     0.029 A 
ATOM     67  N   UNL     1      -9.724  -5.867   6.328  1.00  0.00    -0.354 N 
ATOM     68  N   UNL     1      -9.580  -3.070   7.282  1.00  0.00    -0.248 NA
ATOM     69  C   UNL     1     -10.643  -1.080   7.885  1.00  0.00     0.031 C 
ATOM     70  C   UNL     1     -11.733  -6.769   6.047  1.00  0.00     0.029 A 
ATOM     71  C   UNL     1     -11.079  -5.607   6.429  1.00  0.00     0.049 A 
ATOM     72  H   UNL     1      -9.008  -5.223   6.531  1.00  0.00     0.167 HD
ATOM     73  C   UNL     1     -10.954  -3.254   7.221  1.00  0.00     0.074 A 
ATOM     74  C   UNL     1     -11.559  -2.005   7.638  1.00  0.00     0.031 C 
ATOM     75  C   UNL     1     -11.655  -4.355   6.854  1.00  0.00     0.037 A 
BRANCH  62  76
ATOM     76  C   UNL     1      -8.167  -9.161   5.117  1.00  0.00     0.057 A 
ATOM     77  C   UNL     1      -7.682 -10.229   5.886  1.00  0.00     0.134 A 
ATOM     78  C   UNL     1      -8.606  -9.449   3.820  1.00  0.00     0.134 A 
ATOM     79  F   UNL     1      -7.229 -10.021   7.132  1.00  0.00    -0.206 F 
ATOM     80  C   UNL     1      -7.611 -11.526   5.373  1.00  0.00     0.040 A 
ATOM     81  C   UNL     1      -8.568 -10.747   3.307  1.00  0.00     0.040 A 
ATOM     82  F   UNL     1      -9.082  -8.475   3.030  1.00  0.00    -0.206 F 
ATOM     83  C   UNL     1      -8.062 -11.788   4.082  1.00  0.00     0.006 A 
ENDBRANCH  62  76
BRANCH  63  84
ATOM     84  C   UNL     1      -8.116   0.303   8.428  1.00  0.00     0.057 A 
ATOM     85  C   UNL     1      -8.607   0.633   9.697  1.00  0.00     0.134 A 
ATOM     86  C   UNL     1      -7.639   1.352   7.632  1.00  0.00     0.134 A 
ATOM     87  F   UNL     1      -9.090  -0.324  10.503  1.00  0.00    -0.206 F 
ATOM     88  C   UNL     1      -8.649   1.954  10.146  1.00  0.00     0.040 A 
ATOM     89  C   UNL     1      -7.648   2.674   8.079  1.00  0.00     0.040 A 
ATOM     90  F   UNL     1      -7.142   1.104   6.411  1.00  0.00    -0.206 F 
ATOM     91  C   UNL     1      -8.165   2.979   9.337  1.00  0.00     0.006 A 
ENDBRANCH  63  84
BRANCH  75  92
ATOM     92  C   UNL     1     -13.151  -4.267   6.924  1.00  0.00     0.057 A 
ATOM     93  C   UNL     1     -13.891  -3.493   6.021  1.00  0.00     0.134 A 
ATOM     94  C   UNL     1     -13.860  -5.001   7.883  1.00  0.00     0.134 A 
ATOM     95  F   UNL     1     -13.270  -2.756   5.087  1.00  0.00    -0.206 F 
ATOM     96  C   UNL     1     -15.284  -3.433   6.087  1.00  0.00     0.040 A 
ATOM     97  C   UNL     1     -15.254  -4.973   7.938  1.00  0.00     0.040 A 
ATOM     98  F   UNL     1     -13.211  -5.770   8.771  1.00  0.00    -0.206 F 
ATOM     99  C   UNL     1     -15.969  -4.181   7.042  1.00  0.00     0.006 A 
ENDBRANCH  75  92
ENDBRANCH  49  50
ENDBRANCH  41  44
ENDBRANCH  39  40
ENDBRANCH  38  39
ENDBRANCH  37  38
ENDBRANCH  36  37
ENDBRANCH   1  36
TORSDOF 18
