REMARK SMILES N#Cc1ccn2cc(C(=O)NCCCCCCNC(=O)c3ccc(-c4c5nc(c(-c6c(F)cccc6F)c6ccc([nH]6)c(-c6c(F)cccc6F)c6nc(c(-c7c(F)cccc7F)c7ccc4[nH]7)C=C6)C=C5)cc3)nc2c1
REMARK SMILES IDX 15 1 14 2 13 3 12 4 11 5 9 6 10 7 8 9 3 10 4 11 77 12 5 13
REMARK SMILES IDX 76 14 6 15 75 16 7 17 2 18 1 19 16 20 17 21 18 22 19 23
REMARK SMILES IDX 20 25 21 26 22 27 74 28 23 29 73 30 24 31 25 32 26 33 67 34
REMARK SMILES IDX 27 35 72 36 66 37 68 38 28 39 71 40 65 41 64 42 29 44 55 45
REMARK SMILES IDX 38 46 54 47 39 48 42 49 53 50 69 51 40 52 41 53 52 55 70 56
REMARK SMILES IDX 43 57 30 58 31 59 36 60 32 61 33 62 35 63 37 64 34 65 56 66
REMARK SMILES IDX 57 67 62 68 58 69 59 70 61 71 63 72 60 73 44 74 45 75 50 76
REMARK SMILES IDX 46 77 47 78 49 79 51 80 48 81
REMARK H PARENT 11 8 18 24 68 43 42 54
REMARK Flexibility Score: inf
ROOT
ATOM      1  C   UNL     1       9.307   7.612  -0.032  1.00  0.00     0.002 C 
ENDROOT
BRANCH   1   2
ATOM      2  C   UNL     1       9.396   6.566   1.086  1.00  0.00     0.002 C 
BRANCH   2   3
ATOM      3  C   UNL     1       8.259   5.541   1.102  1.00  0.00     0.021 C 
BRANCH   3   4
ATOM      4  C   UNL     1       8.186   4.688  -0.162  1.00  0.00     0.116 C 
BRANCH   4   5
ATOM      5  N   UNL     1       9.261   3.710  -0.203  1.00  0.00    -0.351 N 
ATOM      6  C   UNL     1       9.237   2.339  -0.159  1.00  0.00     0.271 C 
ATOM      7  O   UNL     1      10.324   1.744  -0.187  1.00  0.00    -0.267 OA
ATOM      8  H   UNL     1      10.163   4.099  -0.274  1.00  0.00     0.163 HD
BRANCH   6   9
ATOM      9  C   UNL     1       7.972   1.605  -0.102  1.00  0.00     0.147 A 
ATOM     10  C   UNL     1       3.772   0.043  -0.090  1.00  0.00     0.057 A 
ATOM     11  C   UNL     1       4.473  -1.242  -0.096  1.00  0.00     0.038 A 
ATOM     12  C   UNL     1       4.439   1.211  -0.075  1.00  0.00     0.067 A 
ATOM     13  C   UNL     1       5.818  -1.250  -0.093  1.00  0.00     0.094 A 
ATOM     14  C   UNL     1       5.858   1.196  -0.072  1.00  0.00     0.138 A 
ATOM     15  N   UNL     1       6.499  -0.035  -0.085  1.00  0.00    -0.306 N 
ATOM     16  N   UNL     1       6.718   2.182  -0.067  1.00  0.00    -0.223 NA
ATOM     17  C   UNL     1       7.843   0.225  -0.096  1.00  0.00     0.127 A 
BRANCH  10  18
ATOM     18  C   UNL     1       2.252   0.043  -0.090  1.00  0.00     0.099 C 
ATOM     19  N   UNL     1       0.991   0.043  -0.090  1.00  0.00    -0.192 NA
ENDBRANCH  10  18
ENDBRANCH   6   9
ENDBRANCH   4   5
ENDBRANCH   3   4
ENDBRANCH   2   3
ENDBRANCH   1   2
BRANCH   1  20
ATOM     20  C   UNL     1       8.005   8.425  -0.075  1.00  0.00     0.021 C 
BRANCH  20  21
ATOM     21  C   UNL     1       7.660   9.136   1.235  1.00  0.00     0.116 C 
BRANCH  21  22
ATOM     22  N   UNL     1       8.726   9.997   1.704  1.00  0.00    -0.352 N 
ATOM     23  C   UNL     1       9.053  11.313   1.546  1.00  0.00     0.251 C 
ATOM     24  H   UNL     1       9.370   9.518   2.274  1.00  0.00     0.163 HD
ATOM     25  O   UNL     1      10.027  11.707   2.193  1.00  0.00    -0.269 OA
BRANCH  23  26
ATOM     26  C   UNL     1       8.371  12.273   0.635  1.00  0.00     0.039 A 
ATOM     27  C   UNL     1       7.345  11.960  -0.255  1.00  0.00     0.014 A 
ATOM     28  C   UNL     1       8.888  13.584   0.625  1.00  0.00     0.014 A 
ATOM     29  C   UNL     1       6.921  12.897  -1.193  1.00  0.00     0.010 A 
ATOM     30  C   UNL     1       8.458  14.529  -0.302  1.00  0.00     0.010 A 
ATOM     31  C   UNL     1       7.514  14.163  -1.252  1.00  0.00    -0.014 A 
BRANCH  31  32
ATOM     32  C   UNL     1       7.110  15.042  -2.345  1.00  0.00     0.031 A 
ATOM     33  C   UNL     1       5.649  15.308  -2.466  1.00  0.00     0.074 A 
ATOM     34  C   UNL     1       7.963  15.582  -3.238  1.00  0.00     0.049 A 
ATOM     35  N   UNL     1       4.835  14.858  -3.366  1.00  0.00    -0.248 NA
ATOM     36  C   UNL     1       5.002  16.094  -1.409  1.00  0.00     0.031 C 
ATOM     37  C   UNL     1       9.426  15.652  -3.206  1.00  0.00     0.029 A 
ATOM     38  N   UNL     1       7.649  16.238  -4.392  1.00  0.00    -0.354 N 
ATOM     39  C   UNL     1       3.593  15.422  -3.087  1.00  0.00     0.074 A 
ATOM     40  C   UNL     1       3.731  16.092  -1.817  1.00  0.00     0.031 C 
ATOM     41  C   UNL     1       9.857  16.479  -4.188  1.00  0.00     0.029 A 
ATOM     42  C   UNL     1       8.720  16.863  -5.007  1.00  0.00     0.049 A 
ATOM     43  H   UNL     1       6.735  16.264  -4.758  1.00  0.00     0.167 HD
ATOM     44  C   UNL     1       2.584  15.433  -4.003  1.00  0.00     0.037 A 
ATOM     45  C   UNL     1       8.671  17.659  -6.101  1.00  0.00     0.037 A 
ATOM     46  C   UNL     1       2.808  14.483  -5.060  1.00  0.00     0.049 A 
ATOM     47  C   UNL     1       7.438  17.321  -6.852  1.00  0.00     0.074 A 
ATOM     48  C   UNL     1       2.919  13.108  -5.138  1.00  0.00     0.029 A 
ATOM     49  N   UNL     1       3.270  14.951  -6.265  1.00  0.00    -0.354 N 
ATOM     50  N   UNL     1       7.263  16.193  -7.482  1.00  0.00    -0.248 NA
ATOM     51  C   UNL     1       6.223  18.058  -6.543  1.00  0.00     0.031 C 
ATOM     52  C   UNL     1       3.896  12.873  -6.151  1.00  0.00     0.029 A 
ATOM     53  C   UNL     1       4.291  14.118  -6.641  1.00  0.00     0.049 A 
ATOM     54  H   UNL     1       2.933  15.731  -6.761  1.00  0.00     0.167 HD
ATOM     55  C   UNL     1       5.929  15.875  -7.275  1.00  0.00     0.074 A 
ATOM     56  C   UNL     1       5.319  17.102  -6.769  1.00  0.00     0.031 C 
ATOM     57  C   UNL     1       5.502  14.577  -7.276  1.00  0.00     0.037 A 
BRANCH  44  58
ATOM     58  C   UNL     1       1.555  16.527  -4.134  1.00  0.00     0.057 A 
ATOM     59  C   UNL     1       1.764  17.848  -3.693  1.00  0.00     0.134 A 
ATOM     60  C   UNL     1       0.463  16.349  -5.005  1.00  0.00     0.134 A 
ATOM     61  F   UNL     1       2.798  18.183  -2.912  1.00  0.00    -0.206 F 
ATOM     62  C   UNL     1       0.977  18.920  -4.123  1.00  0.00     0.040 A 
ATOM     63  C   UNL     1      -0.301  17.423  -5.478  1.00  0.00     0.040 A 
ATOM     64  F   UNL     1       0.160  15.136  -5.492  1.00  0.00    -0.206 F 
ATOM     65  C   UNL     1      -0.035  18.716  -5.047  1.00  0.00     0.006 A 
ENDBRANCH  44  58
BRANCH  45  66
ATOM     66  C   UNL     1       9.458  18.881  -6.359  1.00  0.00     0.057 A 
ATOM     67  C   UNL     1       9.886  19.698  -5.297  1.00  0.00     0.134 A 
ATOM     68  C   UNL     1       9.579  19.425  -7.644  1.00  0.00     0.134 A 
ATOM     69  F   UNL     1       9.736  19.308  -4.022  1.00  0.00    -0.206 F 
ATOM     70  C   UNL     1      10.397  20.983  -5.498  1.00  0.00     0.040 A 
ATOM     71  C   UNL     1      10.087  20.714  -7.860  1.00  0.00     0.040 A 
ATOM     72  F   UNL     1       9.152  18.741  -8.716  1.00  0.00    -0.206 F 
ATOM     73  C   UNL     1      10.489  21.500  -6.783  1.00  0.00     0.006 A 
ENDBRANCH  45  66
BRANCH  57  74
ATOM     74  C   UNL     1       6.483  13.530  -7.718  1.00  0.00     0.057 A 
ATOM     75  C   UNL     1       6.176  12.721  -8.816  1.00  0.00     0.134 A 
ATOM     76  C   UNL     1       7.655  13.223  -7.010  1.00  0.00     0.134 A 
ATOM     77  F   UNL     1       5.038  12.912  -9.501  1.00  0.00    -0.206 F 
ATOM     78  C   UNL     1       7.009  11.669  -9.209  1.00  0.00     0.040 A 
ATOM     79  C   UNL     1       8.512  12.194  -7.411  1.00  0.00     0.040 A 
ATOM     80  F   UNL     1       7.971  13.874  -5.884  1.00  0.00    -0.206 F 
ATOM     81  C   UNL     1       8.189  11.412  -8.514  1.00  0.00     0.006 A 
ENDBRANCH  57  74
ENDBRANCH  31  32
ENDBRANCH  23  26
ENDBRANCH  21  22
ENDBRANCH  20  21
ENDBRANCH   1  20
TORSDOF 14
