REMARK SMILES N#C[C@H]1CN(c2cc(C(=O)NCCCCCCNC(=O)c3ccc(-c4c5nc(c(-c6c(F)cccc6F)c6ccc([nH]6)c(-c6c(F)cccc6F)c6nc(c(-c7c(F)cccc7F)c7ccc4[nH]7)C=C6)C=C5)cc3)c(N)cc2F)CCO1
REMARK SMILES IDX 14 1 13 2 12 3 11 4 9 5 10 6 8 8 6 9 7 10 78 11 77 12 79 13
REMARK SMILES IDX 75 14 5 15 3 16 4 17 82 18 81 19 80 20 2 21 1 22 76 23 15 26
REMARK SMILES IDX 16 27 17 28 18 29 19 30 20 32 21 33 22 34 74 35 23 36 73 37
REMARK SMILES IDX 24 38 25 39 26 40 67 41 27 42 72 43 66 44 68 45 28 46 71 47
REMARK SMILES IDX 65 48 64 49 29 51 55 52 38 53 54 54 39 55 42 56 53 57 69 58
REMARK SMILES IDX 40 59 41 60 52 62 70 63 43 64 30 65 31 66 36 67 32 68 33 69
REMARK SMILES IDX 35 70 37 71 34 72 56 73 57 74 62 75 58 76 59 77 61 78 63 79
REMARK SMILES IDX 60 80 44 81 45 82 50 83 46 84 47 85 49 86 51 87 48 88
REMARK H PARENT 11 7 76 24 76 25 18 31 68 50 42 61
REMARK Flexibility Score: inf
ROOT
ATOM      1  C   UNL     1       1.098   8.168  -6.766  1.00  0.00     0.002 C 
ENDROOT
BRANCH   1   2
ATOM      2  C   UNL     1       0.573   7.055  -5.855  1.00  0.00     0.021 C 
BRANCH   2   3
ATOM      3  C   UNL     1       1.255   5.701  -5.986  1.00  0.00     0.116 C 
BRANCH   3   4
ATOM      4  N   UNL     1       2.661   5.679  -5.644  1.00  0.00    -0.352 N 
ATOM      5  C   UNL     1       3.437   4.651  -5.156  1.00  0.00     0.253 C 
ATOM      6  O   UNL     1       4.636   4.880  -4.983  1.00  0.00    -0.269 OA
ATOM      7  H   UNL     1       3.136   6.530  -5.783  1.00  0.00     0.163 HD
BRANCH   5   8
ATOM      8  C   UNL     1       2.893   3.310  -4.761  1.00  0.00     0.065 A 
ATOM      9  C   UNL     1       3.181   1.424  -3.204  1.00  0.00     0.074 A 
ATOM     10  C   UNL     1       3.550   2.693  -3.666  1.00  0.00     0.045 A 
ATOM     11  C   UNL     1       2.021   0.866  -3.752  1.00  0.00     0.148 A 
ATOM     12  C   UNL     1       1.366   1.443  -4.830  1.00  0.00     0.067 A 
ATOM     13  F   UNL     1       1.546  -0.297  -3.275  1.00  0.00    -0.205 F 
ATOM     14  C   UNL     1       1.872   2.601  -5.425  1.00  0.00     0.047 A 
BRANCH   9  15
ATOM     15  N   UNL     1       3.981   0.720  -2.332  1.00  0.00    -0.363 N 
ATOM     16  C   UNL     1       3.823   0.132   0.054  1.00  0.00     0.240 C 
ATOM     17  C   UNL     1       4.318   1.177  -0.980  1.00  0.00     0.164 C 
ATOM     18  O   UNL     1       4.310  -1.197  -0.265  1.00  0.00    -0.360 OA
ATOM     19  C   UNL     1       3.857  -1.608  -1.567  1.00  0.00     0.183 C 
ATOM     20  C   UNL     1       4.372  -0.659  -2.654  1.00  0.00     0.145 C 
BRANCH  16  21
ATOM     21  C   UNL     1       4.274   0.516   1.405  1.00  0.00     0.096 C 
ATOM     22  N   UNL     1       4.619   0.837   2.464  1.00  0.00    -0.195 NA
ENDBRANCH  16  21
ENDBRANCH   9  15
BRANCH  14  23
ATOM     23  N   UNL     1       1.344   2.951  -6.663  1.00  0.00    -0.398 N 
ATOM     24  H   UNL     1       1.666   3.759  -7.125  1.00  0.00     0.156 HD
ATOM     25  H   UNL     1       0.648   2.392  -7.077  1.00  0.00     0.156 HD
ENDBRANCH  14  23
ENDBRANCH   5   8
ENDBRANCH   3   4
ENDBRANCH   2   3
ENDBRANCH   1   2
BRANCH   1  26
ATOM     26  C   UNL     1       1.203   7.847  -8.260  1.00  0.00     0.002 C 
BRANCH  26  27
ATOM     27  C   UNL     1      -0.059   7.301  -8.931  1.00  0.00     0.021 C 
BRANCH  27  28
ATOM     28  C   UNL     1      -1.325   8.120  -8.716  1.00  0.00     0.116 C 
BRANCH  28  29
ATOM     29  N   UNL     1      -1.203   9.485  -9.198  1.00  0.00    -0.352 N 
ATOM     30  C   UNL     1      -2.026  10.190 -10.041  1.00  0.00     0.251 C 
ATOM     31  H   UNL     1      -0.415   9.977  -8.872  1.00  0.00     0.163 HD
ATOM     32  O   UNL     1      -1.683  11.289 -10.465  1.00  0.00    -0.269 OA
BRANCH  30  33
ATOM     33  C   UNL     1      -3.319   9.609 -10.461  1.00  0.00     0.039 A 
ATOM     34  C   UNL     1      -3.691   9.690 -11.805  1.00  0.00     0.014 A 
ATOM     35  C   UNL     1      -4.159   8.983  -9.536  1.00  0.00     0.014 A 
ATOM     36  C   UNL     1      -4.876   9.087 -12.232  1.00  0.00     0.010 A 
ATOM     37  C   UNL     1      -5.292   8.308  -9.977  1.00  0.00     0.010 A 
ATOM     38  C   UNL     1      -5.667   8.358 -11.328  1.00  0.00    -0.014 A 
BRANCH  38  39
ATOM     39  C   UNL     1      -6.892   7.647 -11.774  1.00  0.00     0.031 A 
ATOM     40  C   UNL     1      -8.235   8.036 -11.220  1.00  0.00     0.074 A 
ATOM     41  C   UNL     1      -6.791   6.614 -12.631  1.00  0.00     0.049 A 
ATOM     42  N   UNL     1      -9.409   7.500 -11.440  1.00  0.00    -0.248 NA
ATOM     43  C   UNL     1      -8.256   9.159 -10.270  1.00  0.00     0.031 C 
ATOM     44  C   UNL     1      -5.544   6.119 -13.217  1.00  0.00     0.029 A 
ATOM     45  N   UNL     1      -7.755   5.791 -13.158  1.00  0.00    -0.354 N 
ATOM     46  C   UNL     1     -10.303   8.216 -10.655  1.00  0.00     0.074 A 
ATOM     47  C   UNL     1      -9.525   9.172  -9.896  1.00  0.00     0.031 C 
ATOM     48  C   UNL     1      -5.823   5.105 -14.051  1.00  0.00     0.029 A 
ATOM     49  C   UNL     1      -7.259   4.845 -14.021  1.00  0.00     0.049 A 
ATOM     50  H   UNL     1      -8.711   5.872 -12.938  1.00  0.00     0.167 HD
ATOM     51  C   UNL     1     -11.652   8.109 -10.591  1.00  0.00     0.037 A 
ATOM     52  C   UNL     1      -7.890   3.873 -14.706  1.00  0.00     0.037 A 
ATOM     53  C   UNL     1     -12.421   7.152 -11.344  1.00  0.00     0.049 A 
ATOM     54  C   UNL     1      -9.381   3.729 -14.571  1.00  0.00     0.074 A 
ATOM     55  C   UNL     1     -13.793   6.979 -11.375  1.00  0.00     0.029 A 
ATOM     56  N   UNL     1     -11.879   6.192 -12.188  1.00  0.00    -0.354 N 
ATOM     57  N   UNL     1     -10.223   4.449 -13.870  1.00  0.00    -0.248 NA
ATOM     58  C   UNL     1     -10.009   2.635 -15.325  1.00  0.00     0.031 C 
ATOM     59  C   UNL     1     -14.077   5.875 -12.185  1.00  0.00     0.029 A 
ATOM     60  C   UNL     1     -12.887   5.404 -12.720  1.00  0.00     0.049 A 
ATOM     61  H   UNL     1     -10.919   6.087 -12.382  1.00  0.00     0.167 HD
ATOM     62  C   UNL     1     -11.483   3.924 -14.130  1.00  0.00     0.074 A 
ATOM     63  C   UNL     1     -11.293   2.828 -15.058  1.00  0.00     0.031 C 
ATOM     64  C   UNL     1     -12.688   4.318 -13.647  1.00  0.00     0.037 A 
BRANCH  51  65
ATOM     65  C   UNL     1     -12.371   9.047  -9.659  1.00  0.00     0.057 A 
ATOM     66  C   UNL     1     -12.396  10.433  -9.874  1.00  0.00     0.134 A 
ATOM     67  C   UNL     1     -13.040   8.561  -8.529  1.00  0.00     0.134 A 
ATOM     68  F   UNL     1     -11.769  10.970 -10.932  1.00  0.00    -0.206 F 
ATOM     69  C   UNL     1     -13.013  11.303  -8.973  1.00  0.00     0.040 A 
ATOM     70  C   UNL     1     -13.694   9.418  -7.641  1.00  0.00     0.040 A 
ATOM     71  F   UNL     1     -13.069   7.247  -8.265  1.00  0.00    -0.206 F 
ATOM     72  C   UNL     1     -13.669  10.795  -7.854  1.00  0.00     0.006 A 
ENDBRANCH  51  65
BRANCH  52  73
ATOM     73  C   UNL     1      -7.119   2.982 -15.611  1.00  0.00     0.057 A 
ATOM     74  C   UNL     1      -7.286   3.053 -17.000  1.00  0.00     0.134 A 
ATOM     75  C   UNL     1      -6.200   2.047 -15.120  1.00  0.00     0.134 A 
ATOM     76  F   UNL     1      -8.163   3.916 -17.531  1.00  0.00    -0.206 F 
ATOM     77  C   UNL     1      -6.582   2.214 -17.865  1.00  0.00     0.040 A 
ATOM     78  C   UNL     1      -5.468   1.222 -15.975  1.00  0.00     0.040 A 
ATOM     79  F   UNL     1      -5.987   1.935 -13.800  1.00  0.00    -0.206 F 
ATOM     80  C   UNL     1      -5.664   1.300 -17.352  1.00  0.00     0.006 A 
ENDBRANCH  52  73
BRANCH  64  81
ATOM     81  C   UNL     1     -13.905   3.593 -14.151  1.00  0.00     0.057 A 
ATOM     82  C   UNL     1     -14.183   2.265 -13.802  1.00  0.00     0.134 A 
ATOM     83  C   UNL     1     -14.836   4.253 -14.965  1.00  0.00     0.134 A 
ATOM     84  F   UNL     1     -13.329   1.569 -13.036  1.00  0.00    -0.206 F 
ATOM     85  C   UNL     1     -15.327   1.612 -14.266  1.00  0.00     0.040 A 
ATOM     86  C   UNL     1     -16.000   3.622 -15.406  1.00  0.00     0.040 A 
ATOM     87  F   UNL     1     -14.639   5.529 -15.330  1.00  0.00    -0.206 F 
ATOM     88  C   UNL     1     -16.244   2.295 -15.063  1.00  0.00     0.006 A 
ENDBRANCH  64  81
ENDBRANCH  38  39
ENDBRANCH  30  33
ENDBRANCH  28  29
ENDBRANCH  27  28
ENDBRANCH  26  27
ENDBRANCH   1  26
TORSDOF 16
