REMARK SMILES O=C(C[NH+]1CCC(C(=O)NCCCCCCNC(=O)c2ccc(-c3c4nc(c(-c5c(F)cccc5F)c5ccc([nH]5)c(-c5c(F)cccc5F)c5nc(c(-c6c(F)cccc6F)c6ccc3[nH]6)C=C5)C=C4)cc2)CC1)Nc1ccccc1Oc1ccccc1
REMARK SMILES IDX 12 1 11 2 10 3 8 4 9 5 7 7 4 8 5 9 75 10 6 12 74 13 3 14
REMARK SMILES IDX 2 15 1 16 76 17 77 19 78 20 82 21 79 22 81 23 80 24 83 25
REMARK SMILES IDX 84 26 85 27 89 28 86 29 88 30 87 31 13 32 14 33 15 34 16 35
REMARK SMILES IDX 17 36 18 37 19 39 20 40 21 41 73 42 22 43 72 44 23 45 24 46
REMARK SMILES IDX 25 47 66 48 26 49 71 50 65 51 67 52 27 53 70 54 64 55 63 56
REMARK SMILES IDX 28 58 54 59 37 60 53 61 38 62 41 63 52 64 68 65 39 66 40 67
REMARK SMILES IDX 51 69 69 70 42 71 29 72 30 73 35 74 31 75 32 76 34 77 36 78
REMARK SMILES IDX 33 79 55 80 56 81 61 82 57 83 58 84 60 85 62 86 59 87 43 88
REMARK SMILES IDX 44 89 49 90 45 91 46 92 48 93 50 94 47 95
REMARK H PARENT 10 6 4 11 76 18 17 38 67 57 41 68
REMARK Flexibility Score: inf
ROOT
ATOM      1  C   UNL     1       6.936  -5.174   2.901  1.00  0.00     0.021 C 
ENDROOT
BRANCH   1   2
ATOM      2  C   UNL     1       6.948  -4.427   1.573  1.00  0.00     0.116 C 
BRANCH   2   3
ATOM      3  N   UNL     1       6.870  -5.357   0.458  1.00  0.00    -0.356 N 
ATOM      4  C   UNL     1       5.950  -5.472  -0.536  1.00  0.00     0.223 C 
ATOM      5  O   UNL     1       6.068  -6.398  -1.341  1.00  0.00    -0.275 OA
ATOM      6  H   UNL     1       7.605  -6.012   0.417  1.00  0.00     0.163 HD
BRANCH   4   7
ATOM      7  C   UNL     1       4.840  -4.451  -0.682  1.00  0.00     0.089 C 
ATOM      8  N   UNL     1       3.817  -2.055   0.564  1.00  0.00    -0.327 N 
ATOM      9  C   UNL     1       2.977  -3.259   0.589  1.00  0.00     0.263 C 
ATOM     10  C   UNL     1       4.507  -1.942  -0.723  1.00  0.00     0.263 C 
ATOM     11  H   UNL     1       4.532  -2.134   1.288  1.00  0.00     0.348 HD
ATOM     12  C   UNL     1       3.840  -4.511   0.481  1.00  0.00     0.075 C 
ATOM     13  C   UNL     1       5.469  -3.082  -0.957  1.00  0.00     0.075 C 
BRANCH   8  14
ATOM     14  C   UNL     1       3.013  -0.848   0.875  1.00  0.00     0.363 C 
BRANCH  14  15
ATOM     15  C   UNL     1       2.031  -0.466  -0.241  1.00  0.00     0.279 C 
ATOM     16  O   UNL     1       0.890  -0.918  -0.302  1.00  0.00    -0.268 OA
ATOM     17  N   UNL     1       2.622   0.355  -1.191  1.00  0.00    -0.318 N 
ATOM     18  H   UNL     1       3.569   0.598  -1.071  1.00  0.00     0.170 HD
BRANCH  17  19
ATOM     19  C   UNL     1       1.950   0.859  -2.310  1.00  0.00     0.084 A 
ATOM     20  C   UNL     1       2.469   0.457  -3.552  1.00  0.00     0.030 A 
ATOM     21  C   UNL     1       0.860   1.738  -2.249  1.00  0.00     0.150 A 
ATOM     22  C   UNL     1       1.852   0.847  -4.738  1.00  0.00     0.002 A 
ATOM     23  C   UNL     1       0.256   2.125  -3.456  1.00  0.00     0.049 A 
ATOM     24  C   UNL     1       0.738   1.676  -4.689  1.00  0.00     0.004 A 
BRANCH  21  25
ATOM     25  O   UNL     1       0.278   2.331  -1.144  1.00  0.00    -0.455 OA
BRANCH  25  26
ATOM     26  C   UNL     1       0.914   2.357   0.071  1.00  0.00     0.127 A 
ATOM     27  C   UNL     1       0.225   1.789   1.145  1.00  0.00     0.047 A 
ATOM     28  C   UNL     1       2.168   2.938   0.274  1.00  0.00     0.047 A 
ATOM     29  C   UNL     1       0.827   1.709   2.401  1.00  0.00     0.004 A 
ATOM     30  C   UNL     1       2.772   2.852   1.532  1.00  0.00     0.004 A 
ATOM     31  C   UNL     1       2.107   2.227   2.591  1.00  0.00     0.000 A 
ENDBRANCH  25  26
ENDBRANCH  21  25
ENDBRANCH  17  19
ENDBRANCH  14  15
ENDBRANCH   8  14
ENDBRANCH   4   7
ENDBRANCH   2   3
ENDBRANCH   1   2
BRANCH   1  32
ATOM     32  C   UNL     1       8.153  -6.083   3.090  1.00  0.00     0.002 C 
BRANCH  32  33
ATOM     33  C   UNL     1       9.501  -5.370   2.941  1.00  0.00     0.002 C 
BRANCH  33  34
ATOM     34  C   UNL     1       9.690  -4.170   3.873  1.00  0.00     0.021 C 
BRANCH  34  35
ATOM     35  C   UNL     1       9.494  -4.493   5.349  1.00  0.00     0.116 C 
BRANCH  35  36
ATOM     36  N   UNL     1      10.397  -5.538   5.799  1.00  0.00    -0.352 N 
ATOM     37  C   UNL     1      11.202  -5.568   6.904  1.00  0.00     0.251 C 
ATOM     38  H   UNL     1      10.435  -6.339   5.227  1.00  0.00     0.163 HD
ATOM     39  O   UNL     1      12.057  -6.445   7.024  1.00  0.00    -0.269 OA
BRANCH  37  40
ATOM     40  C   UNL     1      11.052  -4.535   7.945  1.00  0.00     0.039 A 
ATOM     41  C   UNL     1      12.201  -3.969   8.500  1.00  0.00     0.014 A 
ATOM     42  C   UNL     1       9.785  -4.135   8.381  1.00  0.00     0.014 A 
ATOM     43  C   UNL     1      12.078  -2.975   9.468  1.00  0.00     0.010 A 
ATOM     44  C   UNL     1       9.664  -3.085   9.284  1.00  0.00     0.010 A 
ATOM     45  C   UNL     1      10.809  -2.508   9.851  1.00  0.00    -0.014 A 
BRANCH  45  46
ATOM     46  C   UNL     1      10.676  -1.422  10.851  1.00  0.00     0.031 A 
ATOM     47  C   UNL     1      10.005  -1.679  12.171  1.00  0.00     0.074 A 
ATOM     48  C   UNL     1      11.126  -0.190  10.549  1.00  0.00     0.049 A 
ATOM     49  N   UNL     1       9.819  -0.860  13.175  1.00  0.00    -0.248 NA
ATOM     50  C   UNL     1       9.440  -3.021  12.379  1.00  0.00     0.031 C 
ATOM     51  C   UNL     1      11.723   0.201   9.271  1.00  0.00     0.029 A 
ATOM     52  N   UNL     1      11.147   0.962  11.294  1.00  0.00    -0.354 N 
ATOM     53  C   UNL     1       9.104  -1.581  14.122  1.00  0.00     0.074 A 
ATOM     54  C   UNL     1       8.836  -2.881  13.549  1.00  0.00     0.031 C 
ATOM     55  C   UNL     1      12.081   1.493   9.332  1.00  0.00     0.029 A 
ATOM     56  C   UNL     1      11.712   2.028  10.639  1.00  0.00     0.049 A 
ATOM     57  H   UNL     1      10.791   1.018  12.210  1.00  0.00     0.167 HD
ATOM     58  C   UNL     1       8.728  -1.203  15.367  1.00  0.00     0.037 A 
ATOM     59  C   UNL     1      11.914   3.294  11.047  1.00  0.00     0.037 A 
ATOM     60  C   UNL     1       9.019   0.086  15.938  1.00  0.00     0.049 A 
ATOM     61  C   UNL     1      11.522   3.685  12.443  1.00  0.00     0.074 A 
ATOM     62  C   UNL     1       8.763   0.540  17.219  1.00  0.00     0.029 A 
ATOM     63  N   UNL     1       9.622   1.133  15.255  1.00  0.00    -0.354 N 
ATOM     64  N   UNL     1      10.943   2.961  13.371  1.00  0.00    -0.248 NA
ATOM     65  C   UNL     1      11.825   5.061  12.856  1.00  0.00     0.031 C 
ATOM     66  C   UNL     1       9.158   1.881  17.294  1.00  0.00     0.029 A 
ATOM     67  C   UNL     1       9.716   2.244  16.078  1.00  0.00     0.049 A 
ATOM     68  H   UNL     1       9.937   1.093  14.323  1.00  0.00     0.167 HD
ATOM     69  C   UNL     1      10.832   3.784  14.483  1.00  0.00     0.074 A 
ATOM     70  C   UNL     1      11.418   5.058  14.118  1.00  0.00     0.031 C 
ATOM     71  C   UNL     1      10.296   3.509  15.698  1.00  0.00     0.037 A 
BRANCH  58  72
ATOM     72  C   UNL     1       7.953  -2.197  16.186  1.00  0.00     0.057 A 
ATOM     73  C   UNL     1       8.528  -3.386  16.656  1.00  0.00     0.134 A 
ATOM     74  C   UNL     1       6.612  -1.959  16.513  1.00  0.00     0.134 A 
ATOM     75  F   UNL     1       9.806  -3.683  16.372  1.00  0.00    -0.206 F 
ATOM     76  C   UNL     1       7.788  -4.320  17.384  1.00  0.00     0.040 A 
ATOM     77  C   UNL     1       5.871  -2.870  17.268  1.00  0.00     0.040 A 
ATOM     78  F   UNL     1       5.998  -0.839  16.103  1.00  0.00    -0.206 F 
ATOM     79  C   UNL     1       6.455  -4.060  17.695  1.00  0.00     0.006 A 
ENDBRANCH  58  72
BRANCH  59  80
ATOM     80  C   UNL     1      12.553   4.264  10.123  1.00  0.00     0.057 A 
ATOM     81  C   UNL     1      13.866   4.702  10.326  1.00  0.00     0.134 A 
ATOM     82  C   UNL     1      11.880   4.742   8.993  1.00  0.00     0.134 A 
ATOM     83  F   UNL     1      14.558   4.289  11.398  1.00  0.00    -0.206 F 
ATOM     84  C   UNL     1      14.485   5.589   9.443  1.00  0.00     0.040 A 
ATOM     85  C   UNL     1      12.494   5.609   8.088  1.00  0.00     0.040 A 
ATOM     86  F   UNL     1      10.623   4.348   8.736  1.00  0.00    -0.206 F 
ATOM     87  C   UNL     1      13.800   6.038   8.315  1.00  0.00     0.006 A 
ENDBRANCH  59  80
BRANCH  71  88
ATOM     88  C   UNL     1      10.338   4.597  16.731  1.00  0.00     0.057 A 
ATOM     89  C   UNL     1       9.530   5.738  16.640  1.00  0.00     0.134 A 
ATOM     90  C   UNL     1      11.167   4.480  17.855  1.00  0.00     0.134 A 
ATOM     91  F   UNL     1       8.722   5.917  15.585  1.00  0.00    -0.206 F 
ATOM     92  C   UNL     1       9.563   6.734  17.618  1.00  0.00     0.040 A 
ATOM     93  C   UNL     1      11.187   5.455  18.852  1.00  0.00     0.040 A 
ATOM     94  F   UNL     1      11.959   3.409  18.008  1.00  0.00    -0.206 F 
ATOM     95  C   UNL     1      10.388   6.590  18.732  1.00  0.00     0.006 A 
ENDBRANCH  71  88
ENDBRANCH  45  46
ENDBRANCH  37  40
ENDBRANCH  35  36
ENDBRANCH  34  35
ENDBRANCH  33  34
ENDBRANCH  32  33
ENDBRANCH   1  32
TORSDOF 18
