REMARK SMILES NC(=O)C1CC[NH+](Cc2ccc(C(=O)NCCCCCCNC(=O)c3ccc(-c4c5nc(c(-c6c(F)cccc6F)c6ccc([nH]6)c(-c6c(F)cccc6F)c6nc(c(-c7c(F)cccc7F)c7ccc4[nH]7)C=C6)C=C5)cc3)cc2)CC1
REMARK SMILES IDX 18 1 17 2 16 3 15 4 13 5 14 6 12 8 9 9 10 10 80 11 11 12
REMARK SMILES IDX 79 13 8 14 7 15 4 16 5 17 82 18 6 19 81 20 2 22 1 23 3 26
REMARK SMILES IDX 19 27 20 28 21 29 22 30 23 31 24 33 25 34 26 35 78 36 27 37
REMARK SMILES IDX 77 38 28 39 29 40 30 41 71 42 31 43 76 44 70 45 72 46 32 47
REMARK SMILES IDX 75 48 69 49 68 50 33 52 59 53 42 54 58 55 43 56 46 57 57 58
REMARK SMILES IDX 73 59 44 60 45 61 56 63 74 64 47 65 34 66 35 67 40 68 36 69
REMARK SMILES IDX 37 70 39 71 41 72 38 73 60 74 61 75 66 76 62 77 63 78 65 79
REMARK SMILES IDX 67 80 64 81 48 82 49 83 54 84 50 85 51 86 53 87 55 88 52 89
REMARK H PARENT 15 7 7 21 1 24 1 25 22 32 72 51 46 62
REMARK Flexibility Score: inf
ROOT
ATOM      1  C   UNL     1       0.510   3.217  -6.011  1.00  0.00     0.002 C 
ENDROOT
BRANCH   1   2
ATOM      2  C   UNL     1       1.250   2.294  -5.032  1.00  0.00     0.021 C 
BRANCH   2   3
ATOM      3  C   UNL     1       0.352   1.233  -4.392  1.00  0.00     0.116 C 
BRANCH   3   4
ATOM      4  N   UNL     1       0.013   0.211  -5.364  1.00  0.00    -0.352 N 
ATOM      5  C   UNL     1       0.405  -1.097  -5.487  1.00  0.00     0.251 C 
ATOM      6  O   UNL     1      -0.063  -1.769  -6.404  1.00  0.00    -0.269 OA
ATOM      7  H   UNL     1      -0.612   0.511  -6.063  1.00  0.00     0.163 HD
BRANCH   5   8
ATOM      8  C   UNL     1       1.308  -1.742  -4.503  1.00  0.00     0.039 A 
ATOM      9  C   UNL     1       2.787  -3.016  -2.478  1.00  0.00     0.006 A 
ATOM     10  C   UNL     1       1.719  -3.677  -3.102  1.00  0.00     0.010 A 
ATOM     11  C   UNL     1       3.176  -1.758  -2.963  1.00  0.00     0.010 A 
ATOM     12  C   UNL     1       0.981  -3.042  -4.101  1.00  0.00     0.014 A 
ATOM     13  C   UNL     1       2.449  -1.130  -3.979  1.00  0.00     0.014 A 
BRANCH   9  14
ATOM     14  C   UNL     1       3.444  -3.626  -1.252  1.00  0.00     0.299 C 
BRANCH  14  15
ATOM     15  N   UNL     1       2.855  -3.237   0.049  1.00  0.00    -0.331 N 
ATOM     16  C   UNL     1       1.039  -1.778   1.847  1.00  0.00     0.089 C 
ATOM     17  C   UNL     1       2.530  -1.450   1.746  1.00  0.00     0.075 C 
ATOM     18  C   UNL     1       0.862  -3.272   1.543  1.00  0.00     0.075 C 
ATOM     19  C   UNL     1       3.105  -1.834   0.381  1.00  0.00     0.263 C 
ATOM     20  C   UNL     1       1.439  -3.616   0.166  1.00  0.00     0.263 C 
ATOM     21  H   UNL     1       3.344  -3.781   0.759  1.00  0.00     0.348 HD
BRANCH  16  22
ATOM     22  C   UNL     1       0.101  -0.957   0.954  1.00  0.00     0.220 C 
ATOM     23  N   UNL     1       0.523   0.259   0.515  1.00  0.00    -0.369 N 
ATOM     24  H   UNL     1      -0.062   0.804  -0.059  1.00  0.00     0.159 HD
ATOM     25  H   UNL     1       1.413   0.593   0.771  1.00  0.00     0.159 HD
ATOM     26  O   UNL     1      -1.037  -1.323   0.669  1.00  0.00    -0.275 OA
ENDBRANCH  16  22
ENDBRANCH  14  15
ENDBRANCH   9  14
ENDBRANCH   5   8
ENDBRANCH   3   4
ENDBRANCH   2   3
ENDBRANCH   1   2
BRANCH   1  27
ATOM     27  C   UNL     1      -0.563   4.110  -5.377  1.00  0.00     0.002 C 
BRANCH  27  28
ATOM     28  C   UNL     1      -0.074   5.007  -4.235  1.00  0.00     0.021 C 
BRANCH  28  29
ATOM     29  C   UNL     1       1.038   5.979  -4.619  1.00  0.00     0.116 C 
BRANCH  29  30
ATOM     30  N   UNL     1       0.591   6.967  -5.585  1.00  0.00    -0.352 N 
ATOM     31  C   UNL     1       0.714   8.333  -5.556  1.00  0.00     0.251 C 
ATOM     32  H   UNL     1       0.132   6.603  -6.377  1.00  0.00     0.163 HD
ATOM     33  O   UNL     1       0.104   9.022  -6.367  1.00  0.00    -0.269 OA
BRANCH  31  34
ATOM     34  C   UNL     1       1.573   8.983  -4.542  1.00  0.00     0.039 A 
ATOM     35  C   UNL     1       1.111  10.143  -3.913  1.00  0.00     0.014 A 
ATOM     36  C   UNL     1       2.845   8.485  -4.244  1.00  0.00     0.014 A 
ATOM     37  C   UNL     1       1.908  10.783  -2.962  1.00  0.00     0.010 A 
ATOM     38  C   UNL     1       3.613   9.088  -3.250  1.00  0.00     0.010 A 
ATOM     39  C   UNL     1       3.159  10.252  -2.612  1.00  0.00    -0.014 A 
BRANCH  39  40
ATOM     40  C   UNL     1       4.020  10.924  -1.606  1.00  0.00     0.031 A 
ATOM     41  C   UNL     1       5.331  11.533  -2.024  1.00  0.00     0.074 A 
ATOM     42  C   UNL     1       3.647  10.947  -0.313  1.00  0.00     0.049 A 
ATOM     43  N   UNL     1       6.244  12.117  -1.290  1.00  0.00    -0.248 NA
ATOM     44  C   UNL     1       5.673  11.450  -3.453  1.00  0.00     0.031 C 
ATOM     45  C   UNL     1       2.422  10.354   0.226  1.00  0.00     0.029 A 
ATOM     46  N   UNL     1       4.267  11.488   0.786  1.00  0.00    -0.354 N 
ATOM     47  C   UNL     1       7.272  12.453  -2.162  1.00  0.00     0.074 A 
ATOM     48  C   UNL     1       6.894  11.966  -3.470  1.00  0.00     0.031 C 
ATOM     49  C   UNL     1       2.370  10.581   1.549  1.00  0.00     0.029 A 
ATOM     50  C   UNL     1       3.568  11.310   1.955  1.00  0.00     0.049 A 
ATOM     51  H   UNL     1       5.131  11.957   0.740  1.00  0.00     0.167 HD
ATOM     52  C   UNL     1       8.418  13.128  -1.901  1.00  0.00     0.037 A 
ATOM     53  C   UNL     1       3.861  11.696   3.211  1.00  0.00     0.037 A 
ATOM     54  C   UNL     1       8.777  13.644  -0.607  1.00  0.00     0.049 A 
ATOM     55  C   UNL     1       5.124  12.468   3.469  1.00  0.00     0.074 A 
ATOM     56  C   UNL     1       9.892  14.384  -0.251  1.00  0.00     0.029 A 
ATOM     57  N   UNL     1       8.022  13.479   0.544  1.00  0.00    -0.354 N 
ATOM     58  N   UNL     1       6.061  12.827   2.625  1.00  0.00    -0.248 NA
ATOM     59  C   UNL     1       5.365  12.902   4.853  1.00  0.00     0.031 C 
ATOM     60  C   UNL     1       9.825  14.642   1.122  1.00  0.00     0.029 A 
ATOM     61  C   UNL     1       8.649  14.098   1.613  1.00  0.00     0.049 A 
ATOM     62  H   UNL     1       7.166  12.995   0.594  1.00  0.00     0.167 HD
ATOM     63  C   UNL     1       6.982  13.556   3.366  1.00  0.00     0.074 A 
ATOM     64  C   UNL     1       6.487  13.596   4.726  1.00  0.00     0.031 C 
ATOM     65  C   UNL     1       8.133  14.142   2.956  1.00  0.00     0.037 A 
BRANCH  52  66
ATOM     66  C   UNL     1       9.362  13.353  -3.046  1.00  0.00     0.057 A 
ATOM     67  C   UNL     1       9.068  14.252  -4.079  1.00  0.00     0.134 A 
ATOM     68  C   UNL     1      10.593  12.687  -3.100  1.00  0.00     0.134 A 
ATOM     69  F   UNL     1       7.899  14.912  -4.093  1.00  0.00    -0.206 F 
ATOM     70  C   UNL     1       9.951  14.461  -5.139  1.00  0.00     0.040 A 
ATOM     71  C   UNL     1      11.496  12.908  -4.141  1.00  0.00     0.040 A 
ATOM     72  F   UNL     1      10.940  11.816  -2.140  1.00  0.00    -0.206 F 
ATOM     73  C   UNL     1      11.173  13.793  -5.168  1.00  0.00     0.006 A 
ENDBRANCH  52  66
BRANCH  53  74
ATOM     74  C   UNL     1       2.921  11.392   4.319  1.00  0.00     0.057 A 
ATOM     75  C   UNL     1       2.168  12.406   4.923  1.00  0.00     0.134 A 
ATOM     76  C   UNL     1       2.761  10.090   4.807  1.00  0.00     0.134 A 
ATOM     77  F   UNL     1       2.292  13.675   4.509  1.00  0.00    -0.206 F 
ATOM     78  C   UNL     1       1.305  12.140   5.987  1.00  0.00     0.040 A 
ATOM     79  C   UNL     1       1.885   9.807   5.856  1.00  0.00     0.040 A 
ATOM     80  F   UNL     1       3.448   9.074   4.265  1.00  0.00    -0.206 F 
ATOM     81  C   UNL     1       1.159  10.835   6.454  1.00  0.00     0.006 A 
ENDBRANCH  53  74
BRANCH  65  82
ATOM     82  C   UNL     1       8.910  14.915   3.981  1.00  0.00     0.057 A 
ATOM     83  C   UNL     1       9.636  14.280   4.995  1.00  0.00     0.134 A 
ATOM     84  C   UNL     1       8.952  16.314   3.931  1.00  0.00     0.134 A 
ATOM     85  F   UNL     1       9.626  12.942   5.103  1.00  0.00    -0.206 F 
ATOM     86  C   UNL     1      10.358  15.010   5.940  1.00  0.00     0.040 A 
ATOM     87  C   UNL     1       9.690  17.054   4.855  1.00  0.00     0.040 A 
ATOM     88  F   UNL     1       8.284  16.983   2.979  1.00  0.00    -0.206 F 
ATOM     89  C   UNL     1      10.390  16.402   5.868  1.00  0.00     0.006 A 
ENDBRANCH  65  82
ENDBRANCH  39  40
ENDBRANCH  31  34
ENDBRANCH  29  30
ENDBRANCH  28  29
ENDBRANCH  27  28
ENDBRANCH   1  27
TORSDOF 16
