REMARK SMILES Cc1cccc(S(=O)(=O)N[C@@H](CCC(N)=O)C(=O)NCCCCCCNC(=O)c2ccc(-c3c4nc(c(-c5c(F)cccc5F)c5ccc([nH]5)c(-c5c(F)cccc5F)c5nc(c(-c6c(F)cccc6F)c6ccc3[nH]6)C=C5)C=C4)cc2)c1
REMARK SMILES IDX 22 1 21 2 20 3 19 4 17 5 18 6 11 8 10 9 7 11 8 12 9 13 6 14
REMARK SMILES IDX 1 15 2 16 3 17 83 18 4 19 5 20 12 21 13 22 14 23 15 24 16 25
REMARK SMILES IDX 23 28 24 29 25 30 26 31 27 32 28 34 29 35 30 36 82 37 31 38
REMARK SMILES IDX 81 39 32 40 33 41 34 42 75 43 35 44 80 45 74 46 76 47 36 48
REMARK SMILES IDX 79 49 73 50 72 51 37 53 63 54 46 55 62 56 47 57 50 58 61 59
REMARK SMILES IDX 77 60 48 61 49 62 60 64 78 65 51 66 38 67 39 68 44 69 40 70
REMARK SMILES IDX 41 71 43 72 45 73 42 74 64 75 65 76 70 77 66 78 67 79 69 80
REMARK SMILES IDX 71 81 68 82 52 83 53 84 58 85 54 86 55 87 57 88 59 89 56 90
REMARK H PARENT 19 7 10 10 15 26 15 27 26 33 76 52 50 63
REMARK Flexibility Score: inf
ROOT
ATOM      1  C   UNL     1      -0.182   9.276   0.302  1.00  0.00     0.002 C 
ENDROOT
BRANCH   1   2
ATOM      2  C   UNL     1      -0.987   8.018   0.649  1.00  0.00     0.021 C 
BRANCH   2   3
ATOM      3  C   UNL     1      -0.880   6.875  -0.355  1.00  0.00     0.116 C 
BRANCH   3   4
ATOM      4  N   UNL     1       0.453   6.314  -0.460  1.00  0.00    -0.355 N 
ATOM      5  C   UNL     1       0.879   5.120  -0.979  1.00  0.00     0.238 C 
ATOM      6  O   UNL     1       2.097   4.924  -1.032  1.00  0.00    -0.273 OA
ATOM      7  H   UNL     1       1.170   6.884  -0.098  1.00  0.00     0.163 HD
BRANCH   5   8
ATOM      8  C   UNL     1      -0.109   3.997  -1.367  1.00  0.00     0.159 C 
BRANCH   8   9
ATOM      9  N   UNL     1      -1.049   3.846  -0.236  1.00  0.00    -0.199 NA
ATOM     10  H   UNL     1      -0.465   3.870   0.600  1.00  0.00     0.142 HD
BRANCH   9  11
ATOM     11  S   UNL     1      -2.103   2.583   0.006  1.00  0.00     0.241 S 
ATOM     12  O   UNL     1      -2.966   2.509  -1.149  1.00  0.00    -0.207 OA
ATOM     13  O   UNL     1      -2.639   2.795   1.335  1.00  0.00    -0.207 OA
BRANCH  11  14
ATOM     14  C   UNL     1      -1.149   1.091   0.075  1.00  0.00     0.082 A 
ATOM     15  C   UNL     1       2.461  -0.095   0.185  1.00  0.00     0.044 C 
ATOM     16  C   UNL     1       0.961  -0.099   0.148  1.00  0.00    -0.050 A 
ATOM     17  C   UNL     1       0.268  -1.305  -0.016  1.00  0.00     0.003 A 
ATOM     18  C   UNL     1       0.238   1.097   0.249  1.00  0.00     0.025 A 
ATOM     19  C   UNL     1      -1.124  -1.317  -0.114  1.00  0.00     0.002 A 
ATOM     20  C   UNL     1      -1.833  -0.118  -0.090  1.00  0.00     0.022 A 
ENDBRANCH  11  14
ENDBRANCH   9  11
ENDBRANCH   8   9
BRANCH   8  21
ATOM     21  C   UNL     1      -0.710   4.034  -2.774  1.00  0.00     0.040 C 
BRANCH  21  22
ATOM     22  C   UNL     1      -1.453   5.279  -3.248  1.00  0.00     0.102 C 
BRANCH  22  23
ATOM     23  C   UNL     1      -0.525   6.379  -3.729  1.00  0.00     0.217 C 
ATOM     24  N   UNL     1      -1.152   7.490  -4.207  1.00  0.00    -0.370 N 
ATOM     25  O   UNL     1       0.696   6.324  -3.694  1.00  0.00    -0.275 OA
ATOM     26  H   UNL     1      -2.135   7.529  -4.232  1.00  0.00     0.159 HD
ATOM     27  H   UNL     1      -0.621   8.255  -4.527  1.00  0.00     0.159 HD
ENDBRANCH  22  23
ENDBRANCH  21  22
ENDBRANCH   8  21
ENDBRANCH   5   8
ENDBRANCH   3   4
ENDBRANCH   2   3
ENDBRANCH   1   2
BRANCH   1  28
ATOM     28  C   UNL     1      -0.328   9.830  -1.125  1.00  0.00     0.002 C 
BRANCH  28  29
ATOM     29  C   UNL     1      -1.748  10.023  -1.652  1.00  0.00     0.021 C 
BRANCH  29  30
ATOM     30  C   UNL     1      -2.611  10.960  -0.831  1.00  0.00     0.116 C 
BRANCH  30  31
ATOM     31  N   UNL     1      -2.370  12.375  -1.059  1.00  0.00    -0.352 N 
ATOM     32  C   UNL     1      -3.016  13.484  -0.541  1.00  0.00     0.251 C 
ATOM     33  H   UNL     1      -1.633  12.575  -1.679  1.00  0.00     0.163 HD
ATOM     34  O   UNL     1      -2.718  14.598  -0.966  1.00  0.00    -0.269 OA
BRANCH  32  35
ATOM     35  C   UNL     1      -3.904  13.369   0.650  1.00  0.00     0.039 A 
ATOM     36  C   UNL     1      -3.853  14.424   1.575  1.00  0.00     0.014 A 
ATOM     37  C   UNL     1      -4.428  12.147   1.039  1.00  0.00     0.014 A 
ATOM     38  C   UNL     1      -3.967  14.144   2.928  1.00  0.00     0.010 A 
ATOM     39  C   UNL     1      -4.358  11.821   2.366  1.00  0.00     0.010 A 
ATOM     40  C   UNL     1      -4.051  12.812   3.298  1.00  0.00    -0.014 A 
BRANCH  40  41
ATOM     41  C   UNL     1      -3.922  12.310   4.646  1.00  0.00     0.031 A 
ATOM     42  C   UNL     1      -5.171  12.019   5.363  1.00  0.00     0.074 A 
ATOM     43  C   UNL     1      -2.703  11.885   5.044  1.00  0.00     0.049 A 
ATOM     44  N   UNL     1      -5.232  11.667   6.593  1.00  0.00    -0.248 NA
ATOM     45  C   UNL     1      -6.489  12.149   4.736  1.00  0.00     0.031 C 
ATOM     46  C   UNL     1      -2.370  10.962   6.124  1.00  0.00     0.029 A 
ATOM     47  N   UNL     1      -1.463  12.405   4.647  1.00  0.00    -0.354 N 
ATOM     48  C   UNL     1      -6.509  11.210   6.818  1.00  0.00     0.074 A 
ATOM     49  C   UNL     1      -7.282  11.669   5.697  1.00  0.00     0.031 C 
ATOM     50  C   UNL     1      -1.103  11.191   6.516  1.00  0.00     0.029 A 
ATOM     51  C   UNL     1      -0.659  12.382   5.811  1.00  0.00     0.049 A 
ATOM     52  H   UNL     1      -1.207  12.719   3.750  1.00  0.00     0.167 HD
ATOM     53  C   UNL     1      -6.696  10.353   7.856  1.00  0.00     0.037 A 
ATOM     54  C   UNL     1      -0.310  13.554   6.426  1.00  0.00     0.037 A 
ATOM     55  C   UNL     1      -5.515  10.372   8.722  1.00  0.00     0.049 A 
ATOM     56  C   UNL     1      -0.875  13.659   7.825  1.00  0.00     0.074 A 
ATOM     57  C   UNL     1      -4.439   9.515   8.867  1.00  0.00     0.029 A 
ATOM     58  N   UNL     1      -5.148  11.577   9.319  1.00  0.00    -0.354 N 
ATOM     59  N   UNL     1      -1.965  13.055   8.220  1.00  0.00    -0.248 NA
ATOM     60  C   UNL     1      -0.224  14.401   8.900  1.00  0.00     0.031 C 
ATOM     61  C   UNL     1      -3.367  10.268   9.428  1.00  0.00     0.029 A 
ATOM     62  C   UNL     1      -3.813  11.558   9.672  1.00  0.00     0.049 A 
ATOM     63  H   UNL     1      -5.756  12.336   9.468  1.00  0.00     0.167 HD
ATOM     64  C   UNL     1      -2.150  13.278   9.560  1.00  0.00     0.074 A 
ATOM     65  C   UNL     1      -1.037  14.132   9.937  1.00  0.00     0.031 C 
ATOM     66  C   UNL     1      -3.185  12.732  10.267  1.00  0.00     0.037 A 
BRANCH  53  67
ATOM     67  C   UNL     1      -7.816   9.344   7.978  1.00  0.00     0.057 A 
ATOM     68  C   UNL     1      -7.860   8.488   9.097  1.00  0.00     0.134 A 
ATOM     69  C   UNL     1      -8.791   9.058   6.999  1.00  0.00     0.134 A 
ATOM     70  F   UNL     1      -6.995   8.622  10.112  1.00  0.00    -0.206 F 
ATOM     71  C   UNL     1      -8.778   7.434   9.220  1.00  0.00     0.040 A 
ATOM     72  C   UNL     1      -9.741   8.035   7.130  1.00  0.00     0.040 A 
ATOM     73  F   UNL     1      -8.856   9.704   5.832  1.00  0.00    -0.206 F 
ATOM     74  C   UNL     1      -9.729   7.207   8.237  1.00  0.00     0.006 A 
ENDBRANCH  53  67
BRANCH  54  75
ATOM     75  C   UNL     1      -0.161  14.672   5.446  1.00  0.00     0.057 A 
ATOM     76  C   UNL     1       0.816  14.523   4.440  1.00  0.00     0.134 A 
ATOM     77  C   UNL     1      -1.210  15.557   5.181  1.00  0.00     0.134 A 
ATOM     78  F   UNL     1       1.867  13.711   4.640  1.00  0.00    -0.206 F 
ATOM     79  C   UNL     1       0.650  15.065   3.163  1.00  0.00     0.040 A 
ATOM     80  C   UNL     1      -1.363  16.137   3.914  1.00  0.00     0.040 A 
ATOM     81  F   UNL     1      -2.175  15.767   6.087  1.00  0.00    -0.206 F 
ATOM     82  C   UNL     1      -0.472  15.836   2.884  1.00  0.00     0.006 A 
ENDBRANCH  54  75
BRANCH  66  83
ATOM     83  C   UNL     1      -3.643  13.192  11.632  1.00  0.00     0.057 A 
ATOM     84  C   UNL     1      -3.432  14.482  12.140  1.00  0.00     0.134 A 
ATOM     85  C   UNL     1      -4.473  12.369  12.429  1.00  0.00     0.134 A 
ATOM     86  F   UNL     1      -2.783  15.420  11.437  1.00  0.00    -0.206 F 
ATOM     87  C   UNL     1      -3.934  14.896  13.381  1.00  0.00     0.040 A 
ATOM     88  C   UNL     1      -5.035  12.795  13.636  1.00  0.00     0.040 A 
ATOM     89  F   UNL     1      -4.805  11.124  12.059  1.00  0.00    -0.206 F 
ATOM     90  C   UNL     1      -4.747  14.056  14.129  1.00  0.00     0.006 A 
ENDBRANCH  66  83
ENDBRANCH  40  41
ENDBRANCH  32  35
ENDBRANCH  30  31
ENDBRANCH  29  30
ENDBRANCH  28  29
ENDBRANCH   1  28
TORSDOF 19
