REMARK SMILES O=C(NCCCCCCNC(=O)c1cn(-c2ccccc2)c2c1N=C(O)C[C@@H]2c1cccs1)c1ccc(-c2c3nc(c(-c4c(F)cccc4F)c4ccc([nH]4)c(-c4c(F)cccc4F)c4nc(c(-c5c(F)cccc5F)c5ccc2[nH]5)C=C4)C=C3)cc1
REMARK SMILES IDX 6 1 5 2 4 3 3 4 1 5 2 6 34 8 35 9 87 10 36 11 86 12 37 13
REMARK SMILES IDX 38 14 39 15 80 16 40 17 85 18 79 19 81 20 41 21 84 22 78 23
REMARK SMILES IDX 77 24 42 26 68 27 51 28 67 29 52 30 55 31 66 32 82 33 53 34
REMARK SMILES IDX 54 35 65 37 83 38 56 39 43 40 44 41 49 42 45 43 46 44 48 45
REMARK SMILES IDX 50 46 47 47 69 48 70 49 75 50 71 51 72 52 74 53 76 54 73 55
REMARK SMILES IDX 57 56 58 57 63 58 59 59 60 60 62 61 64 62 61 63 7 64 8 65
REMARK SMILES IDX 9 66 10 67 11 68 12 70 13 71 14 72 23 73 15 74 22 75 24 76
REMARK SMILES IDX 28 77 25 78 27 79 16 80 17 81 21 82 18 83 20 84 19 85 29 86
REMARK SMILES IDX 30 87 33 88 31 89 32 90 26 91
REMARK H PARENT 3 7 81 25 55 36 10 69 26 92
REMARK Flexibility Score: inf
ROOT
ATOM      1  C   UNL     1       4.322   2.921   1.864  1.00  0.00     0.002 C 
ENDROOT
BRANCH   1   2
ATOM      2  C   UNL     1       4.854   2.089   0.690  1.00  0.00     0.021 C 
BRANCH   2   3
ATOM      3  C   UNL     1       4.683   0.580   0.850  1.00  0.00     0.116 C 
BRANCH   3   4
ATOM      4  N   UNL     1       3.304   0.146   0.947  1.00  0.00    -0.352 N 
ATOM      5  O   UNL     1       1.248  -0.540   0.501  1.00  0.00    -0.269 OA
ATOM      6  C   UNL     1       2.304  -0.093   0.047  1.00  0.00     0.251 C 
ATOM      7  H   UNL     1       3.022  -0.013   1.877  1.00  0.00     0.163 HD
BRANCH   6   8
ATOM      8  C   UNL     1       2.382   0.198  -1.410  1.00  0.00     0.039 A 
ATOM      9  C   UNL     1       3.556   0.354  -2.148  1.00  0.00     0.014 A 
ATOM     10  C   UNL     1       1.148   0.295  -2.080  1.00  0.00     0.014 A 
ATOM     11  C   UNL     1       3.500   0.668  -3.504  1.00  0.00     0.010 A 
ATOM     12  C   UNL     1       1.086   0.587  -3.438  1.00  0.00     0.010 A 
ATOM     13  C   UNL     1       2.266   0.799  -4.146  1.00  0.00    -0.014 A 
BRANCH  13  14
ATOM     14  C   UNL     1       2.259   0.986  -5.596  1.00  0.00     0.031 A 
ATOM     15  C   UNL     1       2.819  -0.157  -6.383  1.00  0.00     0.074 A 
ATOM     16  C   UNL     1       1.638   2.010  -6.213  1.00  0.00     0.049 A 
ATOM     17  N   UNL     1       3.771  -0.148  -7.261  1.00  0.00    -0.248 NA
ATOM     18  C   UNL     1       2.287  -1.501  -6.095  1.00  0.00     0.031 C 
ATOM     19  C   UNL     1       0.778   3.034  -5.615  1.00  0.00     0.029 A 
ATOM     20  N   UNL     1       1.560   2.285  -7.547  1.00  0.00    -0.354 N 
ATOM     21  C   UNL     1       3.849  -1.449  -7.760  1.00  0.00     0.074 A 
ATOM     22  C   UNL     1       2.998  -2.260  -6.929  1.00  0.00     0.031 C 
ATOM     23  C   UNL     1       0.099   3.673  -6.594  1.00  0.00     0.029 A 
ATOM     24  C   UNL     1       0.568   3.196  -7.885  1.00  0.00     0.049 A 
ATOM     25  H   UNL     1       2.156   1.873  -8.214  1.00  0.00     0.167 HD
ATOM     26  C   UNL     1       4.458  -1.743  -8.941  1.00  0.00     0.037 A 
ATOM     27  C   UNL     1       0.118   3.486  -9.131  1.00  0.00     0.037 A 
ATOM     28  C   UNL     1       5.375  -0.714  -9.344  1.00  0.00     0.049 A 
ATOM     29  C   UNL     1       1.136   3.023 -10.104  1.00  0.00     0.074 A 
ATOM     30  C   UNL     1       6.516  -0.160  -8.797  1.00  0.00     0.029 A 
ATOM     31  N   UNL     1       4.992   0.147 -10.340  1.00  0.00    -0.354 N 
ATOM     32  N   UNL     1       2.307   3.571 -10.260  1.00  0.00    -0.248 NA
ATOM     33  C   UNL     1       1.001   1.674 -10.631  1.00  0.00     0.031 C 
ATOM     34  C   UNL     1       6.453   1.223  -9.138  1.00  0.00     0.029 A 
ATOM     35  C   UNL     1       5.305   1.410  -9.908  1.00  0.00     0.049 A 
ATOM     36  H   UNL     1       4.575  -0.094 -11.198  1.00  0.00     0.167 HD
ATOM     37  C   UNL     1       3.162   2.508 -10.502  1.00  0.00     0.074 A 
ATOM     38  C   UNL     1       2.289   1.380 -10.818  1.00  0.00     0.031 C 
ATOM     39  C   UNL     1       4.481   2.568 -10.154  1.00  0.00     0.037 A 
BRANCH  26  40
ATOM     40  C   UNL     1       3.977  -2.811  -9.890  1.00  0.00     0.057 A 
ATOM     41  C   UNL     1       4.774  -3.188 -10.986  1.00  0.00     0.134 A 
ATOM     42  C   UNL     1       2.645  -3.270  -9.932  1.00  0.00     0.134 A 
ATOM     43  F   UNL     1       6.052  -2.789 -11.078  1.00  0.00    -0.206 F 
ATOM     44  C   UNL     1       4.265  -3.919 -12.068  1.00  0.00     0.040 A 
ATOM     45  C   UNL     1       2.141  -4.043 -10.982  1.00  0.00     0.040 A 
ATOM     46  F   UNL     1       1.738  -2.911  -9.014  1.00  0.00    -0.206 F 
ATOM     47  C   UNL     1       2.943  -4.345 -12.070  1.00  0.00     0.006 A 
ENDBRANCH  26  40
BRANCH  27  48
ATOM     48  C   UNL     1      -1.248   3.866  -9.559  1.00  0.00     0.057 A 
ATOM     49  C   UNL     1      -1.483   4.450 -10.812  1.00  0.00     0.134 A 
ATOM     50  C   UNL     1      -2.384   3.409  -8.868  1.00  0.00     0.134 A 
ATOM     51  F   UNL     1      -0.461   4.876 -11.568  1.00  0.00    -0.206 F 
ATOM     52  C   UNL     1      -2.771   4.555 -11.355  1.00  0.00     0.040 A 
ATOM     53  C   UNL     1      -3.675   3.515  -9.395  1.00  0.00     0.040 A 
ATOM     54  F   UNL     1      -2.270   2.762  -7.699  1.00  0.00    -0.206 F 
ATOM     55  C   UNL     1      -3.871   4.077 -10.649  1.00  0.00     0.006 A 
ENDBRANCH  27  48
BRANCH  39  56
ATOM     56  C   UNL     1       5.038   3.901  -9.738  1.00  0.00     0.057 A 
ATOM     57  C   UNL     1       4.597   4.620  -8.616  1.00  0.00     0.134 A 
ATOM     58  C   UNL     1       6.157   4.405 -10.410  1.00  0.00     0.134 A 
ATOM     59  F   UNL     1       3.602   4.164  -7.845  1.00  0.00    -0.206 F 
ATOM     60  C   UNL     1       5.211   5.810  -8.214  1.00  0.00     0.040 A 
ATOM     61  C   UNL     1       6.801   5.573  -9.997  1.00  0.00     0.040 A 
ATOM     62  F   UNL     1       6.673   3.740 -11.456  1.00  0.00    -0.206 F 
ATOM     63  C   UNL     1       6.321   6.287  -8.902  1.00  0.00     0.006 A 
ENDBRANCH  39  56
ENDBRANCH  13  14
ENDBRANCH   6   8
ENDBRANCH   3   4
ENDBRANCH   2   3
ENDBRANCH   1   2
BRANCH   1  64
ATOM     64  C   UNL     1       4.811   2.505   3.256  1.00  0.00     0.002 C 
BRANCH  64  65
ATOM     65  C   UNL     1       6.330   2.444   3.430  1.00  0.00     0.021 C 
BRANCH  65  66
ATOM     66  C   UNL     1       7.042   3.783   3.271  1.00  0.00     0.116 C 
BRANCH  66  67
ATOM     67  N   UNL     1       6.761   4.689   4.372  1.00  0.00    -0.352 N 
ATOM     68  C   UNL     1       7.653   5.442   5.098  1.00  0.00     0.255 C 
ATOM     69  H   UNL     1       5.814   4.774   4.630  1.00  0.00     0.163 HD
ATOM     70  O   UNL     1       7.260   6.043   6.098  1.00  0.00    -0.269 OA
BRANCH  68  71
ATOM     71  C   UNL     1       9.047   5.438   4.697  1.00  0.00     0.084 A 
ATOM     72  C   UNL     1      10.110   5.136   5.532  1.00  0.00     0.107 A 
ATOM     73  C   UNL     1       9.623   5.672   3.433  1.00  0.00     0.101 A 
ATOM     74  N   UNL     1      11.287   5.142   4.805  1.00  0.00    -0.317 N 
ATOM     75  C   UNL     1      10.963   5.385   3.479  1.00  0.00     0.058 A 
ATOM     76  N   UNL     1       8.909   5.944   2.271  1.00  0.00    -0.215 NA
ATOM     77  C   UNL     1      11.811   5.162   2.271  1.00  0.00     0.088 C 
ATOM     78  C   UNL     1       9.602   5.904   1.186  1.00  0.00     0.187 C 
ATOM     79  C   UNL     1      11.086   5.701   1.019  1.00  0.00     0.112 C 
BRANCH  74  80
ATOM     80  C   UNL     1      12.562   4.842   5.345  1.00  0.00     0.045 A 
ATOM     81  C   UNL     1      13.677   5.602   4.982  1.00  0.00     0.026 A 
ATOM     82  C   UNL     1      12.694   3.784   6.254  1.00  0.00     0.026 A 
ATOM     83  C   UNL     1      14.927   5.294   5.524  1.00  0.00     0.002 A 
ATOM     84  C   UNL     1      13.952   3.462   6.763  1.00  0.00     0.002 A 
ATOM     85  C   UNL     1      15.066   4.218   6.402  1.00  0.00     0.000 A 
ENDBRANCH  74  80
BRANCH  77  86
ATOM     86  C   UNL     1      12.240   3.714   2.030  1.00  0.00     0.014 A 
ATOM     87  C   UNL     1      13.237   3.290   1.165  1.00  0.00     0.016 A 
ATOM     88  S   UNL     1      11.498   2.364   2.795  1.00  0.00    -0.148 S 
ATOM     89  C   UNL     1      13.422   1.878   1.177  1.00  0.00     0.012 A 
ATOM     90  C   UNL     1      12.570   1.258   2.060  1.00  0.00     0.065 A 
ENDBRANCH  77  86
BRANCH  78  91
ATOM     91  O   UNL     1       8.947   6.113   0.023  1.00  0.00    -0.496 OA
ATOM     92  H   UNL     1       8.020   6.250   0.025  1.00  0.00     0.294 HD
ENDBRANCH  78  91
ENDBRANCH  68  71
ENDBRANCH  66  67
ENDBRANCH  65  66
ENDBRANCH  64  65
ENDBRANCH   1  64
TORSDOF 16
