REMARK SMILES CCCn1c(N2CCC[C@@H](C)C2)c(/C=C2/SC(=S)N(CC(=O)NCCCCCCNC(=O)c3ccc(-c4c5nc(c(-c6c(F)cccc6F)c6ccc([nH]6)c(-c6c(F)cccc6F)c6nc(c(-c7c(F)cccc7F)c7ccc4[nH]7)C=C6)C=C5)cc3)C2=O)c(C)c(C#N)c1=O
REMARK SMILES IDX 25 1 24 2 23 3 21 4 22 5 20 7 19 8 14 9 15 10 16 11 87 12
REMARK SMILES IDX 17 13 88 14 18 15 13 16 4 17 5 18 94 19 91 20 95 21 89 22
REMARK SMILES IDX 90 23 3 24 2 25 1 26 6 27 7 28 12 29 8 30 10 31 9 32 11 33
REMARK SMILES IDX 92 34 93 35 26 36 27 37 28 38 29 39 30 40 31 41 32 43 33 44
REMARK SMILES IDX 34 45 86 46 35 47 85 48 36 49 37 50 38 51 79 52 39 53 84 54
REMARK SMILES IDX 78 55 80 56 40 57 83 58 77 59 76 60 41 62 67 63 50 64 66 65
REMARK SMILES IDX 51 66 54 67 65 68 81 69 52 70 53 71 64 73 82 74 55 75 42 76
REMARK SMILES IDX 43 77 48 78 44 79 45 80 47 81 49 82 46 83 68 84 69 85 74 86
REMARK SMILES IDX 70 87 71 88 73 89 75 90 72 91 56 92 57 93 62 94 58 95 59 96
REMARK SMILES IDX 61 97 63 98 60 99
REMARK H PARENT 23 6 30 42 80 61 54 72
REMARK Flexibility Score: inf
ROOT
ATOM      1  C   UNL     1      -3.664   7.877   1.966  1.00  0.00     0.021 C 
ENDROOT
BRANCH   1   2
ATOM      2  C   UNL     1      -3.980   7.829   0.475  1.00  0.00     0.116 C 
BRANCH   2   3
ATOM      3  N   UNL     1      -2.836   7.404  -0.302  1.00  0.00    -0.355 N 
ATOM      4  C   UNL     1      -2.686   6.333  -1.131  1.00  0.00     0.240 C 
ATOM      5  O   UNL     1      -1.706   6.336  -1.881  1.00  0.00    -0.273 OA
ATOM      6  H   UNL     1      -2.042   7.979  -0.219  1.00  0.00     0.163 HD
BRANCH   4   7
ATOM      7  C   UNL     1      -3.761   5.242  -1.244  1.00  0.00     0.227 C 
BRANCH   7   8
ATOM      8  N   UNL     1      -4.109   4.638   0.045  1.00  0.00    -0.283 N 
ATOM      9  C   UNL     1      -2.827   2.916   2.987  1.00  0.00     0.033 C 
ATOM     10  C   UNL     1      -3.582   3.486   2.035  1.00  0.00     0.081 C 
ATOM     11  S   UNL     1      -5.261   3.817   2.198  1.00  0.00    -0.054 SA
ATOM     12  C   UNL     1      -3.115   3.928   0.689  1.00  0.00     0.266 C 
ATOM     13  C   UNL     1      -5.364   4.558   0.601  1.00  0.00     0.148 C 
ATOM     14  O   UNL     1      -2.020   3.676   0.216  1.00  0.00    -0.268 OA
ATOM     15  S   UNL     1      -6.822   5.041  -0.050  1.00  0.00    -0.052 S 
BRANCH   9  16
ATOM     16  C   UNL     1      -1.389   2.641   2.848  1.00  0.00     0.021 A 
ATOM     17  N   UNL     1       0.435   1.141   2.473  1.00  0.00    -0.293 N 
ATOM     18  C   UNL     1      -0.945   1.351   2.691  1.00  0.00     0.119 A 
ATOM     19  C   UNL     1       1.355   2.184   2.284  1.00  0.00     0.270 A 
ATOM     20  C   UNL     1       0.834   3.551   2.418  1.00  0.00     0.121 A 
ATOM     21  O   UNL     1       2.551   2.017   2.046  1.00  0.00    -0.268 OA
ATOM     22  C   UNL     1      -0.439   3.763   2.791  1.00  0.00    -0.017 A 
ATOM     23  C   UNL     1      -0.956   5.150   3.111  1.00  0.00     0.047 C 
BRANCH  17  24
ATOM     24  C   UNL     1       0.987  -0.208   2.322  1.00  0.00     0.127 C 
BRANCH  24  25
ATOM     25  C   UNL     1       0.722  -0.855   0.962  1.00  0.00     0.019 C 
ATOM     26  C   UNL     1       1.192  -0.034  -0.225  1.00  0.00     0.006 C 
ENDBRANCH  24  25
ENDBRANCH  17  24
BRANCH  18  27
ATOM     27  N   UNL     1      -1.844   0.260   2.674  1.00  0.00    -0.357 N 
ATOM     28  C   UNL     1      -1.956  -0.689   3.790  1.00  0.00     0.118 C 
ATOM     29  C   UNL     1      -2.994   0.223   1.753  1.00  0.00     0.121 C 
ATOM     30  C   UNL     1      -2.116  -2.111   3.245  1.00  0.00     0.022 C 
ATOM     31  C   UNL     1      -3.203  -1.171   1.164  1.00  0.00     0.005 C 
ATOM     32  C   UNL     1      -3.295  -2.221   2.275  1.00  0.00     0.007 C 
ATOM     33  C   UNL     1      -4.449  -1.176   0.278  1.00  0.00     0.009 C 
ENDBRANCH  18  27
BRANCH  20  34
ATOM     34  C   UNL     1       1.758   4.746   2.249  1.00  0.00     0.105 C 
ATOM     35  N   UNL     1       2.526   5.737   2.108  1.00  0.00    -0.192 NA
ENDBRANCH  20  34
ENDBRANCH   9  16
ENDBRANCH   7   8
ENDBRANCH   4   7
ENDBRANCH   2   3
ENDBRANCH   1   2
BRANCH   1  36
ATOM     36  C   UNL     1      -2.709   9.013   2.355  1.00  0.00     0.002 C 
BRANCH  36  37
ATOM     37  C   UNL     1      -3.235  10.422   2.052  1.00  0.00     0.002 C 
BRANCH  37  38
ATOM     38  C   UNL     1      -4.611  10.733   2.646  1.00  0.00     0.021 C 
BRANCH  38  39
ATOM     39  C   UNL     1      -4.671  10.604   4.163  1.00  0.00     0.116 C 
BRANCH  39  40
ATOM     40  N   UNL     1      -3.856  11.613   4.821  1.00  0.00    -0.352 N 
ATOM     41  C   UNL     1      -4.257  12.598   5.687  1.00  0.00     0.251 C 
ATOM     42  H   UNL     1      -2.893  11.585   4.619  1.00  0.00     0.163 HD
ATOM     43  O   UNL     1      -3.504  13.511   6.002  1.00  0.00    -0.269 OA
BRANCH  41  44
ATOM     44  C   UNL     1      -5.628  12.547   6.226  1.00  0.00     0.039 A 
ATOM     45  C   UNL     1      -6.452  13.667   6.105  1.00  0.00     0.014 A 
ATOM     46  C   UNL     1      -6.098  11.371   6.821  1.00  0.00     0.014 A 
ATOM     47  C   UNL     1      -7.773  13.594   6.544  1.00  0.00     0.010 A 
ATOM     48  C   UNL     1      -7.432  11.281   7.200  1.00  0.00     0.010 A 
ATOM     49  C   UNL     1      -8.275  12.396   7.078  1.00  0.00    -0.014 A 
BRANCH  49  50
ATOM     50  C   UNL     1      -9.668  12.309   7.575  1.00  0.00     0.031 A 
ATOM     51  C   UNL     1      -9.915  12.178   9.050  1.00  0.00     0.074 A 
ATOM     52  C   UNL     1     -10.697  12.314   6.708  1.00  0.00     0.049 A 
ATOM     53  N   UNL     1     -11.049  12.063   9.693  1.00  0.00    -0.248 NA
ATOM     54  C   UNL     1      -8.726  12.154   9.917  1.00  0.00     0.031 C 
ATOM     55  C   UNL     1     -10.579  12.412   5.253  1.00  0.00     0.029 A 
ATOM     56  N   UNL     1     -12.047  12.227   6.929  1.00  0.00    -0.354 N 
ATOM     57  C   UNL     1     -10.709  11.962  11.036  1.00  0.00     0.074 A 
ATOM     58  C   UNL     1      -9.265  11.956  11.109  1.00  0.00     0.031 C 
ATOM     59  C   UNL     1     -11.810  12.399   4.713  1.00  0.00     0.029 A 
ATOM     60  C   UNL     1     -12.797  12.260   5.779  1.00  0.00     0.049 A 
ATOM     61  H   UNL     1     -12.442  12.149   7.828  1.00  0.00     0.167 HD
ATOM     62  C   UNL     1     -11.526  11.908  12.114  1.00  0.00     0.037 A 
ATOM     63  C   UNL     1     -14.131  12.181   5.612  1.00  0.00     0.037 A 
ATOM     64  C   UNL     1     -12.963  11.904  12.036  1.00  0.00     0.049 A 
ATOM     65  C   UNL     1     -15.015  12.051   6.824  1.00  0.00     0.074 A 
ATOM     66  C   UNL     1     -13.884  11.879  13.068  1.00  0.00     0.029 A 
ATOM     67  N   UNL     1     -13.687  11.913  10.853  1.00  0.00    -0.354 N 
ATOM     68  N   UNL     1     -14.686  12.023   8.093  1.00  0.00    -0.248 NA
ATOM     69  C   UNL     1     -16.460  11.946   6.577  1.00  0.00     0.031 C 
ATOM     70  C   UNL     1     -15.165  11.817  12.508  1.00  0.00     0.029 A 
ATOM     71  C   UNL     1     -15.044  11.863  11.129  1.00  0.00     0.049 A 
ATOM     72  H   UNL     1     -13.295  11.949   9.951  1.00  0.00     0.167 HD
ATOM     73  C   UNL     1     -15.882  11.932   8.795  1.00  0.00     0.074 A 
ATOM     74  C   UNL     1     -16.944  11.927   7.810  1.00  0.00     0.031 C 
ATOM     75  C   UNL     1     -16.087  11.860  10.134  1.00  0.00     0.037 A 
BRANCH  62  76
ATOM     76  C   UNL     1     -10.872  11.842  13.463  1.00  0.00     0.057 A 
ATOM     77  C   UNL     1     -10.956  10.683  14.245  1.00  0.00     0.134 A 
ATOM     78  C   UNL     1     -10.157  12.927  13.991  1.00  0.00     0.134 A 
ATOM     79  F   UNL     1     -11.627   9.609  13.803  1.00  0.00    -0.206 F 
ATOM     80  C   UNL     1     -10.347  10.604  15.499  1.00  0.00     0.040 A 
ATOM     81  C   UNL     1      -9.518  12.848  15.229  1.00  0.00     0.040 A 
ATOM     82  F   UNL     1     -10.025  14.061  13.287  1.00  0.00    -0.206 F 
ATOM     83  C   UNL     1      -9.617  11.685  15.989  1.00  0.00     0.006 A 
ENDBRANCH  62  76
BRANCH  63  84
ATOM     84  C   UNL     1     -14.725  12.236   4.252  1.00  0.00     0.057 A 
ATOM     85  C   UNL     1     -14.562  11.189   3.338  1.00  0.00     0.134 A 
ATOM     86  C   UNL     1     -15.515  13.322   3.853  1.00  0.00     0.134 A 
ATOM     87  F   UNL     1     -13.813  10.123   3.655  1.00  0.00    -0.206 F 
ATOM     88  C   UNL     1     -15.167  11.216   2.080  1.00  0.00     0.040 A 
ATOM     89  C   UNL     1     -16.148  13.349   2.610  1.00  0.00     0.040 A 
ATOM     90  F   UNL     1     -15.726  14.347   4.692  1.00  0.00    -0.206 F 
ATOM     91  C   UNL     1     -15.973  12.293   1.718  1.00  0.00     0.006 A 
ENDBRANCH  63  84
BRANCH  75  92
ATOM     92  C   UNL     1     -17.512  11.807  10.606  1.00  0.00     0.057 A 
ATOM     93  C   UNL     1     -18.076  12.893  11.289  1.00  0.00     0.134 A 
ATOM     94  C   UNL     1     -18.321  10.681  10.405  1.00  0.00     0.134 A 
ATOM     95  F   UNL     1     -17.355  13.999  11.526  1.00  0.00    -0.206 F 
ATOM     96  C   UNL     1     -19.392  12.861  11.752  1.00  0.00     0.040 A 
ATOM     97  C   UNL     1     -19.649  10.650  10.834  1.00  0.00     0.040 A 
ATOM     98  F   UNL     1     -17.847   9.612   9.746  1.00  0.00    -0.206 F 
ATOM     99  C   UNL     1     -20.186  11.740  11.516  1.00  0.00     0.006 A 
ENDBRANCH  75  92
ENDBRANCH  49  50
ENDBRANCH  41  44
ENDBRANCH  39  40
ENDBRANCH  38  39
ENDBRANCH  37  38
ENDBRANCH  36  37
ENDBRANCH   1  36
TORSDOF 19
