REMARK SMILES O=C(NCCCCCCNC(=O)c1c(F)cccc1N[C@H]1CCCc2ccccc21)c1ccc(-c2c3nc(c(-c4c(F)cccc4F)c4ccc([nH]4)c(-c4c(F)cccc4F)c4nc(c(-c5c(F)cccc5F)c5ccc2[nH]5)C=C4)C=C3)cc1
REMARK SMILES IDX 6 1 5 2 4 3 3 4 1 5 2 6 31 8 32 9 84 10 33 11 83 12 34 13
REMARK SMILES IDX 35 14 36 15 77 16 37 17 82 18 76 19 78 20 38 21 81 22 75 23
REMARK SMILES IDX 74 24 39 26 65 27 48 28 64 29 49 30 52 31 63 32 79 33 50 34
REMARK SMILES IDX 51 35 62 37 80 38 53 39 40 40 41 41 46 42 42 43 43 44 45 45
REMARK SMILES IDX 47 46 44 47 66 48 67 49 72 50 68 51 69 52 71 53 73 54 70 55
REMARK SMILES IDX 54 56 55 57 60 58 56 59 57 60 59 61 61 62 58 63 7 64 8 65
REMARK SMILES IDX 9 66 10 67 11 68 12 70 13 71 14 72 19 73 15 74 16 75 18 76
REMARK SMILES IDX 17 77 20 78 21 80 22 81 30 82 23 83 25 84 29 85 24 86 26 87
REMARK SMILES IDX 28 88 27 89
REMARK H PARENT 3 7 78 25 52 36 10 69 20 79
REMARK Flexibility Score: inf
ROOT
ATOM      1  C   UNL     1       5.731  13.157  -2.793  1.00  0.00     0.002 C 
ENDROOT
BRANCH   1   2
ATOM      2  C   UNL     1       4.205  13.120  -2.856  1.00  0.00     0.021 C 
BRANCH   2   3
ATOM      3  C   UNL     1       3.508  12.499  -1.654  1.00  0.00     0.116 C 
BRANCH   3   4
ATOM      4  N   UNL     1       3.628  13.291  -0.441  1.00  0.00    -0.352 N 
ATOM      5  O   UNL     1       2.918  14.473   1.347  1.00  0.00    -0.269 OA
ATOM      6  C   UNL     1       2.645  13.714   0.426  1.00  0.00     0.251 C 
ATOM      7  H   UNL     1       4.544  13.565  -0.205  1.00  0.00     0.163 HD
BRANCH   6   8
ATOM      8  C   UNL     1       1.243  13.274   0.226  1.00  0.00     0.039 A 
ATOM      9  C   UNL     1       0.947  11.946  -0.081  1.00  0.00     0.014 A 
ATOM     10  C   UNL     1       0.207  14.207   0.352  1.00  0.00     0.014 A 
ATOM     11  C   UNL     1      -0.354  11.588  -0.417  1.00  0.00     0.010 A 
ATOM     12  C   UNL     1      -1.117  13.822   0.105  1.00  0.00     0.010 A 
ATOM     13  C   UNL     1      -1.405  12.516  -0.314  1.00  0.00    -0.014 A 
BRANCH  13  14
ATOM     14  C   UNL     1      -2.792  12.052  -0.584  1.00  0.00     0.031 A 
ATOM     15  C   UNL     1      -3.589  12.576  -1.746  1.00  0.00     0.074 A 
ATOM     16  C   UNL     1      -3.301  11.079   0.198  1.00  0.00     0.049 A 
ATOM     17  N   UNL     1      -4.769  12.193  -2.170  1.00  0.00    -0.248 NA
ATOM     18  C   UNL     1      -2.998  13.668  -2.535  1.00  0.00     0.031 C 
ATOM     19  C   UNL     1      -2.627  10.503   1.365  1.00  0.00     0.029 A 
ATOM     20  N   UNL     1      -4.471  10.369   0.109  1.00  0.00    -0.354 N 
ATOM     21  C   UNL     1      -5.066  12.999  -3.261  1.00  0.00     0.074 A 
ATOM     22  C   UNL     1      -3.954  13.911  -3.424  1.00  0.00     0.031 C 
ATOM     23  C   UNL     1      -3.352   9.477   1.830  1.00  0.00     0.029 A 
ATOM     24  C   UNL     1      -4.571   9.361   1.038  1.00  0.00     0.049 A 
ATOM     25  H   UNL     1      -5.171  10.563  -0.556  1.00  0.00     0.167 HD
ATOM     26  C   UNL     1      -6.162  12.972  -4.057  1.00  0.00     0.037 A 
ATOM     27  C   UNL     1      -5.534   8.442   1.233  1.00  0.00     0.037 A 
ATOM     28  C   UNL     1      -7.258  12.048  -3.905  1.00  0.00     0.049 A 
ATOM     29  C   UNL     1      -6.737   8.442   0.338  1.00  0.00     0.074 A 
ATOM     30  C   UNL     1      -8.399  11.933  -4.681  1.00  0.00     0.029 A 
ATOM     31  N   UNL     1      -7.348  11.081  -2.916  1.00  0.00    -0.354 N 
ATOM     32  N   UNL     1      -6.992   9.202  -0.698  1.00  0.00    -0.248 NA
ATOM     33  C   UNL     1      -7.791   7.467   0.647  1.00  0.00     0.031 C 
ATOM     34  C   UNL     1      -9.197  10.921  -4.140  1.00  0.00     0.029 A 
ATOM     35  C   UNL     1      -8.534  10.377  -3.052  1.00  0.00     0.049 A 
ATOM     36  H   UNL     1      -6.671  10.918  -2.220  1.00  0.00     0.167 HD
ATOM     37  C   UNL     1      -8.233   8.797  -1.167  1.00  0.00     0.074 A 
ATOM     38  C   UNL     1      -8.665   7.704  -0.321  1.00  0.00     0.031 C 
ATOM     39  C   UNL     1      -8.955   9.296  -2.199  1.00  0.00     0.037 A 
BRANCH  26  40
ATOM     40  C   UNL     1      -6.247  13.965  -5.178  1.00  0.00     0.057 A 
ATOM     41  C   UNL     1      -7.162  15.025  -5.125  1.00  0.00     0.134 A 
ATOM     42  C   UNL     1      -5.507  13.808  -6.356  1.00  0.00     0.134 A 
ATOM     43  F   UNL     1      -7.909  15.225  -4.028  1.00  0.00    -0.206 F 
ATOM     44  C   UNL     1      -7.352  15.882  -6.210  1.00  0.00     0.040 A 
ATOM     45  C   UNL     1      -5.675  14.670  -7.442  1.00  0.00     0.040 A 
ATOM     46  F   UNL     1      -4.611  12.817  -6.468  1.00  0.00    -0.206 F 
ATOM     47  C   UNL     1      -6.608  15.703  -7.375  1.00  0.00     0.006 A 
ENDBRANCH  26  40
BRANCH  27  48
ATOM     48  C   UNL     1      -5.387   7.440   2.318  1.00  0.00     0.057 A 
ATOM     49  C   UNL     1      -5.439   7.813   3.667  1.00  0.00     0.134 A 
ATOM     50  C   UNL     1      -5.168   6.089   2.029  1.00  0.00     0.134 A 
ATOM     51  F   UNL     1      -5.640   9.094   4.008  1.00  0.00    -0.206 F 
ATOM     52  C   UNL     1      -5.259   6.882   4.690  1.00  0.00     0.040 A 
ATOM     53  C   UNL     1      -5.013   5.142   3.043  1.00  0.00     0.040 A 
ATOM     54  F   UNL     1      -5.125   5.669   0.756  1.00  0.00    -0.206 F 
ATOM     55  C   UNL     1      -5.050   5.540   4.378  1.00  0.00     0.006 A 
ENDBRANCH  27  48
BRANCH  39  56
ATOM     56  C   UNL     1     -10.286   8.663  -2.470  1.00  0.00     0.057 A 
ATOM     57  C   UNL     1     -10.478   7.850  -3.593  1.00  0.00     0.134 A 
ATOM     58  C   UNL     1     -11.388   8.893  -1.637  1.00  0.00     0.134 A 
ATOM     59  F   UNL     1      -9.464   7.598  -4.434  1.00  0.00    -0.206 F 
ATOM     60  C   UNL     1     -11.723   7.290  -3.881  1.00  0.00     0.040 A 
ATOM     61  C   UNL     1     -12.632   8.320  -1.902  1.00  0.00     0.040 A 
ATOM     62  F   UNL     1     -11.263   9.653  -0.538  1.00  0.00    -0.206 F 
ATOM     63  C   UNL     1     -12.803   7.521  -3.031  1.00  0.00     0.006 A 
ENDBRANCH  39  56
ENDBRANCH  13  14
ENDBRANCH   6   8
ENDBRANCH   3   4
ENDBRANCH   2   3
ENDBRANCH   1   2
BRANCH   1  64
ATOM     64  C   UNL     1       6.434  11.817  -2.555  1.00  0.00     0.002 C 
BRANCH  64  65
ATOM     65  C   UNL     1       6.035  10.659  -3.475  1.00  0.00     0.021 C 
BRANCH  65  66
ATOM     66  C   UNL     1       6.119  10.923  -4.977  1.00  0.00     0.116 C 
BRANCH  66  67
ATOM     67  N   UNL     1       7.456  11.254  -5.433  1.00  0.00    -0.352 N 
ATOM     68  C   UNL     1       8.138  10.793  -6.537  1.00  0.00     0.256 C 
ATOM     69  H   UNL     1       7.945  11.900  -4.873  1.00  0.00     0.163 HD
ATOM     70  O   UNL     1       9.275  11.205  -6.762  1.00  0.00    -0.269 OA
BRANCH  68  71
ATOM     71  C   UNL     1       7.552   9.746  -7.403  1.00  0.00     0.098 A 
ATOM     72  C   UNL     1       6.320   9.972  -8.018  1.00  0.00     0.138 A 
ATOM     73  C   UNL     1       8.241   8.522  -7.586  1.00  0.00     0.050 A 
ATOM     74  F   UNL     1       5.699  11.156  -7.901  1.00  0.00    -0.206 F 
ATOM     75  C   UNL     1       5.696   8.967  -8.744  1.00  0.00     0.040 A 
ATOM     76  C   UNL     1       7.565   7.503  -8.267  1.00  0.00     0.027 A 
ATOM     77  C   UNL     1       6.309   7.723  -8.850  1.00  0.00     0.005 A 
BRANCH  73  78
ATOM     78  N   UNL     1       9.515   8.360  -7.085  1.00  0.00    -0.377 N 
ATOM     79  H   UNL     1      10.084   9.163  -7.126  1.00  0.00     0.161 HD
BRANCH  78  80
ATOM     80  C   UNL     1      10.149   7.183  -6.505  1.00  0.00     0.110 C 
ATOM     81  C   UNL     1      10.771   6.318  -7.614  1.00  0.00     0.030 C 
ATOM     82  C   UNL     1      11.178   7.701  -5.497  1.00  0.00    -0.023 A 
ATOM     83  C   UNL     1      11.925   5.466  -7.099  1.00  0.00     0.007 C 
ATOM     84  C   UNL     1      12.540   7.355  -5.571  1.00  0.00    -0.043 A 
ATOM     85  C   UNL     1      10.761   8.601  -4.495  1.00  0.00     0.006 A 
ATOM     86  C   UNL     1      13.043   6.366  -6.588  1.00  0.00     0.036 C 
ATOM     87  C   UNL     1      13.462   7.986  -4.720  1.00  0.00     0.004 A 
ATOM     88  C   UNL     1      11.684   9.210  -3.646  1.00  0.00     0.000 A 
ATOM     89  C   UNL     1      13.037   8.915  -3.772  1.00  0.00     0.000 A 
ENDBRANCH  78  80
ENDBRANCH  73  78
ENDBRANCH  68  71
ENDBRANCH  66  67
ENDBRANCH  65  66
ENDBRANCH  64  65
ENDBRANCH   1  64
TORSDOF 15
