REMARK SMILES COc1cc([C@H]2CC(c3ccc(S(C)(=O)=O)cc3)=NN2c2ccc(C(=O)NCCCCCCNC(=O)c3ccc(-c4c5nc(c(-c6c(F)cccc6F)c6ccc([nH]6)c(-c6c(F)cccc6F)c6nc(c(-c7c(F)cccc7F)c7ccc4[nH]7)C=C6)C=C5)cc3)cc2)cc(OC)c1OC
REMARK SMILES IDX 30 1 29 2 28 3 27 4 25 5 26 6 24 8 21 9 22 10 92 11 23 12
REMARK SMILES IDX 91 13 20 14 6 15 7 16 8 17 19 18 5 19 3 20 4 21 97 22 94 23
REMARK SMILES IDX 93 24 2 25 1 26 98 27 99 28 95 29 96 30 9 31 10 32 18 33
REMARK SMILES IDX 11 34 17 35 12 36 13 37 14 38 15 39 16 40 31 41 32 42 33 43
REMARK SMILES IDX 34 44 35 45 36 47 37 48 38 49 90 50 39 51 89 52 40 53 41 54
REMARK SMILES IDX 42 55 83 56 43 57 88 58 82 59 84 60 44 61 87 62 81 63 80 64
REMARK SMILES IDX 45 66 71 67 54 68 70 69 55 70 58 71 69 72 85 73 56 74 57 75
REMARK SMILES IDX 68 77 86 78 59 79 46 80 47 81 52 82 48 83 49 84 51 85 53 86
REMARK SMILES IDX 50 87 72 88 73 89 78 90 74 91 75 92 77 93 79 94 76 95 60 96
REMARK SMILES IDX 61 97 66 98 62 99 63 100 65 101 67 102 64 103
REMARK H PARENT 27 7 34 46 84 65 58 76
REMARK Flexibility Score: inf
ROOT
ATOM      1  C   UNL     1      -1.535   4.366   9.053  1.00  0.00     0.002 C 
ENDROOT
BRANCH   1   2
ATOM      2  C   UNL     1      -1.560   3.001   8.351  1.00  0.00     0.021 C 
BRANCH   2   3
ATOM      3  C   UNL     1      -0.448   2.842   7.312  1.00  0.00     0.116 C 
BRANCH   3   4
ATOM      4  N   UNL     1       0.807   2.558   7.977  1.00  0.00    -0.352 N 
ATOM      5  C   UNL     1       1.506   1.396   8.171  1.00  0.00     0.251 C 
ATOM      6  O   UNL     1       2.556   1.465   8.810  1.00  0.00    -0.269 OA
ATOM      7  H   UNL     1       1.242   3.353   8.364  1.00  0.00     0.163 HD
BRANCH   5   8
ATOM      8  C   UNL     1       1.088   0.089   7.596  1.00  0.00     0.039 A 
ATOM      9  C   UNL     1       0.499  -2.405   6.410  1.00  0.00     0.060 A 
ATOM     10  C   UNL     1       1.816  -2.055   6.723  1.00  0.00     0.029 A 
ATOM     11  C   UNL     1      -0.524  -1.519   6.748  1.00  0.00     0.029 A 
ATOM     12  C   UNL     1       2.112  -0.816   7.291  1.00  0.00     0.016 A 
ATOM     13  C   UNL     1      -0.236  -0.301   7.374  1.00  0.00     0.016 A 
BRANCH   9  14
ATOM     14  N   UNL     1       0.238  -3.625   5.817  1.00  0.00    -0.257 N 
ATOM     15  C   UNL     1      -0.333  -3.815   4.484  1.00  0.00     0.144 C 
ATOM     16  C   UNL     1      -0.491  -5.348   4.416  1.00  0.00     0.091 C 
ATOM     17  C   UNL     1      -0.078  -5.719   5.816  1.00  0.00     0.071 C 
ATOM     18  N   UNL     1       0.318  -4.745   6.569  1.00  0.00    -0.176 NA
BRANCH  15  19
ATOM     19  C   UNL     1       0.574  -3.205   3.424  1.00  0.00    -0.015 A 
ATOM     20  C   UNL     1       1.113  -1.383   1.880  1.00  0.00     0.164 A 
ATOM     21  C   UNL     1       0.220  -2.019   2.766  1.00  0.00     0.056 A 
ATOM     22  C   UNL     1       2.400  -1.902   1.645  1.00  0.00     0.203 A 
ATOM     23  C   UNL     1       2.755  -3.097   2.304  1.00  0.00     0.164 A 
ATOM     24  C   UNL     1       1.845  -3.731   3.168  1.00  0.00     0.056 A 
BRANCH  20  25
ATOM     25  O   UNL     1       0.716  -0.174   1.364  1.00  0.00    -0.493 OA
ATOM     26  C   UNL     1      -0.190  -0.334   0.272  1.00  0.00     0.278 C 
ENDBRANCH  20  25
BRANCH  22  27
ATOM     27  O   UNL     1       3.358  -1.360   0.835  1.00  0.00    -0.490 OA
ATOM     28  C   UNL     1       3.101  -0.204   0.059  1.00  0.00     0.278 C 
ENDBRANCH  22  27
BRANCH  23  29
ATOM     29  O   UNL     1       3.934  -3.797   2.212  1.00  0.00    -0.493 OA
ATOM     30  C   UNL     1       5.102  -3.098   1.807  1.00  0.00     0.278 C 
ENDBRANCH  23  29
ENDBRANCH  15  19
BRANCH  17  31
ATOM     31  C   UNL     1      -0.160  -7.093   6.326  1.00  0.00    -0.002 A 
ATOM     32  C   UNL     1      -0.845  -7.307   7.529  1.00  0.00     0.011 A 
ATOM     33  C   UNL     1       0.496  -8.142   5.680  1.00  0.00     0.011 A 
ATOM     34  C   UNL     1      -0.890  -8.583   8.087  1.00  0.00     0.021 A 
ATOM     35  C   UNL     1       0.474  -9.418   6.252  1.00  0.00     0.021 A 
ATOM     36  C   UNL     1      -0.215  -9.630   7.453  1.00  0.00     0.067 A 
BRANCH  36  37
ATOM     37  S   UNL     1      -0.253 -11.250   8.187  1.00  0.00     0.175 S 
ATOM     38  C   UNL     1       0.523 -11.037   9.768  1.00  0.00     0.163 C 
ATOM     39  O   UNL     1      -1.653 -11.572   8.403  1.00  0.00    -0.224 OA
ATOM     40  O   UNL     1       0.597 -12.112   7.393  1.00  0.00    -0.224 OA
ENDBRANCH  36  37
ENDBRANCH  17  31
ENDBRANCH   9  14
ENDBRANCH   5   8
ENDBRANCH   3   4
ENDBRANCH   2   3
ENDBRANCH   1   2
BRANCH   1  41
ATOM     41  C   UNL     1      -1.815   5.563   8.137  1.00  0.00     0.002 C 
BRANCH  41  42
ATOM     42  C   UNL     1      -3.129   5.485   7.356  1.00  0.00     0.021 C 
BRANCH  42  43
ATOM     43  C   UNL     1      -4.375   5.414   8.233  1.00  0.00     0.116 C 
BRANCH  43  44
ATOM     44  N   UNL     1      -4.575   6.644   8.983  1.00  0.00    -0.352 N 
ATOM     45  C   UNL     1      -5.679   7.457   9.031  1.00  0.00     0.251 C 
ATOM     46  H   UNL     1      -3.812   6.933   9.533  1.00  0.00     0.163 HD
ATOM     47  O   UNL     1      -5.608   8.572   9.538  1.00  0.00    -0.269 OA
BRANCH  45  48
ATOM     48  C   UNL     1      -6.958   6.990   8.458  1.00  0.00     0.039 A 
ATOM     49  C   UNL     1      -7.697   7.858   7.650  1.00  0.00     0.014 A 
ATOM     50  C   UNL     1      -7.433   5.704   8.734  1.00  0.00     0.014 A 
ATOM     51  C   UNL     1      -8.892   7.419   7.077  1.00  0.00     0.010 A 
ATOM     52  C   UNL     1      -8.593   5.248   8.114  1.00  0.00     0.010 A 
ATOM     53  C   UNL     1      -9.336   6.103   7.286  1.00  0.00    -0.014 A 
BRANCH  53  54
ATOM     54  C   UNL     1     -10.584   5.602   6.660  1.00  0.00     0.031 A 
ATOM     55  C   UNL     1     -11.757   5.228   7.522  1.00  0.00     0.074 A 
ATOM     56  C   UNL     1     -10.636   5.417   5.328  1.00  0.00     0.049 A 
ATOM     57  N   UNL     1     -12.896   4.683   7.177  1.00  0.00    -0.248 NA
ATOM     58  C   UNL     1     -11.620   5.473   8.966  1.00  0.00     0.031 C 
ATOM     59  C   UNL     1      -9.549   5.705   4.390  1.00  0.00     0.029 A 
ATOM     60  N   UNL     1     -11.641   4.926   4.533  1.00  0.00    -0.354 N 
ATOM     61  C   UNL     1     -13.600   4.503   8.361  1.00  0.00     0.074 A 
ATOM     62  C   UNL     1     -12.745   4.955   9.436  1.00  0.00     0.031 C 
ATOM     63  C   UNL     1      -9.952   5.400   3.145  1.00  0.00     0.029 A 
ATOM     64  C   UNL     1     -11.309   4.864   3.202  1.00  0.00     0.049 A 
ATOM     65  H   UNL     1     -12.517   4.646   4.884  1.00  0.00     0.167 HD
ATOM     66  C   UNL     1     -14.855   4.022   8.533  1.00  0.00     0.037 A 
ATOM     67  C   UNL     1     -12.016   4.417   2.148  1.00  0.00     0.037 A 
ATOM     68  C   UNL     1     -15.716   3.604   7.459  1.00  0.00     0.049 A 
ATOM     69  C   UNL     1     -13.409   3.894   2.364  1.00  0.00     0.074 A 
ATOM     70  C   UNL     1     -17.024   3.159   7.526  1.00  0.00     0.029 A 
ATOM     71  N   UNL     1     -15.353   3.582   6.121  1.00  0.00    -0.354 N 
ATOM     72  N   UNL     1     -14.083   3.780   3.482  1.00  0.00    -0.248 NA
ATOM     73  C   UNL     1     -14.140   3.443   1.172  1.00  0.00     0.031 C 
ATOM     74  C   UNL     1     -17.442   2.836   6.231  1.00  0.00     0.029 A 
ATOM     75  C   UNL     1     -16.407   3.116   5.354  1.00  0.00     0.049 A 
ATOM     76  H   UNL     1     -14.475   3.857   5.769  1.00  0.00     0.167 HD
ATOM     77  C   UNL     1     -15.326   3.272   3.127  1.00  0.00     0.074 A 
ATOM     78  C   UNL     1     -15.315   3.108   1.688  1.00  0.00     0.031 C 
ATOM     79  C   UNL     1     -16.381   2.969   3.921  1.00  0.00     0.037 A 
BRANCH  66  80
ATOM     80  C   UNL     1     -15.370   3.928   9.939  1.00  0.00     0.057 A 
ATOM     81  C   UNL     1     -15.709   5.069  10.678  1.00  0.00     0.134 A 
ATOM     82  C   UNL     1     -15.558   2.682  10.551  1.00  0.00     0.134 A 
ATOM     83  F   UNL     1     -15.540   6.293  10.155  1.00  0.00    -0.206 F 
ATOM     84  C   UNL     1     -16.190   4.976  11.985  1.00  0.00     0.040 A 
ATOM     85  C   UNL     1     -16.062   2.575  11.848  1.00  0.00     0.040 A 
ATOM     86  F   UNL     1     -15.259   1.550   9.897  1.00  0.00    -0.206 F 
ATOM     87  C   UNL     1     -16.374   3.725  12.571  1.00  0.00     0.006 A 
ENDBRANCH  66  80
BRANCH  67  88
ATOM     88  C   UNL     1     -11.429   4.467   0.786  1.00  0.00     0.057 A 
ATOM     89  C   UNL     1     -11.892   5.384  -0.163  1.00  0.00     0.134 A 
ATOM     90  C   UNL     1     -10.396   3.604   0.401  1.00  0.00     0.134 A 
ATOM     91  F   UNL     1     -12.892   6.224   0.143  1.00  0.00    -0.206 F 
ATOM     92  C   UNL     1     -11.362   5.432  -1.453  1.00  0.00     0.040 A 
ATOM     93  C   UNL     1      -9.841   3.655  -0.878  1.00  0.00     0.040 A 
ATOM     94  F   UNL     1      -9.904   2.707   1.269  1.00  0.00    -0.206 F 
ATOM     95  C   UNL     1     -10.329   4.568  -1.812  1.00  0.00     0.006 A 
ENDBRANCH  67  88
BRANCH  79  96
ATOM     96  C   UNL     1     -17.622   2.464   3.249  1.00  0.00     0.057 A 
ATOM     97  C   UNL     1     -17.707   1.164   2.737  1.00  0.00     0.134 A 
ATOM     98  C   UNL     1     -18.760   3.276   3.153  1.00  0.00     0.134 A 
ATOM     99  F   UNL     1     -16.647   0.343   2.786  1.00  0.00    -0.206 F 
ATOM    100  C   UNL     1     -18.876   0.693   2.137  1.00  0.00     0.040 A 
ATOM    101  C   UNL     1     -19.941   2.809   2.576  1.00  0.00     0.040 A 
ATOM    102  F   UNL     1     -18.745   4.529   3.631  1.00  0.00    -0.206 F 
ATOM    103  C   UNL     1     -20.000   1.515   2.062  1.00  0.00     0.006 A 
ENDBRANCH  79  96
ENDBRANCH  53  54
ENDBRANCH  45  48
ENDBRANCH  43  44
ENDBRANCH  42  43
ENDBRANCH  41  42
ENDBRANCH   1  41
TORSDOF 20
