REMARK SMILES CC(C)[NH2+][C@]1(C(=O)NCCCCCCNC(=O)c2ccc(-c3c4nc(c(-c5c(F)cccc5F)c5ccc([nH]5)c(-c5c(F)cccc5F)c5nc(c(-c6c(F)cccc6F)c6ccc3[nH]6)C=C5)C=C4)cc2)CC[C@H]([N@H+](C)C2CCCC2)C1
REMARK SMILES IDX 11 1 10 2 9 3 8 4 6 5 7 6 5 8 72 9 82 10 73 11 74 12 4 13
REMARK SMILES IDX 2 16 1 17 3 18 75 19 76 20 77 22 78 23 81 24 79 25 80 26
REMARK SMILES IDX 12 27 13 28 14 29 15 30 16 31 17 33 18 34 19 35 71 36 20 37
REMARK SMILES IDX 70 38 21 39 22 40 23 41 64 42 24 43 69 44 63 45 65 46 25 47
REMARK SMILES IDX 68 48 62 49 61 50 26 52 52 53 35 54 51 55 36 56 39 57 50 58
REMARK SMILES IDX 66 59 37 60 38 61 49 63 67 64 40 65 27 66 28 67 33 68 29 69
REMARK SMILES IDX 30 70 32 71 34 72 31 73 53 74 54 75 59 76 55 77 56 78 58 79
REMARK SMILES IDX 60 80 57 81 41 82 42 83 47 84 43 85 44 86 46 87 48 88 45 89
REMARK H PARENT 8 7 4 14 4 15 75 21 15 32 65 51 39 62
REMARK Flexibility Score: inf
ROOT
ATOM      1  C   UNL     1      -3.046   2.855   0.791  1.00  0.00     0.002 C 
ENDROOT
BRANCH   1   2
ATOM      2  C   UNL     1      -3.118   1.351   0.539  1.00  0.00     0.021 C 
BRANCH   2   3
ATOM      3  C   UNL     1      -2.615   0.793  -0.809  1.00  0.00     0.116 C 
BRANCH   3   4
ATOM      4  N   UNL     1      -1.310   0.149  -0.682  1.00  0.00    -0.351 N 
ATOM      5  C   UNL     1      -0.857  -1.127  -0.532  1.00  0.00     0.281 C 
ATOM      6  O   UNL     1       0.381  -1.194  -0.430  1.00  0.00    -0.268 OA
ATOM      7  H   UNL     1      -0.573   0.800  -0.711  1.00  0.00     0.163 HD
BRANCH   5   8
ATOM      8  C   UNL     1      -1.689  -2.461  -0.555  1.00  0.00     0.181 C 
ATOM      9  C   UNL     1      -1.574  -3.097  -1.965  1.00  0.00     0.085 C 
ATOM     10  C   UNL     1      -0.957  -3.591   0.234  1.00  0.00     0.144 C 
ATOM     11  C   UNL     1      -1.894  -4.589  -1.765  1.00  0.00     0.072 C 
ATOM     12  C   UNL     1      -1.391  -4.959  -0.342  1.00  0.00     0.191 C 
BRANCH   8  13
ATOM     13  N   UNL     1      -3.133  -2.352  -0.249  1.00  0.00    -0.331 N 
ATOM     14  H   UNL     1      -3.538  -1.763  -0.977  1.00  0.00     0.347 HD
ATOM     15  H   UNL     1      -3.420  -3.329  -0.195  1.00  0.00     0.347 HD
BRANCH  13  16
ATOM     16  C   UNL     1      -3.605  -1.815   1.024  1.00  0.00     0.176 C 
ATOM     17  C   UNL     1      -4.969  -2.404   1.420  1.00  0.00     0.075 C 
ATOM     18  C   UNL     1      -2.652  -1.692   2.210  1.00  0.00     0.075 C 
ENDBRANCH  13  16
ENDBRANCH   8  13
BRANCH  12  19
ATOM     19  N   UNL     1      -2.213  -5.907   0.460  1.00  0.00    -0.332 N 
ATOM     20  C   UNL     1      -2.971  -6.856  -0.350  1.00  0.00     0.333 C 
ATOM     21  H   UNL     1      -1.482  -6.443   0.927  1.00  0.00     0.348 HD
BRANCH  19  22
ATOM     22  C   UNL     1      -2.924  -5.402   1.635  1.00  0.00     0.184 C 
ATOM     23  C   UNL     1      -4.179  -6.151   2.131  1.00  0.00     0.065 C 
ATOM     24  C   UNL     1      -2.110  -5.393   2.939  1.00  0.00     0.065 C 
ATOM     25  C   UNL     1      -4.481  -5.517   3.489  1.00  0.00     0.006 C 
ATOM     26  C   UNL     1      -3.139  -5.011   4.009  1.00  0.00     0.006 C 
ENDBRANCH  19  22
ENDBRANCH  12  19
ENDBRANCH   5   8
ENDBRANCH   3   4
ENDBRANCH   2   3
ENDBRANCH   1   2
BRANCH   1  27
ATOM     27  C   UNL     1      -4.188   3.679   0.185  1.00  0.00     0.002 C 
BRANCH  27  28
ATOM     28  C   UNL     1      -5.628   3.218   0.473  1.00  0.00     0.021 C 
BRANCH  28  29
ATOM     29  C   UNL     1      -6.000   2.992   1.942  1.00  0.00     0.116 C 
BRANCH  29  30
ATOM     30  N   UNL     1      -5.935   4.215   2.726  1.00  0.00    -0.352 N 
ATOM     31  C   UNL     1      -6.940   5.033   3.172  1.00  0.00     0.251 C 
ATOM     32  H   UNL     1      -5.027   4.500   2.976  1.00  0.00     0.163 HD
ATOM     33  O   UNL     1      -6.663   6.145   3.632  1.00  0.00    -0.269 OA
BRANCH  31  34
ATOM     34  C   UNL     1      -8.356   4.617   3.107  1.00  0.00     0.039 A 
ATOM     35  C   UNL     1      -9.300   5.511   2.591  1.00  0.00     0.014 A 
ATOM     36  C   UNL     1      -8.773   3.385   3.620  1.00  0.00     0.014 A 
ATOM     37  C   UNL     1     -10.649   5.148   2.530  1.00  0.00     0.010 A 
ATOM     38  C   UNL     1     -10.114   3.006   3.522  1.00  0.00     0.010 A 
ATOM     39  C   UNL     1     -11.064   3.880   2.970  1.00  0.00    -0.014 A 
BRANCH  39  40
ATOM     40  C   UNL     1     -12.477   3.443   2.824  1.00  0.00     0.031 A 
ATOM     41  C   UNL     1     -13.347   3.228   4.031  1.00  0.00     0.074 A 
ATOM     42  C   UNL     1     -12.959   3.171   1.596  1.00  0.00     0.049 A 
ATOM     43  N   UNL     1     -14.577   2.784   4.095  1.00  0.00    -0.248 NA
ATOM     44  C   UNL     1     -12.749   3.535   5.339  1.00  0.00     0.031 C 
ATOM     45  C   UNL     1     -12.209   3.305   0.346  1.00  0.00     0.029 A 
ATOM     46  N   UNL     1     -14.190   2.713   1.197  1.00  0.00    -0.354 N 
ATOM     47  C   UNL     1     -14.896   2.742   5.446  1.00  0.00     0.074 A 
ATOM     48  C   UNL     1     -13.718   3.174   6.169  1.00  0.00     0.031 C 
ATOM     49  C   UNL     1     -12.999   2.951  -0.680  1.00  0.00     0.029 A 
ATOM     50  C   UNL     1     -14.297   2.534  -0.160  1.00  0.00     0.049 A 
ATOM     51  H   UNL     1     -14.927   2.530   1.825  1.00  0.00     0.167 HD
ATOM     52  C   UNL     1     -16.068   2.389   6.029  1.00  0.00     0.037 A 
ATOM     53  C   UNL     1     -15.322   2.075  -0.904  1.00  0.00     0.037 A 
ATOM     54  C   UNL     1     -17.248   1.985   5.309  1.00  0.00     0.049 A 
ATOM     55  C   UNL     1     -16.601   1.668  -0.231  1.00  0.00     0.074 A 
ATOM     56  C   UNL     1     -18.508   1.699   5.808  1.00  0.00     0.029 A 
ATOM     57  N   UNL     1     -17.311   1.801   3.936  1.00  0.00    -0.354 N 
ATOM     58  N   UNL     1     -16.912   1.703   1.041  1.00  0.00    -0.248 NA
ATOM     59  C   UNL     1     -17.670   1.152  -1.099  1.00  0.00     0.031 C 
ATOM     60  C   UNL     1     -19.321   1.298   4.741  1.00  0.00     0.029 A 
ATOM     61  C   UNL     1     -18.578   1.370   3.574  1.00  0.00     0.049 A 
ATOM     62  H   UNL     1     -16.567   1.954   3.311  1.00  0.00     0.167 HD
ATOM     63  C   UNL     1     -18.214   1.230   1.127  1.00  0.00     0.074 A 
ATOM     64  C   UNL     1     -18.641   0.928  -0.224  1.00  0.00     0.031 C 
ATOM     65  C   UNL     1     -18.986   1.060   2.228  1.00  0.00     0.037 A 
BRANCH  52  66
ATOM     66  C   UNL     1     -16.131   2.419   7.528  1.00  0.00     0.057 A 
ATOM     67  C   UNL     1     -16.167   3.623   8.243  1.00  0.00     0.134 A 
ATOM     68  C   UNL     1     -16.198   1.228   8.264  1.00  0.00     0.134 A 
ATOM     69  F   UNL     1     -16.099   4.798   7.598  1.00  0.00    -0.206 F 
ATOM     70  C   UNL     1     -16.239   3.642   9.637  1.00  0.00     0.040 A 
ATOM     71  C   UNL     1     -16.294   1.235   9.656  1.00  0.00     0.040 A 
ATOM     72  F   UNL     1     -16.178   0.040   7.641  1.00  0.00    -0.206 F 
ATOM     73  C   UNL     1     -16.309   2.445  10.347  1.00  0.00     0.006 A 
ENDBRANCH  52  66
BRANCH  53  74
ATOM     74  C   UNL     1     -15.183   1.991  -2.378  1.00  0.00     0.057 A 
ATOM     75  C   UNL     1     -15.857   2.887  -3.214  1.00  0.00     0.134 A 
ATOM     76  C   UNL     1     -14.372   1.024  -2.985  1.00  0.00     0.134 A 
ATOM     77  F   UNL     1     -16.665   3.821  -2.689  1.00  0.00    -0.206 F 
ATOM     78  C   UNL     1     -15.738   2.822  -4.603  1.00  0.00     0.040 A 
ATOM     79  C   UNL     1     -14.227   0.961  -4.372  1.00  0.00     0.040 A 
ATOM     80  F   UNL     1     -13.697   0.140  -2.237  1.00  0.00    -0.206 F 
ATOM     81  C   UNL     1     -14.915   1.860  -5.185  1.00  0.00     0.006 A 
ENDBRANCH  53  74
BRANCH  65  82
ATOM     82  C   UNL     1     -20.372   0.528   2.015  1.00  0.00     0.057 A 
ATOM     83  C   UNL     1     -20.600  -0.820   1.713  1.00  0.00     0.134 A 
ATOM     84  C   UNL     1     -21.489   1.362   2.145  1.00  0.00     0.134 A 
ATOM     85  F   UNL     1     -19.570  -1.666   1.559  1.00  0.00    -0.206 F 
ATOM     86  C   UNL     1     -21.891  -1.317   1.530  1.00  0.00     0.040 A 
ATOM     87  C   UNL     1     -22.786   0.872   1.987  1.00  0.00     0.040 A 
ATOM     88  F   UNL     1     -21.338   2.662   2.438  1.00  0.00    -0.206 F 
ATOM     89  C   UNL     1     -22.989  -0.471   1.674  1.00  0.00     0.006 A 
ENDBRANCH  65  82
ENDBRANCH  39  40
ENDBRANCH  31  34
ENDBRANCH  29  30
ENDBRANCH  28  29
ENDBRANCH  27  28
ENDBRANCH   1  27
TORSDOF 17
