REMARK SMILES C/C(=C/c1cccc(OCC(=O)NCCCCCCNC(=O)c2ccc(-c3c4nc(c(-c5c(F)cccc5F)c5ccc([nH]5)c(-c5c(F)cccc5F)c5nc(c(-c6c(F)cccc6F)c6ccc3[nH]6)C=C5)C=C4)cc2)c1)c1nc2sccc2c(=O)[nH]1
REMARK SMILES IDX 15 1 14 2 13 3 11 4 12 5 10 7 9 8 8 9 4 10 5 11 77 12 6 13
REMARK SMILES IDX 7 14 3 15 1 16 2 17 78 18 79 19 87 20 80 21 85 22 81 24
REMARK SMILES IDX 84 25 86 26 82 27 83 28 16 29 17 30 18 31 19 32 20 33 21 34
REMARK SMILES IDX 22 36 23 37 24 38 76 39 25 40 75 41 26 42 27 43 28 44 69 45
REMARK SMILES IDX 29 46 74 47 68 48 70 49 30 50 73 51 67 52 66 53 31 55 57 56
REMARK SMILES IDX 40 57 56 58 41 59 44 60 55 61 71 62 42 63 43 64 54 66 72 67
REMARK SMILES IDX 45 68 32 69 33 70 38 71 34 72 35 73 37 74 39 75 36 76 58 77
REMARK SMILES IDX 59 78 64 79 60 80 61 81 63 82 65 83 62 84 46 85 47 86 52 87
REMARK SMILES IDX 48 88 49 89 51 90 53 91 50 92
REMARK H PARENT 13 6 87 23 20 35 70 54 44 65
REMARK Flexibility Score: inf
ROOT
ATOM      1  C   UNL     1      -0.765  -2.722   7.672  1.00  0.00     0.021 C 
ENDROOT
BRANCH   1   2
ATOM      2  C   UNL     1       0.666  -2.326   8.036  1.00  0.00     0.116 C 
BRANCH   2   3
ATOM      3  N   UNL     1       1.543  -2.167   6.894  1.00  0.00    -0.353 N 
ATOM      4  C   UNL     1       2.099  -1.017   6.411  1.00  0.00     0.257 C 
ATOM      5  O   UNL     1       3.012  -1.093   5.589  1.00  0.00    -0.271 OA
ATOM      6  H   UNL     1       1.766  -2.992   6.404  1.00  0.00     0.163 HD
BRANCH   4   7
ATOM      7  C   UNL     1       1.632   0.342   6.934  1.00  0.00     0.329 C 
BRANCH   7   8
ATOM      8  O   UNL     1       0.231   0.546   7.001  1.00  0.00    -0.484 OA
BRANCH   8   9
ATOM      9  C   UNL     1      -0.457   0.751   5.838  1.00  0.00     0.120 A 
ATOM     10  C   UNL     1      -0.784   0.950   3.439  1.00  0.00    -0.022 A 
ATOM     11  C   UNL     1      -2.145   1.201   3.648  1.00  0.00     0.008 A 
ATOM     12  C   UNL     1       0.061   0.737   4.542  1.00  0.00     0.054 A 
ATOM     13  C   UNL     1      -2.664   1.215   4.941  1.00  0.00     0.004 A 
ATOM     14  C   UNL     1      -1.821   0.989   6.027  1.00  0.00     0.046 A 
BRANCH  10  15
ATOM     15  C   UNL     1      -0.271   0.959   2.062  1.00  0.00     0.015 C 
ATOM     16  C   UNL     1       0.932   0.086   0.048  1.00  0.00     0.048 C 
ATOM     17  C   UNL     1       0.387  -0.036   1.438  1.00  0.00    -0.008 C 
BRANCH  17  18
ATOM     18  C   UNL     1       0.659  -1.341   2.101  1.00  0.00     0.137 A 
ATOM     19  N   UNL     1       1.867  -1.775   2.284  1.00  0.00    -0.219 NA
ATOM     20  N   UNL     1      -0.478  -2.036   2.455  1.00  0.00    -0.306 N 
ATOM     21  C   UNL     1       1.944  -2.966   2.935  1.00  0.00     0.131 A 
ATOM     22  C   UNL     1      -0.453  -3.267   3.069  1.00  0.00     0.259 A 
ATOM     23  H   UNL     1      -1.353  -1.630   2.258  1.00  0.00     0.171 HD
ATOM     24  S   UNL     1       3.441  -3.669   3.363  1.00  0.00    -0.124 S 
ATOM     25  C   UNL     1       0.885  -3.744   3.347  1.00  0.00     0.077 A 
ATOM     26  O   UNL     1      -1.471  -3.880   3.352  1.00  0.00    -0.269 OA
ATOM     27  C   UNL     1       2.672  -4.992   4.136  1.00  0.00     0.068 A 
ATOM     28  C   UNL     1       1.301  -4.929   4.022  1.00  0.00     0.028 A 
ENDBRANCH  17  18
ENDBRANCH  10  15
ENDBRANCH   8   9
ENDBRANCH   7   8
ENDBRANCH   4   7
ENDBRANCH   2   3
ENDBRANCH   1   2
BRANCH   1  29
ATOM     29  C   UNL     1      -0.928  -4.044   6.917  1.00  0.00     0.002 C 
BRANCH  29  30
ATOM     30  C   UNL     1      -0.185  -5.259   7.477  1.00  0.00     0.002 C 
BRANCH  30  31
ATOM     31  C   UNL     1      -0.529  -5.637   8.917  1.00  0.00     0.021 C 
BRANCH  31  32
ATOM     32  C   UNL     1      -1.981  -6.038   9.153  1.00  0.00     0.116 C 
BRANCH  32  33
ATOM     33  N   UNL     1      -2.361  -7.261   8.463  1.00  0.00    -0.352 N 
ATOM     34  C   UNL     1      -3.132  -8.305   8.920  1.00  0.00     0.251 C 
ATOM     35  H   UNL     1      -2.020  -7.355   7.545  1.00  0.00     0.163 HD
ATOM     36  O   UNL     1      -3.269  -9.320   8.245  1.00  0.00    -0.269 OA
BRANCH  34  37
ATOM     37  C   UNL     1      -3.769  -8.216  10.253  1.00  0.00     0.039 A 
ATOM     38  C   UNL     1      -3.658  -9.300  11.128  1.00  0.00     0.014 A 
ATOM     39  C   UNL     1      -4.450  -7.062  10.648  1.00  0.00     0.014 A 
ATOM     40  C   UNL     1      -4.162  -9.196  12.427  1.00  0.00     0.010 A 
ATOM     41  C   UNL     1      -4.888  -6.932  11.962  1.00  0.00     0.010 A 
ATOM     42  C   UNL     1      -4.746  -7.996  12.866  1.00  0.00    -0.014 A 
BRANCH  42  43
ATOM     43  C   UNL     1      -5.205  -7.831  14.268  1.00  0.00     0.031 A 
ATOM     44  C   UNL     1      -6.663  -7.613  14.566  1.00  0.00     0.074 A 
ATOM     45  C   UNL     1      -4.302  -7.801  15.268  1.00  0.00     0.049 A 
ATOM     46  N   UNL     1      -7.247  -7.375  15.713  1.00  0.00    -0.248 NA
ATOM     47  C   UNL     1      -7.582  -7.634  13.416  1.00  0.00     0.031 C 
ATOM     48  C   UNL     1      -2.854  -7.942  15.106  1.00  0.00     0.029 A 
ATOM     49  N   UNL     1      -4.469  -7.631  16.619  1.00  0.00    -0.354 N 
ATOM     50  C   UNL     1      -8.593  -7.200  15.421  1.00  0.00     0.074 A 
ATOM     51  C   UNL     1      -8.733  -7.309  13.985  1.00  0.00     0.031 C 
ATOM     52  C   UNL     1      -2.268  -7.876  16.312  1.00  0.00     0.029 A 
ATOM     53  C   UNL     1      -3.293  -7.658  17.328  1.00  0.00     0.049 A 
ATOM     54  H   UNL     1      -5.349  -7.502  17.041  1.00  0.00     0.167 HD
ATOM     55  C   UNL     1      -9.624  -6.992  16.274  1.00  0.00     0.037 A 
ATOM     56  C   UNL     1      -3.066  -7.521  18.648  1.00  0.00     0.037 A 
ATOM     57  C   UNL     1      -9.490  -6.919  17.705  1.00  0.00     0.049 A 
ATOM     58  C   UNL     1      -4.230  -7.314  19.577  1.00  0.00     0.074 A 
ATOM     59  C   UNL     1     -10.482  -6.777  18.659  1.00  0.00     0.029 A 
ATOM     60  N   UNL     1      -8.285  -6.986  18.388  1.00  0.00    -0.354 N 
ATOM     61  N   UNL     1      -5.506  -7.218  19.294  1.00  0.00    -0.248 NA
ATOM     62  C   UNL     1      -3.922  -7.203  21.010  1.00  0.00     0.031 C 
ATOM     63  C   UNL     1      -9.874  -6.726  19.919  1.00  0.00     0.029 A 
ATOM     64  C   UNL     1      -8.507  -6.875  19.750  1.00  0.00     0.049 A 
ATOM     65  H   UNL     1      -7.402  -7.097  17.967  1.00  0.00     0.167 HD
ATOM     66  C   UNL     1      -6.155  -7.063  20.511  1.00  0.00     0.074 A 
ATOM     67  C   UNL     1      -5.133  -7.090  21.537  1.00  0.00     0.031 C 
ATOM     68  C   UNL     1      -7.479  -6.912  20.758  1.00  0.00     0.037 A 
BRANCH  55  69
ATOM     69  C   UNL     1     -10.992  -6.838  15.677  1.00  0.00     0.057 A 
ATOM     70  C   UNL     1     -11.674  -7.923  15.110  1.00  0.00     0.134 A 
ATOM     71  C   UNL     1     -11.645  -5.600  15.690  1.00  0.00     0.134 A 
ATOM     72  F   UNL     1     -11.098  -9.134  15.055  1.00  0.00    -0.206 F 
ATOM     73  C   UNL     1     -12.945  -7.776  14.552  1.00  0.00     0.040 A 
ATOM     74  C   UNL     1     -12.927  -5.445  15.158  1.00  0.00     0.040 A 
ATOM     75  F   UNL     1     -11.051  -4.521  16.223  1.00  0.00    -0.206 F 
ATOM     76  C   UNL     1     -13.577  -6.534  14.580  1.00  0.00     0.006 A 
ENDBRANCH  55  69
BRANCH  56  77
ATOM     77  C   UNL     1      -1.683  -7.612  19.178  1.00  0.00     0.057 A 
ATOM     78  C   UNL     1      -1.267  -8.726  19.915  1.00  0.00     0.134 A 
ATOM     79  C   UNL     1      -0.749  -6.591  18.967  1.00  0.00     0.134 A 
ATOM     80  F   UNL     1      -2.125  -9.727  20.165  1.00  0.00    -0.206 F 
ATOM     81  C   UNL     1       0.022  -8.816  20.440  1.00  0.00     0.040 A 
ATOM     82  C   UNL     1       0.552  -6.678  19.468  1.00  0.00     0.040 A 
ATOM     83  F   UNL     1      -1.083  -5.501  18.262  1.00  0.00    -0.206 F 
ATOM     84  C   UNL     1       0.938  -7.791  20.213  1.00  0.00     0.006 A 
ENDBRANCH  56  77
BRANCH  68  85
ATOM     85  C   UNL     1      -7.899  -6.797  22.192  1.00  0.00     0.057 A 
ATOM     86  C   UNL     1      -7.677  -5.631  22.935  1.00  0.00     0.134 A 
ATOM     87  C   UNL     1      -8.567  -7.853  22.826  1.00  0.00     0.134 A 
ATOM     88  F   UNL     1      -7.030  -4.590  22.389  1.00  0.00    -0.206 F 
ATOM     89  C   UNL     1      -8.087  -5.526  24.265  1.00  0.00     0.040 A 
ATOM     90  C   UNL     1      -9.003  -7.751  24.147  1.00  0.00     0.040 A 
ATOM     91  F   UNL     1      -8.817  -8.994  22.166  1.00  0.00    -0.206 F 
ATOM     92  C   UNL     1      -8.758  -6.586  24.872  1.00  0.00     0.006 A 
ENDBRANCH  68  85
ENDBRANCH  42  43
ENDBRANCH  34  37
ENDBRANCH  32  33
ENDBRANCH  31  32
ENDBRANCH  30  31
ENDBRANCH  29  30
ENDBRANCH   1  29
TORSDOF 17
