REMARK SMILES COc1ccc(-c2c(C)n[nH]c2C)c(C(=O)NCCCCCCNC(=O)c2ccc(-c3c4nc(c(-c5c(F)cccc5F)c5ccc([nH]5)c(-c5c(F)cccc5F)c5nc(c(-c6c(F)cccc6F)c6ccc3[nH]6)C=C5)C=C4)cc2)c1
REMARK SMILES IDX 21 1 20 2 19 3 18 4 17 5 15 6 16 7 14 9 3 10 4 11 81 12 5 13
REMARK SMILES IDX 6 14 2 15 1 16 7 17 8 18 12 19 9 20 10 21 11 22 13 23 22 25
REMARK SMILES IDX 23 26 24 27 25 28 26 30 27 31 28 32 80 33 29 34 79 35 30 36
REMARK SMILES IDX 31 37 32 38 73 39 33 40 78 41 72 42 74 43 34 44 77 45 71 46
REMARK SMILES IDX 70 47 35 49 61 50 44 51 60 52 45 53 48 54 59 55 75 56 46 57
REMARK SMILES IDX 47 58 58 60 76 61 49 62 36 63 37 64 42 65 38 66 39 67 41 68
REMARK SMILES IDX 43 69 40 70 62 71 63 72 68 73 64 74 65 75 67 76 69 77 66 78
REMARK SMILES IDX 50 79 51 80 56 81 52 82 53 83 55 84 57 85 54 86
REMARK H PARENT 17 8 11 24 24 29 74 48 48 59
REMARK Flexibility Score: inf
ROOT
ATOM      1  C   UNL     1       7.400  -0.589  -0.418  1.00  0.00     0.002 C 
ENDROOT
BRANCH   1   2
ATOM      2  C   UNL     1       7.180  -1.230   0.954  1.00  0.00     0.002 C 
BRANCH   2   3
ATOM      3  C   UNL     1       5.757  -1.185   1.510  1.00  0.00     0.021 C 
BRANCH   3   4
ATOM      4  C   UNL     1       4.645  -1.698   0.604  1.00  0.00     0.116 C 
BRANCH   4   5
ATOM      5  N   UNL     1       4.792  -3.076   0.166  1.00  0.00    -0.352 N 
ATOM      6  C   UNL     1       3.855  -4.070  -0.053  1.00  0.00     0.252 C 
ATOM      7  O   UNL     1       4.249  -5.113  -0.567  1.00  0.00    -0.269 OA
ATOM      8  H   UNL     1       5.722  -3.350  -0.004  1.00  0.00     0.163 HD
BRANCH   6   9
ATOM      9  C   UNL     1       2.424  -3.891   0.344  1.00  0.00     0.051 A 
ATOM     10  C   UNL     1       0.544  -2.360   0.633  1.00  0.00     0.119 A 
ATOM     11  C   UNL     1      -0.154  -3.352   1.312  1.00  0.00     0.047 A 
ATOM     12  C   UNL     1       1.801  -2.654   0.106  1.00  0.00     0.060 A 
ATOM     13  C   UNL     1       0.387  -4.632   1.433  1.00  0.00     0.013 A 
ATOM     14  C   UNL     1       1.669  -4.924   0.934  1.00  0.00    -0.002 A 
BRANCH  10  15
ATOM     15  O   UNL     1      -0.090  -1.152   0.549  1.00  0.00    -0.497 OA
ATOM     16  C   UNL     1       0.671  -0.060   0.044  1.00  0.00     0.278 C 
ENDBRANCH  10  15
BRANCH  14  17
ATOM     17  C   UNL     1       2.053  -6.324   0.913  1.00  0.00     0.026 A 
ATOM     18  C   UNL     1       1.543  -7.357   0.075  1.00  0.00     0.067 A 
ATOM     19  C   UNL     1       2.966  -6.952   1.736  1.00  0.00     0.040 A 
ATOM     20  C   UNL     1       0.522  -7.239  -0.997  1.00  0.00     0.069 C 
ATOM     21  N   UNL     1       2.098  -8.542   0.356  1.00  0.00    -0.180 NA
ATOM     22  N   UNL     1       2.988  -8.256   1.317  1.00  0.00    -0.282 N 
ATOM     23  C   UNL     1       3.835  -6.475   2.833  1.00  0.00     0.067 C 
ATOM     24  H   UNL     1       3.605  -8.927   1.691  1.00  0.00     0.190 HD
ENDBRANCH  14  17
ENDBRANCH   6   9
ENDBRANCH   4   5
ENDBRANCH   3   4
ENDBRANCH   2   3
ENDBRANCH   1   2
BRANCH   1  25
ATOM     25  C   UNL     1       6.914   0.852  -0.580  1.00  0.00     0.021 C 
BRANCH  25  26
ATOM     26  C   UNL     1       7.431   1.846   0.453  1.00  0.00     0.116 C 
BRANCH  26  27
ATOM     27  N   UNL     1       8.877   1.981   0.433  1.00  0.00    -0.352 N 
ATOM     28  C   UNL     1       9.650   3.113   0.330  1.00  0.00     0.251 C 
ATOM     29  H   UNL     1       9.378   1.136   0.502  1.00  0.00     0.163 HD
ATOM     30  O   UNL     1      10.861   3.020   0.172  1.00  0.00    -0.269 OA
BRANCH  28  31
ATOM     31  C   UNL     1       9.016   4.449   0.385  1.00  0.00     0.039 A 
ATOM     32  C   UNL     1       9.415   5.421  -0.537  1.00  0.00     0.014 A 
ATOM     33  C   UNL     1       8.042   4.749   1.341  1.00  0.00     0.014 A 
ATOM     34  C   UNL     1       8.793   6.672  -0.538  1.00  0.00     0.010 A 
ATOM     35  C   UNL     1       7.369   5.966   1.288  1.00  0.00     0.010 A 
ATOM     36  C   UNL     1       7.740   6.943   0.350  1.00  0.00    -0.014 A 
BRANCH  36  37
ATOM     37  C   UNL     1       7.015   8.239   0.312  1.00  0.00     0.031 A 
ATOM     38  C   UNL     1       7.053   9.165   1.496  1.00  0.00     0.074 A 
ATOM     39  C   UNL     1       6.272   8.555  -0.766  1.00  0.00     0.049 A 
ATOM     40  N   UNL     1       6.439  10.309   1.672  1.00  0.00    -0.248 NA
ATOM     41  C   UNL     1       7.865   8.737   2.645  1.00  0.00     0.031 C 
ATOM     42  C   UNL     1       6.116   7.721  -1.960  1.00  0.00     0.029 A 
ATOM     43  N   UNL     1       5.499   9.658  -1.030  1.00  0.00    -0.354 N 
ATOM     44  C   UNL     1       6.781  10.728   2.951  1.00  0.00     0.074 A 
ATOM     45  C   UNL     1       7.605   9.689   3.529  1.00  0.00     0.031 C 
ATOM     46  C   UNL     1       5.319   8.352  -2.836  1.00  0.00     0.029 A 
ATOM     47  C   UNL     1       4.875   9.614  -2.253  1.00  0.00     0.049 A 
ATOM     48  H   UNL     1       5.402  10.410  -0.402  1.00  0.00     0.167 HD
ATOM     49  C   UNL     1       6.456  11.883   3.580  1.00  0.00     0.037 A 
ATOM     50  C   UNL     1       4.031  10.487  -2.835  1.00  0.00     0.037 A 
ATOM     51  C   UNL     1       5.646  12.920   2.996  1.00  0.00     0.049 A 
ATOM     52  C   UNL     1       3.671  11.755  -2.112  1.00  0.00     0.074 A 
ATOM     53  C   UNL     1       5.309  14.153   3.527  1.00  0.00     0.029 A 
ATOM     54  N   UNL     1       5.039  12.843   1.750  1.00  0.00    -0.354 N 
ATOM     55  N   UNL     1       4.058  12.172  -0.931  1.00  0.00    -0.248 NA
ATOM     56  C   UNL     1       2.762  12.678  -2.806  1.00  0.00     0.031 C 
ATOM     57  C   UNL     1       4.451  14.796   2.629  1.00  0.00     0.029 A 
ATOM     58  C   UNL     1       4.304  13.993   1.510  1.00  0.00     0.049 A 
ATOM     59  H   UNL     1       5.118  12.083   1.130  1.00  0.00     0.167 HD
ATOM     60  C   UNL     1       3.466  13.416  -0.752  1.00  0.00     0.074 A 
ATOM     61  C   UNL     1       2.704  13.691  -1.952  1.00  0.00     0.031 C 
ATOM     62  C   UNL     1       3.550  14.255   0.309  1.00  0.00     0.037 A 
BRANCH  49  63
ATOM     63  C   UNL     1       6.973  12.079   4.978  1.00  0.00     0.057 A 
ATOM     64  C   UNL     1       8.337  12.258   5.247  1.00  0.00     0.134 A 
ATOM     65  C   UNL     1       6.093  12.109   6.068  1.00  0.00     0.134 A 
ATOM     66  F   UNL     1       9.236  12.230   4.252  1.00  0.00    -0.206 F 
ATOM     67  C   UNL     1       8.810  12.423   6.551  1.00  0.00     0.040 A 
ATOM     68  C   UNL     1       6.551  12.306   7.372  1.00  0.00     0.040 A 
ATOM     69  F   UNL     1       4.773  11.953   5.884  1.00  0.00    -0.206 F 
ATOM     70  C   UNL     1       7.914  12.453   7.617  1.00  0.00     0.006 A 
ENDBRANCH  49  63
BRANCH  50  71
ATOM     71  C   UNL     1       3.487  10.200  -4.187  1.00  0.00     0.057 A 
ATOM     72  C   UNL     1       3.883  10.949  -5.301  1.00  0.00     0.134 A 
ATOM     73  C   UNL     1       2.565   9.167  -4.401  1.00  0.00     0.134 A 
ATOM     74  F   UNL     1       4.750  11.963  -5.158  1.00  0.00    -0.206 F 
ATOM     75  C   UNL     1       3.372  10.695  -6.574  1.00  0.00     0.040 A 
ATOM     76  C   UNL     1       2.066   8.884  -5.673  1.00  0.00     0.040 A 
ATOM     77  F   UNL     1       2.152   8.405  -3.377  1.00  0.00    -0.206 F 
ATOM     78  C   UNL     1       2.464   9.655  -6.763  1.00  0.00     0.006 A 
ENDBRANCH  50  71
BRANCH  62  79
ATOM     79  C   UNL     1       2.829  15.569   0.208  1.00  0.00     0.057 A 
ATOM     80  C   UNL     1       1.432  15.656   0.254  1.00  0.00     0.134 A 
ATOM     81  C   UNL     1       3.548  16.768   0.105  1.00  0.00     0.134 A 
ATOM     82  F   UNL     1       0.684  14.546   0.339  1.00  0.00    -0.206 F 
ATOM     83  C   UNL     1       0.775  16.886   0.176  1.00  0.00     0.040 A 
ATOM     84  C   UNL     1       2.904  18.005   0.058  1.00  0.00     0.040 A 
ATOM     85  F   UNL     1       4.889  16.757   0.065  1.00  0.00    -0.206 F 
ATOM     86  C   UNL     1       1.513  18.065   0.087  1.00  0.00     0.006 A 
ENDBRANCH  62  79
ENDBRANCH  36  37
ENDBRANCH  28  31
ENDBRANCH  26  27
ENDBRANCH  25  26
ENDBRANCH   1  25
TORSDOF 15
