REMARK SMILES O=C1NC[C@@H](CSc2ccnc(C(=O)NCCCCCCNC(=O)c3ccc(-c4c5nc(c(-c6c(F)cccc6F)c6ccc([nH]6)c(-c6c(F)cccc6F)c6nc(c(-c7c(F)cccc7F)c7ccc4[nH]7)C=C6)C=C5)cc3)c2)O1
REMARK SMILES IDX 18 1 17 2 16 3 15 4 13 5 14 6 12 8 8 9 9 10 79 11 10 12
REMARK SMILES IDX 11 13 7 14 6 15 5 16 1 17 2 18 3 19 80 20 4 21 19 23 20 24
REMARK SMILES IDX 21 25 22 26 23 27 24 29 25 30 26 31 78 32 27 33 77 34 28 35
REMARK SMILES IDX 29 36 30 37 71 38 31 39 76 40 70 41 72 42 32 43 75 44 69 45
REMARK SMILES IDX 68 46 33 48 59 49 42 50 58 51 43 52 46 53 57 54 73 55 44 56
REMARK SMILES IDX 45 57 56 59 74 60 47 61 34 62 35 63 40 64 36 65 37 66 39 67
REMARK SMILES IDX 41 68 38 69 60 70 61 71 66 72 62 73 63 74 65 75 67 76 64 77
REMARK SMILES IDX 48 78 49 79 54 80 50 81 51 82 53 83 55 84 52 85
REMARK H PARENT 15 7 3 22 22 28 72 47 46 58
REMARK Flexibility Score: inf
ROOT
ATOM      1  C   UNL     1       4.781  -2.705  -7.518  1.00  0.00     0.002 C 
ENDROOT
BRANCH   1   2
ATOM      2  C   UNL     1       4.007  -2.138  -6.320  1.00  0.00     0.021 C 
BRANCH   2   3
ATOM      3  C   UNL     1       2.655  -2.825  -6.120  1.00  0.00     0.116 C 
BRANCH   3   4
ATOM      4  N   UNL     1       2.867  -4.081  -5.431  1.00  0.00    -0.351 N 
ATOM      5  C   UNL     1       2.691  -4.478  -4.126  1.00  0.00     0.269 C 
ATOM      6  O   UNL     1       3.117  -5.594  -3.826  1.00  0.00    -0.268 OA
ATOM      7  H   UNL     1       3.208  -4.796  -6.015  1.00  0.00     0.163 HD
BRANCH   5   8
ATOM      8  C   UNL     1       1.931  -3.666  -3.117  1.00  0.00     0.129 A 
ATOM      9  C   UNL     1       0.899  -1.662  -2.336  1.00  0.00     0.011 A 
ATOM     10  C   UNL     1       0.074  -2.439  -1.530  1.00  0.00     0.035 A 
ATOM     11  C   UNL     1       1.880  -2.280  -3.109  1.00  0.00     0.049 A 
ATOM     12  C   UNL     1       0.303  -3.797  -1.474  1.00  0.00     0.113 A 
ATOM     13  N   UNL     1       1.200  -4.421  -2.255  1.00  0.00    -0.251 NA
BRANCH   9  14
ATOM     14  S   UNL     1       0.554   0.073  -2.536  1.00  0.00    -0.122 SA
BRANCH  14  15
ATOM     15  C   UNL     1       1.789   0.851  -1.428  1.00  0.00     0.122 C 
BRANCH  15  16
ATOM     16  C   UNL     1       1.441   0.943   0.065  1.00  0.00     0.208 C 
ATOM     17  O   UNL     1      -1.833   0.338   0.980  1.00  0.00    -0.225 OA
ATOM     18  C   UNL     1      -0.624   0.350   0.813  1.00  0.00     0.407 C 
ATOM     19  N   UNL     1       0.217  -0.669   1.147  1.00  0.00    -0.318 N 
ATOM     20  O   UNL     1       0.084   1.379   0.267  1.00  0.00    -0.443 OA
ATOM     21  C   UNL     1       1.567  -0.348   0.849  1.00  0.00     0.165 C 
ATOM     22  H   UNL     1      -0.075  -1.521   1.545  1.00  0.00     0.167 HD
ENDBRANCH  15  16
ENDBRANCH  14  15
ENDBRANCH   9  14
ENDBRANCH   5   8
ENDBRANCH   3   4
ENDBRANCH   2   3
ENDBRANCH   1   2
BRANCH   1  23
ATOM     23  C   UNL     1       4.080  -2.512  -8.869  1.00  0.00     0.002 C 
BRANCH  23  24
ATOM     24  C   UNL     1       3.692  -1.064  -9.179  1.00  0.00     0.021 C 
BRANCH  24  25
ATOM     25  C   UNL     1       4.879  -0.107  -9.215  1.00  0.00     0.116 C 
BRANCH  25  26
ATOM     26  N   UNL     1       5.820  -0.473 -10.262  1.00  0.00    -0.352 N 
ATOM     27  C   UNL     1       6.193   0.233 -11.377  1.00  0.00     0.251 C 
ATOM     28  H   UNL     1       6.250  -1.353 -10.156  1.00  0.00     0.163 HD
ATOM     29  O   UNL     1       6.771  -0.325 -12.303  1.00  0.00    -0.269 OA
BRANCH  27  30
ATOM     30  C   UNL     1       5.888   1.675 -11.454  1.00  0.00     0.039 A 
ATOM     31  C   UNL     1       5.377   2.199 -12.642  1.00  0.00     0.014 A 
ATOM     32  C   UNL     1       6.116   2.504 -10.352  1.00  0.00     0.014 A 
ATOM     33  C   UNL     1       5.035   3.550 -12.705  1.00  0.00     0.010 A 
ATOM     34  C   UNL     1       5.705   3.831 -10.391  1.00  0.00     0.010 A 
ATOM     35  C   UNL     1       5.161   4.366 -11.568  1.00  0.00    -0.014 A 
BRANCH  35  36
ATOM     36  C   UNL     1       4.711   5.779 -11.583  1.00  0.00     0.031 A 
ATOM     37  C   UNL     1       5.701   6.891 -11.385  1.00  0.00     0.074 A 
ATOM     38  C   UNL     1       3.398   6.051 -11.702  1.00  0.00     0.049 A 
ATOM     39  N   UNL     1       5.489   8.179 -11.289  1.00  0.00    -0.248 NA
ATOM     40  C   UNL     1       7.114   6.503 -11.253  1.00  0.00     0.031 C 
ATOM     41  C   UNL     1       2.338   5.053 -11.858  1.00  0.00     0.029 A 
ATOM     42  N   UNL     1       2.729   7.248 -11.698  1.00  0.00    -0.354 N 
ATOM     43  C   UNL     1       6.736   8.752 -11.078  1.00  0.00     0.074 A 
ATOM     44  C   UNL     1       7.692   7.668 -11.002  1.00  0.00     0.031 C 
ATOM     45  C   UNL     1       1.156   5.680 -11.958  1.00  0.00     0.029 A 
ATOM     46  C   UNL     1       1.367   7.117 -11.826  1.00  0.00     0.049 A 
ATOM     47  H   UNL     1       3.181   8.119 -11.613  1.00  0.00     0.167 HD
ATOM     48  C   UNL     1       7.057  10.064 -10.979  1.00  0.00     0.037 A 
ATOM     49  C   UNL     1       0.397   8.050 -11.820  1.00  0.00     0.037 A 
ATOM     50  C   UNL     1       6.100  11.136 -11.063  1.00  0.00     0.049 A 
ATOM     51  C   UNL     1       0.775   9.497 -11.665  1.00  0.00     0.074 A 
ATOM     52  C   UNL     1       6.329  12.501 -11.032  1.00  0.00     0.029 A 
ATOM     53  N   UNL     1       4.728  10.964 -11.183  1.00  0.00    -0.354 N 
ATOM     54  N   UNL     1       1.966  10.032 -11.539  1.00  0.00    -0.248 NA
ATOM     55  C   UNL     1      -0.326  10.470 -11.650  1.00  0.00     0.031 C 
ATOM     56  C   UNL     1       5.092  13.152 -11.072  1.00  0.00     0.029 A 
ATOM     57  C   UNL     1       4.095  12.197 -11.188  1.00  0.00     0.049 A 
ATOM     58  H   UNL     1       4.272  10.095 -11.255  1.00  0.00     0.167 HD
ATOM     59  C   UNL     1       1.760  11.402 -11.451  1.00  0.00     0.074 A 
ATOM     60  C   UNL     1       0.331  11.617 -11.560  1.00  0.00     0.031 C 
ATOM     61  C   UNL     1       2.671  12.394 -11.290  1.00  0.00     0.037 A 
BRANCH  48  62
ATOM     62  C   UNL     1       8.502  10.409 -10.758  1.00  0.00     0.057 A 
ATOM     63  C   UNL     1       9.473  10.203 -11.748  1.00  0.00     0.134 A 
ATOM     64  C   UNL     1       8.926  10.979  -9.551  1.00  0.00     0.134 A 
ATOM     65  F   UNL     1       9.139   9.651 -12.925  1.00  0.00    -0.206 F 
ATOM     66  C   UNL     1      10.816  10.522 -11.534  1.00  0.00     0.040 A 
ATOM     67  C   UNL     1      10.260  11.331  -9.337  1.00  0.00     0.040 A 
ATOM     68  F   UNL     1       8.050  11.210  -8.561  1.00  0.00    -0.206 F 
ATOM     69  C   UNL     1      11.211  11.095 -10.327  1.00  0.00     0.006 A 
ENDBRANCH  48  62
BRANCH  49  70
ATOM     70  C   UNL     1      -1.023   7.645 -11.971  1.00  0.00     0.057 A 
ATOM     71  C   UNL     1      -1.747   7.969 -13.124  1.00  0.00     0.134 A 
ATOM     72  C   UNL     1      -1.692   6.928 -10.971  1.00  0.00     0.134 A 
ATOM     73  F   UNL     1      -1.168   8.670 -14.110  1.00  0.00    -0.206 F 
ATOM     74  C   UNL     1      -3.088   7.611 -13.271  1.00  0.00     0.040 A 
ATOM     75  C   UNL     1      -3.024   6.539 -11.116  1.00  0.00     0.040 A 
ATOM     76  F   UNL     1      -1.052   6.579  -9.845  1.00  0.00    -0.206 F 
ATOM     77  C   UNL     1      -3.729   6.888 -12.266  1.00  0.00     0.006 A 
ENDBRANCH  49  70
BRANCH  61  78
ATOM     78  C   UNL     1       2.150  13.801 -11.238  1.00  0.00     0.057 A 
ATOM     79  C   UNL     1       1.426  14.280 -10.138  1.00  0.00     0.134 A 
ATOM     80  C   UNL     1       2.408  14.699 -12.282  1.00  0.00     0.134 A 
ATOM     81  F   UNL     1       1.132  13.468  -9.111  1.00  0.00    -0.206 F 
ATOM     82  C   UNL     1       0.957  15.594 -10.089  1.00  0.00     0.040 A 
ATOM     83  C   UNL     1       1.971  16.023 -12.231  1.00  0.00     0.040 A 
ATOM     84  F   UNL     1       3.103  14.309 -13.361  1.00  0.00    -0.206 F 
ATOM     85  C   UNL     1       1.237  16.472 -11.135  1.00  0.00     0.006 A 
ENDBRANCH  61  78
ENDBRANCH  35  36
ENDBRANCH  27  30
ENDBRANCH  25  26
ENDBRANCH  24  25
ENDBRANCH  23  24
ENDBRANCH   1  23
TORSDOF 16
