REMARK SMILES CC[C@@H](C)c1ccccc1OCC(C)(C)C(=O)NCCCCCCNC(=O)c1ccc(-c2c3nc(c(-c4c(F)cccc4F)c4ccc([nH]4)c(-c4c(F)cccc4F)c4nc(c(-c5c(F)cccc5F)c5ccc2[nH]5)C=C4)C=C3)cc1
REMARK SMILES IDX 20 1 19 2 18 3 16 4 17 5 13 7 14 8 15 9 12 10 11 11 10 12
REMARK SMILES IDX 5 13 6 14 7 15 9 16 8 17 3 18 4 19 2 20 1 21 21 22 22 23
REMARK SMILES IDX 23 24 24 25 25 26 26 27 27 29 28 30 29 31 81 32 30 33 80 34
REMARK SMILES IDX 31 35 32 36 33 37 74 38 34 39 79 40 73 41 75 42 35 43 78 44
REMARK SMILES IDX 72 45 71 46 36 48 62 49 45 50 61 51 46 52 49 53 60 54 76 55
REMARK SMILES IDX 47 56 48 57 59 59 77 60 50 61 37 62 38 63 43 64 39 65 40 66
REMARK SMILES IDX 42 67 44 68 41 69 63 70 64 71 69 72 65 73 66 74 68 75 70 76
REMARK SMILES IDX 67 77 51 78 52 79 57 80 53 81 54 82 56 83 58 84 55 85
REMARK H PARENT 18 6 25 28 75 47 49 58
REMARK Flexibility Score: inf
ROOT
ATOM      1  C   UNL     1       6.693  -0.498  -1.451  1.00  0.00     0.021 C 
ENDROOT
BRANCH   1   2
ATOM      2  C   UNL     1       5.446  -1.112  -2.053  1.00  0.00     0.116 C 
BRANCH   2   3
ATOM      3  N   UNL     1       5.493  -2.567  -2.023  1.00  0.00    -0.356 N 
ATOM      4  C   UNL     1       4.542  -3.484  -1.659  1.00  0.00     0.229 C 
ATOM      5  O   UNL     1       4.826  -4.675  -1.786  1.00  0.00    -0.274 OA
ATOM      6  H   UNL     1       6.350  -2.957  -2.312  1.00  0.00     0.163 HD
BRANCH   4   7
ATOM      7  C   UNL     1       3.189  -2.997  -1.122  1.00  0.00     0.077 C 
ATOM      8  C   UNL     1       2.585  -2.122  -2.244  1.00  0.00     0.025 C 
ATOM      9  C   UNL     1       3.469  -2.255   0.217  1.00  0.00     0.025 C 
BRANCH   7  10
ATOM     10  C   UNL     1       2.280  -4.203  -0.674  1.00  0.00     0.245 C 
BRANCH  10  11
ATOM     11  O   UNL     1       1.446  -4.848  -1.622  1.00  0.00    -0.492 OA
BRANCH  11  12
ATOM     12  C   UNL     1       0.401  -4.270  -2.284  1.00  0.00     0.122 A 
ATOM     13  C   UNL     1      -0.352  -3.104  -2.005  1.00  0.00    -0.003 A 
ATOM     14  C   UNL     1      -1.221  -2.649  -3.025  1.00  0.00     0.008 A 
ATOM     15  C   UNL     1      -1.344  -3.306  -4.253  1.00  0.00     0.001 A 
ATOM     16  C   UNL     1       0.191  -4.969  -3.490  1.00  0.00     0.047 A 
ATOM     17  C   UNL     1      -0.656  -4.485  -4.477  1.00  0.00     0.004 A 
BRANCH  13  18
ATOM     18  C   UNL     1      -0.262  -2.290  -0.713  1.00  0.00     0.019 C 
ATOM     19  C   UNL     1      -1.098  -2.917   0.400  1.00  0.00     0.013 C 
BRANCH  18  20
ATOM     20  C   UNL     1      -0.538  -0.766  -0.852  1.00  0.00     0.005 C 
ATOM     21  C   UNL     1       0.216   0.072   0.181  1.00  0.00     0.004 C 
ENDBRANCH  18  20
ENDBRANCH  13  18
ENDBRANCH  11  12
ENDBRANCH  10  11
ENDBRANCH   7  10
ENDBRANCH   4   7
ENDBRANCH   2   3
ENDBRANCH   1   2
BRANCH   1  22
ATOM     22  C   UNL     1       7.896  -0.635  -2.380  1.00  0.00     0.002 C 
BRANCH  22  23
ATOM     23  C   UNL     1       7.667  -0.071  -3.790  1.00  0.00     0.002 C 
BRANCH  23  24
ATOM     24  C   UNL     1       7.182   1.382  -3.823  1.00  0.00     0.021 C 
BRANCH  24  25
ATOM     25  C   UNL     1       8.072   2.343  -3.047  1.00  0.00     0.116 C 
BRANCH  25  26
ATOM     26  N   UNL     1       9.457   2.252  -3.482  1.00  0.00    -0.352 N 
ATOM     27  C   UNL     1      10.309   3.251  -3.857  1.00  0.00     0.251 C 
ATOM     28  H   UNL     1       9.832   1.343  -3.509  1.00  0.00     0.163 HD
ATOM     29  O   UNL     1      11.369   2.985  -4.421  1.00  0.00    -0.269 OA
BRANCH  27  30
ATOM     30  C   UNL     1       9.938   4.649  -3.590  1.00  0.00     0.039 A 
ATOM     31  C   UNL     1      10.122   5.597  -4.596  1.00  0.00     0.014 A 
ATOM     32  C   UNL     1       9.405   5.017  -2.350  1.00  0.00     0.014 A 
ATOM     33  C   UNL     1       9.729   6.913  -4.372  1.00  0.00     0.010 A 
ATOM     34  C   UNL     1       8.940   6.311  -2.158  1.00  0.00     0.010 A 
ATOM     35  C   UNL     1       9.108   7.273  -3.164  1.00  0.00    -0.014 A 
BRANCH  35  36
ATOM     36  C   UNL     1       8.623   8.656  -2.947  1.00  0.00     0.031 A 
ATOM     37  C   UNL     1       9.227   9.511  -1.871  1.00  0.00     0.074 A 
ATOM     38  C   UNL     1       7.608   9.120  -3.700  1.00  0.00     0.049 A 
ATOM     39  N   UNL     1       8.928  10.738  -1.529  1.00  0.00    -0.248 NA
ATOM     40  C   UNL     1      10.289   8.902  -1.054  1.00  0.00     0.031 C 
ATOM     41  C   UNL     1       6.908   8.359  -4.738  1.00  0.00     0.029 A 
ATOM     42  N   UNL     1       6.988  10.343  -3.709  1.00  0.00    -0.354 N 
ATOM     43  C   UNL     1       9.758  11.044  -0.459  1.00  0.00     0.074 A 
ATOM     44  C   UNL     1      10.528   9.855  -0.166  1.00  0.00     0.031 C 
ATOM     45  C   UNL     1       5.979   9.144  -5.306  1.00  0.00     0.029 A 
ATOM     46  C   UNL     1       5.991  10.446  -4.648  1.00  0.00     0.049 A 
ATOM     47  H   UNL     1       7.234  11.077  -3.101  1.00  0.00     0.167 HD
ATOM     48  C   UNL     1       9.884  12.218   0.203  1.00  0.00     0.037 A 
ATOM     49  C   UNL     1       5.176  11.476  -4.941  1.00  0.00     0.037 A 
ATOM     50  C   UNL     1       9.122  13.400  -0.104  1.00  0.00     0.049 A 
ATOM     51  C   UNL     1       5.327  12.764  -4.183  1.00  0.00     0.074 A 
ATOM     52  C   UNL     1       9.213  14.657   0.468  1.00  0.00     0.029 A 
ATOM     53  N   UNL     1       8.121  13.468  -1.062  1.00  0.00    -0.354 N 
ATOM     54  N   UNL     1       6.170  13.066  -3.225  1.00  0.00    -0.248 NA
ATOM     55  C   UNL     1       4.418  13.858  -4.551  1.00  0.00     0.031 C 
ATOM     56  C   UNL     1       8.230  15.470  -0.105  1.00  0.00     0.029 A 
ATOM     57  C   UNL     1       7.567  14.738  -1.077  1.00  0.00     0.049 A 
ATOM     58  H   UNL     1       7.846  12.725  -1.645  1.00  0.00     0.167 HD
ATOM     59  C   UNL     1       5.914  14.390  -2.895  1.00  0.00     0.074 A 
ATOM     60  C   UNL     1       4.848  14.838  -3.768  1.00  0.00     0.031 C 
ATOM     61  C   UNL     1       6.506  15.166  -1.954  1.00  0.00     0.037 A 
BRANCH  48  62
ATOM     62  C   UNL     1      10.882  12.280   1.324  1.00  0.00     0.057 A 
ATOM     63  C   UNL     1      12.263  12.220   1.090  1.00  0.00     0.134 A 
ATOM     64  C   UNL     1      10.460  12.434   2.650  1.00  0.00     0.134 A 
ATOM     65  F   UNL     1      12.736  12.060  -0.155  1.00  0.00    -0.206 F 
ATOM     66  C   UNL     1      13.185  12.283   2.137  1.00  0.00     0.040 A 
ATOM     67  C   UNL     1      11.373  12.530   3.702  1.00  0.00     0.040 A 
ATOM     68  F   UNL     1       9.153  12.504   2.946  1.00  0.00    -0.206 F 
ATOM     69  C   UNL     1      12.741  12.447   3.447  1.00  0.00     0.006 A 
ENDBRANCH  48  62
BRANCH  49  70
ATOM     70  C   UNL     1       4.162  11.337  -6.017  1.00  0.00     0.057 A 
ATOM     71  C   UNL     1       4.277  12.049  -7.216  1.00  0.00     0.134 A 
ATOM     72  C   UNL     1       3.054  10.492  -5.873  1.00  0.00     0.134 A 
ATOM     73  F   UNL     1       5.308  12.885  -7.409  1.00  0.00    -0.206 F 
ATOM     74  C   UNL     1       3.317  11.945  -8.224  1.00  0.00     0.040 A 
ATOM     75  C   UNL     1       2.101  10.357  -6.883  1.00  0.00     0.040 A 
ATOM     76  F   UNL     1       2.891   9.773  -4.753  1.00  0.00    -0.206 F 
ATOM     77  C   UNL     1       2.227  11.093  -8.060  1.00  0.00     0.006 A 
ENDBRANCH  49  70
BRANCH  61  78
ATOM     78  C   UNL     1       6.036  16.588  -1.844  1.00  0.00     0.057 A 
ATOM     79  C   UNL     1       4.775  16.915  -1.329  1.00  0.00     0.134 A 
ATOM     80  C   UNL     1       6.871  17.645  -2.228  1.00  0.00     0.134 A 
ATOM     81  F   UNL     1       3.922  15.950  -0.955  1.00  0.00    -0.206 F 
ATOM     82  C   UNL     1       4.351  18.241  -1.226  1.00  0.00     0.040 A 
ATOM     83  C   UNL     1       6.471  18.976  -2.101  1.00  0.00     0.040 A 
ATOM     84  F   UNL     1       8.096  17.403  -2.720  1.00  0.00    -0.206 F 
ATOM     85  C   UNL     1       5.204  19.276  -1.606  1.00  0.00     0.006 A 
ENDBRANCH  61  78
ENDBRANCH  35  36
ENDBRANCH  27  30
ENDBRANCH  25  26
ENDBRANCH  24  25
ENDBRANCH  23  24
ENDBRANCH  22  23
ENDBRANCH   1  22
TORSDOF 18
