REMARK SMILES C[N@@H+]1CCN(C(=O)c2cnn3c2CCCC3)C[C@@H]1C(=O)NCCCCCCNC(=O)c1ccc(-c2c3nc(c(-c4c(F)cccc4F)c4ccc([nH]4)c(-c4c(F)cccc4F)c4nc(c(-c5c(F)cccc5F)c5ccc2[nH]5)C=C4)C=C3)cc1
REMARK SMILES IDX 24 1 23 2 22 3 21 4 19 5 20 6 18 8 1 9 2 10 3 11 4 13 17 14
REMARK SMILES IDX 5 15 6 16 7 17 8 18 9 19 12 20 10 21 11 22 13 23 16 24 14 25
REMARK SMILES IDX 15 26 25 27 26 28 27 29 28 30 29 31 30 33 31 34 32 35 84 36
REMARK SMILES IDX 33 37 83 38 34 39 35 40 36 41 77 42 37 43 82 44 76 45 78 46
REMARK SMILES IDX 38 47 81 48 75 49 74 50 39 52 65 53 48 54 64 55 49 56 52 57
REMARK SMILES IDX 63 58 79 59 50 60 51 61 62 63 80 64 53 65 40 66 41 67 46 68
REMARK SMILES IDX 42 69 43 70 45 71 47 72 44 73 66 74 67 75 72 76 68 77 69 78
REMARK SMILES IDX 71 79 73 80 70 81 54 82 55 83 60 84 56 85 57 86 59 87 61 88
REMARK SMILES IDX 58 89
REMARK H PARENT 21 7 2 12 28 32 78 51 52 62
REMARK Flexibility Score: inf
ROOT
ATOM      1  C   UNL     1       4.105  -1.880   3.796  1.00  0.00     0.002 C 
ENDROOT
BRANCH   1   2
ATOM      2  C   UNL     1       3.920  -1.764   2.279  1.00  0.00     0.021 C 
BRANCH   2   3
ATOM      3  C   UNL     1       2.662  -2.446   1.738  1.00  0.00     0.116 C 
BRANCH   3   4
ATOM      4  N   UNL     1       1.469  -1.853   2.299  1.00  0.00    -0.351 N 
ATOM      5  C   UNL     1       0.421  -1.214   1.712  1.00  0.00     0.280 C 
ATOM      6  O   UNL     1      -0.438  -0.777   2.482  1.00  0.00    -0.268 OA
ATOM      7  H   UNL     1       1.402  -1.925   3.279  1.00  0.00     0.163 HD
BRANCH   5   8
ATOM      8  C   UNL     1       0.327  -1.071   0.173  1.00  0.00     0.293 C 
ATOM      9  C   UNL     1       2.332   0.364  -0.143  1.00  0.00     0.333 C 
ATOM     10  N   UNL     1       0.907   0.198  -0.359  1.00  0.00    -0.324 N 
ATOM     11  C   UNL     1       0.158   1.374   0.125  1.00  0.00     0.284 C 
ATOM     12  H   UNL     1       0.802   0.124  -1.371  1.00  0.00     0.348 HD
ATOM     13  C   UNL     1      -1.331   1.300  -0.248  1.00  0.00     0.181 C 
ATOM     14  C   UNL     1      -1.169  -1.164  -0.237  1.00  0.00     0.195 C 
ATOM     15  N   UNL     1      -1.936   0.031   0.145  1.00  0.00    -0.326 N 
BRANCH  15  16
ATOM     16  C   UNL     1      -3.178   0.052   0.770  1.00  0.00     0.257 C 
ATOM     17  O   UNL     1      -3.782   1.100   0.989  1.00  0.00    -0.269 OA
BRANCH  16  18
ATOM     18  C   UNL     1      -3.811  -1.219   1.064  1.00  0.00     0.081 A 
ATOM     19  C   UNL     1      -3.444  -2.253   1.955  1.00  0.00     0.149 A 
ATOM     20  C   UNL     1      -5.017  -1.642   0.539  1.00  0.00     0.051 A 
ATOM     21  N   UNL     1      -4.306  -3.278   1.942  1.00  0.00    -0.180 NA
ATOM     22  N   UNL     1      -5.271  -2.857   1.108  1.00  0.00    -0.269 N 
ATOM     23  C   UNL     1      -5.967  -0.993  -0.405  1.00  0.00     0.057 C 
ATOM     24  C   UNL     1      -6.427  -3.685   0.820  1.00  0.00     0.144 C 
ATOM     25  C   UNL     1      -6.973  -1.996  -0.971  1.00  0.00     0.008 C 
ATOM     26  C   UNL     1      -7.540  -2.886   0.138  1.00  0.00     0.024 C 
ENDBRANCH  16  18
ENDBRANCH  15  16
ENDBRANCH   5   8
ENDBRANCH   3   4
ENDBRANCH   2   3
ENDBRANCH   1   2
BRANCH   1  27
ATOM     27  C   UNL     1       4.127  -3.312   4.346  1.00  0.00     0.002 C 
BRANCH  27  28
ATOM     28  C   UNL     1       5.112  -4.271   3.665  1.00  0.00     0.021 C 
BRANCH  28  29
ATOM     29  C   UNL     1       6.562  -3.825   3.767  1.00  0.00     0.116 C 
BRANCH  29  30
ATOM     30  N   UNL     1       7.067  -3.882   5.134  1.00  0.00    -0.352 N 
ATOM     31  C   UNL     1       8.359  -3.666   5.570  1.00  0.00     0.251 C 
ATOM     32  H   UNL     1       6.406  -4.101   5.831  1.00  0.00     0.163 HD
ATOM     33  O   UNL     1       8.741  -4.088   6.650  1.00  0.00    -0.269 OA
BRANCH  31  34
ATOM     34  C   UNL     1       9.272  -2.897   4.706  1.00  0.00     0.039 A 
ATOM     35  C   UNL     1      10.614  -3.263   4.566  1.00  0.00     0.014 A 
ATOM     36  C   UNL     1       8.758  -1.793   4.029  1.00  0.00     0.014 A 
ATOM     37  C   UNL     1      11.416  -2.543   3.685  1.00  0.00     0.010 A 
ATOM     38  C   UNL     1       9.504  -1.179   3.058  1.00  0.00     0.010 A 
ATOM     39  C   UNL     1      10.847  -1.510   2.923  1.00  0.00    -0.014 A 
BRANCH  39  40
ATOM     40  C   UNL     1      11.602  -0.859   1.857  1.00  0.00     0.031 A 
ATOM     41  C   UNL     1      12.092  -1.814   0.826  1.00  0.00     0.074 A 
ATOM     42  C   UNL     1      11.625   0.485   1.707  1.00  0.00     0.049 A 
ATOM     43  N   UNL     1      13.315  -2.139   0.571  1.00  0.00    -0.248 NA
ATOM     44  C   UNL     1      11.105  -2.642   0.109  1.00  0.00     0.031 C 
ATOM     45  C   UNL     1      10.902   1.485   2.508  1.00  0.00     0.029 A 
ATOM     46  N   UNL     1      12.207   1.250   0.739  1.00  0.00    -0.354 N 
ATOM     47  C   UNL     1      13.258  -3.018  -0.511  1.00  0.00     0.074 A 
ATOM     48  C   UNL     1      11.894  -3.454  -0.599  1.00  0.00     0.031 C 
ATOM     49  C   UNL     1      10.888   2.670   1.860  1.00  0.00     0.029 A 
ATOM     50  C   UNL     1      11.746   2.567   0.696  1.00  0.00     0.049 A 
ATOM     51  H   UNL     1      12.892   0.903   0.123  1.00  0.00     0.167 HD
ATOM     52  C   UNL     1      14.269  -3.040  -1.425  1.00  0.00     0.037 A 
ATOM     53  C   UNL     1      12.046   3.506  -0.236  1.00  0.00     0.037 A 
ATOM     54  C   UNL     1      15.418  -2.340  -0.903  1.00  0.00     0.049 A 
ATOM     55  C   UNL     1      13.288   3.069  -0.907  1.00  0.00     0.074 A 
ATOM     56  C   UNL     1      16.372  -2.550   0.067  1.00  0.00     0.029 A 
ATOM     57  N   UNL     1      15.403  -0.999  -1.183  1.00  0.00    -0.354 N 
ATOM     58  N   UNL     1      14.445   3.019  -0.309  1.00  0.00    -0.248 NA
ATOM     59  C   UNL     1      13.191   2.308  -2.146  1.00  0.00     0.031 C 
ATOM     60  C   UNL     1      16.766  -1.252   0.511  1.00  0.00     0.029 A 
ATOM     61  C   UNL     1      16.091  -0.291  -0.241  1.00  0.00     0.049 A 
ATOM     62  H   UNL     1      14.955  -0.598  -1.962  1.00  0.00     0.167 HD
ATOM     63  C   UNL     1      15.055   1.896  -0.835  1.00  0.00     0.074 A 
ATOM     64  C   UNL     1      14.327   1.610  -2.068  1.00  0.00     0.031 C 
ATOM     65  C   UNL     1      15.868   1.126  -0.054  1.00  0.00     0.037 A 
BRANCH  52  66
ATOM     66  C   UNL     1      14.081  -3.160  -2.932  1.00  0.00     0.057 A 
ATOM     67  C   UNL     1      15.226  -3.103  -3.755  1.00  0.00     0.134 A 
ATOM     68  C   UNL     1      12.860  -2.979  -3.614  1.00  0.00     0.134 A 
ATOM     69  F   UNL     1      16.454  -3.269  -3.240  1.00  0.00    -0.206 F 
ATOM     70  C   UNL     1      15.166  -2.779  -5.118  1.00  0.00     0.040 A 
ATOM     71  C   UNL     1      12.787  -2.697  -4.984  1.00  0.00     0.040 A 
ATOM     72  F   UNL     1      11.677  -2.965  -2.995  1.00  0.00    -0.206 F 
ATOM     73  C   UNL     1      13.943  -2.558  -5.734  1.00  0.00     0.006 A 
ENDBRANCH  52  66
BRANCH  53  74
ATOM     74  C   UNL     1      11.231   4.627  -0.755  1.00  0.00     0.057 A 
ATOM     75  C   UNL     1      11.816   5.720  -1.413  1.00  0.00     0.134 A 
ATOM     76  C   UNL     1       9.837   4.506  -0.881  1.00  0.00     0.134 A 
ATOM     77  F   UNL     1      13.145   5.899  -1.383  1.00  0.00    -0.206 F 
ATOM     78  C   UNL     1      11.063   6.622  -2.177  1.00  0.00     0.040 A 
ATOM     79  C   UNL     1       9.073   5.399  -1.641  1.00  0.00     0.040 A 
ATOM     80  F   UNL     1       9.188   3.460  -0.348  1.00  0.00    -0.206 F 
ATOM     81  C   UNL     1       9.688   6.454  -2.305  1.00  0.00     0.006 A 
ENDBRANCH  53  74
BRANCH  65  82
ATOM     82  C   UNL     1      16.441   1.758   1.177  1.00  0.00     0.057 A 
ATOM     83  C   UNL     1      15.700   2.133   2.306  1.00  0.00     0.134 A 
ATOM     84  C   UNL     1      17.831   1.897   1.253  1.00  0.00     0.134 A 
ATOM     85  F   UNL     1      14.373   1.965   2.353  1.00  0.00    -0.206 F 
ATOM     86  C   UNL     1      16.317   2.656   3.447  1.00  0.00     0.040 A 
ATOM     87  C   UNL     1      18.461   2.384   2.396  1.00  0.00     0.040 A 
ATOM     88  F   UNL     1      18.603   1.516   0.223  1.00  0.00    -0.206 F 
ATOM     89  C   UNL     1      17.703   2.775   3.496  1.00  0.00     0.006 A 
ENDBRANCH  65  82
ENDBRANCH  39  40
ENDBRANCH  31  34
ENDBRANCH  29  30
ENDBRANCH  28  29
ENDBRANCH  27  28
ENDBRANCH   1  27
TORSDOF 15
