REMARK SMILES O=C(Cc1cccn1-c1ccc2c(c1)OCCO2)NCCCCCCNC(=O)c1ccc(-c2c3nc(c(-c4c(F)cccc4F)c4ccc([nH]4)c(-c4c(F)cccc4F)c4nc(c(-c5c(F)cccc5F)c5ccc2[nH]5)C=C4)C=C3)cc1
REMARK SMILES IDX 22 1 21 2 20 3 19 4 1 5 2 6 3 8 4 9 5 10 8 11 6 12 7 13 9 14
REMARK SMILES IDX 10 15 14 16 11 17 13 18 12 19 15 20 18 21 16 22 17 23 23 24
REMARK SMILES IDX 24 25 25 26 26 27 27 28 28 30 29 31 30 32 82 33 31 34 81 35
REMARK SMILES IDX 32 36 33 37 34 38 75 39 35 40 80 41 74 42 76 43 36 44 79 45
REMARK SMILES IDX 73 46 72 47 37 49 63 50 46 51 62 52 47 53 50 54 61 55 77 56
REMARK SMILES IDX 48 57 49 58 60 60 78 61 51 62 38 63 39 64 44 65 40 66 41 67
REMARK SMILES IDX 43 68 45 69 42 70 64 71 65 72 70 73 66 74 67 75 69 76 71 77
REMARK SMILES IDX 68 78 52 79 53 80 58 81 54 82 55 83 57 84 59 85 56 86
REMARK H PARENT 19 7 26 29 76 48 50 59
REMARK Flexibility Score: inf
ROOT
ATOM      1  C   UNL     1       4.210   1.256   3.546  1.00  0.00     0.002 C 
ENDROOT
BRANCH   1   2
ATOM      2  C   UNL     1       2.716   0.970   3.350  1.00  0.00     0.021 C 
BRANCH   2   3
ATOM      3  C   UNL     1       2.168   1.348   1.976  1.00  0.00     0.116 C 
BRANCH   3   4
ATOM      4  N   UNL     1       2.805   0.599   0.913  1.00  0.00    -0.356 N 
ATOM      5  O   UNL     1       0.879  -0.305   0.053  1.00  0.00    -0.275 OA
ATOM      6  C   UNL     1       2.097  -0.157   0.002  1.00  0.00     0.225 C 
ATOM      7  H   UNL     1       3.787   0.630   0.838  1.00  0.00     0.163 HD
BRANCH   6   8
ATOM      8  C   UNL     1       2.953  -0.857  -1.048  1.00  0.00     0.154 C 
BRANCH   8   9
ATOM      9  C   UNL     1       3.751   0.102  -1.894  1.00  0.00     0.032 A 
ATOM     10  C   UNL     1       3.607   1.472  -2.058  1.00  0.00     0.024 A 
ATOM     11  N   UNL     1       4.874  -0.286  -2.620  1.00  0.00    -0.320 N 
ATOM     12  C   UNL     1       4.702   1.944  -2.808  1.00  0.00     0.020 A 
ATOM     13  C   UNL     1       5.484   0.854  -3.106  1.00  0.00     0.091 A 
BRANCH  11  14
ATOM     14  C   UNL     1       5.361  -1.599  -2.841  1.00  0.00     0.049 A 
ATOM     15  C   UNL     1       6.733  -1.853  -2.715  1.00  0.00     0.031 A 
ATOM     16  C   UNL     1       4.487  -2.622  -3.228  1.00  0.00     0.077 A 
ATOM     17  C   UNL     1       7.224  -3.140  -2.940  1.00  0.00     0.052 A 
ATOM     18  C   UNL     1       4.991  -3.898  -3.483  1.00  0.00     0.163 A 
ATOM     19  C   UNL     1       6.358  -4.155  -3.342  1.00  0.00     0.161 A 
ATOM     20  O   UNL     1       4.088  -4.842  -3.900  1.00  0.00    -0.486 OA
ATOM     21  O   UNL     1       6.922  -5.381  -3.585  1.00  0.00    -0.486 OA
ATOM     22  C   UNL     1       4.635  -6.164  -3.839  1.00  0.00     0.271 C 
ATOM     23  C   UNL     1       6.056  -6.200  -4.378  1.00  0.00     0.271 C 
ENDBRANCH  11  14
ENDBRANCH   8   9
ENDBRANCH   6   8
ENDBRANCH   3   4
ENDBRANCH   2   3
ENDBRANCH   1   2
BRANCH   1  24
ATOM     24  C   UNL     1       4.633   2.719   3.370  1.00  0.00     0.002 C 
BRANCH  24  25
ATOM     25  C   UNL     1       3.896   3.736   4.254  1.00  0.00     0.021 C 
BRANCH  25  26
ATOM     26  C   UNL     1       4.064   3.499   5.755  1.00  0.00     0.116 C 
BRANCH  26  27
ATOM     27  N   UNL     1       5.431   3.756   6.180  1.00  0.00    -0.352 N 
ATOM     28  C   UNL     1       5.967   3.802   7.436  1.00  0.00     0.251 C 
ATOM     29  H   UNL     1       6.069   3.923   5.449  1.00  0.00     0.163 HD
ATOM     30  O   UNL     1       7.015   4.444   7.607  1.00  0.00    -0.269 OA
BRANCH  28  31
ATOM     31  C   UNL     1       5.364   3.105   8.590  1.00  0.00     0.039 A 
ATOM     32  C   UNL     1       5.580   3.638   9.871  1.00  0.00     0.014 A 
ATOM     33  C   UNL     1       4.703   1.879   8.451  1.00  0.00     0.014 A 
ATOM     34  C   UNL     1       5.102   2.974  10.995  1.00  0.00     0.010 A 
ATOM     35  C   UNL     1       4.200   1.223   9.568  1.00  0.00     0.010 A 
ATOM     36  C   UNL     1       4.391   1.778  10.837  1.00  0.00    -0.014 A 
BRANCH  36  37
ATOM     37  C   UNL     1       3.635   1.239  11.989  1.00  0.00     0.031 A 
ATOM     38  C   UNL     1       2.344   2.096  12.207  1.00  0.00     0.074 A 
ATOM     39  C   UNL     1       4.180   0.143  12.614  1.00  0.00     0.049 A 
ATOM     40  N   UNL     1       1.675   2.371  13.286  1.00  0.00    -0.248 NA
ATOM     41  C   UNL     1       1.752   2.822  11.040  1.00  0.00     0.031 C 
ATOM     42  C   UNL     1       5.416  -0.563  12.186  1.00  0.00     0.029 A 
ATOM     43  N   UNL     1       3.832  -0.616  13.716  1.00  0.00    -0.354 N 
ATOM     44  C   UNL     1       0.505   3.086  12.909  1.00  0.00     0.074 A 
ATOM     45  C   UNL     1       0.681   3.446  11.539  1.00  0.00     0.031 C 
ATOM     46  C   UNL     1       5.751  -1.549  13.051  1.00  0.00     0.029 A 
ATOM     47  C   UNL     1       4.783  -1.601  14.127  1.00  0.00     0.049 A 
ATOM     48  H   UNL     1       2.979  -0.486  14.190  1.00  0.00     0.167 HD
ATOM     49  C   UNL     1      -0.603   3.187  13.710  1.00  0.00     0.037 A 
ATOM     50  C   UNL     1       4.811  -2.342  15.286  1.00  0.00     0.037 A 
ATOM     51  C   UNL     1      -0.343   2.532  14.944  1.00  0.00     0.049 A 
ATOM     52  C   UNL     1       3.558  -1.986  15.961  1.00  0.00     0.074 A 
ATOM     53  C   UNL     1       0.446   2.855  16.013  1.00  0.00     0.029 A 
ATOM     54  N   UNL     1      -0.644   1.194  14.982  1.00  0.00    -0.354 N 
ATOM     55  N   UNL     1       2.377  -2.371  15.585  1.00  0.00    -0.248 NA
ATOM     56  C   UNL     1       3.620  -0.995  17.040  1.00  0.00     0.031 C 
ATOM     57  C   UNL     1       1.043   1.617  16.327  1.00  0.00     0.029 A 
ATOM     58  C   UNL     1       0.372   0.582  15.665  1.00  0.00     0.049 A 
ATOM     59  H   UNL     1      -1.437   0.758  14.593  1.00  0.00     0.167 HD
ATOM     60  C   UNL     1       1.572  -1.412  16.148  1.00  0.00     0.074 A 
ATOM     61  C   UNL     1       2.319  -0.820  17.238  1.00  0.00     0.031 C 
ATOM     62  C   UNL     1       0.607  -0.815  15.406  1.00  0.00     0.037 A 
BRANCH  49  63
ATOM     63  C   UNL     1      -2.050   3.538  13.455  1.00  0.00     0.057 A 
ATOM     64  C   UNL     1      -2.891   3.724  14.585  1.00  0.00     0.134 A 
ATOM     65  C   UNL     1      -2.710   3.284  12.251  1.00  0.00     0.134 A 
ATOM     66  F   UNL     1      -2.378   4.047  15.784  1.00  0.00    -0.206 F 
ATOM     67  C   UNL     1      -4.265   3.478  14.553  1.00  0.00     0.040 A 
ATOM     68  C   UNL     1      -4.100   3.092  12.198  1.00  0.00     0.040 A 
ATOM     69  F   UNL     1      -2.036   3.114  11.107  1.00  0.00    -0.206 F 
ATOM     70  C   UNL     1      -4.871   3.132  13.357  1.00  0.00     0.006 A 
ENDBRANCH  49  63
BRANCH  50  71
ATOM     71  C   UNL     1       5.764  -3.219  16.084  1.00  0.00     0.057 A 
ATOM     72  C   UNL     1       6.963  -3.773  15.633  1.00  0.00     0.134 A 
ATOM     73  C   UNL     1       5.516  -3.469  17.469  1.00  0.00     0.134 A 
ATOM     74  F   UNL     1       7.278  -3.772  14.333  1.00  0.00    -0.206 F 
ATOM     75  C   UNL     1       7.894  -4.381  16.510  1.00  0.00     0.040 A 
ATOM     76  C   UNL     1       6.450  -4.012  18.358  1.00  0.00     0.040 A 
ATOM     77  F   UNL     1       4.335  -3.195  18.039  1.00  0.00    -0.206 F 
ATOM     78  C   UNL     1       7.665  -4.451  17.882  1.00  0.00     0.006 A 
ENDBRANCH  50  71
BRANCH  62  79
ATOM     79  C   UNL     1       0.149  -1.596  14.185  1.00  0.00     0.057 A 
ATOM     80  C   UNL     1      -0.475  -2.838  14.345  1.00  0.00     0.134 A 
ATOM     81  C   UNL     1       0.384  -1.214  12.854  1.00  0.00     0.134 A 
ATOM     82  F   UNL     1      -0.762  -3.290  15.574  1.00  0.00    -0.206 F 
ATOM     83  C   UNL     1      -0.827  -3.649  13.255  1.00  0.00     0.040 A 
ATOM     84  C   UNL     1       0.038  -2.008  11.751  1.00  0.00     0.040 A 
ATOM     85  F   UNL     1       0.965  -0.052  12.570  1.00  0.00    -0.206 F 
ATOM     86  C   UNL     1      -0.568  -3.238  11.951  1.00  0.00     0.006 A 
ENDBRANCH  62  79
ENDBRANCH  36  37
ENDBRANCH  28  31
ENDBRANCH  26  27
ENDBRANCH  25  26
ENDBRANCH  24  25
ENDBRANCH   1  24
TORSDOF 15
