REMARK SMILES O=C(NCCCCCCNC(=O)[C@@H](Cc1c(F)cccc1Cl)c1ccc(Cl)cc1)c1ccc(-c2c3nc(c(-c4c(F)cccc4F)c4ccc([nH]4)c(-c4c(F)cccc4F)c4nc(c(-c5c(F)cccc5F)c5ccc2[nH]5)C=C4)C=C3)cc1
REMARK SMILES IDX 6 1 5 2 4 3 3 4 1 5 2 6 30 8 31 9 83 10 32 11 82 12 33 13
REMARK SMILES IDX 34 14 35 15 76 16 36 17 81 18 75 19 77 20 37 21 80 22 74 23
REMARK SMILES IDX 73 24 38 26 64 27 47 28 63 29 48 30 51 31 62 32 78 33 49 34
REMARK SMILES IDX 50 35 61 37 79 38 52 39 39 40 40 41 45 42 41 43 42 44 44 45
REMARK SMILES IDX 46 46 43 47 65 48 66 49 71 50 67 51 68 52 70 53 72 54 69 55
REMARK SMILES IDX 53 56 54 57 59 58 55 59 56 60 58 61 60 62 57 63 7 64 8 65
REMARK SMILES IDX 9 66 10 67 11 68 12 70 13 71 14 72 15 73 16 74 21 75 17 76
REMARK SMILES IDX 18 77 20 78 22 79 19 80 23 81 24 82 29 83 25 84 28 85 26 86
REMARK SMILES IDX 27 87
REMARK H PARENT 3 7 77 25 51 36 10 69
REMARK Flexibility Score: inf
ROOT
ATOM      1  C   UNL     1       3.603   2.482  -3.110  1.00  0.00     0.002 C 
ENDROOT
BRANCH   1   2
ATOM      2  C   UNL     1       4.370   1.318  -2.478  1.00  0.00     0.021 C 
BRANCH   2   3
ATOM      3  C   UNL     1       4.202   1.165  -0.972  1.00  0.00     0.116 C 
BRANCH   3   4
ATOM      4  N   UNL     1       2.816   0.977  -0.578  1.00  0.00    -0.352 N 
ATOM      5  O   UNL     1       0.982  -0.141   0.106  1.00  0.00    -0.269 OA
ATOM      6  C   UNL     1       2.206  -0.105   0.002  1.00  0.00     0.251 C 
ATOM      7  H   UNL     1       2.225   1.744  -0.754  1.00  0.00     0.163 HD
BRANCH   6   8
ATOM      8  C   UNL     1       3.019  -1.236   0.494  1.00  0.00     0.039 A 
ATOM      9  C   UNL     1       4.189  -1.004   1.219  1.00  0.00     0.014 A 
ATOM     10  C   UNL     1       2.594  -2.545   0.250  1.00  0.00     0.014 A 
ATOM     11  C   UNL     1       5.005  -2.070   1.571  1.00  0.00     0.010 A 
ATOM     12  C   UNL     1       3.363  -3.622   0.700  1.00  0.00     0.010 A 
ATOM     13  C   UNL     1       4.586  -3.393   1.348  1.00  0.00    -0.014 A 
BRANCH  13  14
ATOM     14  C   UNL     1       5.403  -4.500   1.905  1.00  0.00     0.031 A 
ATOM     15  C   UNL     1       6.066  -5.516   1.019  1.00  0.00     0.074 A 
ATOM     16  C   UNL     1       5.577  -4.547   3.241  1.00  0.00     0.049 A 
ATOM     17  N   UNL     1       6.852  -6.509   1.357  1.00  0.00    -0.248 NA
ATOM     18  C   UNL     1       5.817  -5.415  -0.426  1.00  0.00     0.031 C 
ATOM     19  C   UNL     1       4.960  -3.626   4.202  1.00  0.00     0.029 A 
ATOM     20  N   UNL     1       6.335  -5.378   4.023  1.00  0.00    -0.354 N 
ATOM     21  C   UNL     1       7.188  -7.152   0.172  1.00  0.00     0.074 A 
ATOM     22  C   UNL     1       6.493  -6.458  -0.892  1.00  0.00     0.031 C 
ATOM     23  C   UNL     1       5.408  -3.906   5.433  1.00  0.00     0.029 A 
ATOM     24  C   UNL     1       6.282  -5.069   5.361  1.00  0.00     0.049 A 
ATOM     25  H   UNL     1       6.867  -6.123   3.662  1.00  0.00     0.167 HD
ATOM     26  C   UNL     1       8.009  -8.214  -0.008  1.00  0.00     0.037 A 
ATOM     27  C   UNL     1       6.854  -5.669   6.421  1.00  0.00     0.037 A 
ATOM     28  C   UNL     1       8.694  -8.901   1.060  1.00  0.00     0.049 A 
ATOM     29  C   UNL     1       7.728  -6.866   6.188  1.00  0.00     0.074 A 
ATOM     30  C   UNL     1       9.560  -9.979   0.975  1.00  0.00     0.029 A 
ATOM     31  N   UNL     1       8.588  -8.583   2.405  1.00  0.00    -0.354 N 
ATOM     32  N   UNL     1       8.066  -7.435   5.057  1.00  0.00    -0.248 NA
ATOM     33  C   UNL     1       8.299  -7.505   7.380  1.00  0.00     0.031 C 
ATOM     34  C   UNL     1       9.939 -10.342   2.272  1.00  0.00     0.029 A 
ATOM     35  C   UNL     1       9.355  -9.456   3.162  1.00  0.00     0.049 A 
ATOM     36  H   UNL     1       8.047  -7.845   2.770  1.00  0.00     0.167 HD
ATOM     37  C   UNL     1       8.901  -8.489   5.399  1.00  0.00     0.074 A 
ATOM     38  C   UNL     1       9.046  -8.456   6.840  1.00  0.00     0.031 C 
ATOM     39  C   UNL     1       9.487  -9.410   4.596  1.00  0.00     0.037 A 
BRANCH  26  40
ATOM     40  C   UNL     1       8.216  -8.713  -1.410  1.00  0.00     0.057 A 
ATOM     41  C   UNL     1       8.975  -7.997  -2.344  1.00  0.00     0.134 A 
ATOM     42  C   UNL     1       7.718  -9.962  -1.807  1.00  0.00     0.134 A 
ATOM     43  F   UNL     1       9.473  -6.790  -2.032  1.00  0.00    -0.206 F 
ATOM     44  C   UNL     1       9.223  -8.498  -3.623  1.00  0.00     0.040 A 
ATOM     45  C   UNL     1       7.980 -10.484  -3.075  1.00  0.00     0.040 A 
ATOM     46  F   UNL     1       6.989 -10.705  -0.961  1.00  0.00    -0.206 F 
ATOM     47  C   UNL     1       8.734  -9.750  -3.989  1.00  0.00     0.006 A 
ENDBRANCH  26  40
BRANCH  27  48
ATOM     48  C   UNL     1       6.596  -5.166   7.794  1.00  0.00     0.057 A 
ATOM     49  C   UNL     1       7.619  -4.617   8.575  1.00  0.00     0.134 A 
ATOM     50  C   UNL     1       5.320  -5.246   8.368  1.00  0.00     0.134 A 
ATOM     51  F   UNL     1       8.865  -4.526   8.088  1.00  0.00    -0.206 F 
ATOM     52  C   UNL     1       7.392  -4.197   9.886  1.00  0.00     0.040 A 
ATOM     53  C   UNL     1       5.070  -4.796   9.664  1.00  0.00     0.040 A 
ATOM     54  F   UNL     1       4.293  -5.750   7.669  1.00  0.00    -0.206 F 
ATOM     55  C   UNL     1       6.112  -4.282  10.432  1.00  0.00     0.006 A 
ENDBRANCH  27  48
BRANCH  39  56
ATOM     56  C   UNL     1      10.358 -10.433   5.265  1.00  0.00     0.057 A 
ATOM     57  C   UNL     1       9.825 -11.438   6.084  1.00  0.00     0.134 A 
ATOM     58  C   UNL     1      11.748 -10.409   5.093  1.00  0.00     0.134 A 
ATOM     59  F   UNL     1       8.503 -11.506   6.303  1.00  0.00    -0.206 F 
ATOM     60  C   UNL     1      10.646 -12.357   6.738  1.00  0.00     0.040 A 
ATOM     61  C   UNL     1      12.576 -11.343   5.716  1.00  0.00     0.040 A 
ATOM     62  F   UNL     1      12.323  -9.479   4.316  1.00  0.00    -0.206 F 
ATOM     63  C   UNL     1      12.026 -12.314   6.551  1.00  0.00     0.006 A 
ENDBRANCH  39  56
ENDBRANCH  13  14
ENDBRANCH   6   8
ENDBRANCH   3   4
ENDBRANCH   2   3
ENDBRANCH   1   2
BRANCH   1  64
ATOM     64  C   UNL     1       3.823   3.862  -2.481  1.00  0.00     0.002 C 
BRANCH  64  65
ATOM     65  C   UNL     1       5.276   4.243  -2.213  1.00  0.00     0.021 C 
BRANCH  65  66
ATOM     66  C   UNL     1       6.192   4.217  -3.429  1.00  0.00     0.116 C 
BRANCH  66  67
ATOM     67  N   UNL     1       6.446   5.529  -3.962  1.00  0.00    -0.356 N 
ATOM     68  C   UNL     1       7.607   6.104  -4.367  1.00  0.00     0.227 C 
ATOM     69  H   UNL     1       5.650   6.103  -4.045  1.00  0.00     0.163 HD
ATOM     70  O   UNL     1       7.507   7.233  -4.865  1.00  0.00    -0.274 OA
BRANCH  68  71
ATOM     71  C   UNL     1       8.996   5.449  -4.234  1.00  0.00     0.113 C 
BRANCH  71  72
ATOM     72  C   UNL     1       9.618   5.444  -2.804  1.00  0.00     0.058 C 
BRANCH  72  73
ATOM     73  C   UNL     1       9.306   4.342  -1.821  1.00  0.00     0.008 A 
ATOM     74  C   UNL     1       8.350   4.565  -0.820  1.00  0.00     0.127 A 
ATOM     75  C   UNL     1       9.925   3.083  -1.840  1.00  0.00     0.047 A 
ATOM     76  F   UNL     1       7.779   5.772  -0.699  1.00  0.00    -0.207 F 
ATOM     77  C   UNL     1       7.923   3.551   0.037  1.00  0.00     0.039 A 
ATOM     78  C   UNL     1       9.459   2.043  -1.025  1.00  0.00     0.021 A 
ATOM     79  Cl  UNL     1      11.309   2.752  -2.820  1.00  0.00    -0.084 Cl
ATOM     80  C   UNL     1       8.441   2.270  -0.101  1.00  0.00     0.005 A 
ENDBRANCH  72  73
ENDBRANCH  71  72
BRANCH  71  81
ATOM     81  C   UNL     1       9.265   4.301  -5.213  1.00  0.00    -0.035 A 
ATOM     82  C   UNL     1       8.861   2.973  -5.014  1.00  0.00     0.006 A 
ATOM     83  C   UNL     1       9.969   4.581  -6.403  1.00  0.00     0.006 A 
ATOM     84  C   UNL     1       9.167   1.963  -5.934  1.00  0.00     0.021 A 
ATOM     85  C   UNL     1      10.281   3.575  -7.325  1.00  0.00     0.021 A 
ATOM     86  C   UNL     1       9.883   2.267  -7.083  1.00  0.00     0.041 A 
ATOM     87  Cl  UNL     1      10.282   1.020  -8.197  1.00  0.00    -0.084 Cl
ENDBRANCH  71  81
ENDBRANCH  68  71
ENDBRANCH  66  67
ENDBRANCH  65  66
ENDBRANCH  64  65
ENDBRANCH   1  64
TORSDOF 16
