REMARK SMILES C[C@@H](C(=O)NCCCCCCNC(=O)c1ccc(-c2c3nc(c(-c4c(F)cccc4F)c4ccc([nH]4)c(-c4c(F)cccc4F)c4nc(c(-c5c(F)cccc5F)c5ccc2[nH]5)C=C4)C=C3)cc1)c1cc(/C=C/S(C)(=O)=O)cc(C(=O)c2ccccc2)c1
REMARK SMILES IDX 8 1 7 2 6 3 5 4 3 5 4 6 2 8 1 9 69 10 70 11 88 12 71 13
REMARK SMILES IDX 79 14 78 15 72 16 73 17 74 18 75 19 76 20 77 21 80 22 81 23
REMARK SMILES IDX 82 24 83 25 87 26 84 27 86 28 85 29 9 30 10 31 11 32 12 33
REMARK SMILES IDX 13 34 14 36 15 37 16 38 68 39 17 40 67 41 18 42 19 43 20 44
REMARK SMILES IDX 61 45 21 46 66 47 60 48 62 49 22 50 65 51 59 52 58 53 23 55
REMARK SMILES IDX 49 56 32 57 48 58 33 59 36 60 47 61 63 62 34 63 35 64 46 66
REMARK SMILES IDX 64 67 37 68 24 69 25 70 30 71 26 72 27 73 29 74 31 75 28 76
REMARK SMILES IDX 50 77 51 78 56 79 52 80 53 81 55 82 57 83 54 84 38 85 39 86
REMARK SMILES IDX 44 87 40 88 41 89 43 90 45 91 42 92
REMARK H PARENT 5 7 12 35 62 54 36 65
REMARK Flexibility Score: inf
ROOT
ATOM      1  C   UNL     1       4.907  -1.588  -2.394  1.00  0.00     0.002 C 
ENDROOT
BRANCH   1   2
ATOM      2  C   UNL     1       4.170  -0.727  -1.360  1.00  0.00     0.021 C 
BRANCH   2   3
ATOM      3  C   UNL     1       3.391   0.438  -1.975  1.00  0.00     0.116 C 
BRANCH   3   4
ATOM      4  N   UNL     1       2.323  -0.062  -2.811  1.00  0.00    -0.356 N 
ATOM      5  C   UNL     1       0.988  -0.154  -2.561  1.00  0.00     0.227 C 
ATOM      6  O   UNL     1       0.311  -0.758  -3.395  1.00  0.00    -0.274 OA
ATOM      7  H   UNL     1       2.605  -0.387  -3.696  1.00  0.00     0.163 HD
BRANCH   5   8
ATOM      8  C   UNL     1       0.397   0.529  -1.318  1.00  0.00     0.105 C 
ATOM      9  C   UNL     1       0.824  -0.120   0.006  1.00  0.00     0.023 C 
BRANCH   8  10
ATOM     10  C   UNL     1      -1.127   0.564  -1.323  1.00  0.00    -0.035 A 
ATOM     11  C   UNL     1      -1.812   1.771  -1.150  1.00  0.00     0.012 A 
ATOM     12  C   UNL     1      -1.858  -0.628  -1.376  1.00  0.00     0.016 A 
ATOM     13  C   UNL     1      -3.206   1.802  -0.987  1.00  0.00    -0.024 A 
ATOM     14  C   UNL     1      -3.237  -0.636  -1.178  1.00  0.00     0.023 A 
ATOM     15  C   UNL     1      -3.909   0.583  -0.999  1.00  0.00     0.020 A 
BRANCH  13  16
ATOM     16  C   UNL     1      -3.945   3.059  -0.741  1.00  0.00     0.020 C 
ATOM     17  C   UNL     1      -3.381   4.274  -0.645  1.00  0.00     0.106 C 
BRANCH  17  18
ATOM     18  S   UNL     1      -4.342   5.671  -0.273  1.00  0.00     0.168 S 
ATOM     19  C   UNL     1      -3.508   6.282   1.174  1.00  0.00     0.163 C 
ATOM     20  O   UNL     1      -4.138   6.652  -1.324  1.00  0.00    -0.225 OA
ATOM     21  O   UNL     1      -5.676   5.283   0.133  1.00  0.00    -0.225 OA
ENDBRANCH  17  18
ENDBRANCH  13  16
BRANCH  14  22
ATOM     22  C   UNL     1      -3.993  -1.923  -1.143  1.00  0.00     0.193 C 
ATOM     23  O   UNL     1      -5.217  -1.927  -1.236  1.00  0.00    -0.289 OA
BRANCH  22  24
ATOM     24  C   UNL     1      -3.277  -3.220  -1.017  1.00  0.00     0.022 A 
ATOM     25  C   UNL     1      -3.524  -4.216  -1.966  1.00  0.00     0.012 A 
ATOM     26  C   UNL     1      -2.341  -3.440   0.004  1.00  0.00     0.012 A 
ATOM     27  C   UNL     1      -2.798  -5.408  -1.925  1.00  0.00     0.001 A 
ATOM     28  C   UNL     1      -1.613  -4.631   0.035  1.00  0.00     0.001 A 
ATOM     29  C   UNL     1      -1.837  -5.610  -0.933  1.00  0.00     0.000 A 
ENDBRANCH  22  24
ENDBRANCH  14  22
ENDBRANCH   8  10
ENDBRANCH   5   8
ENDBRANCH   3   4
ENDBRANCH   2   3
ENDBRANCH   1   2
BRANCH   1  30
ATOM     30  C   UNL     1       5.855  -0.812  -3.312  1.00  0.00     0.002 C 
BRANCH  30  31
ATOM     31  C   UNL     1       6.895   0.038  -2.580  1.00  0.00     0.021 C 
BRANCH  31  32
ATOM     32  C   UNL     1       7.814  -0.756  -1.662  1.00  0.00     0.116 C 
BRANCH  32  33
ATOM     33  N   UNL     1       8.631  -1.701  -2.405  1.00  0.00    -0.352 N 
ATOM     34  C   UNL     1       9.989  -1.885  -2.369  1.00  0.00     0.251 C 
ATOM     35  H   UNL     1       8.140  -2.292  -3.020  1.00  0.00     0.163 HD
ATOM     36  O   UNL     1      10.538  -2.579  -3.219  1.00  0.00    -0.269 OA
BRANCH  34  37
ATOM     37  C   UNL     1      10.792  -1.240  -1.310  1.00  0.00     0.039 A 
ATOM     38  C   UNL     1      12.025  -0.678  -1.648  1.00  0.00     0.014 A 
ATOM     39  C   UNL     1      10.348  -1.216   0.016  1.00  0.00     0.014 A 
ATOM     40  C   UNL     1      12.800  -0.068  -0.661  1.00  0.00     0.010 A 
ATOM     41  C   UNL     1      11.082  -0.534   0.982  1.00  0.00     0.010 A 
ATOM     42  C   UNL     1      12.327   0.023   0.659  1.00  0.00    -0.014 A 
BRANCH  42  43
ATOM     43  C   UNL     1      13.147   0.658   1.721  1.00  0.00     0.031 A 
ATOM     44  C   UNL     1      13.646  -0.165   2.878  1.00  0.00     0.074 A 
ATOM     45  C   UNL     1      13.412   1.977   1.663  1.00  0.00     0.049 A 
ATOM     46  N   UNL     1      14.359   0.208   3.912  1.00  0.00    -0.248 NA
ATOM     47  C   UNL     1      13.271  -1.588   2.893  1.00  0.00     0.031 C 
ATOM     48  C   UNL     1      12.947   2.889   0.617  1.00  0.00     0.029 A 
ATOM     49  N   UNL     1      14.139   2.779   2.506  1.00  0.00    -0.354 N 
ATOM     50  C   UNL     1      14.499  -0.926   4.702  1.00  0.00     0.074 A 
ATOM     51  C   UNL     1      13.749  -1.984   4.062  1.00  0.00     0.031 C 
ATOM     52  C   UNL     1      13.433   4.118   0.859  1.00  0.00     0.029 A 
ATOM     53  C   UNL     1      14.210   4.088   2.094  1.00  0.00     0.049 A 
ATOM     54  H   UNL     1      14.569   2.448   3.327  1.00  0.00     0.167 HD
ATOM     55  C   UNL     1      15.210  -1.081   5.845  1.00  0.00     0.037 A 
ATOM     56  C   UNL     1      14.837   5.142   2.649  1.00  0.00     0.037 A 
ATOM     57  C   UNL     1      15.981  -0.034   6.461  1.00  0.00     0.049 A 
ATOM     58  C   UNL     1      15.621   4.944   3.918  1.00  0.00     0.074 A 
ATOM     59  C   UNL     1      16.792  -0.104   7.580  1.00  0.00     0.029 A 
ATOM     60  N   UNL     1      16.035   1.276   6.009  1.00  0.00    -0.354 N 
ATOM     61  N   UNL     1      15.808   3.848   4.614  1.00  0.00    -0.248 NA
ATOM     62  C   UNL     1      16.290   6.129   4.471  1.00  0.00     0.031 C 
ATOM     63  C   UNL     1      17.294   1.176   7.837  1.00  0.00     0.029 A 
ATOM     64  C   UNL     1      16.845   2.030   6.843  1.00  0.00     0.049 A 
ATOM     65  H   UNL     1      15.567   1.620   5.214  1.00  0.00     0.167 HD
ATOM     66  C   UNL     1      16.647   4.203   5.663  1.00  0.00     0.074 A 
ATOM     67  C   UNL     1      16.939   5.613   5.505  1.00  0.00     0.031 C 
ATOM     68  C   UNL     1      17.134   3.431   6.665  1.00  0.00     0.037 A 
BRANCH  55  69
ATOM     69  C   UNL     1      15.181  -2.432   6.503  1.00  0.00     0.057 A 
ATOM     70  C   UNL     1      15.792  -3.554   5.926  1.00  0.00     0.134 A 
ATOM     71  C   UNL     1      14.553  -2.607   7.742  1.00  0.00     0.134 A 
ATOM     72  F   UNL     1      16.400  -3.460   4.734  1.00  0.00    -0.206 F 
ATOM     73  C   UNL     1      15.751  -4.806   6.542  1.00  0.00     0.040 A 
ATOM     74  C   UNL     1      14.533  -3.848   8.383  1.00  0.00     0.040 A 
ATOM     75  F   UNL     1      13.953  -1.576   8.355  1.00  0.00    -0.206 F 
ATOM     76  C   UNL     1      15.126  -4.954   7.778  1.00  0.00     0.006 A 
ENDBRANCH  55  69
BRANCH  56  77
ATOM     77  C   UNL     1      14.787   6.471   1.990  1.00  0.00     0.057 A 
ATOM     78  C   UNL     1      15.932   7.029   1.406  1.00  0.00     0.134 A 
ATOM     79  C   UNL     1      13.607   7.222   1.939  1.00  0.00     0.134 A 
ATOM     80  F   UNL     1      17.097   6.365   1.438  1.00  0.00    -0.206 F 
ATOM     81  C   UNL     1      15.911   8.294   0.818  1.00  0.00     0.040 A 
ATOM     82  C   UNL     1      13.566   8.478   1.330  1.00  0.00     0.040 A 
ATOM     83  F   UNL     1      12.474   6.741   2.470  1.00  0.00    -0.206 F 
ATOM     84  C   UNL     1      14.723   9.021   0.775  1.00  0.00     0.006 A 
ENDBRANCH  56  77
BRANCH  68  85
ATOM     85  C   UNL     1      18.075   4.082   7.638  1.00  0.00     0.057 A 
ATOM     86  C   UNL     1      17.642   5.031   8.573  1.00  0.00     0.134 A 
ATOM     87  C   UNL     1      19.431   3.731   7.656  1.00  0.00     0.134 A 
ATOM     88  F   UNL     1      16.358   5.420   8.602  1.00  0.00    -0.206 F 
ATOM     89  C   UNL     1      18.529   5.631   9.468  1.00  0.00     0.040 A 
ATOM     90  C   UNL     1      20.322   4.300   8.567  1.00  0.00     0.040 A 
ATOM     91  F   UNL     1      19.911   2.820   6.795  1.00  0.00    -0.206 F 
ATOM     92  C   UNL     1      19.873   5.260   9.470  1.00  0.00     0.006 A 
ENDBRANCH  68  85
ENDBRANCH  42  43
ENDBRANCH  34  37
ENDBRANCH  32  33
ENDBRANCH  31  32
ENDBRANCH  30  31
ENDBRANCH   1  30
TORSDOF 18
