REMARK SMILES Cc1cccc(Cl)c1Nc1ccccc1CC(=O)NCCCCCCNC(=O)c1ccc(-c2c3nc(c(-c4c(F)cccc4F)c4ccc([nH]4)c(-c4c(F)cccc4F)c4nc(c(-c5c(F)cccc5F)c5ccc2[nH]5)C=C4)C=C3)cc1
REMARK SMILES IDX 22 1 21 2 20 3 19 4 17 5 18 6 16 8 15 9 10 10 11 11 12 12
REMARK SMILES IDX 14 13 13 14 9 15 8 17 1 18 2 19 3 20 4 21 6 22 5 23 7 24
REMARK SMILES IDX 23 25 24 26 25 27 26 28 27 29 28 31 29 32 30 33 82 34 31 35
REMARK SMILES IDX 81 36 32 37 33 38 34 39 75 40 35 41 80 42 74 43 76 44 36 45
REMARK SMILES IDX 79 46 73 47 72 48 37 50 63 51 46 52 62 53 47 54 50 55 61 56
REMARK SMILES IDX 77 57 48 58 49 59 60 61 78 62 51 63 38 64 39 65 44 66 40 67
REMARK SMILES IDX 41 68 43 69 45 70 42 71 64 72 65 73 70 74 66 75 67 76 69 77
REMARK SMILES IDX 71 78 68 79 52 80 53 81 58 82 54 83 55 84 57 85 59 86 56 87
REMARK H PARENT 19 7 9 16 26 30 76 49 50 60
REMARK Flexibility Score: inf
ROOT
ATOM      1  C   UNL     1       0.649   6.105  -3.636  1.00  0.00     0.002 C 
ENDROOT
BRANCH   1   2
ATOM      2  C   UNL     1       0.694   5.116  -2.465  1.00  0.00     0.021 C 
BRANCH   2   3
ATOM      3  C   UNL     1       0.127   3.738  -2.808  1.00  0.00     0.116 C 
BRANCH   3   4
ATOM      4  N   UNL     1       1.012   3.025  -3.706  1.00  0.00    -0.356 N 
ATOM      5  C   UNL     1       1.895   2.027  -3.404  1.00  0.00     0.224 C 
ATOM      6  O   UNL     1       2.677   1.650  -4.280  1.00  0.00    -0.275 OA
ATOM      7  H   UNL     1       0.973   3.292  -4.652  1.00  0.00     0.163 HD
BRANCH   5   8
ATOM      8  C   UNL     1       1.851   1.368  -2.035  1.00  0.00     0.137 C 
BRANCH   8   9
ATOM      9  C   UNL     1       2.353   2.236  -0.898  1.00  0.00    -0.015 A 
ATOM     10  C   UNL     1       1.589   2.521   0.255  1.00  0.00     0.042 A 
ATOM     11  C   UNL     1       2.116   3.413   1.208  1.00  0.00     0.026 A 
ATOM     12  C   UNL     1       3.377   3.988   1.052  1.00  0.00     0.002 A 
ATOM     13  C   UNL     1       3.638   2.804  -1.026  1.00  0.00     0.006 A 
ATOM     14  C   UNL     1       4.144   3.673  -0.061  1.00  0.00     0.000 A 
BRANCH  10  15
ATOM     15  N   UNL     1       0.341   1.935   0.558  1.00  0.00    -0.354 N 
ATOM     16  H   UNL     1      -0.317   2.571   0.920  1.00  0.00     0.167 HD
BRANCH  15  17
ATOM     17  C   UNL     1      -0.151   0.612   0.442  1.00  0.00     0.060 A 
ATOM     18  C   UNL     1      -2.470   1.604   0.004  1.00  0.00     0.046 C 
ATOM     19  C   UNL     1      -1.528   0.435   0.140  1.00  0.00    -0.026 A 
ATOM     20  C   UNL     1      -2.042  -0.856  -0.081  1.00  0.00     0.005 A 
ATOM     21  C   UNL     1      -1.220  -1.975   0.001  1.00  0.00     0.002 A 
ATOM     22  C   UNL     1       0.655  -0.544   0.552  1.00  0.00     0.064 A 
ATOM     23  C   UNL     1       0.123  -1.819   0.324  1.00  0.00     0.023 A 
ATOM     24  Cl  UNL     1       2.306  -0.501   1.076  1.00  0.00    -0.082 Cl
ENDBRANCH  15  17
ENDBRANCH  10  15
ENDBRANCH   8   9
ENDBRANCH   5   8
ENDBRANCH   3   4
ENDBRANCH   2   3
ENDBRANCH   1   2
BRANCH   1  25
ATOM     25  C   UNL     1      -0.752   6.381  -4.193  1.00  0.00     0.002 C 
BRANCH  25  26
ATOM     26  C   UNL     1      -1.766   6.886  -3.163  1.00  0.00     0.021 C 
BRANCH  26  27
ATOM     27  C   UNL     1      -1.382   8.199  -2.489  1.00  0.00     0.116 C 
BRANCH  27  28
ATOM     28  N   UNL     1      -1.284   9.291  -3.444  1.00  0.00    -0.352 N 
ATOM     29  C   UNL     1      -1.893  10.518  -3.433  1.00  0.00     0.251 C 
ATOM     30  H   UNL     1      -0.692   9.124  -4.213  1.00  0.00     0.163 HD
ATOM     31  O   UNL     1      -1.857  11.232  -4.435  1.00  0.00    -0.269 OA
BRANCH  29  32
ATOM     32  C   UNL     1      -2.608  10.985  -2.227  1.00  0.00     0.039 A 
ATOM     33  C   UNL     1      -3.837  11.630  -2.381  1.00  0.00     0.014 A 
ATOM     34  C   UNL     1      -2.058  10.818  -0.952  1.00  0.00     0.014 A 
ATOM     35  C   UNL     1      -4.537  12.066  -1.255  1.00  0.00     0.010 A 
ATOM     36  C   UNL     1      -2.788  11.189   0.174  1.00  0.00     0.010 A 
ATOM     37  C   UNL     1      -4.031  11.824   0.033  1.00  0.00    -0.014 A 
BRANCH  37  38
ATOM     38  C   UNL     1      -4.795  12.233   1.238  1.00  0.00     0.031 A 
ATOM     39  C   UNL     1      -4.253  13.286   2.164  1.00  0.00     0.074 A 
ATOM     40  C   UNL     1      -5.959  11.618   1.523  1.00  0.00     0.049 A 
ATOM     41  N   UNL     1      -4.769  13.757   3.272  1.00  0.00    -0.248 NA
ATOM     42  C   UNL     1      -2.948  13.869   1.815  1.00  0.00     0.031 C 
ATOM     43  C   UNL     1      -6.561  10.541   0.735  1.00  0.00     0.029 A 
ATOM     44  N   UNL     1      -6.841  11.807   2.556  1.00  0.00    -0.354 N 
ATOM     45  C   UNL     1      -3.849  14.679   3.755  1.00  0.00     0.074 A 
ATOM     46  C   UNL     1      -2.720  14.663   2.851  1.00  0.00     0.031 C 
ATOM     47  C   UNL     1      -7.726  10.184   1.297  1.00  0.00     0.029 A 
ATOM     48  C   UNL     1      -7.939  10.983   2.499  1.00  0.00     0.049 A 
ATOM     49  H   UNL     1      -6.702  12.471   3.269  1.00  0.00     0.167 HD
ATOM     50  C   UNL     1      -3.947  15.483   4.841  1.00  0.00     0.037 A 
ATOM     51  C   UNL     1      -8.998  10.885   3.324  1.00  0.00     0.037 A 
ATOM     52  C   UNL     1      -5.083  15.514   5.725  1.00  0.00     0.049 A 
ATOM     53  C   UNL     1      -9.091  11.800   4.513  1.00  0.00     0.074 A 
ATOM     54  C   UNL     1      -5.306  16.340   6.814  1.00  0.00     0.029 A 
ATOM     55  N   UNL     1      -6.186  14.680   5.623  1.00  0.00    -0.354 N 
ATOM     56  N   UNL     1      -8.250  12.721   4.915  1.00  0.00    -0.248 NA
ATOM     57  C   UNL     1     -10.288  11.668   5.356  1.00  0.00     0.031 C 
ATOM     58  C   UNL     1      -6.526  15.975   7.396  1.00  0.00     0.029 A 
ATOM     59  C   UNL     1      -7.084  14.956   6.642  1.00  0.00     0.049 A 
ATOM     60  H   UNL     1      -6.313  13.993   4.930  1.00  0.00     0.167 HD
ATOM     61  C   UNL     1      -8.825  13.296   6.041  1.00  0.00     0.074 A 
ATOM     62  C   UNL     1     -10.095  12.631   6.246  1.00  0.00     0.031 C 
ATOM     63  C   UNL     1      -8.344  14.284   6.834  1.00  0.00     0.037 A 
BRANCH  50  64
ATOM     64  C   UNL     1      -2.793  16.400   5.129  1.00  0.00     0.057 A 
ATOM     65  C   UNL     1      -2.506  17.505   4.316  1.00  0.00     0.134 A 
ATOM     66  C   UNL     1      -1.978  16.195   6.249  1.00  0.00     0.134 A 
ATOM     67  F   UNL     1      -3.240  17.752   3.220  1.00  0.00    -0.206 F 
ATOM     68  C   UNL     1      -1.434  18.356   4.590  1.00  0.00     0.040 A 
ATOM     69  C   UNL     1      -0.920  17.055   6.550  1.00  0.00     0.040 A 
ATOM     70  F   UNL     1      -2.200  15.161   7.074  1.00  0.00    -0.206 F 
ATOM     71  C   UNL     1      -0.642  18.135   5.715  1.00  0.00     0.006 A 
ENDBRANCH  50  64
BRANCH  51  72
ATOM     72  C   UNL     1     -10.073   9.902   3.035  1.00  0.00     0.057 A 
ATOM     73  C   UNL     1     -11.338  10.321   2.606  1.00  0.00     0.134 A 
ATOM     74  C   UNL     1      -9.864   8.526   3.183  1.00  0.00     0.134 A 
ATOM     75  F   UNL     1     -11.603  11.628   2.463  1.00  0.00    -0.206 F 
ATOM     76  C   UNL     1     -12.363   9.409   2.353  1.00  0.00     0.040 A 
ATOM     77  C   UNL     1     -10.873   7.601   2.910  1.00  0.00     0.040 A 
ATOM     78  F   UNL     1      -8.671   8.061   3.581  1.00  0.00    -0.206 F 
ATOM     79  C   UNL     1     -12.129   8.043   2.501  1.00  0.00     0.006 A 
ENDBRANCH  51  72
BRANCH  63  80
ATOM     80  C   UNL     1      -9.209  14.720   7.981  1.00  0.00     0.057 A 
ATOM     81  C   UNL     1      -9.402  13.914   9.110  1.00  0.00     0.134 A 
ATOM     82  C   UNL     1      -9.841  15.970   7.962  1.00  0.00     0.134 A 
ATOM     83  F   UNL     1      -8.835  12.700   9.184  1.00  0.00    -0.206 F 
ATOM     84  C   UNL     1     -10.216  14.323  10.167  1.00  0.00     0.040 A 
ATOM     85  C   UNL     1     -10.635  16.402   9.025  1.00  0.00     0.040 A 
ATOM     86  F   UNL     1      -9.691  16.794   6.914  1.00  0.00    -0.206 F 
ATOM     87  C   UNL     1     -10.831  15.573  10.128  1.00  0.00     0.006 A 
ENDBRANCH  63  80
ENDBRANCH  37  38
ENDBRANCH  29  32
ENDBRANCH  27  28
ENDBRANCH  26  27
ENDBRANCH  25  26
ENDBRANCH   1  25
TORSDOF 16
