REMARK SMILES C[C@@H](SCCC(=O)NCCCCCCNC(=O)c1ccc(-c2c3nc(c(-c4c(F)cccc4F)c4ccc([nH]4)c(-c4c(F)cccc4F)c4nc(c(-c5c(F)cccc5F)c5ccc2[nH]5)C=C4)C=C3)cc1)C(=O)Nc1ccc(C(N)=O)cc1
REMARK SMILES IDX 9 1 8 2 6 3 7 4 5 6 4 7 3 8 2 9 1 10 72 11 73 12 74 13 75 15
REMARK SMILES IDX 76 16 83 17 77 18 82 19 78 20 79 21 80 22 81 23 10 26 11 27
REMARK SMILES IDX 12 28 13 29 14 30 15 31 16 32 17 34 18 35 19 36 71 37 20 38
REMARK SMILES IDX 70 39 21 40 22 41 23 42 64 43 24 44 69 45 63 46 65 47 25 48
REMARK SMILES IDX 68 49 62 50 61 51 26 53 52 54 35 55 51 56 36 57 39 58 50 59
REMARK SMILES IDX 66 60 37 61 38 62 49 64 67 65 40 66 27 67 28 68 33 69 29 70
REMARK SMILES IDX 30 71 32 72 34 73 31 74 53 75 54 76 59 77 55 78 56 79 58 80
REMARK SMILES IDX 60 81 57 82 41 83 42 84 47 85 43 86 44 87 46 88 48 89 45 90
REMARK H PARENT 8 5 74 14 80 24 80 25 15 33 65 52 39 63
REMARK Flexibility Score: inf
ROOT
ATOM      1  C   UNL     1       0.900   3.075  -3.137  1.00  0.00     0.116 C 
ENDROOT
BRANCH   1   2
ATOM      2  N   UNL     1       1.818   2.863  -2.031  1.00  0.00    -0.356 N 
ATOM      3  C   UNL     1       2.777   1.924  -1.822  1.00  0.00     0.220 C 
ATOM      4  O   UNL     1       3.435   1.996  -0.782  1.00  0.00    -0.275 OA
ATOM      5  H   UNL     1       1.728   3.518  -1.301  1.00  0.00     0.163 HD
BRANCH   3   6
ATOM      6  C   UNL     1       3.036   0.836  -2.838  1.00  0.00     0.111 C 
BRANCH   6   7
ATOM      7  C   UNL     1       3.100  -0.549  -2.192  1.00  0.00     0.080 C 
BRANCH   7   8
ATOM      8  S   UNL     1       1.500  -1.451  -2.191  1.00  0.00    -0.148 SA
BRANCH   8   9
ATOM      9  C   UNL     1       0.556  -0.499  -0.940  1.00  0.00     0.133 C 
ATOM     10  C   UNL     1       1.169  -0.530   0.450  1.00  0.00     0.030 C 
BRANCH   9  11
ATOM     11  C   UNL     1      -0.949  -0.819  -1.051  1.00  0.00     0.237 C 
ATOM     12  O   UNL     1      -1.649  -0.327  -1.944  1.00  0.00    -0.273 OA
ATOM     13  N   UNL     1      -1.583  -1.687  -0.196  1.00  0.00    -0.325 N 
ATOM     14  H   UNL     1      -2.365  -1.399   0.330  1.00  0.00     0.169 HD
BRANCH  13  15
ATOM     15  C   UNL     1      -1.088  -2.992  -0.091  1.00  0.00     0.041 A 
ATOM     16  C   UNL     1      -1.354  -3.874  -1.140  1.00  0.00     0.027 A 
ATOM     17  C   UNL     1      -0.248  -3.348   0.955  1.00  0.00     0.027 A 
ATOM     18  C   UNL     1      -0.651  -5.071  -1.221  1.00  0.00     0.016 A 
ATOM     19  C   UNL     1       0.469  -4.537   0.866  1.00  0.00     0.016 A 
ATOM     20  C   UNL     1       0.296  -5.385  -0.237  1.00  0.00     0.039 A 
BRANCH  20  21
ATOM     21  C   UNL     1       1.203  -6.549  -0.371  1.00  0.00     0.248 C 
ATOM     22  N   UNL     1       0.808  -7.577  -1.172  1.00  0.00    -0.366 N 
ATOM     23  O   UNL     1       2.281  -6.589   0.221  1.00  0.00    -0.270 OA
ATOM     24  H   UNL     1      -0.057  -7.533  -1.639  1.00  0.00     0.159 HD
ATOM     25  H   UNL     1       1.387  -8.365  -1.282  1.00  0.00     0.159 HD
ENDBRANCH  20  21
ENDBRANCH  13  15
ENDBRANCH   9  11
ENDBRANCH   8   9
ENDBRANCH   7   8
ENDBRANCH   6   7
ENDBRANCH   3   6
ENDBRANCH   1   2
BRANCH   1  26
ATOM     26  C   UNL     1      -0.510   2.523  -2.897  1.00  0.00     0.021 C 
BRANCH  26  27
ATOM     27  C   UNL     1      -1.116   2.875  -1.523  1.00  0.00     0.002 C 
BRANCH  27  28
ATOM     28  C   UNL     1      -2.555   3.410  -1.570  1.00  0.00     0.002 C 
BRANCH  28  29
ATOM     29  C   UNL     1      -3.608   2.461  -2.150  1.00  0.00     0.021 C 
BRANCH  29  30
ATOM     30  C   UNL     1      -4.019   1.331  -1.207  1.00  0.00     0.116 C 
BRANCH  30  31
ATOM     31  N   UNL     1      -5.031   1.734  -0.240  1.00  0.00    -0.352 N 
ATOM     32  C   UNL     1      -6.385   1.509  -0.222  1.00  0.00     0.251 C 
ATOM     33  H   UNL     1      -4.688   2.251   0.524  1.00  0.00     0.163 HD
ATOM     34  O   UNL     1      -7.086   2.052   0.627  1.00  0.00    -0.269 OA
BRANCH  32  35
ATOM     35  C   UNL     1      -7.020   0.640  -1.236  1.00  0.00     0.039 A 
ATOM     36  C   UNL     1      -8.155   1.110  -1.905  1.00  0.00     0.014 A 
ATOM     37  C   UNL     1      -6.536  -0.643  -1.501  1.00  0.00     0.014 A 
ATOM     38  C   UNL     1      -8.759   0.325  -2.892  1.00  0.00     0.010 A 
ATOM     39  C   UNL     1      -7.100  -1.399  -2.528  1.00  0.00     0.010 A 
ATOM     40  C   UNL     1      -8.216  -0.923  -3.236  1.00  0.00    -0.014 A 
BRANCH  40  41
ATOM     41  C   UNL     1      -8.796  -1.748  -4.327  1.00  0.00     0.031 A 
ATOM     42  C   UNL     1      -9.403  -3.088  -4.020  1.00  0.00     0.074 A 
ATOM     43  C   UNL     1      -8.700  -1.336  -5.606  1.00  0.00     0.049 A 
ATOM     44  N   UNL     1      -9.841  -4.008  -4.841  1.00  0.00    -0.248 NA
ATOM     45  C   UNL     1      -9.503  -3.451  -2.599  1.00  0.00     0.031 C 
ATOM     46  C   UNL     1      -8.106  -0.072  -6.043  1.00  0.00     0.029 A 
ATOM     47  N   UNL     1      -9.075  -1.950  -6.775  1.00  0.00    -0.354 N 
ATOM     48  C   UNL     1     -10.247  -5.067  -4.039  1.00  0.00     0.074 A 
ATOM     49  C   UNL     1      -9.961  -4.691  -2.671  1.00  0.00     0.031 C 
ATOM     50  C   UNL     1      -8.154  -0.006  -7.383  1.00  0.00     0.029 A 
ATOM     51  C   UNL     1      -8.740  -1.239  -7.902  1.00  0.00     0.049 A 
ATOM     52  H   UNL     1      -9.540  -2.818  -6.804  1.00  0.00     0.167 HD
ATOM     53  C   UNL     1     -10.818  -6.239  -4.408  1.00  0.00     0.037 A 
ATOM     54  C   UNL     1      -8.864  -1.552  -9.206  1.00  0.00     0.037 A 
ATOM     55  C   UNL     1     -11.117  -6.601  -5.769  1.00  0.00     0.049 A 
ATOM     56  C   UNL     1      -9.485  -2.864  -9.599  1.00  0.00     0.074 A 
ATOM     57  C   UNL     1     -11.753  -7.737  -6.238  1.00  0.00     0.029 A 
ATOM     58  N   UNL     1     -10.789  -5.839  -6.880  1.00  0.00    -0.354 N 
ATOM     59  N   UNL     1      -9.923  -3.830  -8.829  1.00  0.00    -0.248 NA
ATOM     60  C   UNL     1      -9.634  -3.129 -11.037  1.00  0.00     0.031 C 
ATOM     61  C   UNL     1     -11.759  -7.689  -7.636  1.00  0.00     0.029 A 
ATOM     62  C   UNL     1     -11.181  -6.494  -8.036  1.00  0.00     0.049 A 
ATOM     63  H   UNL     1     -10.342  -4.962  -6.852  1.00  0.00     0.167 HD
ATOM     64  C   UNL     1     -10.426  -4.802  -9.685  1.00  0.00     0.074 A 
ATOM     65  C   UNL     1     -10.238  -4.310 -11.034  1.00  0.00     0.031 C 
ATOM     66  C   UNL     1     -10.999  -5.991  -9.375  1.00  0.00     0.037 A 
BRANCH  53  67
ATOM     67  C   UNL     1     -11.134  -7.223  -3.317  1.00  0.00     0.057 A 
ATOM     68  C   UNL     1     -12.131  -6.982  -2.362  1.00  0.00     0.134 A 
ATOM     69  C   UNL     1     -10.430  -8.430  -3.221  1.00  0.00     0.134 A 
ATOM     70  F   UNL     1     -12.839  -5.842  -2.390  1.00  0.00    -0.206 F 
ATOM     71  C   UNL     1     -12.384  -7.883  -1.326  1.00  0.00     0.040 A 
ATOM     72  C   UNL     1     -10.697  -9.354  -2.209  1.00  0.00     0.040 A 
ATOM     73  F   UNL     1      -9.470  -8.732  -4.108  1.00  0.00    -0.206 F 
ATOM     74  C   UNL     1     -11.667  -9.075  -1.250  1.00  0.00     0.006 A 
ENDBRANCH  53  67
BRANCH  54  75
ATOM     75  C   UNL     1      -8.387  -0.592 -10.232  1.00  0.00     0.057 A 
ATOM     76  C   UNL     1      -9.287   0.141 -11.014  1.00  0.00     0.134 A 
ATOM     77  C   UNL     1      -7.021  -0.354 -10.427  1.00  0.00     0.134 A 
ATOM     78  F   UNL     1     -10.607  -0.056 -10.886  1.00  0.00    -0.206 F 
ATOM     79  C   UNL     1      -8.846   1.074 -11.954  1.00  0.00     0.040 A 
ATOM     80  C   UNL     1      -6.567   0.593 -11.347  1.00  0.00     0.040 A 
ATOM     81  F   UNL     1      -6.108  -1.019  -9.703  1.00  0.00    -0.206 F 
ATOM     82  C   UNL     1      -7.482   1.308 -12.116  1.00  0.00     0.006 A 
ENDBRANCH  54  75
BRANCH  66  83
ATOM     83  C   UNL     1     -11.511  -6.837 -10.505  1.00  0.00     0.057 A 
ATOM     84  C   UNL     1     -10.650  -7.554 -11.345  1.00  0.00     0.134 A 
ATOM     85  C   UNL     1     -12.889  -7.006 -10.694  1.00  0.00     0.134 A 
ATOM     86  F   UNL     1      -9.320  -7.427 -11.224  1.00  0.00    -0.206 F 
ATOM     87  C   UNL     1     -11.142  -8.407 -12.335  1.00  0.00     0.040 A 
ATOM     88  C   UNL     1     -13.393  -7.874 -11.664  1.00  0.00     0.040 A 
ATOM     89  F   UNL     1     -13.768  -6.354  -9.918  1.00  0.00    -0.206 F 
ATOM     90  C   UNL     1     -12.518  -8.578 -12.488  1.00  0.00     0.006 A 
ENDBRANCH  66  83
ENDBRANCH  40  41
ENDBRANCH  32  35
ENDBRANCH  30  31
ENDBRANCH  29  30
ENDBRANCH  28  29
ENDBRANCH  27  28
ENDBRANCH  26  27
ENDBRANCH   1  26
TORSDOF 19
