REMARK SMILES O=C(NCCCCCCNC(=O)[C@@H]1C=C[C@H](NC(=O)[C@@H]2Cc3ccccc3O2)C1)c1ccc(-c2c3nc(c(-c4c(F)cccc4F)c4ccc([nH]4)c(-c4c(F)cccc4F)c4nc(c(-c5c(F)cccc5F)c5ccc2[nH]5)C=C4)C=C3)cc1
REMARK SMILES IDX 6 1 5 2 4 3 3 4 1 5 2 6 30 8 31 9 83 10 32 11 82 12 33 13
REMARK SMILES IDX 34 14 35 15 76 16 36 17 81 18 75 19 77 20 37 21 80 22 74 23
REMARK SMILES IDX 73 24 38 26 64 27 47 28 63 29 48 30 51 31 62 32 78 33 49 34
REMARK SMILES IDX 50 35 61 37 79 38 52 39 39 40 40 41 45 42 41 43 42 44 44 45
REMARK SMILES IDX 46 46 43 47 65 48 66 49 71 50 67 51 68 52 70 53 72 54 69 55
REMARK SMILES IDX 53 56 54 57 59 58 55 59 56 60 58 61 60 62 57 63 7 64 8 65
REMARK SMILES IDX 9 66 10 67 11 68 12 70 13 71 14 72 29 73 15 74 16 75 17 76
REMARK SMILES IDX 18 77 19 79 20 80 21 81 28 82 22 83 27 84 23 85 26 86 24 87
REMARK SMILES IDX 25 88
REMARK H PARENT 3 7 77 25 51 36 10 69 17 78
REMARK Flexibility Score: inf
ROOT
ATOM      1  C   UNL     1      10.484   1.035   6.913  1.00  0.00     0.002 C 
ENDROOT
BRANCH   1   2
ATOM      2  C   UNL     1      11.353   0.080   7.726  1.00  0.00     0.021 C 
BRANCH   2   3
ATOM      3  C   UNL     1      11.803   0.646   9.062  1.00  0.00     0.116 C 
BRANCH   3   4
ATOM      4  N   UNL     1      10.727   0.649  10.036  1.00  0.00    -0.352 N 
ATOM      5  O   UNL     1       9.625  -0.101  11.862  1.00  0.00    -0.269 OA
ATOM      6  C   UNL     1      10.674  -0.012  11.239  1.00  0.00     0.251 C 
ATOM      7  H   UNL     1       9.938   1.192   9.806  1.00  0.00     0.163 HD
BRANCH   6   8
ATOM      8  C   UNL     1      11.910  -0.628  11.766  1.00  0.00     0.039 A 
ATOM      9  C   UNL     1      13.112   0.086  11.751  1.00  0.00     0.014 A 
ATOM     10  C   UNL     1      11.866  -1.925  12.283  1.00  0.00     0.014 A 
ATOM     11  C   UNL     1      14.289  -0.532  12.147  1.00  0.00     0.010 A 
ATOM     12  C   UNL     1      13.034  -2.511  12.776  1.00  0.00     0.010 A 
ATOM     13  C   UNL     1      14.254  -1.818  12.710  1.00  0.00    -0.014 A 
BRANCH  13  14
ATOM     14  C   UNL     1      15.473  -2.343  13.371  1.00  0.00     0.031 A 
ATOM     15  C   UNL     1      16.175  -3.572  12.876  1.00  0.00     0.074 A 
ATOM     16  C   UNL     1      15.931  -1.679  14.451  1.00  0.00     0.049 A 
ATOM     17  N   UNL     1      17.232  -4.165  13.371  1.00  0.00    -0.248 NA
ATOM     18  C   UNL     1      15.624  -4.228  11.680  1.00  0.00     0.031 C 
ATOM     19  C   UNL     1      15.309  -0.482  15.030  1.00  0.00     0.029 A 
ATOM     20  N   UNL     1      17.017  -1.905  15.256  1.00  0.00    -0.354 N 
ATOM     21  C   UNL     1      17.463  -5.271  12.564  1.00  0.00     0.074 A 
ATOM     22  C   UNL     1      16.429  -5.277  11.551  1.00  0.00     0.031 C 
ATOM     23  C   UNL     1      16.038  -0.065  16.073  1.00  0.00     0.029 A 
ATOM     24  C   UNL     1      17.128  -1.005  16.289  1.00  0.00     0.049 A 
ATOM     25  H   UNL     1      17.655  -2.641  15.109  1.00  0.00     0.167 HD
ATOM     26  C   UNL     1      18.450  -6.192  12.670  1.00  0.00     0.037 A 
ATOM     27  C   UNL     1      17.986  -0.963  17.323  1.00  0.00     0.037 A 
ATOM     28  C   UNL     1      19.482  -6.162  13.677  1.00  0.00     0.049 A 
ATOM     29  C   UNL     1      19.040  -2.025  17.428  1.00  0.00     0.074 A 
ATOM     30  C   UNL     1      20.567  -7.011  13.820  1.00  0.00     0.029 A 
ATOM     31  N   UNL     1      19.548  -5.251  14.720  1.00  0.00    -0.354 N 
ATOM     32  N   UNL     1      19.292  -3.020  16.614  1.00  0.00    -0.248 NA
ATOM     33  C   UNL     1      19.924  -1.964  18.599  1.00  0.00     0.031 C 
ATOM     34  C   UNL     1      21.250  -6.655  14.986  1.00  0.00     0.029 A 
ATOM     35  C   UNL     1      20.628  -5.547  15.537  1.00  0.00     0.049 A 
ATOM     36  H   UNL     1      18.921  -4.505  14.859  1.00  0.00     0.167 HD
ATOM     37  C   UNL     1      20.368  -3.698  17.168  1.00  0.00     0.074 A 
ATOM     38  C   UNL     1      20.743  -2.979  18.367  1.00  0.00     0.031 C 
ATOM     39  C   UNL     1      20.984  -4.822  16.729  1.00  0.00     0.037 A 
BRANCH  26  40
ATOM     40  C   UNL     1      18.472  -7.331  11.693  1.00  0.00     0.057 A 
ATOM     41  C   UNL     1      18.869  -7.161  10.361  1.00  0.00     0.134 A 
ATOM     42  C   UNL     1      18.201  -8.637  12.124  1.00  0.00     0.134 A 
ATOM     43  F   UNL     1      19.137  -5.937   9.882  1.00  0.00    -0.206 F 
ATOM     44  C   UNL     1      18.994  -8.248   9.493  1.00  0.00     0.040 A 
ATOM     45  C   UNL     1      18.344  -9.734  11.272  1.00  0.00     0.040 A 
ATOM     46  F   UNL     1      17.824  -8.871  13.390  1.00  0.00    -0.206 F 
ATOM     47  C   UNL     1      18.744  -9.541   9.952  1.00  0.00     0.006 A 
ENDBRANCH  26  40
BRANCH  27  48
ATOM     48  C   UNL     1      17.849   0.085  18.366  1.00  0.00     0.057 A 
ATOM     49  C   UNL     1      18.841   1.051  18.564  1.00  0.00     0.134 A 
ATOM     50  C   UNL     1      16.732   0.126  19.212  1.00  0.00     0.134 A 
ATOM     51  F   UNL     1      19.941   1.056  17.796  1.00  0.00    -0.206 F 
ATOM     52  C   UNL     1      18.745   1.999  19.584  1.00  0.00     0.040 A 
ATOM     53  C   UNL     1      16.606   1.089  20.212  1.00  0.00     0.040 A 
ATOM     54  F   UNL     1      15.740  -0.765  19.069  1.00  0.00    -0.206 F 
ATOM     55  C   UNL     1      17.622   2.021  20.410  1.00  0.00     0.006 A 
ENDBRANCH  27  48
BRANCH  39  56
ATOM     56  C   UNL     1      22.134  -5.329  17.548  1.00  0.00     0.057 A 
ATOM     57  C   UNL     1      21.940  -5.916  18.804  1.00  0.00     0.134 A 
ATOM     58  C   UNL     1      23.446  -5.252  17.064  1.00  0.00     0.134 A 
ATOM     59  F   UNL     1      20.710  -6.002  19.332  1.00  0.00    -0.206 F 
ATOM     60  C   UNL     1      23.013  -6.387  19.561  1.00  0.00     0.040 A 
ATOM     61  C   UNL     1      24.524  -5.748  17.798  1.00  0.00     0.040 A 
ATOM     62  F   UNL     1      23.700  -4.707  15.864  1.00  0.00    -0.206 F 
ATOM     63  C   UNL     1      24.309  -6.311  19.054  1.00  0.00     0.006 A 
ENDBRANCH  39  56
ENDBRANCH  13  14
ENDBRANCH   6   8
ENDBRANCH   3   4
ENDBRANCH   2   3
ENDBRANCH   1   2
BRANCH   1  64
ATOM     64  C   UNL     1      11.137   2.386   6.609  1.00  0.00     0.002 C 
BRANCH  64  65
ATOM     65  C   UNL     1      12.580   2.315   6.080  1.00  0.00     0.021 C 
BRANCH  65  66
ATOM     66  C   UNL     1      12.786   1.423   4.842  1.00  0.00     0.116 C 
BRANCH  66  67
ATOM     67  N   UNL     1      12.003   1.882   3.719  1.00  0.00    -0.356 N 
ATOM     68  C   UNL     1      12.270   3.133   3.245  1.00  0.00     0.227 C 
ATOM     69  H   UNL     1      11.307   1.316   3.313  1.00  0.00     0.163 HD
ATOM     70  O   UNL     1      11.491   4.012   3.597  1.00  0.00    -0.274 OA
BRANCH  68  71
ATOM     71  C   UNL     1      13.578   3.359   2.477  1.00  0.00     0.103 C 
ATOM     72  C   UNL     1      14.260   4.581   3.011  1.00  0.00    -0.016 C 
ATOM     73  C   UNL     1      13.403   3.699   0.983  1.00  0.00     0.047 C 
ATOM     74  C   UNL     1      14.293   5.583   2.123  1.00  0.00    -0.006 C 
ATOM     75  C   UNL     1      13.742   5.187   0.796  1.00  0.00     0.106 C 
BRANCH  75  76
ATOM     76  N   UNL     1      12.776   6.157   0.279  1.00  0.00    -0.347 N 
ATOM     77  C   UNL     1      11.455   6.476   0.458  1.00  0.00     0.261 C 
ATOM     78  H   UNL     1      13.193   6.748  -0.389  1.00  0.00     0.164 HD
ATOM     79  O   UNL     1      11.040   7.495  -0.102  1.00  0.00    -0.271 OA
BRANCH  77  80
ATOM     80  C   UNL     1      10.551   5.595   1.304  1.00  0.00     0.266 C 
ATOM     81  C   UNL     1       9.962   4.440   0.492  1.00  0.00     0.095 C 
ATOM     82  O   UNL     1       9.435   6.177   2.021  1.00  0.00    -0.480 OA
ATOM     83  C   UNL     1       8.970   3.984   1.490  1.00  0.00    -0.002 A 
ATOM     84  C   UNL     1       8.683   5.056   2.325  1.00  0.00     0.123 A 
ATOM     85  C   UNL     1       8.387   2.743   1.670  1.00  0.00     0.008 A 
ATOM     86  C   UNL     1       7.775   4.939   3.355  1.00  0.00     0.047 A 
ATOM     87  C   UNL     1       7.487   2.595   2.726  1.00  0.00     0.001 A 
ATOM     88  C   UNL     1       7.177   3.687   3.558  1.00  0.00     0.004 A 
ENDBRANCH  77  80
ENDBRANCH  75  76
ENDBRANCH  68  71
ENDBRANCH  66  67
ENDBRANCH  65  66
ENDBRANCH  64  65
ENDBRANCH   1  64
TORSDOF 15
