REMARK SMILES O=C(/C=C/[C@@]12C=C(O)C(=O)C=C1C(=O)C1=Cc3cc(O)c(O)cc3O[C@@H](c3ccc(O)c(O)c3)[C@@H]12)NCCCCCCNC(=O)c1ccc(-c2c3nc(c(-c4c(F)cccc4F)c4ccc([nH]4)c(-c4c(F)cccc4F)c4nc(c(-c5c(F)cccc5F)c5ccc2[nH]5)C=C4)C=C3)cc1
REMARK SMILES IDX 37 1 36 2 1 3 2 4 3 6 4 7 5 8 6 9 12 10 35 11 7 12 11 13
REMARK SMILES IDX 13 14 15 15 9 17 14 18 16 19 10 20 8 21 17 23 18 24 24 25
REMARK SMILES IDX 19 26 23 27 21 28 25 29 26 30 27 32 28 33 34 34 29 35 32 36
REMARK SMILES IDX 30 37 33 38 31 40 20 42 22 44 38 46 39 47 40 48 41 49 42 50
REMARK SMILES IDX 43 51 44 52 45 54 46 55 47 56 99 57 48 58 98 59 49 60 50 61
REMARK SMILES IDX 51 62 92 63 52 64 97 65 91 66 93 67 53 68 96 69 90 70 89 71
REMARK SMILES IDX 54 73 80 74 63 75 79 76 64 77 67 78 78 79 94 80 65 81 66 82
REMARK SMILES IDX 77 84 95 85 68 86 55 87 56 88 61 89 57 90 58 91 60 92 62 93
REMARK SMILES IDX 59 94 81 95 82 96 87 97 83 98 84 99 86 100 88 101 85 102
REMARK SMILES IDX 69 103 70 104 75 105 71 106 72 107 74 108 76 109 73 110
REMARK H PARENT 36 5 8 22 33 39 31 41 20 43 22 45 43 53 93 72 67 83
REMARK Flexibility Score: 80.00
ROOT
ATOM      1  C   UNL     1       2.209   2.296  -0.578  1.00  0.00     0.116 C 
ENDROOT
BRANCH   1   2
ATOM      2  N   UNL     1       2.801   0.983  -0.431  1.00  0.00    -0.353 N 
ATOM      3  O   UNL     1       1.023   0.029   0.678  1.00  0.00    -0.270 OA
ATOM      4  C   UNL     1       2.159  -0.032   0.228  1.00  0.00     0.243 C 
ATOM      5  H   UNL     1       3.691   0.814  -0.816  1.00  0.00     0.163 HD
BRANCH   4   6
ATOM      6  C   UNL     1       2.923  -1.301   0.310  1.00  0.00     0.068 C 
ATOM      7  C   UNL     1       4.238  -1.362   0.599  1.00  0.00    -0.005 C 
BRANCH   7   8
ATOM      8  C   UNL     1       5.114  -2.641   0.700  1.00  0.00     0.051 C 
ATOM      9  C   UNL     1       4.217  -3.833   0.903  1.00  0.00     0.040 C 
ATOM     10  C   UNL     1       5.876  -2.773  -0.601  1.00  0.00     0.018 C 
ATOM     11  C   UNL     1       6.303  -2.412   1.725  1.00  0.00     0.087 CG0
ATOM     12  C   UNL     1       4.020  -4.787  -0.019  1.00  0.00     0.160 C 
ATOM     13  C   UNL     1       5.737  -3.699  -1.552  1.00  0.00     0.065 C 
ATOM     14  C   UNL     1       6.999  -1.821  -0.572  1.00  0.00     0.186 C 
ATOM     15  C   UNL     1       7.250  -1.576   0.866  1.00  0.00     0.009 C 
ATOM     16  G   UNL     1       7.130  -3.629   2.272  1.00  0.00     0.000 G0
ATOM     17  C   UNL     1       4.754  -4.776  -1.324  1.00  0.00     0.220 C 
ATOM     18  O   UNL     1       7.600  -1.371  -1.519  1.00  0.00    -0.289 OA
ATOM     19  C   UNL     1       8.251  -0.811   1.300  1.00  0.00     0.020 C 
ATOM     20  O   UNL     1       4.577  -5.683  -2.130  1.00  0.00    -0.286 OA
BRANCH  12  21
ATOM     21  O   UNL     1       3.164  -5.842   0.228  1.00  0.00    -0.504 OA
ATOM     22  H   UNL     1       2.689  -5.880   1.034  1.00  0.00     0.293 HD
ENDBRANCH  12  21
BRANCH  19  23
ATOM     23  C   UNL     1       8.601  -0.865   2.716  1.00  0.00     0.021 A 
ATOM     24  C   UNL     1       8.924   0.327   3.382  1.00  0.00     0.062 A 
ATOM     25  C   UNL     1       8.720  -2.103   3.381  1.00  0.00     0.131 A 
ATOM     26  C   UNL     1       9.382   0.271   4.693  1.00  0.00     0.158 A 
ATOM     27  C   UNL     1       9.266  -2.143   4.666  1.00  0.00     0.097 A 
ATOM     28  C   UNL     1       9.565  -0.957   5.320  1.00  0.00     0.161 A 
BRANCH  25  29
ATOM     29  O   UNL     1       8.461  -3.319   2.797  1.00  0.00    -0.484 OA
BRANCH  29  30
ATOM     30  C   UNL     1       7.130  -3.629   2.272  1.00  0.00     0.213 CG0
ATOM     31  G   UNL     1       6.303  -2.412   1.725  1.00  0.00     0.000 G0
BRANCH  30  32
ATOM     32  C   UNL     1       6.403  -4.510   3.295  1.00  0.00    -0.003 A 
ATOM     33  C   UNL     1       5.650  -5.618   2.869  1.00  0.00     0.011 A 
ATOM     34  C   UNL     1       6.458  -4.274   4.677  1.00  0.00     0.057 A 
ATOM     35  C   UNL     1       4.841  -6.343   3.753  1.00  0.00     0.050 A 
ATOM     36  C   UNL     1       5.743  -5.072   5.574  1.00  0.00     0.157 A 
ATOM     37  C   UNL     1       4.880  -6.054   5.109  1.00  0.00     0.157 A 
BRANCH  36  38
ATOM     38  O   UNL     1       5.888  -4.876   6.917  1.00  0.00    -0.504 OA
ATOM     39  H   UNL     1       5.411  -5.409   7.523  1.00  0.00     0.293 HD
ENDBRANCH  36  38
BRANCH  37  40
ATOM     40  O   UNL     1       4.096  -6.742   5.987  1.00  0.00    -0.504 OA
ATOM     41  H   UNL     1       3.513  -7.406   5.675  1.00  0.00     0.293 HD
ENDBRANCH  37  40
ENDBRANCH  30  32
ENDBRANCH  29  30
ENDBRANCH  25  29
BRANCH  26  42
ATOM     42  O   UNL     1       9.691   1.398   5.403  1.00  0.00    -0.504 OA
ATOM     43  H   UNL     1       9.580   2.243   5.014  1.00  0.00     0.293 HD
ENDBRANCH  26  42
BRANCH  28  44
ATOM     44  O   UNL     1      10.046  -1.007   6.597  1.00  0.00    -0.504 OA
ATOM     45  H   UNL     1      10.252  -0.214   7.051  1.00  0.00     0.293 HD
ENDBRANCH  28  44
ENDBRANCH  19  23
ENDBRANCH   7   8
ENDBRANCH   4   6
ENDBRANCH   1   2
BRANCH   1  46
ATOM     46  C   UNL     1       2.761   3.283   0.450  1.00  0.00     0.021 C 
BRANCH  46  47
ATOM     47  C   UNL     1       4.277   3.509   0.374  1.00  0.00     0.002 C 
BRANCH  47  48
ATOM     48  C   UNL     1       4.813   3.987  -0.979  1.00  0.00     0.002 C 
BRANCH  48  49
ATOM     49  C   UNL     1       4.154   5.246  -1.543  1.00  0.00     0.021 C 
BRANCH  49  50
ATOM     50  C   UNL     1       4.212   6.471  -0.638  1.00  0.00     0.116 C 
BRANCH  50  51
ATOM     51  N   UNL     1       5.564   6.975  -0.445  1.00  0.00    -0.352 N 
ATOM     52  C   UNL     1       6.034   8.264  -0.559  1.00  0.00     0.251 C 
ATOM     53  H   UNL     1       6.236   6.300  -0.197  1.00  0.00     0.163 HD
ATOM     54  O   UNL     1       7.235   8.496  -0.474  1.00  0.00    -0.269 OA
BRANCH  52  55
ATOM     55  C   UNL     1       5.084   9.367  -0.828  1.00  0.00     0.039 A 
ATOM     56  C   UNL     1       3.893   9.473  -0.106  1.00  0.00     0.014 A 
ATOM     57  C   UNL     1       5.372  10.281  -1.845  1.00  0.00     0.014 A 
ATOM     58  C   UNL     1       2.921  10.379  -0.513  1.00  0.00     0.010 A 
ATOM     59  C   UNL     1       4.425  11.246  -2.199  1.00  0.00     0.010 A 
ATOM     60  C   UNL     1       3.170  11.269  -1.571  1.00  0.00    -0.014 A 
BRANCH  60  61
ATOM     61  C   UNL     1       2.098  12.200  -2.010  1.00  0.00     0.031 A 
ATOM     62  C   UNL     1       1.473  12.070  -3.373  1.00  0.00     0.074 A 
ATOM     63  C   UNL     1       1.640  13.129  -1.149  1.00  0.00     0.049 A 
ATOM     64  N   UNL     1       0.509  12.778  -3.910  1.00  0.00    -0.248 NA
ATOM     65  C   UNL     1       1.995  11.011  -4.251  1.00  0.00     0.031 C 
ATOM     66  C   UNL     1       2.151  13.344   0.206  1.00  0.00     0.029 A 
ATOM     67  N   UNL     1       0.625  14.044  -1.272  1.00  0.00    -0.354 N 
ATOM     68  C   UNL     1       0.321  12.262  -5.186  1.00  0.00     0.074 A 
ATOM     69  C   UNL     1       1.289  11.200  -5.357  1.00  0.00     0.031 C 
ATOM     70  C   UNL     1       1.412  14.287   0.808  1.00  0.00     0.029 A 
ATOM     71  C   UNL     1       0.416  14.785  -0.135  1.00  0.00     0.049 A 
ATOM     72  H   UNL     1       0.099  14.159  -2.095  1.00  0.00     0.167 HD
ATOM     73  C   UNL     1      -0.584  12.630  -6.124  1.00  0.00     0.037 A 
ATOM     74  C   UNL     1      -0.473  15.763   0.121  1.00  0.00     0.037 A 
ATOM     75  C   UNL     1      -1.561  13.673  -5.947  1.00  0.00     0.049 A 
ATOM     76  C   UNL     1      -1.436  16.182  -0.950  1.00  0.00     0.074 A 
ATOM     77  C   UNL     1      -2.529  14.107  -6.837  1.00  0.00     0.029 A 
ATOM     78  N   UNL     1      -1.698  14.443  -4.801  1.00  0.00    -0.354 N 
ATOM     79  N   UNL     1      -1.597  15.688  -2.153  1.00  0.00    -0.248 NA
ATOM     80  C   UNL     1      -2.333  17.302  -0.634  1.00  0.00     0.031 C 
ATOM     81  C   UNL     1      -3.227  15.164  -6.244  1.00  0.00     0.029 A 
ATOM     82  C   UNL     1      -2.723  15.360  -4.969  1.00  0.00     0.049 A 
ATOM     83  H   UNL     1      -1.149  14.351  -3.989  1.00  0.00     0.167 HD
ATOM     84  C   UNL     1      -2.617  16.428  -2.734  1.00  0.00     0.074 A 
ATOM     85  C   UNL     1      -3.051  17.393  -1.745  1.00  0.00     0.031 C 
ATOM     86  C   UNL     1      -3.142  16.318  -3.978  1.00  0.00     0.037 A 
BRANCH  73  87
ATOM     87  C   UNL     1      -0.562  11.905  -7.438  1.00  0.00     0.057 A 
ATOM     88  C   UNL     1      -1.039  10.595  -7.566  1.00  0.00     0.134 A 
ATOM     89  C   UNL     1      -0.116  12.547  -8.601  1.00  0.00     0.134 A 
ATOM     90  F   UNL     1      -1.470   9.921  -6.489  1.00  0.00    -0.206 F 
ATOM     91  C   UNL     1      -1.062   9.944  -8.801  1.00  0.00     0.040 A 
ATOM     92  C   UNL     1      -0.155  11.915  -9.845  1.00  0.00     0.040 A 
ATOM     93  F   UNL     1       0.347  13.805  -8.550  1.00  0.00    -0.206 F 
ATOM     94  C   UNL     1      -0.627  10.607  -9.946  1.00  0.00     0.006 A 
ENDBRANCH  73  87
BRANCH  74  95
ATOM     95  C   UNL     1      -0.489  16.402   1.460  1.00  0.00     0.057 A 
ATOM     96  C   UNL     1      -1.534  16.162   2.359  1.00  0.00     0.134 A 
ATOM     97  C   UNL     1       0.555  17.232   1.885  1.00  0.00     0.134 A 
ATOM     98  F   UNL     1      -2.569  15.389   2.001  1.00  0.00    -0.206 F 
ATOM     99  C   UNL     1      -1.540  16.726   3.636  1.00  0.00     0.040 A 
ATOM    100  C   UNL     1       0.573  17.782   3.167  1.00  0.00     0.040 A 
ATOM    101  F   UNL     1       1.587  17.493   1.070  1.00  0.00    -0.206 F 
ATOM    102  C   UNL     1      -0.478  17.531   4.045  1.00  0.00     0.006 A 
ENDBRANCH  74  95
BRANCH  86 103
ATOM    103  C   UNL     1      -4.253  17.256  -4.341  1.00  0.00     0.057 A 
ATOM    104  C   UNL     1      -4.010  18.604  -4.630  1.00  0.00     0.134 A 
ATOM    105  C   UNL     1      -5.570  16.795  -4.458  1.00  0.00     0.134 A 
ATOM    106  F   UNL     1      -2.771  19.109  -4.525  1.00  0.00    -0.206 F 
ATOM    107  C   UNL     1      -5.040  19.465  -5.012  1.00  0.00     0.040 A 
ATOM    108  C   UNL     1      -6.605  17.640  -4.860  1.00  0.00     0.040 A 
ATOM    109  F   UNL     1      -5.868  15.512  -4.202  1.00  0.00    -0.206 F 
ATOM    110  C   UNL     1      -6.341  18.980  -5.136  1.00  0.00     0.006 A 
ENDBRANCH  86 103
ENDBRANCH  60  61
ENDBRANCH  52  55
ENDBRANCH  50  51
ENDBRANCH  49  50
ENDBRANCH  48  49
ENDBRANCH  47  48
ENDBRANCH  46  47
ENDBRANCH   1  46
TORSDOF 20
