REMARK SMILES CC[C@H]1CCC[C@@H]([NH2+][C@@](C)(CC)C(=O)NCCCCCCNC(=O)c2ccc(-c3c4nc(c(-c5c(F)cccc5F)c5ccc([nH]5)c(-c5c(F)cccc5F)c5nc(c(-c6c(F)cccc6F)c6ccc3[nH]6)C=C5)C=C4)cc2)C1
REMARK SMILES IDX 18 1 17 2 16 3 15 4 13 5 14 6 9 8 10 9 8 10 7 13 3 14 4 15
REMARK SMILES IDX 79 16 5 17 6 18 2 19 1 20 11 21 12 22 19 23 20 24 21 25
REMARK SMILES IDX 22 26 23 27 24 29 25 30 26 31 78 32 27 33 77 34 28 35 29 36
REMARK SMILES IDX 30 37 71 38 31 39 76 40 70 41 72 42 32 43 75 44 69 45 68 46
REMARK SMILES IDX 33 48 59 49 42 50 58 51 43 52 46 53 57 54 73 55 44 56 45 57
REMARK SMILES IDX 56 59 74 60 47 61 34 62 35 63 40 64 36 65 37 66 39 67 41 68
REMARK SMILES IDX 38 69 60 70 61 71 66 72 62 73 63 74 65 75 67 76 64 77 48 78
REMARK SMILES IDX 49 79 54 80 50 81 51 82 53 83 55 84 52 85
REMARK H PARENT 15 7 8 11 8 12 22 28 72 47 46 58
REMARK Flexibility Score: inf
ROOT
ATOM      1  C   UNL     1       6.857   3.320  -4.553  1.00  0.00     0.002 C 
ENDROOT
BRANCH   1   2
ATOM      2  C   UNL     1       5.407   2.886  -4.770  1.00  0.00     0.021 C 
BRANCH   2   3
ATOM      3  C   UNL     1       5.249   1.738  -5.763  1.00  0.00     0.116 C 
BRANCH   3   4
ATOM      4  N   UNL     1       5.544   0.468  -5.135  1.00  0.00    -0.351 N 
ATOM      5  C   UNL     1       4.757  -0.520  -4.619  1.00  0.00     0.281 C 
ATOM      6  O   UNL     1       5.388  -1.434  -4.075  1.00  0.00    -0.268 OA
ATOM      7  H   UNL     1       6.508   0.279  -5.065  1.00  0.00     0.163 HD
BRANCH   5   8
ATOM      8  C   UNL     1       3.192  -0.534  -4.781  1.00  0.00     0.172 C 
ATOM      9  C   UNL     1       2.928  -0.747  -6.301  1.00  0.00     0.090 C 
BRANCH   8  10
ATOM     10  N   UNL     1       2.583  -1.760  -4.210  1.00  0.00    -0.331 N 
ATOM     11  H   UNL     1       1.578  -1.633  -4.322  1.00  0.00     0.347 HD
ATOM     12  H   UNL     1       3.121  -2.463  -4.716  1.00  0.00     0.347 HD
BRANCH  10  13
ATOM     13  C   UNL     1       2.749  -2.264  -2.855  1.00  0.00     0.183 C 
ATOM     14  C   UNL     1       0.449  -1.685  -1.739  1.00  0.00    -0.006 C 
ATOM     15  C   UNL     1       0.092  -3.176  -1.742  1.00  0.00     0.004 C 
ATOM     16  C   UNL     1       1.989  -1.560  -1.716  1.00  0.00     0.068 C 
ATOM     17  C   UNL     1       0.772  -3.934  -2.878  1.00  0.00     0.006 C 
ATOM     18  C   UNL     1       2.296  -3.749  -2.858  1.00  0.00     0.065 C 
BRANCH  14  19
ATOM     19  C   UNL     1      -0.216  -0.871  -2.865  1.00  0.00     0.000 C 
ATOM     20  C   UNL     1      -1.722  -1.013  -2.996  1.00  0.00     0.004 C 
ENDBRANCH  14  19
ENDBRANCH  10  13
ENDBRANCH   8  10
BRANCH   8  21
ATOM     21  C   UNL     1       2.462   0.777  -4.378  1.00  0.00     0.075 C 
ATOM     22  C   UNL     1       2.785   1.411  -3.034  1.00  0.00     0.011 C 
ENDBRANCH   8  21
ENDBRANCH   5   8
ENDBRANCH   3   4
ENDBRANCH   2   3
ENDBRANCH   1   2
BRANCH   1  23
ATOM     23  C   UNL     1       7.560   3.848  -5.806  1.00  0.00     0.002 C 
BRANCH  23  24
ATOM     24  C   UNL     1       6.803   4.950  -6.553  1.00  0.00     0.021 C 
BRANCH  24  25
ATOM     25  C   UNL     1       6.472   6.174  -5.705  1.00  0.00     0.116 C 
BRANCH  25  26
ATOM     26  N   UNL     1       7.675   6.823  -5.212  1.00  0.00    -0.352 N 
ATOM     27  C   UNL     1       8.069   8.123  -5.354  1.00  0.00     0.251 C 
ATOM     28  H   UNL     1       8.291   6.246  -4.706  1.00  0.00     0.163 HD
ATOM     29  O   UNL     1       9.228   8.452  -5.084  1.00  0.00    -0.269 OA
BRANCH  27  30
ATOM     30  C   UNL     1       7.112   9.140  -5.829  1.00  0.00     0.039 A 
ATOM     31  C   UNL     1       7.537  10.085  -6.766  1.00  0.00     0.014 A 
ATOM     32  C   UNL     1       5.813   9.192  -5.312  1.00  0.00     0.014 A 
ATOM     33  C   UNL     1       6.653  11.073  -7.200  1.00  0.00     0.010 A 
ATOM     34  C   UNL     1       4.913  10.137  -5.793  1.00  0.00     0.010 A 
ATOM     35  C   UNL     1       5.333  11.101  -6.722  1.00  0.00    -0.014 A 
BRANCH  35  36
ATOM     36  C   UNL     1       4.397  12.174  -7.136  1.00  0.00     0.031 A 
ATOM     37  C   UNL     1       3.928  13.185  -6.127  1.00  0.00     0.074 A 
ATOM     38  C   UNL     1       3.946  12.217  -8.403  1.00  0.00     0.049 A 
ATOM     39  N   UNL     1       3.079  14.170  -6.274  1.00  0.00    -0.248 NA
ATOM     40  C   UNL     1       4.467  13.057  -4.763  1.00  0.00     0.031 C 
ATOM     41  C   UNL     1       4.301  11.271  -9.462  1.00  0.00     0.029 A 
ATOM     42  N   UNL     1       3.087  13.095  -9.014  1.00  0.00    -0.354 N 
ATOM     43  C   UNL     1       2.972  14.765  -5.024  1.00  0.00     0.074 A 
ATOM     44  C   UNL     1       3.800  14.001  -4.117  1.00  0.00     0.031 C 
ATOM     45  C   UNL     1       3.683  11.634 -10.599  1.00  0.00     0.029 A 
ATOM     46  C   UNL     1       2.871  12.819 -10.342  1.00  0.00     0.049 A 
ATOM     47  H   UNL     1       2.665  13.851  -8.545  1.00  0.00     0.167 HD
ATOM     48  C   UNL     1       2.268  15.866  -4.668  1.00  0.00     0.037 A 
ATOM     49  C   UNL     1       2.105  13.456 -11.247  1.00  0.00     0.037 A 
ATOM     50  C   UNL     1       1.471  16.643  -5.579  1.00  0.00     0.049 A 
ATOM     51  C   UNL     1       1.345  14.684 -10.830  1.00  0.00     0.074 A 
ATOM     52  C   UNL     1       0.747  17.796  -5.327  1.00  0.00     0.029 A 
ATOM     53  N   UNL     1       1.302  16.349  -6.923  1.00  0.00    -0.354 N 
ATOM     54  N   UNL     1       1.288  15.263  -9.655  1.00  0.00    -0.248 NA
ATOM     55  C   UNL     1       0.551  15.354 -11.869  1.00  0.00     0.031 C 
ATOM     56  C   UNL     1       0.119  18.184  -6.516  1.00  0.00     0.029 A 
ATOM     57  C   UNL     1       0.483  17.295  -7.514  1.00  0.00     0.049 A 
ATOM     58  H   UNL     1       1.705  15.580  -7.388  1.00  0.00     0.167 HD
ATOM     59  C   UNL     1       0.485  16.383  -9.821  1.00  0.00     0.074 A 
ATOM     60  C   UNL     1       0.083  16.406 -11.213  1.00  0.00     0.031 C 
ATOM     61  C   UNL     1       0.113  17.311  -8.906  1.00  0.00     0.037 A 
BRANCH  48  62
ATOM     62  C   UNL     1       2.343  16.298  -3.233  1.00  0.00     0.057 A 
ATOM     63  C   UNL     1       3.507  16.861  -2.693  1.00  0.00     0.134 A 
ATOM     64  C   UNL     1       1.235  16.172  -2.386  1.00  0.00     0.134 A 
ATOM     65  F   UNL     1       4.609  16.996  -3.447  1.00  0.00    -0.206 F 
ATOM     66  C   UNL     1       3.575  17.259  -1.357  1.00  0.00     0.040 A 
ATOM     67  C   UNL     1       1.282  16.590  -1.055  1.00  0.00     0.040 A 
ATOM     68  F   UNL     1       0.087  15.644  -2.839  1.00  0.00    -0.206 F 
ATOM     69  C   UNL     1       2.457  17.130  -0.536  1.00  0.00     0.006 A 
ENDBRANCH  48  62
BRANCH  49  70
ATOM     70  C   UNL     1       2.051  12.972 -12.648  1.00  0.00     0.057 A 
ATOM     71  C   UNL     1       2.655  13.695 -13.683  1.00  0.00     0.134 A 
ATOM     72  C   UNL     1       1.386  11.789 -12.990  1.00  0.00     0.134 A 
ATOM     73  F   UNL     1       3.292  14.845 -13.419  1.00  0.00    -0.206 F 
ATOM     74  C   UNL     1       2.581  13.273 -15.011  1.00  0.00     0.040 A 
ATOM     75  C   UNL     1       1.324  11.342 -14.311  1.00  0.00     0.040 A 
ATOM     76  F   UNL     1       0.795  11.046 -12.043  1.00  0.00    -0.206 F 
ATOM     77  C   UNL     1       1.916  12.090 -15.327  1.00  0.00     0.006 A 
ENDBRANCH  49  70
BRANCH  61  78
ATOM     78  C   UNL     1      -0.727  18.453  -9.392  1.00  0.00     0.057 A 
ATOM     79  C   UNL     1      -2.079  18.293  -9.715  1.00  0.00     0.134 A 
ATOM     80  C   UNL     1      -0.178  19.737  -9.508  1.00  0.00     0.134 A 
ATOM     81  F   UNL     1      -2.659  17.086  -9.637  1.00  0.00    -0.206 F 
ATOM     82  C   UNL     1      -2.853  19.367 -10.158  1.00  0.00     0.040 A 
ATOM     83  C   UNL     1      -0.948  20.823  -9.927  1.00  0.00     0.040 A 
ATOM     84  F   UNL     1       1.110  19.957  -9.206  1.00  0.00    -0.206 F 
ATOM     85  C   UNL     1      -2.288  20.637 -10.260  1.00  0.00     0.006 A 
ENDBRANCH  61  78
ENDBRANCH  35  36
ENDBRANCH  27  30
ENDBRANCH  25  26
ENDBRANCH  24  25
ENDBRANCH  23  24
ENDBRANCH   1  23
TORSDOF 17
