REMARK SMILES COc1ccc(OC)c(-c2cc(-c3ccccc3)nc(S[C@H](C)C(=O)NCCCCCCNC(=O)c3ccc(-c4c5nc(c(-c6c(F)cccc6F)c6ccc([nH]6)c(-c6c(F)cccc6F)c6nc(c(-c7c(F)cccc7F)c7ccc4[nH]7)C=C6)C=C5)cc3)c2C#N)c1
REMARK SMILES IDX 28 1 27 2 26 3 24 4 25 5 22 7 23 8 21 9 20 10 10 11 11 12
REMARK SMILES IDX 90 13 12 14 19 15 9 16 3 17 4 18 93 19 5 20 6 21 2 22 1 23
REMARK SMILES IDX 7 24 8 25 91 26 92 27 13 28 14 29 18 30 15 31 17 32 16 33
REMARK SMILES IDX 29 34 30 35 31 36 32 37 33 38 34 39 35 41 36 42 37 43 89 44
REMARK SMILES IDX 38 45 88 46 39 47 40 48 41 49 82 50 42 51 87 52 81 53 83 54
REMARK SMILES IDX 43 55 86 56 80 57 79 58 44 60 70 61 53 62 69 63 54 64 57 65
REMARK SMILES IDX 68 66 84 67 55 68 56 69 67 71 85 72 58 73 45 74 46 75 51 76
REMARK SMILES IDX 47 77 48 78 50 79 52 80 49 81 71 82 72 83 77 84 73 85 74 86
REMARK SMILES IDX 76 87 78 88 75 89 59 90 60 91 65 92 61 93 62 94 64 95 66 96
REMARK SMILES IDX 63 97
REMARK H PARENT 26 6 33 40 83 59 57 70
REMARK Flexibility Score: inf
ROOT
ATOM      1  C   UNL     1       4.361   2.797  -4.705  1.00  0.00     0.021 C 
ENDROOT
BRANCH   1   2
ATOM      2  C   UNL     1       4.349   1.304  -4.433  1.00  0.00     0.116 C 
BRANCH   2   3
ATOM      3  N   UNL     1       4.881   0.520  -5.514  1.00  0.00    -0.355 N 
ATOM      4  C   UNL     1       5.976  -0.291  -5.539  1.00  0.00     0.233 C 
ATOM      5  O   UNL     1       6.155  -0.934  -6.581  1.00  0.00    -0.274 OA
ATOM      6  H   UNL     1       4.381   0.578  -6.360  1.00  0.00     0.163 HD
BRANCH   4   7
ATOM      7  C   UNL     1       7.003  -0.370  -4.396  1.00  0.00     0.139 C 
ATOM      8  C   UNL     1       7.929   0.832  -4.335  1.00  0.00     0.030 C 
BRANCH   7   9
ATOM      9  S   UNL     1       6.317  -1.117  -2.857  1.00  0.00    -0.092 SA
BRANCH   9  10
ATOM     10  C   UNL     1       6.067   0.170  -1.615  1.00  0.00     0.116 A 
ATOM     11  C   UNL     1       5.200   0.857   0.543  1.00  0.00     0.008 A 
ATOM     12  C   UNL     1       5.832   2.091   0.340  1.00  0.00     0.039 A 
ATOM     13  C   UNL     1       5.344  -0.135  -0.451  1.00  0.00     0.092 A 
ATOM     14  C   UNL     1       6.486   2.348  -0.860  1.00  0.00     0.072 A 
ATOM     15  N   UNL     1       6.591   1.404  -1.831  1.00  0.00    -0.240 NA
BRANCH  11  16
ATOM     16  C   UNL     1       4.480   0.606   1.811  1.00  0.00     0.029 A 
ATOM     17  C   UNL     1       4.537  -0.652   3.933  1.00  0.00     0.119 A 
ATOM     18  C   UNL     1       3.277  -0.171   4.248  1.00  0.00     0.050 A 
ATOM     19  C   UNL     1       5.130  -0.261   2.732  1.00  0.00     0.059 A 
ATOM     20  C   UNL     1       2.628   0.703   3.377  1.00  0.00     0.051 A 
ATOM     21  C   UNL     1       3.205   1.098   2.156  1.00  0.00     0.127 A 
BRANCH  17  22
ATOM     22  O   UNL     1       5.064  -1.540   4.828  1.00  0.00    -0.497 OA
ATOM     23  C   UNL     1       6.484  -1.616   4.876  1.00  0.00     0.278 C 
ENDBRANCH  17  22
BRANCH  21  24
ATOM     24  O   UNL     1       2.334   1.890   1.461  1.00  0.00    -0.496 OA
ATOM     25  C   UNL     1       2.734   2.635   0.331  1.00  0.00     0.278 C 
ENDBRANCH  21  24
ENDBRANCH  11  16
BRANCH  13  26
ATOM     26  C   UNL     1       4.768  -1.440  -0.261  1.00  0.00     0.103 C 
ATOM     27  N   UNL     1       4.314  -2.492  -0.090  1.00  0.00    -0.192 NA
ENDBRANCH  13  26
BRANCH  14  28
ATOM     28  C   UNL     1       7.066   3.674  -1.145  1.00  0.00     0.000 A 
ATOM     29  C   UNL     1       6.675   4.412  -2.272  1.00  0.00     0.010 A 
ATOM     30  C   UNL     1       8.001   4.270  -0.287  1.00  0.00     0.010 A 
ATOM     31  C   UNL     1       7.174   5.689  -2.539  1.00  0.00     0.001 A 
ATOM     32  C   UNL     1       8.523   5.542  -0.557  1.00  0.00     0.001 A 
ATOM     33  C   UNL     1       8.107   6.253  -1.680  1.00  0.00     0.000 A 
ENDBRANCH  14  28
ENDBRANCH   9  10
ENDBRANCH   7   9
ENDBRANCH   4   7
ENDBRANCH   2   3
ENDBRANCH   1   2
BRANCH   1  34
ATOM     34  C   UNL     1       3.180   3.319  -5.510  1.00  0.00     0.002 C 
BRANCH  34  35
ATOM     35  C   UNL     1       1.830   3.143  -4.804  1.00  0.00     0.002 C 
BRANCH  35  36
ATOM     36  C   UNL     1       1.742   3.730  -3.388  1.00  0.00     0.021 C 
BRANCH  36  37
ATOM     37  C   UNL     1       2.066   5.218  -3.290  1.00  0.00     0.116 C 
BRANCH  37  38
ATOM     38  N   UNL     1       1.161   6.012  -4.102  1.00  0.00    -0.352 N 
ATOM     39  C   UNL     1       0.244   6.958  -3.724  1.00  0.00     0.251 C 
ATOM     40  H   UNL     1       1.213   5.845  -5.070  1.00  0.00     0.163 HD
ATOM     41  O   UNL     1      -0.623   7.316  -4.515  1.00  0.00    -0.269 OA
BRANCH  39  42
ATOM     42  C   UNL     1       0.293   7.549  -2.370  1.00  0.00     0.039 A 
ATOM     43  C   UNL     1      -0.909   7.800  -1.704  1.00  0.00     0.014 A 
ATOM     44  C   UNL     1       1.509   7.900  -1.776  1.00  0.00     0.014 A 
ATOM     45  C   UNL     1      -0.888   8.366  -0.429  1.00  0.00     0.010 A 
ATOM     46  C   UNL     1       1.531   8.387  -0.470  1.00  0.00     0.010 A 
ATOM     47  C   UNL     1       0.332   8.637   0.212  1.00  0.00    -0.014 A 
BRANCH  47  48
ATOM     48  C   UNL     1       0.355   9.184   1.594  1.00  0.00     0.031 A 
ATOM     49  C   UNL     1       0.950  10.538   1.873  1.00  0.00     0.074 A 
ATOM     50  C   UNL     1      -0.135   8.441   2.607  1.00  0.00     0.049 A 
ATOM     51  N   UNL     1       1.066  11.168   3.015  1.00  0.00    -0.248 NA
ATOM     52  C   UNL     1       1.507  11.272   0.726  1.00  0.00     0.031 C 
ATOM     53  C   UNL     1      -0.694   7.094   2.474  1.00  0.00     0.029 A 
ATOM     54  N   UNL     1      -0.239   8.710   3.949  1.00  0.00    -0.354 N 
ATOM     55  C   UNL     1       1.717  12.361   2.726  1.00  0.00     0.074 A 
ATOM     56  C   UNL     1       2.018  12.346   1.311  1.00  0.00     0.031 C 
ATOM     57  C   UNL     1      -1.109   6.668   3.676  1.00  0.00     0.029 A 
ATOM     58  C   UNL     1      -0.801   7.687   4.675  1.00  0.00     0.049 A 
ATOM     59  H   UNL     1       0.060   9.556   4.354  1.00  0.00     0.167 HD
ATOM     60  C   UNL     1       2.019  13.384   3.561  1.00  0.00     0.037 A 
ATOM     61  C   UNL     1      -1.030   7.574   5.997  1.00  0.00     0.037 A 
ATOM     62  C   UNL     1       1.700  13.402   4.965  1.00  0.00     0.049 A 
ATOM     63  C   UNL     1      -0.668   8.720   6.903  1.00  0.00     0.074 A 
ATOM     64  C   UNL     1       1.901  14.422   5.878  1.00  0.00     0.029 A 
ATOM     65  N   UNL     1       1.129  12.348   5.662  1.00  0.00    -0.354 N 
ATOM     66  N   UNL     1      -0.133   9.878   6.599  1.00  0.00    -0.248 NA
ATOM     67  C   UNL     1      -0.948   8.548   8.335  1.00  0.00     0.031 C 
ATOM     68  C   UNL     1       1.526  13.958   7.141  1.00  0.00     0.029 A 
ATOM     69  C   UNL     1       1.012  12.679   7.002  1.00  0.00     0.049 A 
ATOM     70  H   UNL     1       0.848  11.492   5.264  1.00  0.00     0.167 HD
ATOM     71  C   UNL     1      -0.043  10.582   7.794  1.00  0.00     0.074 A 
ATOM     72  C   UNL     1      -0.597   9.728   8.823  1.00  0.00     0.031 C 
ATOM     73  C   UNL     1       0.453  11.823   8.018  1.00  0.00     0.037 A 
BRANCH  60  74
ATOM     74  C   UNL     1       2.746  14.569   2.989  1.00  0.00     0.057 A 
ATOM     75  C   UNL     1       2.138  15.456   2.091  1.00  0.00     0.134 A 
ATOM     76  C   UNL     1       4.054  14.863   3.398  1.00  0.00     0.134 A 
ATOM     77  F   UNL     1       0.890  15.231   1.651  1.00  0.00    -0.206 F 
ATOM     78  C   UNL     1       2.811  16.579   1.605  1.00  0.00     0.040 A 
ATOM     79  C   UNL     1       4.724  16.000   2.945  1.00  0.00     0.040 A 
ATOM     80  F   UNL     1       4.694  14.062   4.262  1.00  0.00    -0.206 F 
ATOM     81  C   UNL     1       4.104  16.859   2.040  1.00  0.00     0.006 A 
ENDBRANCH  60  74
BRANCH  61  82
ATOM     82  C   UNL     1      -1.621   6.327   6.552  1.00  0.00     0.057 A 
ATOM     83  C   UNL     1      -2.886   6.321   7.152  1.00  0.00     0.134 A 
ATOM     84  C   UNL     1      -0.918   5.116   6.525  1.00  0.00     0.134 A 
ATOM     85  F   UNL     1      -3.604   7.452   7.224  1.00  0.00    -0.206 F 
ATOM     86  C   UNL     1      -3.414   5.169   7.737  1.00  0.00     0.040 A 
ATOM     87  C   UNL     1      -1.449   3.948   7.074  1.00  0.00     0.040 A 
ATOM     88  F   UNL     1       0.295   5.048   5.956  1.00  0.00    -0.206 F 
ATOM     89  C   UNL     1      -2.695   3.976   7.695  1.00  0.00     0.006 A 
ENDBRANCH  61  82
BRANCH  73  90
ATOM     90  C   UNL     1       0.380  12.355   9.422  1.00  0.00     0.057 A 
ATOM     91  C   UNL     1       1.157  11.827  10.463  1.00  0.00     0.134 A 
ATOM     92  C   UNL     1      -0.453  13.439   9.728  1.00  0.00     0.134 A 
ATOM     93  F   UNL     1       1.969  10.782  10.243  1.00  0.00    -0.206 F 
ATOM     94  C   UNL     1       1.083  12.337  11.760  1.00  0.00     0.040 A 
ATOM     95  C   UNL     1      -0.508  13.982  11.012  1.00  0.00     0.040 A 
ATOM     96  F   UNL     1      -1.215  14.003   8.778  1.00  0.00    -0.206 F 
ATOM     97  C   UNL     1       0.254  13.424  12.035  1.00  0.00     0.006 A 
ENDBRANCH  73  90
ENDBRANCH  47  48
ENDBRANCH  39  42
ENDBRANCH  37  38
ENDBRANCH  36  37
ENDBRANCH  35  36
ENDBRANCH  34  35
ENDBRANCH   1  34
TORSDOF 20
