REMARK SMILES O=C(NCCCCCCNC(=O)[C@H]1CC[C@H]2CCCC[C@@H]2[N@H+]1[C@@H]1CCCSC1)c1ccc(-c2c3nc(c(-c4c(F)cccc4F)c4ccc([nH]4)c(-c4c(F)cccc4F)c4nc(c(-c5c(F)cccc5F)c5ccc2[nH]5)C=C4)C=C3)cc1
REMARK SMILES IDX 6 1 5 2 4 3 3 4 1 5 2 6 29 8 30 9 82 10 31 11 81 12 32 13
REMARK SMILES IDX 33 14 34 15 75 16 35 17 80 18 74 19 76 20 36 21 79 22 73 23
REMARK SMILES IDX 72 24 37 26 63 27 46 28 62 29 47 30 50 31 61 32 77 33 48 34
REMARK SMILES IDX 49 35 60 37 78 38 51 39 38 40 39 41 44 42 40 43 41 44 43 45
REMARK SMILES IDX 45 46 42 47 64 48 65 49 70 50 66 51 67 52 69 53 71 54 68 55
REMARK SMILES IDX 52 56 53 57 58 58 54 59 55 60 57 61 59 62 56 63 7 64 8 65
REMARK SMILES IDX 9 66 10 67 11 68 12 70 13 71 14 72 22 73 15 74 21 75 16 77
REMARK SMILES IDX 20 78 17 79 19 80 18 81 23 82 24 83 28 84 25 85 27 86 26 87
REMARK H PARENT 3 7 76 25 50 36 10 69 22 76
REMARK Flexibility Score: inf
ROOT
ATOM      1  C   UNL     1       3.547   0.387  -3.972  1.00  0.00     0.002 C 
ENDROOT
BRANCH   1   2
ATOM      2  C   UNL     1       4.264  -0.303  -2.809  1.00  0.00     0.021 C 
BRANCH   2   3
ATOM      3  C   UNL     1       4.230   0.469  -1.495  1.00  0.00     0.116 C 
BRANCH   3   4
ATOM      4  N   UNL     1       2.872   0.624  -0.990  1.00  0.00    -0.352 N 
ATOM      5  O   UNL     1       1.039   0.062   0.203  1.00  0.00    -0.269 OA
ATOM      6  C   UNL     1       2.263   0.007   0.072  1.00  0.00     0.251 C 
ATOM      7  H   UNL     1       2.310   1.264  -1.484  1.00  0.00     0.163 HD
BRANCH   6   8
ATOM      8  C   UNL     1       3.075  -0.727   1.063  1.00  0.00     0.039 A 
ATOM      9  C   UNL     1       4.275  -0.183   1.521  1.00  0.00     0.014 A 
ATOM     10  C   UNL     1       2.625  -1.953   1.563  1.00  0.00     0.014 A 
ATOM     11  C   UNL     1       5.095  -0.927   2.356  1.00  0.00     0.010 A 
ATOM     12  C   UNL     1       3.402  -2.652   2.493  1.00  0.00     0.010 A 
ATOM     13  C   UNL     1       4.655  -2.153   2.882  1.00  0.00    -0.014 A 
BRANCH  13  14
ATOM     14  C   UNL     1       5.498  -2.824   3.904  1.00  0.00     0.031 A 
ATOM     15  C   UNL     1       6.117  -4.169   3.660  1.00  0.00     0.074 A 
ATOM     16  C   UNL     1       5.750  -2.157   5.049  1.00  0.00     0.049 A 
ATOM     17  N   UNL     1       6.937  -4.846   4.427  1.00  0.00    -0.248 NA
ATOM     18  C   UNL     1       5.772  -4.851   2.404  1.00  0.00     0.031 C 
ATOM     19  C   UNL     1       5.180  -0.854   5.405  1.00  0.00     0.029 A 
ATOM     20  N   UNL     1       6.569  -2.458   6.106  1.00  0.00    -0.354 N 
ATOM     21  C   UNL     1       7.206  -6.028   3.750  1.00  0.00     0.074 A 
ATOM     22  C   UNL     1       6.428  -5.997   2.529  1.00  0.00     0.031 C 
ATOM     23  C   UNL     1       5.711  -0.441   6.563  1.00  0.00     0.029 A 
ATOM     24  C   UNL     1       6.601  -1.477   7.068  1.00  0.00     0.049 A 
ATOM     25  H   UNL     1       7.083  -3.294   6.170  1.00  0.00     0.167 HD
ATOM     26  C   UNL     1       8.037  -7.036   4.109  1.00  0.00     0.037 A 
ATOM     27  C   UNL     1       7.259  -1.423   8.240  1.00  0.00     0.037 A 
ATOM     28  C   UNL     1       8.804  -7.059   5.331  1.00  0.00     0.049 A 
ATOM     29  C   UNL     1       8.150  -2.568   8.621  1.00  0.00     0.074 A 
ATOM     30  C   UNL     1       9.678  -8.034   5.783  1.00  0.00     0.029 A 
ATOM     31  N   UNL     1       8.786  -6.063   6.297  1.00  0.00    -0.354 N 
ATOM     32  N   UNL     1       8.417  -3.664   7.954  1.00  0.00    -0.248 NA
ATOM     33  C   UNL     1       8.832  -2.468   9.917  1.00  0.00     0.031 C 
ATOM     34  C   UNL     1      10.152  -7.649   7.042  1.00  0.00     0.029 A 
ATOM     35  C   UNL     1       9.620  -6.408   7.350  1.00  0.00     0.049 A 
ATOM     36  H   UNL     1       8.259  -5.234   6.243  1.00  0.00     0.167 HD
ATOM     37  C   UNL     1       9.308  -4.379   8.742  1.00  0.00     0.074 A 
ATOM     38  C   UNL     1       9.562  -3.573   9.919  1.00  0.00     0.031 C 
ATOM     39  C   UNL     1       9.859  -5.597   8.517  1.00  0.00     0.037 A 
BRANCH  26  40
ATOM     40  C   UNL     1       8.162  -8.205   3.172  1.00  0.00     0.057 A 
ATOM     41  C   UNL     1       8.824  -8.097   1.942  1.00  0.00     0.134 A 
ATOM     42  C   UNL     1       7.670  -9.467   3.529  1.00  0.00     0.134 A 
ATOM     43  F   UNL     1       9.312  -6.915   1.534  1.00  0.00    -0.206 F 
ATOM     44  C   UNL     1       8.975  -9.195   1.093  1.00  0.00     0.040 A 
ATOM     45  C   UNL     1       7.838 -10.579   2.700  1.00  0.00     0.040 A 
ATOM     46  F   UNL     1       7.034  -9.646   4.696  1.00  0.00    -0.206 F 
ATOM     47  C   UNL     1       8.489 -10.444   1.476  1.00  0.00     0.006 A 
ENDBRANCH  26  40
BRANCH  27  48
ATOM     48  C   UNL     1       7.077  -0.257   9.140  1.00  0.00     0.057 A 
ATOM     49  C   UNL     1       8.127   0.624   9.422  1.00  0.00     0.134 A 
ATOM     50  C   UNL     1       5.842  -0.002   9.752  1.00  0.00     0.134 A 
ATOM     51  F   UNL     1       9.338   0.427   8.879  1.00  0.00    -0.206 F 
ATOM     52  C   UNL     1       7.965   1.698  10.299  1.00  0.00     0.040 A 
ATOM     53  C   UNL     1       5.655   1.087  10.602  1.00  0.00     0.040 A 
ATOM     54  F   UNL     1       4.791  -0.801   9.515  1.00  0.00    -0.206 F 
ATOM     55  C   UNL     1       6.723   1.935  10.887  1.00  0.00     0.006 A 
ENDBRANCH  27  48
BRANCH  39  56
ATOM     56  C   UNL     1      10.810  -6.109   9.559  1.00  0.00     0.057 A 
ATOM     57  C   UNL     1      10.373  -6.504  10.831  1.00  0.00     0.134 A 
ATOM     58  C   UNL     1      12.181  -6.205   9.289  1.00  0.00     0.134 A 
ATOM     59  F   UNL     1       9.075  -6.422  11.160  1.00  0.00    -0.206 F 
ATOM     60  C   UNL     1      11.270  -6.938  11.809  1.00  0.00     0.040 A 
ATOM     61  C   UNL     1      13.083  -6.668  10.247  1.00  0.00     0.040 A 
ATOM     62  F   UNL     1      12.665  -5.852   8.089  1.00  0.00    -0.206 F 
ATOM     63  C   UNL     1      12.629  -7.025  11.515  1.00  0.00     0.006 A 
ENDBRANCH  39  56
ENDBRANCH  13  14
ENDBRANCH   6   8
ENDBRANCH   3   4
ENDBRANCH   2   3
ENDBRANCH   1   2
BRANCH   1  64
ATOM     64  C   UNL     1       4.027   1.804  -4.293  1.00  0.00     0.002 C 
BRANCH  64  65
ATOM     65  C   UNL     1       5.538   1.941  -4.460  1.00  0.00     0.021 C 
BRANCH  65  66
ATOM     66  C   UNL     1       6.157   1.183  -5.648  1.00  0.00     0.116 C 
BRANCH  66  67
ATOM     67  N   UNL     1       6.524   2.125  -6.684  1.00  0.00    -0.351 N 
ATOM     68  C   UNL     1       7.628   2.866  -6.935  1.00  0.00     0.278 C 
ATOM     69  H   UNL     1       5.814   2.255  -7.353  1.00  0.00     0.163 HD
ATOM     70  O   UNL     1       7.406   3.804  -7.723  1.00  0.00    -0.268 OA
BRANCH  68  71
ATOM     71  C   UNL     1       9.102   2.593  -6.514  1.00  0.00     0.274 C 
ATOM     72  C   UNL     1       9.881   3.934  -6.518  1.00  0.00     0.076 C 
ATOM     73  N   UNL     1       9.445   1.712  -5.369  1.00  0.00    -0.319 N 
ATOM     74  C   UNL     1      11.325   3.827  -6.016  1.00  0.00     0.016 C 
ATOM     75  C   UNL     1      10.903   1.433  -5.325  1.00  0.00     0.188 C 
ATOM     76  H   UNL     1       8.928   0.859  -5.582  1.00  0.00     0.349 HD
ATOM     77  C   UNL     1      11.804   2.390  -6.141  1.00  0.00     0.048 C 
ATOM     78  C   UNL     1      11.229   0.007  -5.805  1.00  0.00     0.065 C 
ATOM     79  C   UNL     1      13.249   2.184  -5.678  1.00  0.00     0.010 C 
ATOM     80  C   UNL     1      12.697  -0.321  -5.494  1.00  0.00     0.006 C 
ATOM     81  C   UNL     1      13.692   0.747  -5.968  1.00  0.00     0.001 C 
BRANCH  73  82
ATOM     82  C   UNL     1       8.901   2.054  -4.029  1.00  0.00     0.194 C 
ATOM     83  C   UNL     1       9.469   3.261  -3.264  1.00  0.00     0.067 C 
ATOM     84  C   UNL     1       8.922   0.782  -3.130  1.00  0.00     0.134 C 
ATOM     85  C   UNL     1       8.635   3.586  -2.021  1.00  0.00     0.017 C 
ATOM     86  S   UNL     1       8.001   0.931  -1.563  1.00  0.00    -0.156 SA
ATOM     87  C   UNL     1       8.681   2.497  -0.962  1.00  0.00     0.070 C 
ENDBRANCH  73  82
ENDBRANCH  68  71
ENDBRANCH  66  67
ENDBRANCH  65  66
ENDBRANCH  64  65
ENDBRANCH   1  64
TORSDOF 14
