REMARK SMILES Cc1cc(C[N@H+]2CC[C@@H](C(=O)NCCCCCCNC(=O)c3ccc(-c4c5nc(c(-c6c(F)cccc6F)c6ccc([nH]6)c(-c6c(F)cccc6F)c6nc(c(-c7c(F)cccc7F)c7ccc4[nH]7)C=C6)C=C5)cc3)[C@@H]2C)ccc1Br
REMARK SMILES IDX 15 1 14 2 13 3 12 4 10 5 11 6 9 8 6 9 7 10 76 11 8 13 77 14
REMARK SMILES IDX 5 15 4 16 1 17 2 18 3 19 80 20 79 21 81 22 78 23 16 24 17 25
REMARK SMILES IDX 18 26 19 27 20 28 21 30 22 31 23 32 75 33 24 34 74 35 25 36
REMARK SMILES IDX 26 37 27 38 68 39 28 40 73 41 67 42 69 43 29 44 72 45 66 46
REMARK SMILES IDX 65 47 30 49 56 50 39 51 55 52 40 53 43 54 54 55 70 56 41 57
REMARK SMILES IDX 42 58 53 60 71 61 44 62 31 63 32 64 37 65 33 66 34 67 36 68
REMARK SMILES IDX 38 69 35 70 57 71 58 72 63 73 59 74 60 75 62 76 64 77 61 78
REMARK SMILES IDX 45 79 46 80 51 81 47 82 48 83 50 84 52 85 49 86
REMARK H PARENT 12 7 6 12 19 29 69 48 43 59
REMARK Flexibility Score: inf
ROOT
ATOM      1  C   UNL     1       0.106   1.122   2.046  1.00  0.00     0.002 C 
ENDROOT
BRANCH   1   2
ATOM      2  C   UNL     1       1.409   0.714   0.959  1.00  0.00     0.021 C 
BRANCH   2   3
ATOM      3  C   UNL     1       1.732   0.917  -1.199  1.00  0.00     0.116 C 
BRANCH   3   4
ATOM      4  N   UNL     1       1.713   2.192  -2.165  1.00  0.00    -0.356 N 
ATOM      5  C   UNL     1       2.642   2.875  -2.877  1.00  0.00     0.229 C 
ATOM      6  O   UNL     1       2.239   3.891  -3.459  1.00  0.00    -0.275 OA
ATOM      7  H   UNL     1       0.810   2.571  -2.267  1.00  0.00     0.163 HD
BRANCH   5   8
ATOM      8  C   UNL     1       4.109   2.486  -2.993  1.00  0.00     0.142 C 
ATOM      9  N   UNL     1       5.397   1.391  -1.272  1.00  0.00    -0.328 N 
ATOM     10  C   UNL     1       5.226   0.425  -2.357  1.00  0.00     0.263 C 
ATOM     11  C   UNL     1       4.946   2.709  -1.736  1.00  0.00     0.193 C 
ATOM     12  H   UNL     1       6.394   1.441  -1.063  1.00  0.00     0.348 HD
ATOM     13  C   UNL     1       4.356   1.056  -3.437  1.00  0.00     0.081 C 
ATOM     14  C   UNL     1       6.181   3.569  -2.018  1.00  0.00     0.076 C 
BRANCH   9  15
ATOM     15  C   UNL     1       4.880   0.987   0.041  1.00  0.00     0.299 C 
BRANCH  15  16
ATOM     16  C   UNL     1       3.374   0.891   0.131  1.00  0.00     0.007 A 
ATOM     17  C   UNL     1       0.180  -2.170  -0.545  1.00  0.00     0.045 C 
ATOM     18  C   UNL     1       0.808  -0.823  -0.372  1.00  0.00    -0.036 A 
ATOM     19  C   UNL     1       2.591  -0.716  -0.125  1.00  0.00     0.014 A 
ATOM     20  C   UNL     1      -0.189   0.685  -0.406  1.00  0.00     0.020 A 
ATOM     21  C   UNL     1       0.582   2.293  -0.108  1.00  0.00     0.016 A 
ATOM     22  Br  UNL     1      -1.998   0.638  -0.969  1.00  0.00    -0.051 Br
ATOM     23  C   UNL     1       2.364   2.396   0.170  1.00  0.00     0.011 A 
ENDBRANCH  15  16
ENDBRANCH   9  15
ENDBRANCH   5   8
ENDBRANCH   3   4
ENDBRANCH   2   3
ENDBRANCH   1   2
BRANCH   1  24
ATOM     24  C   UNL     1      -0.837  -0.022   2.460  1.00  0.00     0.002 C 
BRANCH  24  25
ATOM     25  C   UNL     1      -0.166  -1.199   3.154  1.00  0.00     0.021 C 
BRANCH  25  26
ATOM     26  C   UNL     1       0.578  -0.773   4.406  1.00  0.00     0.116 C 
BRANCH  26  27
ATOM     27  N   UNL     1      -0.369  -0.276   5.398  1.00  0.00    -0.352 N 
ATOM     28  C   UNL     1      -1.017  -1.027   6.349  1.00  0.00     0.251 C 
ATOM     29  H   UNL     1      -0.563   0.689   5.385  1.00  0.00     0.163 HD
ATOM     30  O   UNL     1      -2.105  -0.694   6.801  1.00  0.00    -0.269 OA
BRANCH  28  31
ATOM     31  C   UNL     1      -0.343  -2.251   6.816  1.00  0.00     0.039 A 
ATOM     32  C   UNL     1      -1.059  -3.435   6.986  1.00  0.00     0.014 A 
ATOM     33  C   UNL     1       1.037  -2.207   7.035  1.00  0.00     0.014 A 
ATOM     34  C   UNL     1      -0.370  -4.589   7.354  1.00  0.00     0.010 A 
ATOM     35  C   UNL     1       1.732  -3.379   7.261  1.00  0.00     0.010 A 
ATOM     36  C   UNL     1       1.031  -4.571   7.474  1.00  0.00    -0.014 A 
BRANCH  36  37
ATOM     37  C   UNL     1       1.788  -5.774   7.878  1.00  0.00     0.031 A 
ATOM     38  C   UNL     1       2.603  -5.749   9.143  1.00  0.00     0.074 A 
ATOM     39  C   UNL     1       1.791  -6.855   7.078  1.00  0.00     0.049 A 
ATOM     40  N   UNL     1       3.345  -6.690   9.667  1.00  0.00    -0.248 NA
ATOM     41  C   UNL     1       2.627  -4.483   9.895  1.00  0.00     0.031 C 
ATOM     42  C   UNL     1       1.112  -6.952   5.784  1.00  0.00     0.029 A 
ATOM     43  N   UNL     1       2.387  -8.078   7.236  1.00  0.00    -0.354 N 
ATOM     44  C   UNL     1       3.932  -6.121  10.791  1.00  0.00     0.074 A 
ATOM     45  C   UNL     1       3.534  -4.734  10.824  1.00  0.00     0.031 C 
ATOM     46  C   UNL     1       1.292  -8.185   5.287  1.00  0.00     0.029 A 
ATOM     47  C   UNL     1       2.125  -8.950   6.210  1.00  0.00     0.049 A 
ATOM     48  H   UNL     1       2.949  -8.309   8.011  1.00  0.00     0.167 HD
ATOM     49  C   UNL     1       4.702  -6.712  11.733  1.00  0.00     0.037 A 
ATOM     50  C   UNL     1       2.509 -10.228   6.040  1.00  0.00     0.037 A 
ATOM     51  C   UNL     1       5.068  -8.102  11.698  1.00  0.00     0.049 A 
ATOM     52  C   UNL     1       3.332 -10.881   7.114  1.00  0.00     0.074 A 
ATOM     53  C   UNL     1       5.772  -8.836  12.634  1.00  0.00     0.029 A 
ATOM     54  N   UNL     1       4.759  -8.968  10.656  1.00  0.00    -0.354 N 
ATOM     55  N   UNL     1       3.796 -10.365   8.227  1.00  0.00    -0.248 NA
ATOM     56  C   UNL     1       3.672 -12.294   6.915  1.00  0.00     0.031 C 
ATOM     57  C   UNL     1       5.941 -10.131  12.130  1.00  0.00     0.029 A 
ATOM     58  C   UNL     1       5.290 -10.221  10.910  1.00  0.00     0.049 A 
ATOM     59  H   UNL     1       4.240  -8.726   9.856  1.00  0.00     0.167 HD
ATOM     60  C   UNL     1       4.475 -11.391   8.870  1.00  0.00     0.074 A 
ATOM     61  C   UNL     1       4.334 -12.566   8.031  1.00  0.00     0.031 C 
ATOM     62  C   UNL     1       5.156 -11.367  10.044  1.00  0.00     0.037 A 
BRANCH  49  63
ATOM     63  C   UNL     1       5.194  -5.847  12.861  1.00  0.00     0.057 A 
ATOM     64  C   UNL     1       4.321  -5.275  13.800  1.00  0.00     0.134 A 
ATOM     65  C   UNL     1       6.557  -5.560  12.998  1.00  0.00     0.134 A 
ATOM     66  F   UNL     1       2.999  -5.493  13.721  1.00  0.00    -0.206 F 
ATOM     67  C   UNL     1       4.779  -4.413  14.798  1.00  0.00     0.040 A 
ATOM     68  C   UNL     1       7.032  -4.728  14.015  1.00  0.00     0.040 A 
ATOM     69  F   UNL     1       7.452  -6.074  12.141  1.00  0.00    -0.206 F 
ATOM     70  C   UNL     1       6.140  -4.141  14.910  1.00  0.00     0.006 A 
ENDBRANCH  49  63
BRANCH  50  71
ATOM     71  C   UNL     1       2.073 -10.967   4.830  1.00  0.00     0.057 A 
ATOM     72  C   UNL     1       1.105 -11.974   4.904  1.00  0.00     0.134 A 
ATOM     73  C   UNL     1       2.572 -10.645   3.562  1.00  0.00     0.134 A 
ATOM     74  F   UNL     1       0.595 -12.334   6.092  1.00  0.00    -0.206 F 
ATOM     75  C   UNL     1       0.653 -12.640   3.764  1.00  0.00     0.040 A 
ATOM     76  C   UNL     1       2.112 -11.286   2.410  1.00  0.00     0.040 A 
ATOM     77  F   UNL     1       3.491  -9.678   3.421  1.00  0.00    -0.206 F 
ATOM     78  C   UNL     1       1.151 -12.289   2.510  1.00  0.00     0.006 A 
ENDBRANCH  50  71
BRANCH  62  79
ATOM     79  C   UNL     1       5.796 -12.653  10.480  1.00  0.00     0.057 A 
ATOM     80  C   UNL     1       6.905 -13.189   9.812  1.00  0.00     0.134 A 
ATOM     81  C   UNL     1       5.311 -13.352  11.592  1.00  0.00     0.134 A 
ATOM     82  F   UNL     1       7.412 -12.573   8.733  1.00  0.00    -0.206 F 
ATOM     83  C   UNL     1       7.486 -14.392  10.214  1.00  0.00     0.040 A 
ATOM     84  C   UNL     1       5.904 -14.539  12.023  1.00  0.00     0.040 A 
ATOM     85  F   UNL     1       4.259 -12.888  12.284  1.00  0.00    -0.206 F 
ATOM     86  C   UNL     1       6.988 -15.068  11.326  1.00  0.00     0.006 A 
ENDBRANCH  62  79
ENDBRANCH  36  37
ENDBRANCH  28  31
ENDBRANCH  26  27
ENDBRANCH  25  26
ENDBRANCH  24  25
ENDBRANCH   1  24
TORSDOF 15
