REMARK SMILES N#CCC[NH+]1CCN(c2cc(C(=O)NCCCCCCNC(=O)c3ccc(-c4c5nc(c(-c6c(F)cccc6F)c6ccc([nH]6)c(-c6c(F)cccc6F)c6nc(c(-c7c(F)cccc7F)c7ccc4[nH]7)C=C6)C=C5)cc3)c3cc(NS(=O)(=O)c4ccccc4Cl)ccc3n2)CC1
REMARK SMILES IDX 16 1 15 2 14 3 12 4 13 5 11 7 9 8 10 9 95 10 94 11 78 12
REMARK SMILES IDX 93 13 79 14 92 15 80 16 8 17 5 18 6 19 97 20 7 22 96 23 4 24
REMARK SMILES IDX 3 25 2 26 1 27 81 28 82 30 83 31 84 32 85 33 86 34 90 35
REMARK SMILES IDX 87 36 89 37 91 38 88 39 17 40 18 41 19 42 20 43 21 44 22 45
REMARK SMILES IDX 23 47 24 48 25 49 77 50 26 51 76 52 27 53 28 54 29 55 70 56
REMARK SMILES IDX 30 57 75 58 69 59 71 60 31 61 74 62 68 63 67 64 32 66 58 67
REMARK SMILES IDX 41 68 57 69 42 70 45 71 56 72 72 73 43 74 44 75 55 77 73 78
REMARK SMILES IDX 46 79 33 80 34 81 39 82 35 83 36 84 38 85 40 86 37 87 59 88
REMARK SMILES IDX 60 89 65 90 61 91 62 92 64 93 66 94 63 95 47 96 48 97 53 98
REMARK SMILES IDX 49 99 50 100 52 101 54 102 51 103
REMARK H PARENT 14 6 5 21 81 29 21 46 71 65 45 76
REMARK Flexibility Score: inf
ROOT
ATOM      1  C   UNL     1      -0.039  -7.905  -6.761  1.00  0.00     0.021 C 
ENDROOT
BRANCH   1   2
ATOM      2  C   UNL     1       0.250  -6.546  -5.947  1.00  0.00     0.116 C 
BRANCH   2   3
ATOM      3  N   UNL     1       1.580  -6.360  -5.252  1.00  0.00    -0.352 N 
ATOM      4  C   UNL     1       2.064  -5.331  -4.432  1.00  0.00     0.252 C 
ATOM      5  O   UNL     1       2.444  -4.280  -4.943  1.00  0.00    -0.269 OA
ATOM      6  H   UNL     1       2.221  -7.093  -5.402  1.00  0.00     0.163 HD
BRANCH   4   7
ATOM      7  C   UNL     1       2.462  -5.629  -3.000  1.00  0.00     0.052 A 
ATOM      8  C   UNL     1       3.800  -5.195  -1.041  1.00  0.00     0.130 A 
ATOM      9  C   UNL     1       3.506  -4.945  -2.398  1.00  0.00     0.061 A 
ATOM     10  N   UNL     1       3.360  -6.299  -0.398  1.00  0.00    -0.231 NA
ATOM     11  C   UNL     1       2.513  -7.100  -1.079  1.00  0.00     0.074 A 
ATOM     12  C   UNL     1       1.912  -6.660  -2.261  1.00  0.00     0.015 A 
ATOM     13  C   UNL     1       2.262  -8.440  -0.777  1.00  0.00     0.031 A 
ATOM     14  C   UNL     1       0.920  -7.407  -2.805  1.00  0.00     0.038 A 
ATOM     15  C   UNL     1       1.823  -9.276  -1.832  1.00  0.00     0.029 A 
ATOM     16  C   UNL     1       1.373  -8.663  -2.990  1.00  0.00     0.050 A 
BRANCH   8  17
ATOM     17  N   UNL     1       4.192  -4.081  -0.303  1.00  0.00    -0.345 N 
ATOM     18  N   UNL     1       3.737  -2.123   1.818  1.00  0.00    -0.331 N 
ATOM     19  C   UNL     1       2.647  -2.737   1.053  1.00  0.00     0.284 C 
ATOM     20  C   UNL     1       4.677  -3.244   2.080  1.00  0.00     0.284 C 
ATOM     21  H   UNL     1       3.349  -1.699   2.661  1.00  0.00     0.348 HD
ATOM     22  C   UNL     1       3.104  -3.103  -0.348  1.00  0.00     0.179 C 
ATOM     23  C   UNL     1       5.117  -4.105   0.844  1.00  0.00     0.179 C 
BRANCH  18  24
ATOM     24  C   UNL     1       4.407  -0.929   1.233  1.00  0.00     0.277 C 
BRANCH  24  25
ATOM     25  C   UNL     1       3.839  -0.052   0.063  1.00  0.00     0.181 C 
BRANCH  25  26
ATOM     26  C   UNL     1       2.319  -0.052   0.063  1.00  0.00     0.068 C 
ATOM     27  N   UNL     1       1.058  -0.052   0.063  1.00  0.00    -0.198 NA
ENDBRANCH  25  26
ENDBRANCH  24  25
ENDBRANCH  18  24
ENDBRANCH   8  17
BRANCH  16  28
ATOM     28  N   UNL     1       1.504  -9.091  -4.368  1.00  0.00    -0.280 N 
ATOM     29  H   UNL     1       0.697  -9.240  -4.912  1.00  0.00     0.180 HD
BRANCH  28  30
ATOM     30  S   UNL     1       3.060  -9.341  -5.066  1.00  0.00     0.263 S 
ATOM     31  O   UNL     1       3.970  -9.433  -3.939  1.00  0.00    -0.201 OA
ATOM     32  O   UNL     1       2.792 -10.554  -5.824  1.00  0.00    -0.201 OA
BRANCH  30  33
ATOM     33  C   UNL     1       4.024  -8.331  -6.316  1.00  0.00     0.106 A 
ATOM     34  C   UNL     1       5.287  -8.981  -6.437  1.00  0.00     0.024 A 
ATOM     35  C   UNL     1       3.910  -7.223  -7.196  1.00  0.00     0.061 A 
ATOM     36  C   UNL     1       6.345  -8.547  -7.253  1.00  0.00     0.002 A 
ATOM     37  C   UNL     1       5.011  -6.759  -7.977  1.00  0.00     0.022 A 
ATOM     38  Cl  UNL     1       2.616  -6.237  -7.750  1.00  0.00    -0.083 Cl
ATOM     39  C   UNL     1       6.221  -7.406  -8.006  1.00  0.00     0.002 A 
ENDBRANCH  30  33
ENDBRANCH  28  30
ENDBRANCH  16  28
ENDBRANCH   4   7
ENDBRANCH   2   3
ENDBRANCH   1   2
BRANCH   1  40
ATOM     40  C   UNL     1       0.286  -8.130  -8.275  1.00  0.00     0.002 C 
BRANCH  40  41
ATOM     41  C   UNL     1       1.358  -9.170  -8.730  1.00  0.00     0.002 C 
BRANCH  41  42
ATOM     42  C   UNL     1       1.110 -10.672  -8.560  1.00  0.00     0.021 C 
BRANCH  42  43
ATOM     43  C   UNL     1      -0.279 -11.152  -8.889  1.00  0.00     0.116 C 
BRANCH  43  44
ATOM     44  N   UNL     1      -0.512 -11.237 -10.319  1.00  0.00    -0.352 N 
ATOM     45  C   UNL     1      -1.209 -12.244 -10.952  1.00  0.00     0.251 C 
ATOM     46  H   UNL     1      -0.142 -10.518 -10.882  1.00  0.00     0.163 HD
ATOM     47  O   UNL     1      -1.142 -12.424 -12.155  1.00  0.00    -0.269 OA
BRANCH  45  48
ATOM     48  C   UNL     1      -2.053 -13.107 -10.097  1.00  0.00     0.039 A 
ATOM     49  C   UNL     1      -1.947 -14.495 -10.178  1.00  0.00     0.014 A 
ATOM     50  C   UNL     1      -2.903 -12.503  -9.165  1.00  0.00     0.014 A 
ATOM     51  C   UNL     1      -2.719 -15.282  -9.323  1.00  0.00     0.010 A 
ATOM     52  C   UNL     1      -3.582 -13.282  -8.245  1.00  0.00     0.010 A 
ATOM     53  C   UNL     1      -3.549 -14.678  -8.362  1.00  0.00    -0.014 A 
BRANCH  53  54
ATOM     54  C   UNL     1      -4.522 -15.472  -7.579  1.00  0.00     0.031 A 
ATOM     55  C   UNL     1      -5.993 -15.241  -7.818  1.00  0.00     0.074 A 
ATOM     56  C   UNL     1      -4.100 -16.358  -6.661  1.00  0.00     0.049 A 
ATOM     57  N   UNL     1      -7.025 -15.778  -7.223  1.00  0.00    -0.248 NA
ATOM     58  C   UNL     1      -6.351 -14.236  -8.837  1.00  0.00     0.031 C 
ATOM     59  C   UNL     1      -2.703 -16.627  -6.318  1.00  0.00     0.029 A 
ATOM     60  N   UNL     1      -4.812 -17.203  -5.851  1.00  0.00    -0.354 N 
ATOM     61  C   UNL     1      -8.140 -15.164  -7.782  1.00  0.00     0.074 A 
ATOM     62  C   UNL     1      -7.662 -14.153  -8.694  1.00  0.00     0.031 C 
ATOM     63  C   UNL     1      -2.659 -17.602  -5.394  1.00  0.00     0.029 A 
ATOM     64  C   UNL     1      -4.023 -18.004  -5.062  1.00  0.00     0.049 A 
ATOM     65  H   UNL     1      -5.796 -17.233  -5.835  1.00  0.00     0.167 HD
ATOM     66  C   UNL     1      -9.448 -15.450  -7.592  1.00  0.00     0.037 A 
ATOM     67  C   UNL     1      -4.373 -18.961  -4.183  1.00  0.00     0.037 A 
ATOM     68  C   UNL     1      -9.911 -16.493  -6.721  1.00  0.00     0.049 A 
ATOM     69  C   UNL     1      -5.835 -19.268  -3.995  1.00  0.00     0.074 A 
ATOM     70  C   UNL     1     -11.207 -16.904  -6.477  1.00  0.00     0.029 A 
ATOM     71  N   UNL     1      -9.079 -17.301  -5.959  1.00  0.00    -0.354 N 
ATOM     72  N   UNL     1      -6.879 -18.719  -4.570  1.00  0.00    -0.248 NA
ATOM     73  C   UNL     1      -6.168 -20.338  -3.046  1.00  0.00     0.031 C 
ATOM     74  C   UNL     1     -11.162 -17.940  -5.539  1.00  0.00     0.029 A 
ATOM     75  C   UNL     1      -9.835 -18.206  -5.238  1.00  0.00     0.049 A 
ATOM     76  H   UNL     1      -8.097 -17.238  -5.935  1.00  0.00     0.167 HD
ATOM     77  C   UNL     1      -7.986 -19.402  -4.084  1.00  0.00     0.074 A 
ATOM     78  C   UNL     1      -7.484 -20.413  -3.176  1.00  0.00     0.031 C 
ATOM     79  C   UNL     1      -9.301 -19.215  -4.361  1.00  0.00     0.037 A 
BRANCH  66  80
ATOM     80  C   UNL     1     -10.453 -14.639  -8.358  1.00  0.00     0.057 A 
ATOM     81  C   UNL     1     -10.579 -14.742  -9.751  1.00  0.00     0.134 A 
ATOM     82  C   UNL     1     -11.309 -13.749  -7.699  1.00  0.00     0.134 A 
ATOM     83  F   UNL     1      -9.776 -15.561 -10.448  1.00  0.00    -0.206 F 
ATOM     84  C   UNL     1     -11.498 -13.969 -10.463  1.00  0.00     0.040 A 
ATOM     85  C   UNL     1     -12.254 -12.993  -8.396  1.00  0.00     0.040 A 
ATOM     86  F   UNL     1     -11.243 -13.598  -6.367  1.00  0.00    -0.206 F 
ATOM     87  C   UNL     1     -12.344 -13.096  -9.783  1.00  0.00     0.006 A 
ENDBRANCH  66  80
BRANCH  67  88
ATOM     88  C   UNL     1      -3.332 -19.729  -3.453  1.00  0.00     0.057 A 
ATOM     89  C   UNL     1      -3.122 -21.088  -3.715  1.00  0.00     0.134 A 
ATOM     90  C   UNL     1      -2.539 -19.134  -2.465  1.00  0.00     0.134 A 
ATOM     91  F   UNL     1      -3.859 -21.719  -4.641  1.00  0.00    -0.206 F 
ATOM     92  C   UNL     1      -2.183 -21.836  -3.001  1.00  0.00     0.040 A 
ATOM     93  C   UNL     1      -1.578 -19.863  -1.762  1.00  0.00     0.040 A 
ATOM     94  F   UNL     1      -2.682 -17.833  -2.174  1.00  0.00    -0.206 F 
ATOM     95  C   UNL     1      -1.406 -21.221  -2.022  1.00  0.00     0.006 A 
ENDBRANCH  67  88
BRANCH  79  96
ATOM     96  C   UNL     1     -10.276 -20.157  -3.719  1.00  0.00     0.057 A 
ATOM     97  C   UNL     1     -10.572 -20.100  -2.352  1.00  0.00     0.134 A 
ATOM     98  C   UNL     1     -10.960 -21.102  -4.495  1.00  0.00     0.134 A 
ATOM     99  F   UNL     1      -9.944 -19.223  -1.555  1.00  0.00    -0.206 F 
ATOM    100  C   UNL     1     -11.495 -20.971  -1.773  1.00  0.00     0.040 A 
ATOM    101  C   UNL     1     -11.907 -21.957  -3.932  1.00  0.00     0.040 A 
ATOM    102  F   UNL     1     -10.731 -21.197  -5.813  1.00  0.00    -0.206 F 
ATOM    103  C   UNL     1     -12.171 -21.898  -2.566  1.00  0.00     0.006 A 
ENDBRANCH  79  96
ENDBRANCH  53  54
ENDBRANCH  45  48
ENDBRANCH  43  44
ENDBRANCH  42  43
ENDBRANCH  41  42
ENDBRANCH  40  41
ENDBRANCH   1  40
TORSDOF 20
