REMARK SMILES Cc1cccc(OCC[N@H+]2CCO[C@@H](CC(=O)NCCCCCCNC(=O)c3ccc(-c4c5nc(c(-c6c(F)cccc6F)c6ccc([nH]6)c(-c6c(F)cccc6F)c6nc(c(-c7c(F)cccc7F)c7ccc4[nH]7)C=C6)C=C5)cc3)C2)c1
REMARK SMILES IDX 20 1 19 2 18 3 16 4 17 5 15 7 14 8 10 9 11 10 82 11 12 13
REMARK SMILES IDX 13 14 9 15 8 16 7 17 6 18 1 19 2 20 3 21 83 22 4 23 5 24
REMARK SMILES IDX 21 25 22 26 23 27 24 28 25 29 26 30 27 32 28 33 29 34 81 35
REMARK SMILES IDX 30 36 80 37 31 38 32 39 33 40 74 41 34 42 79 43 73 44 75 45
REMARK SMILES IDX 35 46 78 47 72 48 71 49 36 51 62 52 45 53 61 54 46 55 49 56
REMARK SMILES IDX 60 57 76 58 47 59 48 60 59 62 77 63 50 64 37 65 38 66 43 67
REMARK SMILES IDX 39 68 40 69 42 70 44 71 41 72 63 73 64 74 69 75 65 76 66 77
REMARK SMILES IDX 68 78 70 79 67 80 51 81 52 82 57 83 53 84 54 85 56 86 58 87
REMARK SMILES IDX 55 88
REMARK H PARENT 18 6 10 12 25 31 75 50 49 61
REMARK Flexibility Score: inf
ROOT
ATOM      1  C   UNL     1       1.067   2.776   5.240  1.00  0.00     0.021 C 
ENDROOT
BRANCH   1   2
ATOM      2  C   UNL     1       1.816   1.444   5.152  1.00  0.00     0.116 C 
BRANCH   2   3
ATOM      3  N   UNL     1       0.923   0.361   4.792  1.00  0.00    -0.356 N 
ATOM      4  C   UNL     1       0.943  -0.434   3.684  1.00  0.00     0.222 C 
ATOM      5  O   UNL     1       0.056  -1.274   3.540  1.00  0.00    -0.275 OA
ATOM      6  H   UNL     1       0.202   0.174   5.436  1.00  0.00     0.163 HD
BRANCH   4   7
ATOM      7  C   UNL     1       2.049  -0.261   2.673  1.00  0.00     0.138 C 
BRANCH   7   8
ATOM      8  C   UNL     1       1.727   0.704   1.536  1.00  0.00     0.182 C 
ATOM      9  N   UNL     1       0.554   2.606   0.606  1.00  0.00    -0.328 N 
ATOM     10  C   UNL     1       1.784   3.130   0.023  1.00  0.00     0.291 C 
ATOM     11  C   UNL     1       0.818   1.905   1.864  1.00  0.00     0.295 C 
ATOM     12  H   UNL     1       0.230   1.897  -0.051  1.00  0.00     0.348 HD
ATOM     13  C   UNL     1       2.765   1.963  -0.198  1.00  0.00     0.222 C 
ATOM     14  O   UNL     1       2.983   1.194   0.998  1.00  0.00    -0.366 OA
BRANCH   9  15
ATOM     15  C   UNL     1      -0.620   3.460   0.571  1.00  0.00     0.304 C 
BRANCH  15  16
ATOM     16  C   UNL     1      -1.537   3.016  -0.591  1.00  0.00     0.290 C 
BRANCH  16  17
ATOM     17  O   UNL     1      -2.311   1.851  -0.272  1.00  0.00    -0.488 OA
BRANCH  17  18
ATOM     18  C   UNL     1      -1.804   0.599  -0.490  1.00  0.00     0.119 A 
ATOM     19  C   UNL     1       1.200  -1.386  -1.750  1.00  0.00     0.044 C 
ATOM     20  C   UNL     1      -0.165  -1.058  -1.213  1.00  0.00    -0.047 A 
ATOM     21  C   UNL     1      -0.940  -2.072  -0.642  1.00  0.00     0.003 A 
ATOM     22  C   UNL     1      -0.622   0.273  -1.157  1.00  0.00     0.049 A 
ATOM     23  C   UNL     1      -2.148  -1.762  -0.025  1.00  0.00     0.004 A 
ATOM     24  C   UNL     1      -2.571  -0.434   0.056  1.00  0.00     0.046 A 
ENDBRANCH  17  18
ENDBRANCH  16  17
ENDBRANCH  15  16
ENDBRANCH   9  15
ENDBRANCH   7   8
ENDBRANCH   4   7
ENDBRANCH   2   3
ENDBRANCH   1   2
BRANCH   1  25
ATOM     25  C   UNL     1       0.964   3.359   6.651  1.00  0.00     0.002 C 
BRANCH  25  26
ATOM     26  C   UNL     1       2.288   3.534   7.411  1.00  0.00     0.002 C 
BRANCH  26  27
ATOM     27  C   UNL     1       3.459   4.095   6.604  1.00  0.00     0.021 C 
BRANCH  27  28
ATOM     28  C   UNL     1       3.292   5.549   6.190  1.00  0.00     0.116 C 
BRANCH  28  29
ATOM     29  N   UNL     1       3.717   6.487   7.217  1.00  0.00    -0.352 N 
ATOM     30  C   UNL     1       3.684   7.868   7.241  1.00  0.00     0.251 C 
ATOM     31  H   UNL     1       4.090   6.070   8.027  1.00  0.00     0.163 HD
ATOM     32  O   UNL     1       4.155   8.464   8.195  1.00  0.00    -0.269 OA
BRANCH  30  33
ATOM     33  C   UNL     1       2.942   8.616   6.193  1.00  0.00     0.039 A 
ATOM     34  C   UNL     1       2.161   9.700   6.618  1.00  0.00     0.014 A 
ATOM     35  C   UNL     1       2.847   8.164   4.880  1.00  0.00     0.014 A 
ATOM     36  C   UNL     1       1.115  10.148   5.818  1.00  0.00     0.010 A 
ATOM     37  C   UNL     1       1.764   8.546   4.116  1.00  0.00     0.010 A 
ATOM     38  C   UNL     1       0.860   9.483   4.622  1.00  0.00    -0.014 A 
BRANCH  38  39
ATOM     39  C   UNL     1      -0.383   9.634   3.883  1.00  0.00     0.031 A 
ATOM     40  C   UNL     1      -0.453  10.549   2.733  1.00  0.00     0.074 A 
ATOM     41  C   UNL     1      -1.448   8.885   4.241  1.00  0.00     0.049 A 
ATOM     42  N   UNL     1      -1.538  11.094   2.303  1.00  0.00    -0.248 NA
ATOM     43  C   UNL     1       0.734  10.959   1.994  1.00  0.00     0.031 C 
ATOM     44  C   UNL     1      -2.696   8.697   3.510  1.00  0.00     0.029 A 
ATOM     45  N   UNL     1      -1.684   8.304   5.494  1.00  0.00    -0.354 N 
ATOM     46  C   UNL     1      -1.254  11.704   1.103  1.00  0.00     0.074 A 
ATOM     47  C   UNL     1       0.186  11.645   0.987  1.00  0.00     0.031 C 
ATOM     48  C   UNL     1      -3.649   8.315   4.377  1.00  0.00     0.029 A 
ATOM     49  C   UNL     1      -3.074   8.403   5.709  1.00  0.00     0.049 A 
ATOM     50  H   UNL     1      -1.016   7.908   6.099  1.00  0.00     0.167 HD
ATOM     51  C   UNL     1      -2.279  12.065   0.279  1.00  0.00     0.037 A 
ATOM     52  C   UNL     1      -3.579   9.156   6.729  1.00  0.00     0.037 A 
ATOM     53  C   UNL     1      -3.572  11.792   0.901  1.00  0.00     0.049 A 
ATOM     54  C   UNL     1      -4.516  10.248   6.268  1.00  0.00     0.074 A 
ATOM     55  C   UNL     1      -4.437  10.712   0.810  1.00  0.00     0.029 A 
ATOM     56  N   UNL     1      -3.978  12.530   2.006  1.00  0.00    -0.354 N 
ATOM     57  N   UNL     1      -4.511  10.749   5.063  1.00  0.00    -0.248 NA
ATOM     58  C   UNL     1      -5.510  10.876   7.133  1.00  0.00     0.031 C 
ATOM     59  C   UNL     1      -5.332  10.772   1.906  1.00  0.00     0.029 A 
ATOM     60  C   UNL     1      -5.028  11.900   2.647  1.00  0.00     0.049 A 
ATOM     61  H   UNL     1      -3.575  13.382   2.292  1.00  0.00     0.167 HD
ATOM     62  C   UNL     1      -5.447  11.748   4.983  1.00  0.00     0.074 A 
ATOM     63  C   UNL     1      -6.059  11.776   6.298  1.00  0.00     0.031 C 
ATOM     64  C   UNL     1      -5.629  12.474   3.841  1.00  0.00     0.037 A 
BRANCH  51  65
ATOM     65  C   UNL     1      -2.098  12.348  -1.195  1.00  0.00     0.057 A 
ATOM     66  C   UNL     1      -3.095  11.997  -2.128  1.00  0.00     0.134 A 
ATOM     67  C   UNL     1      -0.940  12.899  -1.768  1.00  0.00     0.134 A 
ATOM     68  F   UNL     1      -4.305  11.572  -1.742  1.00  0.00    -0.206 F 
ATOM     69  C   UNL     1      -2.899  12.057  -3.514  1.00  0.00     0.040 A 
ATOM     70  C   UNL     1      -0.708  12.915  -3.152  1.00  0.00     0.040 A 
ATOM     71  F   UNL     1      -0.003  13.491  -1.017  1.00  0.00    -0.206 F 
ATOM     72  C   UNL     1      -1.685  12.475  -4.032  1.00  0.00     0.006 A 
ENDBRANCH  51  65
BRANCH  52  73
ATOM     73  C   UNL     1      -2.661   9.273   7.895  1.00  0.00     0.057 A 
ATOM     74  C   UNL     1      -2.282   8.105   8.582  1.00  0.00     0.134 A 
ATOM     75  C   UNL     1      -1.887  10.416   8.112  1.00  0.00     0.134 A 
ATOM     76  F   UNL     1      -2.982   6.970   8.420  1.00  0.00    -0.206 F 
ATOM     77  C   UNL     1      -1.119   8.045   9.354  1.00  0.00     0.040 A 
ATOM     78  C   UNL     1      -0.729  10.372   8.898  1.00  0.00     0.040 A 
ATOM     79  F   UNL     1      -2.175  11.566   7.486  1.00  0.00    -0.206 F 
ATOM     80  C   UNL     1      -0.321   9.176   9.487  1.00  0.00     0.006 A 
ENDBRANCH  52  73
BRANCH  64  81
ATOM     81  C   UNL     1      -6.449  13.733   3.706  1.00  0.00     0.057 A 
ATOM     82  C   UNL     1      -6.668  14.647   4.746  1.00  0.00     0.134 A 
ATOM     83  C   UNL     1      -6.925  14.144   2.439  1.00  0.00     0.134 A 
ATOM     84  F   UNL     1      -6.179  14.442   5.976  1.00  0.00    -0.206 F 
ATOM     85  C   UNL     1      -7.352  15.855   4.554  1.00  0.00     0.040 A 
ATOM     86  C   UNL     1      -7.560  15.370   2.225  1.00  0.00     0.040 A 
ATOM     87  F   UNL     1      -6.769  13.382   1.346  1.00  0.00    -0.206 F 
ATOM     88  C   UNL     1      -7.788  16.227   3.288  1.00  0.00     0.006 A 
ENDBRANCH  64  81
ENDBRANCH  38  39
ENDBRANCH  30  33
ENDBRANCH  28  29
ENDBRANCH  27  28
ENDBRANCH  26  27
ENDBRANCH  25  26
ENDBRANCH   1  25
TORSDOF 18
