REMARK SMILES Cc1ccccc1/C=C1\SC(=S)N(CCC(=O)N[C@@H](C)C(=O)NCCCCCCNC(=O)c2ccc(-c3c4nc(c(-c5c(F)cccc5F)c5ccc([nH]5)c(-c5c(F)cccc5F)c5nc(c(-c6c(F)cccc6F)c6ccc3[nH]6)C=C5)C=C4)cc2)C1=O
REMARK SMILES IDX 25 1 24 2 23 3 21 4 22 5 19 7 20 8 18 9 16 10 17 11 15 13
REMARK SMILES IDX 14 14 13 15 8 16 9 17 10 18 87 19 11 20 88 21 12 22 7 23
REMARK SMILES IDX 1 24 2 25 3 26 4 27 6 28 5 29 26 30 27 31 28 32 29 33 30 34
REMARK SMILES IDX 31 35 32 37 33 38 34 39 86 40 35 41 85 42 36 43 37 44 38 45
REMARK SMILES IDX 79 46 39 47 84 48 78 49 80 50 40 51 83 52 77 53 76 54 41 56
REMARK SMILES IDX 67 57 50 58 66 59 51 60 54 61 65 62 81 63 52 64 53 65 64 67
REMARK SMILES IDX 82 68 55 69 42 70 43 71 48 72 44 73 45 74 47 75 49 76 46 77
REMARK SMILES IDX 68 78 69 79 74 80 70 81 71 82 73 83 75 84 72 85 56 86 57 87
REMARK SMILES IDX 62 88 58 89 59 90 61 91 63 92 60 93
REMARK H PARENT 23 6 18 12 30 36 80 55 54 66
REMARK Flexibility Score: inf
ROOT
ATOM      1  C   UNL     1      -2.398   6.216   1.365  1.00  0.00     0.021 C 
ENDROOT
BRANCH   1   2
ATOM      2  C   UNL     1      -1.325   5.609   0.467  1.00  0.00     0.116 C 
BRANCH   2   3
ATOM      3  N   UNL     1      -1.615   5.738  -0.947  1.00  0.00    -0.354 N 
ATOM      4  C   UNL     1      -0.799   5.634  -2.035  1.00  0.00     0.242 C 
ATOM      5  O   UNL     1      -1.338   5.654  -3.145  1.00  0.00    -0.273 OA
ATOM      6  H   UNL     1      -2.558   5.932  -1.157  1.00  0.00     0.163 HD
BRANCH   4   7
ATOM      7  C   UNL     1       0.729   5.447  -1.923  1.00  0.00     0.168 C 
ATOM      8  C   UNL     1       1.065   4.220  -1.109  1.00  0.00     0.041 C 
BRANCH   7   9
ATOM      9  N   UNL     1       1.499   6.576  -1.412  1.00  0.00    -0.345 N 
ATOM     10  C   UNL     1       2.845   6.795  -1.563  1.00  0.00     0.222 C 
ATOM     11  O   UNL     1       3.396   7.605  -0.817  1.00  0.00    -0.275 OA
ATOM     12  H   UNL     1       0.998   7.255  -0.904  1.00  0.00     0.164 HD
BRANCH  10  13
ATOM     13  C   UNL     1       3.627   6.101  -2.674  1.00  0.00     0.122 C 
BRANCH  13  14
ATOM     14  C   UNL     1       4.669   5.061  -2.219  1.00  0.00     0.137 C 
BRANCH  14  15
ATOM     15  N   UNL     1       4.178   3.667  -2.166  1.00  0.00    -0.292 N 
ATOM     16  C   UNL     1       2.536   1.352  -0.031  1.00  0.00     0.029 C 
ATOM     17  C   UNL     1       3.251   1.797  -1.077  1.00  0.00     0.081 C 
ATOM     18  S   UNL     1       3.120   1.371  -2.731  1.00  0.00    -0.054 SA
ATOM     19  C   UNL     1       4.088   3.024  -0.939  1.00  0.00     0.266 C 
ATOM     20  C   UNL     1       3.826   2.902  -3.263  1.00  0.00     0.148 C 
ATOM     21  O   UNL     1       4.521   3.430   0.130  1.00  0.00    -0.268 OA
ATOM     22  S   UNL     1       3.976   3.285  -4.880  1.00  0.00    -0.052 S 
BRANCH  16  23
ATOM     23  C   UNL     1       1.433   0.376  -0.056  1.00  0.00    -0.021 A 
ATOM     24  C   UNL     1       3.020  -1.594   0.185  1.00  0.00     0.045 C 
ATOM     25  C   UNL     1       1.643  -1.005   0.073  1.00  0.00    -0.044 A 
ATOM     26  C   UNL     1       0.532  -1.869   0.061  1.00  0.00     0.004 A 
ATOM     27  C   UNL     1      -0.768  -1.374  -0.048  1.00  0.00     0.000 A 
ATOM     28  C   UNL     1       0.115   0.859  -0.153  1.00  0.00     0.008 A 
ATOM     29  C   UNL     1      -0.978  -0.007  -0.154  1.00  0.00     0.001 A 
ENDBRANCH  16  23
ENDBRANCH  14  15
ENDBRANCH  13  14
ENDBRANCH  10  13
ENDBRANCH   7   9
ENDBRANCH   4   7
ENDBRANCH   2   3
ENDBRANCH   1   2
BRANCH   1  30
ATOM     30  C   UNL     1      -3.780   5.548   1.304  1.00  0.00     0.002 C 
BRANCH  30  31
ATOM     31  C   UNL     1      -3.862   4.029   1.534  1.00  0.00     0.002 C 
BRANCH  31  32
ATOM     32  C   UNL     1      -3.122   3.450   2.743  1.00  0.00     0.021 C 
BRANCH  32  33
ATOM     33  C   UNL     1      -3.454   4.090   4.082  1.00  0.00     0.116 C 
BRANCH  33  34
ATOM     34  N   UNL     1      -4.599   3.535   4.784  1.00  0.00    -0.352 N 
ATOM     35  C   UNL     1      -5.286   4.068   5.870  1.00  0.00     0.251 C 
ATOM     36  H   UNL     1      -4.931   2.671   4.448  1.00  0.00     0.163 HD
ATOM     37  O   UNL     1      -6.205   3.464   6.380  1.00  0.00    -0.269 OA
BRANCH  35  38
ATOM     38  C   UNL     1      -4.958   5.452   6.311  1.00  0.00     0.039 A 
ATOM     39  C   UNL     1      -6.013   6.361   6.435  1.00  0.00     0.014 A 
ATOM     40  C   UNL     1      -3.639   5.895   6.373  1.00  0.00     0.014 A 
ATOM     41  C   UNL     1      -5.748   7.727   6.355  1.00  0.00     0.010 A 
ATOM     42  C   UNL     1      -3.378   7.243   6.204  1.00  0.00     0.010 A 
ATOM     43  C   UNL     1      -4.438   8.151   6.124  1.00  0.00    -0.014 A 
BRANCH  43  44
ATOM     44  C   UNL     1      -4.117   9.499   5.669  1.00  0.00     0.031 A 
ATOM     45  C   UNL     1      -3.595  10.511   6.606  1.00  0.00     0.074 A 
ATOM     46  C   UNL     1      -4.311   9.848   4.377  1.00  0.00     0.049 A 
ATOM     47  N   UNL     1      -3.872  11.771   6.525  1.00  0.00    -0.248 NA
ATOM     48  C   UNL     1      -2.733  10.173   7.733  1.00  0.00     0.031 C 
ATOM     49  C   UNL     1      -3.877  11.080   3.723  1.00  0.00     0.029 A 
ATOM     50  N   UNL     1      -5.142   9.229   3.439  1.00  0.00    -0.354 N 
ATOM     51  C   UNL     1      -3.038  12.429   7.394  1.00  0.00     0.074 A 
ATOM     52  C   UNL     1      -2.401  11.390   8.175  1.00  0.00     0.031 C 
ATOM     53  C   UNL     1      -4.632  11.281   2.633  1.00  0.00     0.029 A 
ATOM     54  C   UNL     1      -5.654  10.251   2.613  1.00  0.00     0.049 A 
ATOM     55  H   UNL     1      -5.333   8.266   3.370  1.00  0.00     0.167 HD
ATOM     56  C   UNL     1      -2.845  13.773   7.279  1.00  0.00     0.037 A 
ATOM     57  C   UNL     1      -6.995  10.469   2.487  1.00  0.00     0.037 A 
ATOM     58  C   UNL     1      -3.576  14.337   6.152  1.00  0.00     0.049 A 
ATOM     59  C   UNL     1      -7.435  11.853   2.901  1.00  0.00     0.074 A 
ATOM     60  C   UNL     1      -3.194  14.611   4.848  1.00  0.00     0.029 A 
ATOM     61  N   UNL     1      -4.963  14.406   6.179  1.00  0.00    -0.354 N 
ATOM     62  N   UNL     1      -6.697  12.664   3.605  1.00  0.00    -0.248 NA
ATOM     63  C   UNL     1      -8.749  12.418   2.601  1.00  0.00     0.031 C 
ATOM     64  C   UNL     1      -4.360  14.813   4.077  1.00  0.00     0.029 A 
ATOM     65  C   UNL     1      -5.453  14.675   4.914  1.00  0.00     0.049 A 
ATOM     66  H   UNL     1      -5.517  14.282   6.982  1.00  0.00     0.167 HD
ATOM     67  C   UNL     1      -7.406  13.803   3.889  1.00  0.00     0.074 A 
ATOM     68  C   UNL     1      -8.676  13.613   3.215  1.00  0.00     0.031 C 
ATOM     69  C   UNL     1      -6.881  14.793   4.669  1.00  0.00     0.037 A 
BRANCH  56  70
ATOM     70  C   UNL     1      -1.729  14.476   8.004  1.00  0.00     0.057 A 
ATOM     71  C   UNL     1      -0.937  15.452   7.374  1.00  0.00     0.134 A 
ATOM     72  C   UNL     1      -1.363  14.180   9.328  1.00  0.00     0.134 A 
ATOM     73  F   UNL     1      -1.217  15.905   6.146  1.00  0.00    -0.206 F 
ATOM     74  C   UNL     1       0.203  16.002   7.971  1.00  0.00     0.040 A 
ATOM     75  C   UNL     1      -0.199  14.687   9.921  1.00  0.00     0.040 A 
ATOM     76  F   UNL     1      -2.128  13.388  10.095  1.00  0.00    -0.206 F 
ATOM     77  C   UNL     1       0.599  15.591   9.234  1.00  0.00     0.006 A 
ENDBRANCH  56  70
BRANCH  57  78
ATOM     78  C   UNL     1      -7.797   9.230   2.650  1.00  0.00     0.057 A 
ATOM     79  C   UNL     1      -7.640   8.206   1.699  1.00  0.00     0.134 A 
ATOM     80  C   UNL     1      -8.354   8.880   3.882  1.00  0.00     0.134 A 
ATOM     81  F   UNL     1      -7.108   8.478   0.497  1.00  0.00    -0.206 F 
ATOM     82  C   UNL     1      -7.900   6.869   2.007  1.00  0.00     0.040 A 
ATOM     83  C   UNL     1      -8.632   7.545   4.196  1.00  0.00     0.040 A 
ATOM     84  F   UNL     1      -8.520   9.800   4.843  1.00  0.00    -0.206 F 
ATOM     85  C   UNL     1      -8.362   6.532   3.275  1.00  0.00     0.006 A 
ENDBRANCH  57  78
BRANCH  69  86
ATOM     86  C   UNL     1      -7.607  16.004   5.200  1.00  0.00     0.057 A 
ATOM     87  C   UNL     1      -8.975  16.039   5.499  1.00  0.00     0.134 A 
ATOM     88  C   UNL     1      -6.883  17.162   5.569  1.00  0.00     0.134 A 
ATOM     89  F   UNL     1      -9.764  14.976   5.298  1.00  0.00    -0.206 F 
ATOM     90  C   UNL     1      -9.588  17.161   6.077  1.00  0.00     0.040 A 
ATOM     91  C   UNL     1      -7.474  18.265   6.191  1.00  0.00     0.040 A 
ATOM     92  F   UNL     1      -5.562  17.265   5.359  1.00  0.00    -0.206 F 
ATOM     93  C   UNL     1      -8.837  18.273   6.437  1.00  0.00     0.006 A 
ENDBRANCH  69  86
ENDBRANCH  43  44
ENDBRANCH  35  38
ENDBRANCH  33  34
ENDBRANCH  32  33
ENDBRANCH  31  32
ENDBRANCH  30  31
ENDBRANCH   1  30
TORSDOF 18
