REMARK SMILES CCn1cc(CNC(=O)[C@H]2CC=CC[C@@H]2C(=O)NCCCCCCNC(=O)c2ccc(-c3c4nc(c(-c5c(F)cccc5F)c5ccc([nH]5)c(-c5c(F)cccc5F)c5nc(c(-c6c(F)cccc6F)c6ccc3[nH]6)C=C5)C=C4)cc2)cn1
REMARK SMILES IDX 20 1 19 2 18 3 16 4 17 5 15 7 10 8 11 9 12 10 14 11 13 12
REMARK SMILES IDX 8 13 7 14 9 16 6 17 5 18 3 19 4 20 83 21 82 22 2 23 1 24
REMARK SMILES IDX 21 25 22 26 23 27 24 28 25 29 26 30 27 32 28 33 29 34 81 35
REMARK SMILES IDX 30 36 80 37 31 38 32 39 33 40 74 41 34 42 79 43 73 44 75 45
REMARK SMILES IDX 35 46 78 47 72 48 71 49 36 51 62 52 45 53 61 54 46 55 49 56
REMARK SMILES IDX 60 57 76 58 47 59 48 60 59 62 77 63 50 64 37 65 38 66 43 67
REMARK SMILES IDX 39 68 40 69 42 70 44 71 41 72 63 73 64 74 69 75 65 76 66 77
REMARK SMILES IDX 68 78 70 79 67 80 51 81 52 82 57 83 53 84 54 85 56 86 58 87
REMARK SMILES IDX 55 88
REMARK H PARENT 18 6 7 15 25 31 75 50 49 61
REMARK Flexibility Score: inf
ROOT
ATOM      1  C   UNL     1       5.758  -4.127   6.175  1.00  0.00     0.021 C 
ENDROOT
BRANCH   1   2
ATOM      2  C   UNL     1       5.184  -4.317   4.776  1.00  0.00     0.116 C 
BRANCH   2   3
ATOM      3  N   UNL     1       5.341  -5.672   4.302  1.00  0.00    -0.356 N 
ATOM      4  C   UNL     1       4.445  -6.657   4.019  1.00  0.00     0.224 C 
ATOM      5  O   UNL     1       4.927  -7.711   3.595  1.00  0.00    -0.275 OA
ATOM      6  H   UNL     1       6.278  -5.934   4.155  1.00  0.00     0.163 HD
BRANCH   4   7
ATOM      7  C   UNL     1       2.928  -6.432   4.113  1.00  0.00     0.095 C 
ATOM      8  C   UNL     1       2.434  -5.955   5.495  1.00  0.00     0.095 C 
ATOM      9  C   UNL     1       2.557  -7.080   6.549  1.00  0.00     0.041 C 
ATOM     10  C   UNL     1       2.236  -8.455   6.050  1.00  0.00    -0.030 C 
ATOM     11  C   UNL     1       2.157  -7.701   3.676  1.00  0.00     0.041 C 
ATOM     12  C   UNL     1       2.034  -8.733   4.756  1.00  0.00    -0.030 C 
BRANCH   8  13
ATOM     13  C   UNL     1       1.023  -5.351   5.431  1.00  0.00     0.224 C 
ATOM     14  N   UNL     1       0.768  -4.218   4.711  1.00  0.00    -0.352 N 
ATOM     15  H   UNL     1      -0.182  -3.963   4.686  1.00  0.00     0.163 HD
ATOM     16  O   UNL     1       0.078  -5.829   6.062  1.00  0.00    -0.275 OA
BRANCH  14  17
ATOM     17  C   UNL     1       1.638  -3.325   3.981  1.00  0.00     0.155 C 
BRANCH  17  18
ATOM     18  C   UNL     1       1.122  -3.065   2.619  1.00  0.00     0.009 A 
ATOM     19  N   UNL     1       0.628  -2.136   0.683  1.00  0.00    -0.273 N 
ATOM     20  C   UNL     1       1.109  -1.867   1.933  1.00  0.00     0.114 A 
ATOM     21  N   UNL     1       0.337  -3.438   0.507  1.00  0.00    -0.181 NA
ATOM     22  C   UNL     1       0.641  -4.000   1.677  1.00  0.00     0.140 A 
BRANCH  19  23
ATOM     23  C   UNL     1       0.392  -1.224  -0.421  1.00  0.00     0.141 C 
ATOM     24  C   UNL     1       0.930   0.187  -0.245  1.00  0.00     0.029 C 
ENDBRANCH  19  23
ENDBRANCH  17  18
ENDBRANCH  14  17
ENDBRANCH   8  13
ENDBRANCH   4   7
ENDBRANCH   2   3
ENDBRANCH   1   2
BRANCH   1  25
ATOM     25  C   UNL     1       7.274  -3.947   6.185  1.00  0.00     0.002 C 
BRANCH  25  26
ATOM     26  C   UNL     1       7.814  -2.850   5.253  1.00  0.00     0.002 C 
BRANCH  26  27
ATOM     27  C   UNL     1       7.144  -1.469   5.342  1.00  0.00     0.021 C 
BRANCH  27  28
ATOM     28  C   UNL     1       7.333  -0.774   6.680  1.00  0.00     0.116 C 
BRANCH  28  29
ATOM     29  N   UNL     1       8.745  -0.512   6.975  1.00  0.00    -0.352 N 
ATOM     30  C   UNL     1       9.321  -0.058   8.142  1.00  0.00     0.251 C 
ATOM     31  H   UNL     1       9.370  -0.684   6.234  1.00  0.00     0.163 HD
ATOM     32  O   UNL     1      10.442   0.455   8.136  1.00  0.00    -0.269 OA
BRANCH  30  33
ATOM     33  C   UNL     1       8.585  -0.209   9.404  1.00  0.00     0.039 A 
ATOM     34  C   UNL     1       8.629   0.746  10.424  1.00  0.00     0.014 A 
ATOM     35  C   UNL     1       7.809  -1.353   9.538  1.00  0.00     0.014 A 
ATOM     36  C   UNL     1       7.835   0.551  11.552  1.00  0.00     0.010 A 
ATOM     37  C   UNL     1       6.856  -1.411  10.508  1.00  0.00     0.010 A 
ATOM     38  C   UNL     1       6.948  -0.535  11.576  1.00  0.00    -0.014 A 
BRANCH  38  39
ATOM     39  C   UNL     1       6.024  -0.770  12.672  1.00  0.00     0.031 A 
ATOM     40  C   UNL     1       5.058   0.333  12.884  1.00  0.00     0.074 A 
ATOM     41  C   UNL     1       5.880  -1.994  13.230  1.00  0.00     0.049 A 
ATOM     42  N   UNL     1       5.028   1.177  13.860  1.00  0.00    -0.248 NA
ATOM     43  C   UNL     1       4.130   0.659  11.788  1.00  0.00     0.031 C 
ATOM     44  C   UNL     1       6.531  -3.256  12.848  1.00  0.00     0.029 A 
ATOM     45  N   UNL     1       5.018  -2.395  14.201  1.00  0.00    -0.354 N 
ATOM     46  C   UNL     1       3.913   1.977  13.627  1.00  0.00     0.074 A 
ATOM     47  C   UNL     1       3.574   1.783  12.244  1.00  0.00     0.031 C 
ATOM     48  C   UNL     1       5.878  -4.297  13.410  1.00  0.00     0.029 A 
ATOM     49  C   UNL     1       4.882  -3.775  14.325  1.00  0.00     0.049 A 
ATOM     50  H   UNL     1       4.529  -1.759  14.772  1.00  0.00     0.167 HD
ATOM     51  C   UNL     1       3.191   2.477  14.669  1.00  0.00     0.037 A 
ATOM     52  C   UNL     1       3.985  -4.426  15.108  1.00  0.00     0.037 A 
ATOM     53  C   UNL     1       3.945   2.364  15.901  1.00  0.00     0.049 A 
ATOM     54  C   UNL     1       3.502  -3.448  16.117  1.00  0.00     0.074 A 
ATOM     55  C   UNL     1       5.174   2.815  16.342  1.00  0.00     0.029 A 
ATOM     56  N   UNL     1       3.592   1.351  16.761  1.00  0.00    -0.354 N 
ATOM     57  N   UNL     1       4.253  -2.954  17.062  1.00  0.00    -0.248 NA
ATOM     58  C   UNL     1       2.329  -2.659  15.774  1.00  0.00     0.031 C 
ATOM     59  C   UNL     1       5.703   1.743  17.121  1.00  0.00     0.029 A 
ATOM     60  C   UNL     1       4.740   0.735  17.183  1.00  0.00     0.049 A 
ATOM     61  H   UNL     1       2.676   1.111  17.028  1.00  0.00     0.167 HD
ATOM     62  C   UNL     1       3.908  -1.611  17.121  1.00  0.00     0.074 A 
ATOM     63  C   UNL     1       2.662  -1.506  16.362  1.00  0.00     0.031 C 
ATOM     64  C   UNL     1       4.817  -0.669  17.513  1.00  0.00     0.037 A 
BRANCH  51  65
ATOM     65  C   UNL     1       1.680   2.630  14.680  1.00  0.00     0.057 A 
ATOM     66  C   UNL     1       1.072   3.119  15.854  1.00  0.00     0.134 A 
ATOM     67  C   UNL     1       0.787   2.044  13.759  1.00  0.00     0.134 A 
ATOM     68  F   UNL     1       1.796   3.736  16.801  1.00  0.00    -0.206 F 
ATOM     69  C   UNL     1      -0.279   2.905  16.151  1.00  0.00     0.040 A 
ATOM     70  C   UNL     1      -0.574   1.868  14.027  1.00  0.00     0.040 A 
ATOM     71  F   UNL     1       1.173   1.532  12.587  1.00  0.00    -0.206 F 
ATOM     72  C   UNL     1      -1.103   2.256  15.245  1.00  0.00     0.006 A 
ENDBRANCH  51  65
BRANCH  52  73
ATOM     73  C   UNL     1       3.295  -5.714  14.868  1.00  0.00     0.057 A 
ATOM     74  C   UNL     1       2.632  -6.386  15.906  1.00  0.00     0.134 A 
ATOM     75  C   UNL     1       3.021  -6.170  13.566  1.00  0.00     0.134 A 
ATOM     76  F   UNL     1       2.798  -6.000  17.180  1.00  0.00    -0.206 F 
ATOM     77  C   UNL     1       1.726  -7.428  15.664  1.00  0.00     0.040 A 
ATOM     78  C   UNL     1       2.122  -7.212  13.311  1.00  0.00     0.040 A 
ATOM     79  F   UNL     1       3.545  -5.558  12.495  1.00  0.00    -0.206 F 
ATOM     80  C   UNL     1       1.458  -7.835  14.361  1.00  0.00     0.006 A 
ENDBRANCH  52  73
BRANCH  64  81
ATOM     81  C   UNL     1       6.103  -1.143  18.134  1.00  0.00     0.057 A 
ATOM     82  C   UNL     1       7.079  -1.896  17.463  1.00  0.00     0.134 A 
ATOM     83  C   UNL     1       6.433  -0.681  19.413  1.00  0.00     0.134 A 
ATOM     84  F   UNL     1       6.895  -2.304  16.201  1.00  0.00    -0.206 F 
ATOM     85  C   UNL     1       8.310  -2.203  18.052  1.00  0.00     0.040 A 
ATOM     86  C   UNL     1       7.670  -0.952  19.999  1.00  0.00     0.040 A 
ATOM     87  F   UNL     1       5.571   0.089  20.094  1.00  0.00    -0.206 F 
ATOM     88  C   UNL     1       8.611  -1.723  19.322  1.00  0.00     0.006 A 
ENDBRANCH  64  81
ENDBRANCH  38  39
ENDBRANCH  30  33
ENDBRANCH  28  29
ENDBRANCH  27  28
ENDBRANCH  26  27
ENDBRANCH  25  26
ENDBRANCH   1  25
TORSDOF 17
