REMARK SMILES COCC[C@]1(C(=O)NCCCCCCNC(=O)c2ccc(-c3c4nc(c(-c5c(F)cccc5F)c5ccc([nH]5)c(-c5c(F)cccc5F)c5nc(c(-c6c(F)cccc6F)c6ccc3[nH]6)C=C5)C=C4)cc2)CCCN(C(=O)c2ccc(=O)[nH]c2)C1
REMARK SMILES IDX 11 1 10 2 9 3 8 4 6 5 7 6 5 8 72 9 85 10 73 11 75 12 74 13
REMARK SMILES IDX 4 14 3 15 2 16 1 17 76 18 77 19 78 20 79 21 84 22 80 23
REMARK SMILES IDX 83 24 81 25 82 27 12 28 13 29 14 30 15 31 16 32 17 34 18 35
REMARK SMILES IDX 19 36 71 37 20 38 70 39 21 40 22 41 23 42 64 43 24 44 69 45
REMARK SMILES IDX 63 46 65 47 25 48 68 49 62 50 61 51 26 53 52 54 35 55 51 56
REMARK SMILES IDX 36 57 39 58 50 59 66 60 37 61 38 62 49 64 67 65 40 66 27 67
REMARK SMILES IDX 28 68 33 69 29 70 30 71 32 72 34 73 31 74 53 75 54 76 59 77
REMARK SMILES IDX 55 78 56 79 58 80 60 81 57 82 41 83 42 84 47 85 43 86 44 87
REMARK SMILES IDX 46 88 48 89 45 90
REMARK H PARENT 8 7 83 26 15 33 65 52 39 63
REMARK Flexibility Score: inf
ROOT
ATOM      1  C   UNL     1       1.201   4.400   2.213  1.00  0.00     0.002 C 
ENDROOT
BRANCH   1   2
ATOM      2  C   UNL     1       1.157   4.567   0.689  1.00  0.00     0.021 C 
BRANCH   2   3
ATOM      3  C   UNL     1       2.130   3.671  -0.078  1.00  0.00     0.116 C 
BRANCH   3   4
ATOM      4  N   UNL     1       1.807   2.272   0.126  1.00  0.00    -0.356 N 
ATOM      5  C   UNL     1       0.886   1.548  -0.565  1.00  0.00     0.228 C 
ATOM      6  O   UNL     1       0.031   0.982   0.118  1.00  0.00    -0.274 OA
ATOM      7  H   UNL     1       2.304   1.800   0.834  1.00  0.00     0.163 HD
BRANCH   5   8
ATOM      8  C   UNL     1       0.842   1.536  -2.100  1.00  0.00     0.069 C 
ATOM      9  C   UNL     1      -0.158   2.676  -2.486  1.00  0.00     0.021 C 
ATOM     10  C   UNL     1       2.238   1.735  -2.756  1.00  0.00     0.136 C 
ATOM     11  C   UNL     1      -0.069   3.152  -3.934  1.00  0.00     0.023 C 
ATOM     12  N   UNL     1       2.135   2.190  -4.143  1.00  0.00    -0.338 N 
ATOM     13  C   UNL     1       1.375   3.426  -4.311  1.00  0.00     0.120 C 
BRANCH   8  14
ATOM     14  C   UNL     1       0.225   0.167  -2.566  1.00  0.00     0.047 C 
BRANCH  14  15
ATOM     15  C   UNL     1       1.047  -1.116  -2.321  1.00  0.00     0.161 C 
BRANCH  15  16
ATOM     16  O   UNL     1       0.566  -1.880  -1.216  1.00  0.00    -0.385 OA
ATOM     17  C   UNL     1       1.226  -1.633   0.018  1.00  0.00     0.194 C 
ENDBRANCH  15  16
ENDBRANCH  14  15
ENDBRANCH   8  14
BRANCH  12  18
ATOM     18  C   UNL     1       2.559   1.361  -5.172  1.00  0.00     0.255 C 
ATOM     19  O   UNL     1       3.042   0.246  -4.988  1.00  0.00    -0.269 OA
BRANCH  18  20
ATOM     20  C   UNL     1       2.344   1.852  -6.561  1.00  0.00     0.056 A 
ATOM     21  C   UNL     1       3.054   2.996  -7.102  1.00  0.00     0.021 A 
ATOM     22  C   UNL     1       1.421   1.226  -7.306  1.00  0.00     0.099 A 
ATOM     23  C   UNL     1       2.735   3.485  -8.310  1.00  0.00     0.072 A 
ATOM     24  N   UNL     1       1.104   1.704  -8.557  1.00  0.00    -0.328 N 
ATOM     25  C   UNL     1       1.675   2.823  -9.118  1.00  0.00     0.247 A 
ATOM     26  H   UNL     1       0.429   1.216  -9.081  1.00  0.00     0.169 HD
ATOM     27  O   UNL     1       1.343   3.264 -10.211  1.00  0.00    -0.270 OA
ENDBRANCH  18  20
ENDBRANCH  12  18
ENDBRANCH   5   8
ENDBRANCH   3   4
ENDBRANCH   2   3
ENDBRANCH   1   2
BRANCH   1  28
ATOM     28  C   UNL     1       2.583   4.580   2.848  1.00  0.00     0.002 C 
BRANCH  28  29
ATOM     29  C   UNL     1       3.318   5.857   2.444  1.00  0.00     0.021 C 
BRANCH  29  30
ATOM     30  C   UNL     1       2.547   7.140   2.720  1.00  0.00     0.116 C 
BRANCH  30  31
ATOM     31  N   UNL     1       2.408   7.401   4.142  1.00  0.00    -0.352 N 
ATOM     32  C   UNL     1       2.714   8.555   4.829  1.00  0.00     0.251 C 
ATOM     33  H   UNL     1       2.049   6.661   4.683  1.00  0.00     0.163 HD
ATOM     34  O   UNL     1       2.715   8.584   6.046  1.00  0.00    -0.269 OA
BRANCH  32  35
ATOM     35  C   UNL     1       3.069   9.760   4.050  1.00  0.00     0.039 A 
ATOM     36  C   UNL     1       4.253  10.439   4.343  1.00  0.00     0.014 A 
ATOM     37  C   UNL     1       2.249  10.178   2.999  1.00  0.00     0.014 A 
ATOM     38  C   UNL     1       4.650  11.508   3.537  1.00  0.00     0.010 A 
ATOM     39  C   UNL     1       2.681  11.194   2.156  1.00  0.00     0.010 A 
ATOM     40  C   UNL     1       3.884  11.871   2.418  1.00  0.00    -0.014 A 
BRANCH  40  41
ATOM     41  C   UNL     1       4.284  12.973   1.509  1.00  0.00     0.031 A 
ATOM     42  C   UNL     1       3.396  14.179   1.385  1.00  0.00     0.074 A 
ATOM     43  C   UNL     1       5.371  12.846   0.724  1.00  0.00     0.049 A 
ATOM     44  N   UNL     1       3.441  15.157   0.518  1.00  0.00    -0.248 NA
ATOM     45  C   UNL     1       2.285  14.275   2.346  1.00  0.00     0.031 C 
ATOM     46  C   UNL     1       6.303  11.718   0.739  1.00  0.00     0.029 A 
ATOM     47  N   UNL     1       5.859  13.668  -0.260  1.00  0.00    -0.354 N 
ATOM     48  C   UNL     1       2.352  15.967   0.810  1.00  0.00     0.074 A 
ATOM     49  C   UNL     1       1.638  15.342   1.902  1.00  0.00     0.031 C 
ATOM     50  C   UNL     1       7.253  11.922  -0.188  1.00  0.00     0.029 A 
ATOM     51  C   UNL     1       6.971  13.168  -0.895  1.00  0.00     0.049 A 
ATOM     52  H   UNL     1       5.452  14.535  -0.490  1.00  0.00     0.167 HD
ATOM     53  C   UNL     1       1.989  17.136   0.232  1.00  0.00     0.037 A 
ATOM     54  C   UNL     1       7.667  13.649  -1.943  1.00  0.00     0.037 A 
ATOM     55  C   UNL     1       2.720  17.767  -0.834  1.00  0.00     0.049 A 
ATOM     56  C   UNL     1       7.231  14.937  -2.586  1.00  0.00     0.074 A 
ATOM     57  C   UNL     1       2.462  18.974  -1.460  1.00  0.00     0.029 A 
ATOM     58  N   UNL     1       3.858  17.241  -1.427  1.00  0.00    -0.354 N 
ATOM     59  N   UNL     1       6.218  15.712  -2.281  1.00  0.00    -0.248 NA
ATOM     60  C   UNL     1       8.032  15.418  -3.721  1.00  0.00     0.031 C 
ATOM     61  C   UNL     1       3.420  19.159  -2.461  1.00  0.00     0.029 A 
ATOM     62  C   UNL     1       4.305  18.092  -2.424  1.00  0.00     0.049 A 
ATOM     63  H   UNL     1       4.284  16.390  -1.178  1.00  0.00     0.167 HD
ATOM     64  C   UNL     1       6.285  16.790  -3.155  1.00  0.00     0.074 A 
ATOM     65  C   UNL     1       7.436  16.568  -4.006  1.00  0.00     0.031 C 
ATOM     66  C   UNL     1       5.470  17.869  -3.241  1.00  0.00     0.037 A 
BRANCH  53  67
ATOM     67  C   UNL     1       0.744  17.802   0.740  1.00  0.00     0.057 A 
ATOM     68  C   UNL     1       0.682  18.383   2.014  1.00  0.00     0.134 A 
ATOM     69  C   UNL     1      -0.402  17.883  -0.062  1.00  0.00     0.134 A 
ATOM     70  F   UNL     1       1.740  18.328   2.837  1.00  0.00    -0.206 F 
ATOM     71  C   UNL     1      -0.483  18.991   2.484  1.00  0.00     0.040 A 
ATOM     72  C   UNL     1      -1.563  18.515   0.385  1.00  0.00     0.040 A 
ATOM     73  F   UNL     1      -0.410  17.353  -1.294  1.00  0.00    -0.206 F 
ATOM     74  C   UNL     1      -1.608  19.065   1.665  1.00  0.00     0.006 A 
ENDBRANCH  53  67
BRANCH  54  75
ATOM     75  C   UNL     1       8.858  12.917  -2.444  1.00  0.00     0.057 A 
ATOM     76  C   UNL     1      10.146  13.439  -2.271  1.00  0.00     0.134 A 
ATOM     77  C   UNL     1       8.743  11.693  -3.113  1.00  0.00     0.134 A 
ATOM     78  F   UNL     1      10.319  14.617  -1.655  1.00  0.00    -0.206 F 
ATOM     79  C   UNL     1      11.275  12.779  -2.760  1.00  0.00     0.040 A 
ATOM     80  C   UNL     1       9.866  11.010  -3.585  1.00  0.00     0.040 A 
ATOM     81  F   UNL     1       7.539  11.135  -3.304  1.00  0.00    -0.206 F 
ATOM     82  C   UNL     1      11.136  11.558  -3.416  1.00  0.00     0.006 A 
ENDBRANCH  54  75
BRANCH  66  83
ATOM     83  C   UNL     1       5.822  18.928  -4.242  1.00  0.00     0.057 A 
ATOM     84  C   UNL     1       5.612  18.753  -5.614  1.00  0.00     0.134 A 
ATOM     85  C   UNL     1       6.303  20.172  -3.812  1.00  0.00     0.134 A 
ATOM     86  F   UNL     1       5.165  17.582  -6.090  1.00  0.00    -0.206 F 
ATOM     87  C   UNL     1       5.877  19.777  -6.526  1.00  0.00     0.040 A 
ATOM     88  C   UNL     1       6.548  21.210  -4.710  1.00  0.00     0.040 A 
ATOM     89  F   UNL     1       6.517  20.406  -2.508  1.00  0.00    -0.206 F 
ATOM     90  C   UNL     1       6.336  21.013  -6.073  1.00  0.00     0.006 A 
ENDBRANCH  66  83
ENDBRANCH  40  41
ENDBRANCH  32  35
ENDBRANCH  30  31
ENDBRANCH  29  30
ENDBRANCH  28  29
ENDBRANCH   1  28
TORSDOF 18
