REMARK SMILES Cn1cc(C[C@@H](NC(=O)OCC2c3ccccc3-c3ccccc32)C(=O)NCCCCCCNC(=O)c2ccc(-c3c4nc(c(-c5c(F)cccc5F)c5ccc([nH]5)c(-c5c(F)cccc5F)c5nc(c(-c6c(F)cccc6F)c6ccc3[nH]6)C=C5)C=C4)cc2)c2ccccc21
REMARK SMILES IDX 29 1 28 2 27 3 25 4 26 5 6 7 5 8 4 9 1 10 2 11 3 12 96 13
REMARK SMILES IDX 91 14 95 15 92 16 94 17 93 18 7 19 8 20 9 22 10 23 11 24
REMARK SMILES IDX 12 25 13 26 24 27 14 28 18 29 19 30 23 31 15 32 17 33 20 34
REMARK SMILES IDX 22 35 16 36 21 37 30 38 31 39 32 40 33 41 34 42 35 43 36 45
REMARK SMILES IDX 37 46 38 47 90 48 39 49 89 50 40 51 41 52 42 53 83 54 43 55
REMARK SMILES IDX 88 56 82 57 84 58 44 59 87 60 81 61 80 62 45 64 71 65 54 66
REMARK SMILES IDX 70 67 55 68 58 69 69 70 85 71 56 72 57 73 68 75 86 76 59 77
REMARK SMILES IDX 46 78 47 79 52 80 48 81 49 82 51 83 53 84 50 85 72 86 73 87
REMARK SMILES IDX 78 88 74 89 75 90 77 91 79 92 76 93 60 94 61 95 66 96 62 97
REMARK SMILES IDX 63 98 65 99 67 100 64 101
REMARK H PARENT 27 6 7 21 34 44 84 63 58 74
REMARK Flexibility Score: inf
ROOT
ATOM      1  C   UNL     1      -0.116  -6.201  -2.472  1.00  0.00     0.021 C 
ENDROOT
BRANCH   1   2
ATOM      2  C   UNL     1      -0.665  -5.745  -1.127  1.00  0.00     0.116 C 
BRANCH   2   3
ATOM      3  N   UNL     1       0.221  -6.108  -0.036  1.00  0.00    -0.354 N 
ATOM      4  C   UNL     1       0.635  -5.381   1.047  1.00  0.00     0.243 C 
ATOM      5  O   UNL     1       1.378  -5.943   1.857  1.00  0.00    -0.273 OA
ATOM      6  H   UNL     1       0.582  -7.022  -0.083  1.00  0.00     0.163 HD
BRANCH   4   7
ATOM      7  C   UNL     1       0.297  -3.881   1.190  1.00  0.00     0.179 C 
BRANCH   7   8
ATOM      8  C   UNL     1       1.002  -3.098   0.049  1.00  0.00     0.073 C 
BRANCH   8   9
ATOM      9  C   UNL     1       0.955  -1.594   0.127  1.00  0.00    -0.020 A 
ATOM     10  C   UNL     1       2.515   1.678   0.289  1.00  0.00     0.149 C 
ATOM     11  N   UNL     1       1.635   0.530   0.265  1.00  0.00    -0.350 N 
ATOM     12  C   UNL     1       2.044  -0.772   0.356  1.00  0.00     0.090 A 
ATOM     13  C   UNL     1       0.273   0.591   0.067  1.00  0.00     0.048 A 
ATOM     14  C   UNL     1      -0.165  -0.724  -0.116  1.00  0.00     0.003 A 
ATOM     15  C   UNL     1      -0.598   1.691  -0.003  1.00  0.00     0.027 A 
ATOM     16  C   UNL     1      -1.518  -0.924  -0.469  1.00  0.00     0.010 A 
ATOM     17  C   UNL     1      -1.948   1.448  -0.270  1.00  0.00     0.002 A 
ATOM     18  C   UNL     1      -2.402   0.158  -0.514  1.00  0.00     0.001 A 
ENDBRANCH   8   9
ENDBRANCH   7   8
BRANCH   7  19
ATOM     19  N   UNL     1      -1.113  -3.520   1.360  1.00  0.00    -0.309 N 
ATOM     20  C   UNL     1      -2.246  -4.230   1.139  1.00  0.00     0.407 C 
ATOM     21  H   UNL     1      -1.263  -2.605   1.691  1.00  0.00     0.167 HD
ATOM     22  O   UNL     1      -3.241  -3.678   0.674  1.00  0.00    -0.225 OA
BRANCH  20  23
ATOM     23  O   UNL     1      -2.185  -5.532   1.510  1.00  0.00    -0.449 OA
BRANCH  23  24
ATOM     24  C   UNL     1      -3.433  -6.260   1.424  1.00  0.00     0.248 C 
BRANCH  24  25
ATOM     25  C   UNL     1      -4.204  -6.332   2.759  1.00  0.00     0.088 C 
ATOM     26  C   UNL     1      -3.608  -7.348   3.729  1.00  0.00    -0.029 A 
ATOM     27  C   UNL     1      -4.151  -5.053   3.585  1.00  0.00    -0.029 A 
ATOM     28  C   UNL     1      -3.535  -8.727   3.594  1.00  0.00     0.005 A 
ATOM     29  C   UNL     1      -3.171  -6.699   4.903  1.00  0.00    -0.014 A 
ATOM     30  C   UNL     1      -3.460  -5.285   4.793  1.00  0.00    -0.014 A 
ATOM     31  C   UNL     1      -4.632  -3.794   3.262  1.00  0.00     0.005 A 
ATOM     32  C   UNL     1      -3.001  -9.463   4.653  1.00  0.00     0.000 A 
ATOM     33  C   UNL     1      -2.632  -7.431   5.949  1.00  0.00     0.009 A 
ATOM     34  C   UNL     1      -3.173  -4.235   5.649  1.00  0.00     0.009 A 
ATOM     35  C   UNL     1      -4.331  -2.734   4.117  1.00  0.00     0.000 A 
ATOM     36  C   UNL     1      -2.550  -8.821   5.818  1.00  0.00     0.001 A 
ATOM     37  C   UNL     1      -3.597  -2.950   5.293  1.00  0.00     0.001 A 
ENDBRANCH  24  25
ENDBRANCH  23  24
ENDBRANCH  20  23
ENDBRANCH   7  19
ENDBRANCH   4   7
ENDBRANCH   2   3
ENDBRANCH   1   2
BRANCH   1  38
ATOM     38  C   UNL     1      -0.310  -7.699  -2.732  1.00  0.00     0.002 C 
BRANCH  38  39
ATOM     39  C   UNL     1      -1.767  -8.180  -2.732  1.00  0.00     0.002 C 
BRANCH  39  40
ATOM     40  C   UNL     1      -2.712  -7.417  -3.665  1.00  0.00     0.021 C 
BRANCH  40  41
ATOM     41  C   UNL     1      -2.270  -7.358  -5.125  1.00  0.00     0.116 C 
BRANCH  41  42
ATOM     42  N   UNL     1      -2.116  -8.679  -5.713  1.00  0.00    -0.352 N 
ATOM     43  C   UNL     1      -2.591  -9.156  -6.909  1.00  0.00     0.251 C 
ATOM     44  H   UNL     1      -1.597  -9.322  -5.178  1.00  0.00     0.163 HD
ATOM     45  O   UNL     1      -2.486 -10.345  -7.191  1.00  0.00    -0.269 OA
BRANCH  43  46
ATOM     46  C   UNL     1      -3.260  -8.233  -7.845  1.00  0.00     0.039 A 
ATOM     47  C   UNL     1      -4.515  -8.582  -8.352  1.00  0.00     0.014 A 
ATOM     48  C   UNL     1      -2.663  -7.020  -8.201  1.00  0.00     0.014 A 
ATOM     49  C   UNL     1      -5.210  -7.677  -9.154  1.00  0.00     0.010 A 
ATOM     50  C   UNL     1      -3.378  -6.098  -8.961  1.00  0.00     0.010 A 
ATOM     51  C   UNL     1      -4.664  -6.413  -9.428  1.00  0.00    -0.014 A 
BRANCH  51  52
ATOM     52  C   UNL     1      -5.442  -5.383 -10.157  1.00  0.00     0.031 A 
ATOM     53  C   UNL     1      -5.014  -4.931 -11.522  1.00  0.00     0.074 A 
ATOM     54  C   UNL     1      -6.487  -4.796  -9.544  1.00  0.00     0.049 A 
ATOM     55  N   UNL     1      -5.508  -3.975 -12.266  1.00  0.00    -0.248 NA
ATOM     56  C   UNL     1      -3.866  -5.630 -12.120  1.00  0.00     0.031 C 
ATOM     57  C   UNL     1      -6.972  -5.120  -8.201  1.00  0.00     0.029 A 
ATOM     58  N   UNL     1      -7.318  -3.788  -9.963  1.00  0.00    -0.354 N 
ATOM     59  C   UNL     1      -4.727  -3.948 -13.413  1.00  0.00     0.074 A 
ATOM     60  C   UNL     1      -3.704  -4.959 -13.252  1.00  0.00     0.031 C 
ATOM     61  C   UNL     1      -8.019  -4.332  -7.910  1.00  0.00     0.029 A 
ATOM     62  C   UNL     1      -8.256  -3.425  -9.028  1.00  0.00     0.049 A 
ATOM     63  H   UNL     1      -7.248  -3.365 -10.850  1.00  0.00     0.167 HD
ATOM     64  C   UNL     1      -4.862  -3.161 -14.506  1.00  0.00     0.037 A 
ATOM     65  C   UNL     1      -9.192  -2.459  -9.062  1.00  0.00     0.037 A 
ATOM     66  C   UNL     1      -5.895  -2.173 -14.674  1.00  0.00     0.049 A 
ATOM     67  C   UNL     1      -9.307  -1.587 -10.278  1.00  0.00     0.074 A 
ATOM     68  C   UNL     1      -6.164  -1.385 -15.780  1.00  0.00     0.029 A 
ATOM     69  N   UNL     1      -6.826  -1.833 -13.704  1.00  0.00    -0.354 N 
ATOM     70  N   UNL     1      -8.603  -1.615 -11.383  1.00  0.00    -0.248 NA
ATOM     71  C   UNL     1     -10.343  -0.544 -10.250  1.00  0.00     0.031 C 
ATOM     72  C   UNL     1      -7.235  -0.541 -15.466  1.00  0.00     0.029 A 
ATOM     73  C   UNL     1      -7.653  -0.827 -14.176  1.00  0.00     0.049 A 
ATOM     74  H   UNL     1      -6.890  -2.246 -12.813  1.00  0.00     0.167 HD
ATOM     75  C   UNL     1      -9.115  -0.606 -12.186  1.00  0.00     0.074 A 
ATOM     76  C   UNL     1     -10.201   0.007 -11.448  1.00  0.00     0.031 C 
ATOM     77  C   UNL     1      -8.720  -0.220 -13.423  1.00  0.00     0.037 A 
BRANCH  64  78
ATOM     78  C   UNL     1      -3.868  -3.342 -15.612  1.00  0.00     0.057 A 
ATOM     79  C   UNL     1      -3.908  -4.455 -16.461  1.00  0.00     0.134 A 
ATOM     80  C   UNL     1      -2.885  -2.375 -15.855  1.00  0.00     0.134 A 
ATOM     81  F   UNL     1      -4.819  -5.421 -16.272  1.00  0.00    -0.206 F 
ATOM     82  C   UNL     1      -2.991  -4.611 -17.502  1.00  0.00     0.040 A 
ATOM     83  C   UNL     1      -1.975  -2.510 -16.906  1.00  0.00     0.040 A 
ATOM     84  F   UNL     1      -2.795  -1.284 -15.081  1.00  0.00    -0.206 F 
ATOM     85  C   UNL     1      -2.025  -3.632 -17.730  1.00  0.00     0.006 A 
ENDBRANCH  64  78
BRANCH  65  86
ATOM     86  C   UNL     1     -10.097  -2.267  -7.903  1.00  0.00     0.057 A 
ATOM     87  C   UNL     1     -11.440  -2.650  -7.970  1.00  0.00     0.134 A 
ATOM     88  C   UNL     1      -9.642  -1.702  -6.707  1.00  0.00     0.134 A 
ATOM     89  F   UNL     1     -11.935  -3.179  -9.098  1.00  0.00    -0.206 F 
ATOM     90  C   UNL     1     -12.305  -2.470  -6.890  1.00  0.00     0.040 A 
ATOM     91  C   UNL     1     -10.490  -1.532  -5.612  1.00  0.00     0.040 A 
ATOM     92  F   UNL     1      -8.363  -1.318  -6.582  1.00  0.00    -0.206 F 
ATOM     93  C   UNL     1     -11.828  -1.913  -5.704  1.00  0.00     0.006 A 
ENDBRANCH  65  86
BRANCH  77  94
ATOM     94  C   UNL     1      -9.467   0.915 -14.052  1.00  0.00     0.057 A 
ATOM     95  C   UNL     1      -9.254   2.240 -13.653  1.00  0.00     0.134 A 
ATOM     96  C   UNL     1     -10.382   0.686 -15.087  1.00  0.00     0.134 A 
ATOM     97  F   UNL     1      -8.401   2.521 -12.656  1.00  0.00    -0.206 F 
ATOM     98  C   UNL     1      -9.937   3.299 -14.254  1.00  0.00     0.040 A 
ATOM     99  C   UNL     1     -11.056   1.738 -15.708  1.00  0.00     0.040 A 
ATOM    100  F   UNL     1     -10.627  -0.561 -15.516  1.00  0.00    -0.206 F 
ATOM    101  C   UNL     1     -10.836   3.049 -15.289  1.00  0.00     0.006 A 
ENDBRANCH  77  94
ENDBRANCH  51  52
ENDBRANCH  43  46
ENDBRANCH  41  42
ENDBRANCH  40  41
ENDBRANCH  39  40
ENDBRANCH  38  39
ENDBRANCH   1  38
TORSDOF 19
