REMARK SMILES Cc1nc2cc(S(=O)(=O)N3CCC(C(=O)NCCCCCCNC(=O)c4ccc(-c5c6nc(c(-c7c(F)cccc7F)c7ccc([nH]7)c(-c7c(F)cccc7F)c7nc(c(-c8c(F)cccc8F)c8ccc5[nH]8)C=C7)C=C6)cc4)CC3)ccc2n1C1CCCC1
REMARK SMILES IDX 19 1 18 2 17 3 16 4 14 5 15 6 13 8 10 9 11 10 81 11 12 12
REMARK SMILES IDX 80 13 7 14 8 15 9 16 6 17 1 18 2 19 3 20 85 21 4 22 84 23
REMARK SMILES IDX 5 24 83 25 82 26 86 27 87 28 90 29 88 30 89 31 20 32 21 33
REMARK SMILES IDX 22 34 23 35 24 36 25 38 26 39 27 40 79 41 28 42 78 43 29 44
REMARK SMILES IDX 30 45 31 46 72 47 32 48 77 49 71 50 73 51 33 52 76 53 70 54
REMARK SMILES IDX 69 55 34 57 60 58 43 59 59 60 44 61 47 62 58 63 74 64 45 65
REMARK SMILES IDX 46 66 57 68 75 69 48 70 35 71 36 72 41 73 37 74 38 75 40 76
REMARK SMILES IDX 42 77 39 78 61 79 62 80 67 81 63 82 64 83 66 84 68 85 65 86
REMARK SMILES IDX 49 87 50 88 55 89 51 90 52 91 54 92 56 93 53 94
REMARK H PARENT 16 7 23 37 73 56 47 67
REMARK Flexibility Score: inf
ROOT
ATOM      1  C   UNL     1      -3.203  14.439   1.830  1.00  0.00     0.002 C 
ENDROOT
BRANCH   1   2
ATOM      2  C   UNL     1      -3.104  12.916   1.758  1.00  0.00     0.021 C 
BRANCH   2   3
ATOM      3  C   UNL     1      -2.541  12.415   0.435  1.00  0.00     0.116 C 
BRANCH   3   4
ATOM      4  N   UNL     1      -1.112  12.674   0.341  1.00  0.00    -0.356 N 
ATOM      5  C   UNL     1      -0.061  11.810   0.279  1.00  0.00     0.223 C 
ATOM      6  O   UNL     1       1.082  12.268   0.253  1.00  0.00    -0.275 OA
ATOM      7  H   UNL     1      -0.865  13.627   0.318  1.00  0.00     0.163 HD
BRANCH   5   8
ATOM      8  C   UNL     1      -0.295  10.310   0.223  1.00  0.00     0.081 C 
ATOM      9  N   UNL     1      -2.165   8.095   0.180  1.00  0.00    -0.198 NA
ATOM     10  C   UNL     1      -1.457   8.401   1.447  1.00  0.00     0.103 C 
ATOM     11  C   UNL     1      -1.582   8.547  -1.106  1.00  0.00     0.103 C 
ATOM     12  C   UNL     1      -0.936   9.817   1.516  1.00  0.00     0.030 C 
ATOM     13  C   UNL     1      -1.036   9.955  -1.064  1.00  0.00     0.030 C 
BRANCH   9  14
ATOM     14  S   UNL     1      -2.857   6.513   0.127  1.00  0.00     0.243 S 
ATOM     15  O   UNL     1      -3.569   6.395  -1.134  1.00  0.00    -0.207 OA
ATOM     16  O   UNL     1      -3.512   6.285   1.392  1.00  0.00    -0.207 OA
BRANCH  14  17
ATOM     17  C   UNL     1      -1.484   5.377   0.044  1.00  0.00     0.085 A 
ATOM     18  C   UNL     1       0.988  -0.065  -0.049  1.00  0.00     0.088 C 
ATOM     19  C   UNL     1       0.563   1.359  -0.044  1.00  0.00     0.106 A 
ATOM     20  N   UNL     1      -0.702   1.736   0.008  1.00  0.00    -0.233 NA
ATOM     21  N   UNL     1       1.402   2.455  -0.094  1.00  0.00    -0.325 N 
ATOM     22  C   UNL     1      -0.699   3.102   0.008  1.00  0.00     0.090 A 
ATOM     23  C   UNL     1       0.605   3.580  -0.043  1.00  0.00     0.068 A 
ATOM     24  C   UNL     1      -1.774   4.005   0.057  1.00  0.00     0.052 A 
ATOM     25  C   UNL     1       0.905   4.938  -0.036  1.00  0.00     0.030 A 
ATOM     26  C   UNL     1      -0.161   5.820  -0.007  1.00  0.00     0.024 A 
BRANCH  21  27
ATOM     27  C   UNL     1       2.852   2.472  -0.172  1.00  0.00     0.089 C 
ATOM     28  C   UNL     1       3.424   3.234  -1.373  1.00  0.00     0.025 C 
ATOM     29  C   UNL     1       3.531   3.107   1.047  1.00  0.00     0.025 C 
ATOM     30  C   UNL     1       4.858   3.550  -0.972  1.00  0.00     0.002 C 
ATOM     31  C   UNL     1       4.880   3.619   0.552  1.00  0.00     0.002 C 
ENDBRANCH  21  27
ENDBRANCH  14  17
ENDBRANCH   9  14
ENDBRANCH   5   8
ENDBRANCH   3   4
ENDBRANCH   2   3
ENDBRANCH   1   2
BRANCH   1  32
ATOM     32  C   UNL     1      -4.088  15.067   0.748  1.00  0.00     0.002 C 
BRANCH  32  33
ATOM     33  C   UNL     1      -5.513  14.501   0.667  1.00  0.00     0.021 C 
BRANCH  33  34
ATOM     34  C   UNL     1      -6.272  14.539   1.994  1.00  0.00     0.116 C 
BRANCH  34  35
ATOM     35  N   UNL     1      -6.338  15.866   2.567  1.00  0.00    -0.352 N 
ATOM     36  C   UNL     1      -7.184  16.928   2.450  1.00  0.00     0.251 C 
ATOM     37  H   UNL     1      -5.596  16.043   3.189  1.00  0.00     0.163 HD
ATOM     38  O   UNL     1      -6.944  17.892   3.181  1.00  0.00    -0.269 OA
BRANCH  36  39
ATOM     39  C   UNL     1      -8.300  17.035   1.474  1.00  0.00     0.039 A 
ATOM     40  C   UNL     1      -8.700  16.048   0.575  1.00  0.00     0.014 A 
ATOM     41  C   UNL     1      -8.937  18.291   1.422  1.00  0.00     0.014 A 
ATOM     42  C   UNL     1      -9.605  16.352  -0.435  1.00  0.00     0.010 A 
ATOM     43  C   UNL     1      -9.859  18.593   0.431  1.00  0.00     0.010 A 
ATOM     44  C   UNL     1     -10.138  17.641  -0.539  1.00  0.00    -0.014 A 
BRANCH  44  45
ATOM     45  C   UNL     1     -11.067  17.914  -1.628  1.00  0.00     0.031 A 
ATOM     46  C   UNL     1     -12.267  17.034  -1.624  1.00  0.00     0.074 A 
ATOM     47  C   UNL     1     -10.900  18.909  -2.525  1.00  0.00     0.049 A 
ATOM     48  N   UNL     1     -12.576  16.119  -2.482  1.00  0.00    -0.248 NA
ATOM     49  C   UNL     1     -13.139  17.062  -0.439  1.00  0.00     0.031 C 
ATOM     50  C   UNL     1      -9.912  19.991  -2.522  1.00  0.00     0.029 A 
ATOM     51  N   UNL     1     -11.648  19.192  -3.630  1.00  0.00    -0.354 N 
ATOM     52  C   UNL     1     -13.789  15.582  -2.053  1.00  0.00     0.074 A 
ATOM     53  C   UNL     1     -14.004  16.086  -0.723  1.00  0.00     0.031 C 
ATOM     54  C   UNL     1     -10.262  20.926  -3.437  1.00  0.00     0.029 A 
ATOM     55  C   UNL     1     -11.404  20.441  -4.191  1.00  0.00     0.049 A 
ATOM     56  H   UNL     1     -12.308  18.562  -4.000  1.00  0.00     0.167 HD
ATOM     57  C   UNL     1     -14.622  14.949  -2.924  1.00  0.00     0.037 A 
ATOM     58  C   UNL     1     -12.117  21.037  -5.183  1.00  0.00     0.037 A 
ATOM     59  C   UNL     1     -13.912  14.534  -4.109  1.00  0.00     0.049 A 
ATOM     60  C   UNL     1     -12.867  19.974  -5.893  1.00  0.00     0.074 A 
ATOM     61  C   UNL     1     -12.871  13.666  -4.373  1.00  0.00     0.029 A 
ATOM     62  N   UNL     1     -14.031  15.321  -5.227  1.00  0.00    -0.354 N 
ATOM     63  N   UNL     1     -12.297  19.065  -6.633  1.00  0.00    -0.248 NA
ATOM     64  C   UNL     1     -14.188  19.633  -5.389  1.00  0.00     0.031 C 
ATOM     65  C   UNL     1     -12.117  14.300  -5.405  1.00  0.00     0.029 A 
ATOM     66  C   UNL     1     -12.777  15.478  -5.754  1.00  0.00     0.049 A 
ATOM     67  H   UNL     1     -14.865  15.703  -5.584  1.00  0.00     0.167 HD
ATOM     68  C   UNL     1     -12.966  17.891  -6.324  1.00  0.00     0.074 A 
ATOM     69  C   UNL     1     -14.167  18.315  -5.604  1.00  0.00     0.031 C 
ATOM     70  C   UNL     1     -12.343  16.680  -6.424  1.00  0.00     0.037 A 
BRANCH  57  71
ATOM     71  C   UNL     1     -16.128  15.089  -2.909  1.00  0.00     0.057 A 
ATOM     72  C   UNL     1     -16.823  16.123  -2.249  1.00  0.00     0.134 A 
ATOM     73  C   UNL     1     -16.883  14.381  -3.864  1.00  0.00     0.134 A 
ATOM     74  F   UNL     1     -16.251  16.909  -1.331  1.00  0.00    -0.206 F 
ATOM     75  C   UNL     1     -18.135  16.479  -2.572  1.00  0.00     0.040 A 
ATOM     76  C   UNL     1     -18.181  14.759  -4.226  1.00  0.00     0.040 A 
ATOM     77  F   UNL     1     -16.346  13.360  -4.549  1.00  0.00    -0.206 F 
ATOM     78  C   UNL     1     -18.804  15.826  -3.594  1.00  0.00     0.006 A 
ENDBRANCH  57  71
BRANCH  58  79
ATOM     79  C   UNL     1     -12.439  22.472  -5.363  1.00  0.00     0.057 A 
ATOM     80  C   UNL     1     -12.582  23.325  -4.255  1.00  0.00     0.134 A 
ATOM     81  C   UNL     1     -12.899  22.978  -6.589  1.00  0.00     0.134 A 
ATOM     82  F   UNL     1     -12.254  22.913  -3.022  1.00  0.00    -0.206 F 
ATOM     83  C   UNL     1     -13.156  24.598  -4.355  1.00  0.00     0.040 A 
ATOM     84  C   UNL     1     -13.477  24.251  -6.703  1.00  0.00     0.040 A 
ATOM     85  F   UNL     1     -12.856  22.222  -7.696  1.00  0.00    -0.206 F 
ATOM     86  C   UNL     1     -13.617  25.061  -5.580  1.00  0.00     0.006 A 
ENDBRANCH  58  79
BRANCH  70  87
ATOM     87  C   UNL     1     -10.996  16.643  -7.091  1.00  0.00     0.057 A 
ATOM     88  C   UNL     1     -10.823  15.821  -8.209  1.00  0.00     0.134 A 
ATOM     89  C   UNL     1      -9.851  17.284  -6.592  1.00  0.00     0.134 A 
ATOM     90  F   UNL     1     -11.861  15.130  -8.706  1.00  0.00    -0.206 F 
ATOM     91  C   UNL     1      -9.576  15.654  -8.815  1.00  0.00     0.040 A 
ATOM     92  C   UNL     1      -8.603  17.151  -7.209  1.00  0.00     0.040 A 
ATOM     93  F   UNL     1      -9.897  18.009  -5.468  1.00  0.00    -0.206 F 
ATOM     94  C   UNL     1      -8.463  16.330  -8.323  1.00  0.00     0.006 A 
ENDBRANCH  70  87
ENDBRANCH  44  45
ENDBRANCH  36  39
ENDBRANCH  34  35
ENDBRANCH  33  34
ENDBRANCH  32  33
ENDBRANCH   1  32
TORSDOF 16
