REMARK SMILES O=C(CCSC1=NC=NC2=[NH+]C=N[C@@H]12)NCCCCCCNC(=O)c1ccc(-c2c3nc(c(-c4c(F)cccc4F)c4ccc([nH]4)c(-c4c(F)cccc4F)c4nc(c(-c5c(F)cccc5F)c5ccc2[nH]5)C=C4)C=C3)cc1
REMARK SMILES IDX 18 1 17 2 16 3 15 4 1 5 2 6 3 8 4 9 5 10 6 11 7 12 14 13
REMARK SMILES IDX 8 14 10 15 13 16 9 17 11 18 12 19 19 21 20 22 21 23 22 24
REMARK SMILES IDX 23 25 24 27 25 28 26 29 78 30 27 31 77 32 28 33 29 34 30 35
REMARK SMILES IDX 71 36 31 37 76 38 70 39 72 40 32 41 75 42 69 43 68 44 33 46
REMARK SMILES IDX 59 47 42 48 58 49 43 50 46 51 57 52 73 53 44 54 45 55 56 57
REMARK SMILES IDX 74 58 47 59 34 60 35 61 40 62 36 63 37 64 39 65 41 66 38 67
REMARK SMILES IDX 60 68 61 69 66 70 62 71 63 72 65 73 67 74 64 75 48 76 49 77
REMARK SMILES IDX 54 78 50 79 51 80 53 81 55 82 52 83
REMARK H PARENT 15 7 11 20 22 26 72 45 46 56
REMARK Flexibility Score: inf
ROOT
ATOM      1  C   UNL     1       4.423  -3.864   0.416  1.00  0.00     0.002 C 
ENDROOT
BRANCH   1   2
ATOM      2  C   UNL     1       2.901  -3.767   0.204  1.00  0.00     0.021 C 
BRANCH   2   3
ATOM      3  C   UNL     1       2.144  -2.424   0.217  1.00  0.00     0.116 C 
BRANCH   3   4
ATOM      4  N   UNL     1       2.861  -1.245  -0.219  1.00  0.00    -0.356 N 
ATOM      5  O   UNL     1       1.155   0.209   0.295  1.00  0.00    -0.275 OA
ATOM      6  C   UNL     1       2.283   0.007  -0.146  1.00  0.00     0.220 C 
ATOM      7  H   UNL     1       3.775  -1.337  -0.572  1.00  0.00     0.163 HD
BRANCH   6   8
ATOM      8  C   UNL     1       3.171   1.144  -0.604  1.00  0.00     0.111 C 
BRANCH   8   9
ATOM      9  C   UNL     1       3.630   2.029   0.552  1.00  0.00     0.086 C 
BRANCH   9  10
ATOM     10  S   UNL     1       4.882   1.251   1.624  1.00  0.00    -0.106 SA
BRANCH  10  11
ATOM     11  C   UNL     1       3.843   0.333   2.691  1.00  0.00     0.128 C 
ATOM     12  N   UNL     1       3.853  -0.956   2.587  1.00  0.00    -0.214 NA
ATOM     13  C   UNL     1       2.922   1.026   3.642  1.00  0.00     0.340 C 
ATOM     14  C   UNL     1       2.954  -1.658   3.354  1.00  0.00     0.320 C 
ATOM     15  C   UNL     1       2.674   0.037   4.716  1.00  0.00     0.285 C 
ATOM     16  N   UNL     1       3.519   2.128   4.422  1.00  0.00    -0.130 NA
ATOM     17  N   UNL     1       2.352  -1.234   4.413  1.00  0.00    -0.092 NA
ATOM     18  N   UNL     1       2.910   0.474   5.896  1.00  0.00    -0.248 N 
ATOM     19  C   UNL     1       3.408   1.728   5.657  1.00  0.00     0.362 C 
ATOM     20  H   UNL     1       2.769   0.023   6.760  1.00  0.00     0.266 HD
ENDBRANCH  10  11
ENDBRANCH   9  10
ENDBRANCH   8   9
ENDBRANCH   6   8
ENDBRANCH   3   4
ENDBRANCH   2   3
ENDBRANCH   1   2
BRANCH   1  21
ATOM     21  C   UNL     1       5.093  -3.889   1.809  1.00  0.00     0.002 C 
BRANCH  21  22
ATOM     22  C   UNL     1       4.454  -4.640   2.989  1.00  0.00     0.021 C 
BRANCH  22  23
ATOM     23  C   UNL     1       4.574  -6.148   2.967  1.00  0.00     0.116 C 
BRANCH  23  24
ATOM     24  N   UNL     1       5.936  -6.650   3.184  1.00  0.00    -0.352 N 
ATOM     25  C   UNL     1       6.392  -7.957   3.020  1.00  0.00     0.251 C 
ATOM     26  H   UNL     1       6.603  -5.989   3.478  1.00  0.00     0.163 HD
ATOM     27  O   UNL     1       7.383  -8.375   3.581  1.00  0.00    -0.269 OA
BRANCH  25  28
ATOM     28  C   UNL     1       5.619  -8.817   2.106  1.00  0.00     0.039 A 
ATOM     29  C   UNL     1       5.293 -10.147   2.382  1.00  0.00     0.014 A 
ATOM     30  C   UNL     1       5.109  -8.170   0.994  1.00  0.00     0.014 A 
ATOM     31  C   UNL     1       4.375 -10.779   1.546  1.00  0.00     0.010 A 
ATOM     32  C   UNL     1       3.977  -8.665   0.434  1.00  0.00     0.010 A 
ATOM     33  C   UNL     1       3.711 -10.011   0.579  1.00  0.00    -0.014 A 
BRANCH  33  34
ATOM     34  C   UNL     1       2.699 -10.543  -0.312  1.00  0.00     0.031 A 
ATOM     35  C   UNL     1       1.582 -11.238   0.360  1.00  0.00     0.074 A 
ATOM     36  C   UNL     1       2.666 -10.225  -1.626  1.00  0.00     0.049 A 
ATOM     37  N   UNL     1       1.378 -12.510   0.409  1.00  0.00    -0.248 NA
ATOM     38  C   UNL     1       0.680 -10.451   1.214  1.00  0.00     0.031 C 
ATOM     39  C   UNL     1       3.496  -9.276  -2.386  1.00  0.00     0.029 A 
ATOM     40  N   UNL     1       1.775 -10.640  -2.559  1.00  0.00    -0.354 N 
ATOM     41  C   UNL     1       0.186 -12.673   1.104  1.00  0.00     0.074 A 
ATOM     42  C   UNL     1      -0.073 -11.414   1.753  1.00  0.00     0.031 C 
ATOM     43  C   UNL     1       2.917  -9.013  -3.577  1.00  0.00     0.029 A 
ATOM     44  C   UNL     1       1.796  -9.912  -3.743  1.00  0.00     0.049 A 
ATOM     45  H   UNL     1       1.162 -11.396  -2.411  1.00  0.00     0.167 HD
ATOM     46  C   UNL     1      -0.615 -13.748   0.865  1.00  0.00     0.037 A 
ATOM     47  C   UNL     1       0.909 -10.036  -4.758  1.00  0.00     0.037 A 
ATOM     48  C   UNL     1       0.091 -14.763   0.114  1.00  0.00     0.049 A 
ATOM     49  C   UNL     1       0.278 -11.378  -4.612  1.00  0.00     0.074 A 
ATOM     50  C   UNL     1       1.262 -15.471   0.316  1.00  0.00     0.029 A 
ATOM     51  N   UNL     1      -0.170 -14.864  -1.234  1.00  0.00    -0.354 N 
ATOM     52  N   UNL     1       0.936 -12.499  -4.756  1.00  0.00    -0.248 NA
ATOM     53  C   UNL     1      -0.927 -11.465  -3.797  1.00  0.00     0.031 C 
ATOM     54  C   UNL     1       1.900 -15.489  -0.961  1.00  0.00     0.029 A 
ATOM     55  C   UNL     1       1.043 -14.879  -1.878  1.00  0.00     0.049 A 
ATOM     56  H   UNL     1      -1.058 -14.917  -1.656  1.00  0.00     0.167 HD
ATOM     57  C   UNL     1       0.481 -13.319  -3.730  1.00  0.00     0.074 A 
ATOM     58  C   UNL     1      -0.712 -12.647  -3.211  1.00  0.00     0.031 C 
ATOM     59  C   UNL     1       1.268 -14.295  -3.183  1.00  0.00     0.037 A 
BRANCH  46  60
ATOM     60  C   UNL     1      -2.119 -13.730   0.962  1.00  0.00     0.057 A 
ATOM     61  C   UNL     1      -2.822 -14.941   0.842  1.00  0.00     0.134 A 
ATOM     62  C   UNL     1      -2.911 -12.567   0.879  1.00  0.00     0.134 A 
ATOM     63  F   UNL     1      -2.180 -16.118   0.896  1.00  0.00    -0.206 F 
ATOM     64  C   UNL     1      -4.196 -14.988   0.576  1.00  0.00     0.040 A 
ATOM     65  C   UNL     1      -4.292 -12.604   0.668  1.00  0.00     0.040 A 
ATOM     66  F   UNL     1      -2.391 -11.335   0.892  1.00  0.00    -0.206 F 
ATOM     67  C   UNL     1      -4.934 -13.816   0.479  1.00  0.00     0.006 A 
ENDBRANCH  46  60
BRANCH  47  68
ATOM     68  C   UNL     1       0.345  -8.942  -5.583  1.00  0.00     0.057 A 
ATOM     69  C   UNL     1      -0.362  -9.209  -6.762  1.00  0.00     0.134 A 
ATOM     70  C   UNL     1       0.266  -7.619  -5.106  1.00  0.00     0.134 A 
ATOM     71  F   UNL     1      -0.386 -10.448  -7.274  1.00  0.00    -0.206 F 
ATOM     72  C   UNL     1      -1.115  -8.224  -7.419  1.00  0.00     0.040 A 
ATOM     73  C   UNL     1      -0.475  -6.626  -5.754  1.00  0.00     0.040 A 
ATOM     74  F   UNL     1       0.837  -7.262  -3.946  1.00  0.00    -0.206 F 
ATOM     75  C   UNL     1      -1.181  -6.930  -6.910  1.00  0.00     0.006 A 
ENDBRANCH  47  68
BRANCH  59  76
ATOM     76  C   UNL     1       2.586 -14.618  -3.842  1.00  0.00     0.057 A 
ATOM     77  C   UNL     1       3.648 -13.709  -3.971  1.00  0.00     0.134 A 
ATOM     78  C   UNL     1       2.860 -15.947  -4.184  1.00  0.00     0.134 A 
ATOM     79  F   UNL     1       3.524 -12.437  -3.577  1.00  0.00    -0.206 F 
ATOM     80  C   UNL     1       4.906 -14.095  -4.447  1.00  0.00     0.040 A 
ATOM     81  C   UNL     1       4.121 -16.354  -4.630  1.00  0.00     0.040 A 
ATOM     82  F   UNL     1       1.918 -16.891  -4.033  1.00  0.00    -0.206 F 
ATOM     83  C   UNL     1       5.148 -15.425  -4.771  1.00  0.00     0.006 A 
ENDBRANCH  59  76
ENDBRANCH  33  34
ENDBRANCH  25  28
ENDBRANCH  23  24
ENDBRANCH  22  23
ENDBRANCH  21  22
ENDBRANCH   1  21
TORSDOF 16
