REMARK SMILES O=C(Cc1cncnc1N1CCC2(CC1)OCCC[C@@H]2O)NCCCCCCNC(=O)c1ccc(-c2c3nc(c(-c4c(F)cccc4F)c4ccc([nH]4)c(-c4c(F)cccc4F)c4nc(c(-c5c(F)cccc5F)c5ccc2[nH]5)C=C4)C=C3)cc1
REMARK SMILES IDX 25 1 24 2 23 3 22 4 1 5 2 6 3 8 4 9 5 10 9 11 6 12 8 13 7 14
REMARK SMILES IDX 10 15 11 16 15 17 12 18 14 19 13 20 16 21 20 22 17 23 19 24
REMARK SMILES IDX 18 25 21 26 26 28 27 29 28 30 29 31 30 32 31 34 32 35 33 36
REMARK SMILES IDX 85 37 34 38 84 39 35 40 36 41 37 42 78 43 38 44 83 45 77 46
REMARK SMILES IDX 79 47 39 48 82 49 76 50 75 51 40 53 66 54 49 55 65 56 50 57
REMARK SMILES IDX 53 58 64 59 80 60 51 61 52 62 63 64 81 65 54 66 41 67 42 68
REMARK SMILES IDX 47 69 43 70 44 71 46 72 48 73 45 74 67 75 68 76 73 77 69 78
REMARK SMILES IDX 70 79 72 80 74 81 71 82 55 83 56 84 61 85 57 86 58 87 60 88
REMARK SMILES IDX 62 89 59 90
REMARK H PARENT 22 7 21 27 29 33 79 52 53 63
REMARK Flexibility Score: inf
ROOT
ATOM      1  C   UNL     1       4.250  -1.215  -3.409  1.00  0.00     0.002 C 
ENDROOT
BRANCH   1   2
ATOM      2  C   UNL     1       2.739  -0.997  -3.249  1.00  0.00     0.021 C 
BRANCH   2   3
ATOM      3  C   UNL     1       2.169  -1.469  -1.913  1.00  0.00     0.116 C 
BRANCH   3   4
ATOM      4  N   UNL     1       2.778  -0.762  -0.808  1.00  0.00    -0.356 N 
ATOM      5  O   UNL     1       0.808  -0.085   0.155  1.00  0.00    -0.275 OA
ATOM      6  C   UNL     1       2.035  -0.098   0.140  1.00  0.00     0.224 C 
ATOM      7  H   UNL     1       3.759  -0.757  -0.730  1.00  0.00     0.163 HD
BRANCH   6   8
ATOM      8  C   UNL     1       2.857   0.679   1.140  1.00  0.00     0.141 C 
BRANCH   8   9
ATOM      9  C   UNL     1       3.733  -0.119   2.070  1.00  0.00     0.022 A 
ATOM     10  C   UNL     1       3.602  -1.484   2.252  1.00  0.00     0.121 A 
ATOM     11  C   UNL     1       4.765   0.491   2.788  1.00  0.00     0.135 A 
ATOM     12  N   UNL     1       4.429  -2.223   3.010  1.00  0.00    -0.244 NA
ATOM     13  N   UNL     1       5.626  -0.224   3.534  1.00  0.00    -0.219 NA
ATOM     14  C   UNL     1       5.411  -1.544   3.614  1.00  0.00     0.224 A 
BRANCH  11  15
ATOM     15  N   UNL     1       4.956   1.859   2.697  1.00  0.00    -0.356 N 
ATOM     16  C   UNL     1       6.309   2.391   2.725  1.00  0.00     0.121 C 
ATOM     17  C   UNL     1       3.971   2.740   3.322  1.00  0.00     0.121 C 
ATOM     18  C   UNL     1       6.311   3.644   1.843  1.00  0.00     0.060 C 
ATOM     19  C   UNL     1       3.857   3.980   2.443  1.00  0.00     0.060 C 
ATOM     20  C   UNL     1       5.227   4.677   2.258  1.00  0.00     0.097 C 
ATOM     21  O   UNL     1       5.542   5.256   3.543  1.00  0.00    -0.372 OA
ATOM     22  C   UNL     1       5.094   5.785   1.168  1.00  0.00     0.146 C 
ATOM     23  C   UNL     1       6.664   6.131   3.579  1.00  0.00     0.161 C 
ATOM     24  C   UNL     1       6.302   6.720   1.167  1.00  0.00     0.037 C 
ATOM     25  C   UNL     1       6.550   7.262   2.569  1.00  0.00     0.031 C 
BRANCH  22  26
ATOM     26  O   UNL     1       3.916   6.572   1.389  1.00  0.00    -0.390 OA
ATOM     27  H   UNL     1       3.983   7.019   2.248  1.00  0.00     0.211 HD
ENDBRANCH  22  26
ENDBRANCH  11  15
ENDBRANCH   8   9
ENDBRANCH   6   8
ENDBRANCH   3   4
ENDBRANCH   2   3
ENDBRANCH   1   2
BRANCH   1  28
ATOM     28  C   UNL     1       4.724  -2.660  -3.225  1.00  0.00     0.002 C 
BRANCH  28  29
ATOM     29  C   UNL     1       4.044  -3.684  -4.135  1.00  0.00     0.021 C 
BRANCH  29  30
ATOM     30  C   UNL     1       4.172  -3.397  -5.626  1.00  0.00     0.116 C 
BRANCH  30  31
ATOM     31  N   UNL     1       5.549  -3.468  -6.091  1.00  0.00    -0.352 N 
ATOM     32  C   UNL     1       6.061  -4.154  -7.165  1.00  0.00     0.251 C 
ATOM     33  H   UNL     1       6.203  -2.954  -5.563  1.00  0.00     0.163 HD
ATOM     34  O   UNL     1       7.274  -4.240  -7.330  1.00  0.00    -0.269 OA
BRANCH  32  35
ATOM     35  C   UNL     1       5.137  -4.814  -8.111  1.00  0.00     0.039 A 
ATOM     36  C   UNL     1       5.374  -6.141  -8.478  1.00  0.00     0.014 A 
ATOM     37  C   UNL     1       4.026  -4.131  -8.612  1.00  0.00     0.014 A 
ATOM     38  C   UNL     1       4.457  -6.806  -9.296  1.00  0.00     0.010 A 
ATOM     39  C   UNL     1       3.078  -4.815  -9.367  1.00  0.00     0.010 A 
ATOM     40  C   UNL     1       3.283  -6.160  -9.717  1.00  0.00    -0.014 A 
BRANCH  40  41
ATOM     41  C   UNL     1       2.253  -6.861 -10.526  1.00  0.00     0.031 A 
ATOM     42  C   UNL     1       1.933  -6.375 -11.914  1.00  0.00     0.074 A 
ATOM     43  C   UNL     1       1.548  -7.875  -9.984  1.00  0.00     0.049 A 
ATOM     44  N   UNL     1       0.987  -6.766 -12.729  1.00  0.00    -0.248 NA
ATOM     45  C   UNL     1       2.770  -5.287 -12.445  1.00  0.00     0.031 C 
ATOM     46  C   UNL     1       1.735  -8.416  -8.637  1.00  0.00     0.029 A 
ATOM     47  N   UNL     1       0.513  -8.618 -10.497  1.00  0.00    -0.354 N 
ATOM     48  C   UNL     1       1.097  -5.955 -13.852  1.00  0.00     0.074 A 
ATOM     49  C   UNL     1       2.176  -5.026 -13.601  1.00  0.00     0.031 C 
ATOM     50  C   UNL     1       0.855  -9.410  -8.434  1.00  0.00     0.029 A 
ATOM     51  C   UNL     1       0.011  -9.548  -9.617  1.00  0.00     0.049 A 
ATOM     52  H   UNL     1       0.163  -8.497 -11.409  1.00  0.00     0.167 HD
ATOM     53  C   UNL     1       0.373  -5.994 -14.995  1.00  0.00     0.037 A 
ATOM     54  C   UNL     1      -1.026 -10.399  -9.742  1.00  0.00     0.037 A 
ATOM     55  C   UNL     1      -0.670  -6.948 -15.260  1.00  0.00     0.049 A 
ATOM     56  C   UNL     1      -1.817 -10.411 -11.024  1.00  0.00     0.074 A 
ATOM     57  C   UNL     1      -1.404  -7.117 -16.421  1.00  0.00     0.029 A 
ATOM     58  N   UNL     1      -1.127  -7.892 -14.354  1.00  0.00    -0.354 N 
ATOM     59  N   UNL     1      -1.650  -9.691 -12.106  1.00  0.00    -0.248 NA
ATOM     60  C   UNL     1      -2.940 -11.357 -11.102  1.00  0.00     0.031 C 
ATOM     61  C   UNL     1      -2.341  -8.130 -16.201  1.00  0.00     0.029 A 
ATOM     62  C   UNL     1      -2.153  -8.629 -14.922  1.00  0.00     0.049 A 
ATOM     63  H   UNL     1      -0.776  -8.019 -13.444  1.00  0.00     0.167 HD
ATOM     64  C   UNL     1      -2.615 -10.126 -13.005  1.00  0.00     0.074 A 
ATOM     65  C   UNL     1      -3.360 -11.177 -12.346  1.00  0.00     0.031 C 
ATOM     66  C   UNL     1      -2.863  -9.694 -14.265  1.00  0.00     0.037 A 
BRANCH  53  67
ATOM     67  C   UNL     1       0.679  -4.979 -16.057  1.00  0.00     0.057 A 
ATOM     68  C   UNL     1       1.847  -5.041 -16.826  1.00  0.00     0.134 A 
ATOM     69  C   UNL     1      -0.248  -3.976 -16.369  1.00  0.00     0.134 A 
ATOM     70  F   UNL     1       2.780  -5.972 -16.573  1.00  0.00    -0.206 F 
ATOM     71  C   UNL     1       2.088  -4.135 -17.860  1.00  0.00     0.040 A 
ATOM     72  C   UNL     1      -0.031  -3.081 -17.417  1.00  0.00     0.040 A 
ATOM     73  F   UNL     1      -1.391  -3.865 -15.675  1.00  0.00    -0.206 F 
ATOM     74  C   UNL     1       1.142  -3.158 -18.165  1.00  0.00     0.006 A 
ENDBRANCH  53  67
BRANCH  54  75
ATOM     75  C   UNL     1      -1.391 -11.318  -8.632  1.00  0.00     0.057 A 
ATOM     76  C   UNL     1      -1.250 -12.705  -8.767  1.00  0.00     0.134 A 
ATOM     77  C   UNL     1      -1.940 -10.841  -7.436  1.00  0.00     0.134 A 
ATOM     78  F   UNL     1      -0.749 -13.225  -9.897  1.00  0.00    -0.206 F 
ATOM     79  C   UNL     1      -1.676 -13.585  -7.771  1.00  0.00     0.040 A 
ATOM     80  C   UNL     1      -2.343 -11.709  -6.418  1.00  0.00     0.040 A 
ATOM     81  F   UNL     1      -2.096  -9.524  -7.238  1.00  0.00    -0.206 F 
ATOM     82  C   UNL     1      -2.224 -13.086  -6.591  1.00  0.00     0.006 A 
ENDBRANCH  54  75
BRANCH  66  83
ATOM     83  C   UNL     1      -3.938 -10.396 -15.042  1.00  0.00     0.057 A 
ATOM     84  C   UNL     1      -5.297 -10.226 -14.752  1.00  0.00     0.134 A 
ATOM     85  C   UNL     1      -3.605 -11.209 -16.134  1.00  0.00     0.134 A 
ATOM     86  F   UNL     1      -5.681  -9.470 -13.713  1.00  0.00    -0.206 F 
ATOM     87  C   UNL     1      -6.287 -10.854 -15.510  1.00  0.00     0.040 A 
ATOM     88  C   UNL     1      -4.586 -11.819 -16.916  1.00  0.00     0.040 A 
ATOM     89  F   UNL     1      -2.321 -11.406 -16.471  1.00  0.00    -0.206 F 
ATOM     90  C   UNL     1      -5.932 -11.646 -16.601  1.00  0.00     0.006 A 
ENDBRANCH  66  83
ENDBRANCH  40  41
ENDBRANCH  32  35
ENDBRANCH  30  31
ENDBRANCH  29  30
ENDBRANCH  28  29
ENDBRANCH   1  28
TORSDOF 16
