REMARK SMILES C[N@@H+](CC(=O)NCCCCCCNC(=O)c1ccc(-c2c3nc(c(-c4c(F)cccc4F)c4ccc([nH]4)c(-c4c(F)cccc4F)c4nc(c(-c5c(F)cccc5F)c5ccc2[nH]5)C=C4)C=C3)cc1)Cc1nc(-c2ccsc2)no1
REMARK SMILES IDX 8 1 7 2 6 3 4 4 5 5 3 7 2 8 1 9 70 11 71 12 72 13 80 14
REMARK SMILES IDX 73 15 79 16 74 17 75 18 78 19 76 20 77 21 9 22 10 23 11 24
REMARK SMILES IDX 12 25 13 26 14 27 15 29 16 30 17 31 69 32 18 33 68 34 19 35
REMARK SMILES IDX 20 36 21 37 62 38 22 39 67 40 61 41 63 42 23 43 66 44 60 45
REMARK SMILES IDX 59 46 24 48 50 49 33 50 49 51 34 52 37 53 48 54 64 55 35 56
REMARK SMILES IDX 36 57 47 59 65 60 38 61 25 62 26 63 31 64 27 65 28 66 30 67
REMARK SMILES IDX 32 68 29 69 51 70 52 71 57 72 53 73 54 74 56 75 58 76 55 77
REMARK SMILES IDX 39 78 40 79 45 80 41 81 42 82 44 83 46 84 43 85
REMARK H PARENT 6 6 2 10 13 28 63 47 37 58
REMARK Flexibility Score: inf
ROOT
ATOM      1  C   UNL     1       0.421  -0.384  -2.500  1.00  0.00     0.021 C 
ENDROOT
BRANCH   1   2
ATOM      2  C   UNL     1      -0.749   0.128  -1.661  1.00  0.00     0.116 C 
BRANCH   2   3
ATOM      3  N   UNL     1      -1.521  -0.958  -1.093  1.00  0.00    -0.351 N 
ATOM      4  C   UNL     1      -1.644  -1.381   0.195  1.00  0.00     0.275 C 
ATOM      5  O   UNL     1      -2.352  -2.368   0.410  1.00  0.00    -0.269 OA
ATOM      6  H   UNL     1      -2.044  -1.476  -1.746  1.00  0.00     0.163 HD
BRANCH   4   7
ATOM      7  C   UNL     1      -0.954  -0.650   1.343  1.00  0.00     0.363 C 
BRANCH   7   8
ATOM      8  N   UNL     1       0.408  -1.092   1.660  1.00  0.00    -0.322 N 
ATOM      9  C   UNL     1       1.491  -0.323   1.088  1.00  0.00     0.333 C 
ATOM     10  H   UNL     1       0.452  -0.804   2.637  1.00  0.00     0.348 HD
BRANCH   8  11
ATOM     11  C   UNL     1       0.639  -2.537   1.820  1.00  0.00     0.364 C 
BRANCH  11  12
ATOM     12  C   UNL     1       0.626  -3.414   0.606  1.00  0.00     0.282 A 
ATOM     13  N   UNL     1       0.161  -4.638   0.454  1.00  0.00    -0.186 NA
ATOM     14  O   UNL     1       1.240  -2.939  -0.515  1.00  0.00    -0.333 OA
ATOM     15  C   UNL     1       0.462  -4.901  -0.859  1.00  0.00     0.203 A 
ATOM     16  N   UNL     1       1.111  -3.918  -1.495  1.00  0.00    -0.057 NA
BRANCH  15  17
ATOM     17  C   UNL     1       0.147  -6.196  -1.468  1.00  0.00     0.033 A 
ATOM     18  C   UNL     1       0.599  -6.563  -2.775  1.00  0.00     0.024 A 
ATOM     19  C   UNL     1      -0.586  -7.204  -0.880  1.00  0.00     0.077 A 
ATOM     20  C   UNL     1       0.212  -7.839  -3.121  1.00  0.00     0.065 A 
ATOM     21  S   UNL     1      -0.710  -8.585  -1.888  1.00  0.00    -0.152 S 
ENDBRANCH  15  17
ENDBRANCH  11  12
ENDBRANCH   8  11
ENDBRANCH   7   8
ENDBRANCH   4   7
ENDBRANCH   2   3
ENDBRANCH   1   2
BRANCH   1  22
ATOM     22  C   UNL     1       0.023  -1.230  -3.714  1.00  0.00     0.002 C 
BRANCH  22  23
ATOM     23  C   UNL     1      -0.625  -0.445  -4.854  1.00  0.00     0.002 C 
BRANCH  23  24
ATOM     24  C   UNL     1       0.194   0.744  -5.363  1.00  0.00     0.021 C 
BRANCH  24  25
ATOM     25  C   UNL     1       1.635   0.412  -5.741  1.00  0.00     0.116 C 
BRANCH  25  26
ATOM     26  N   UNL     1       1.708  -0.476  -6.889  1.00  0.00    -0.352 N 
ATOM     27  C   UNL     1       2.300  -0.259  -8.108  1.00  0.00     0.251 C 
ATOM     28  H   UNL     1       1.273  -1.352  -6.777  1.00  0.00     0.163 HD
ATOM     29  O   UNL     1       2.096  -1.020  -9.047  1.00  0.00    -0.269 OA
BRANCH  27  30
ATOM     30  C   UNL     1       3.180   0.914  -8.287  1.00  0.00     0.039 A 
ATOM     31  C   UNL     1       2.995   1.738  -9.400  1.00  0.00     0.014 A 
ATOM     32  C   UNL     1       4.181   1.200  -7.354  1.00  0.00     0.014 A 
ATOM     33  C   UNL     1       3.781   2.882  -9.548  1.00  0.00     0.010 A 
ATOM     34  C   UNL     1       4.916   2.376  -7.467  1.00  0.00     0.010 A 
ATOM     35  C   UNL     1       4.728   3.226  -8.568  1.00  0.00    -0.014 A 
BRANCH  35  36
ATOM     36  C   UNL     1       5.537   4.465  -8.683  1.00  0.00     0.031 A 
ATOM     37  C   UNL     1       7.029   4.378  -8.850  1.00  0.00     0.074 A 
ATOM     38  C   UNL     1       4.938   5.666  -8.576  1.00  0.00     0.049 A 
ATOM     39  N   UNL     1       7.913   5.341  -8.902  1.00  0.00    -0.248 NA
ATOM     40  C   UNL     1       7.606   3.027  -8.943  1.00  0.00     0.031 C 
ATOM     41  C   UNL     1       3.505   5.883  -8.367  1.00  0.00     0.029 A 
ATOM     42  N   UNL     1       5.463   6.934  -8.619  1.00  0.00    -0.354 N 
ATOM     43  C   UNL     1       9.147   4.715  -9.019  1.00  0.00     0.074 A 
ATOM     44  C   UNL     1       8.904   3.290  -8.977  1.00  0.00     0.031 C 
ATOM     45  C   UNL     1       3.263   7.203  -8.321  1.00  0.00     0.029 A 
ATOM     46  C   UNL     1       4.524   7.924  -8.461  1.00  0.00     0.049 A 
ATOM     47  H   UNL     1       6.421   7.116  -8.750  1.00  0.00     0.167 HD
ATOM     48  C   UNL     1      10.370   5.277  -9.172  1.00  0.00     0.037 A 
ATOM     49  C   UNL     1       4.666   9.263  -8.427  1.00  0.00     0.037 A 
ATOM     50  C   UNL     1      10.607   6.694  -9.240  1.00  0.00     0.049 A 
ATOM     51  C   UNL     1       6.035   9.861  -8.596  1.00  0.00     0.074 A 
ATOM     52  C   UNL     1      11.801   7.360  -9.454  1.00  0.00     0.029 A 
ATOM     53  N   UNL     1       9.627   7.665  -9.094  1.00  0.00    -0.354 N 
ATOM     54  N   UNL     1       7.185   9.258  -8.772  1.00  0.00    -0.248 NA
ATOM     55  C   UNL     1       6.124  11.328  -8.567  1.00  0.00     0.031 C 
ATOM     56  C   UNL     1      11.551   8.736  -9.395  1.00  0.00     0.029 A 
ATOM     57  C   UNL     1      10.194   8.926  -9.192  1.00  0.00     0.049 A 
ATOM     58  H   UNL     1       8.671   7.486  -8.943  1.00  0.00     0.167 HD
ATOM     59  C   UNL     1       8.129  10.268  -8.903  1.00  0.00     0.074 A 
ATOM     60  C   UNL     1       7.415  11.524  -8.799  1.00  0.00     0.031 C 
ATOM     61  C   UNL     1       9.467  10.166  -9.092  1.00  0.00     0.037 A 
BRANCH  48  62
ATOM     62  C   UNL     1      11.547   4.351  -9.281  1.00  0.00     0.057 A 
ATOM     63  C   UNL     1      11.756   3.552 -10.413  1.00  0.00     0.134 A 
ATOM     64  C   UNL     1      12.499   4.280  -8.256  1.00  0.00     0.134 A 
ATOM     65  F   UNL     1      10.876   3.563 -11.425  1.00  0.00    -0.206 F 
ATOM     66  C   UNL     1      12.854   2.696 -10.510  1.00  0.00     0.040 A 
ATOM     67  C   UNL     1      13.616   3.448  -8.354  1.00  0.00     0.040 A 
ATOM     68  F   UNL     1      12.364   5.022  -7.147  1.00  0.00    -0.206 F 
ATOM     69  C   UNL     1      13.792   2.648  -9.481  1.00  0.00     0.006 A 
ENDBRANCH  48  62
BRANCH  49  70
ATOM     70  C   UNL     1       3.476  10.132  -8.248  1.00  0.00     0.057 A 
ATOM     71  C   UNL     1       2.996  10.923  -9.299  1.00  0.00     0.134 A 
ATOM     72  C   UNL     1       2.795  10.200  -7.027  1.00  0.00     0.134 A 
ATOM     73  F   UNL     1       3.618  10.915 -10.487  1.00  0.00    -0.206 F 
ATOM     74  C   UNL     1       1.895  11.764  -9.137  1.00  0.00     0.040 A 
ATOM     75  C   UNL     1       1.677  11.018  -6.858  1.00  0.00     0.040 A 
ATOM     76  F   UNL     1       3.200   9.460  -5.983  1.00  0.00    -0.206 F 
ATOM     77  C   UNL     1       1.229  11.810  -7.914  1.00  0.00     0.006 A 
ENDBRANCH  49  70
BRANCH  61  78
ATOM     78  C   UNL     1      10.240  11.444  -9.233  1.00  0.00     0.057 A 
ATOM     79  C   UNL     1      10.488  12.283  -8.139  1.00  0.00     0.134 A 
ATOM     80  C   UNL     1      10.776  11.819 -10.471  1.00  0.00     0.134 A 
ATOM     81  F   UNL     1       9.990  11.986  -6.929  1.00  0.00    -0.206 F 
ATOM     82  C   UNL     1      11.223  13.461  -8.276  1.00  0.00     0.040 A 
ATOM     83  C   UNL     1      11.535  12.981 -10.616  1.00  0.00     0.040 A 
ATOM     84  F   UNL     1      10.583  11.056 -11.557  1.00  0.00    -0.206 F 
ATOM     85  C   UNL     1      11.755  13.809  -9.517  1.00  0.00     0.006 A 
ENDBRANCH  61  78
ENDBRANCH  35  36
ENDBRANCH  27  30
ENDBRANCH  25  26
ENDBRANCH  24  25
ENDBRANCH  23  24
ENDBRANCH  22  23
ENDBRANCH   1  22
TORSDOF 17
