REMARK SMILES CC1(C)Oc2ccc(NC(=O)[C@H]3CC=CC[C@@H]3C(=O)NCCCCCCNC(=O)c3ccc(-c4c5nc(c(-c6c(F)cccc6F)c6ccc([nH]6)c(-c6c(F)cccc6F)c6nc(c(-c7c(F)cccc7F)c7ccc4[nH]7)C=C6)C=C5)cc3)cc2NC1=O
REMARK SMILES IDX 23 1 22 2 21 3 20 4 18 5 19 6 17 8 12 9 13 10 14 11 16 12
REMARK SMILES IDX 15 13 10 14 9 15 11 17 8 18 1 19 2 20 3 21 4 22 87 23 5 24
REMARK SMILES IDX 86 25 88 26 6 27 85 28 7 30 84 31 24 32 25 33 26 34 27 35
REMARK SMILES IDX 28 36 29 38 30 39 31 40 83 41 32 42 82 43 33 44 34 45 35 46
REMARK SMILES IDX 76 47 36 48 81 49 75 50 77 51 37 52 80 53 74 54 73 55 38 57
REMARK SMILES IDX 64 58 47 59 63 60 48 61 51 62 62 63 78 64 49 65 50 66 61 68
REMARK SMILES IDX 79 69 52 70 39 71 40 72 45 73 41 74 42 75 44 76 46 77 43 78
REMARK SMILES IDX 65 79 66 80 71 81 67 82 68 83 70 84 72 85 69 86 53 87 54 88
REMARK SMILES IDX 59 89 55 90 56 91 58 92 60 93 57 94
REMARK H PARENT 20 7 9 16 86 29 27 37 77 56 51 67
REMARK Flexibility Score: inf
ROOT
ATOM      1  C   UNL     1       4.520  -6.881  -1.093  1.00  0.00     0.002 C 
ENDROOT
BRANCH   1   2
ATOM      2  C   UNL     1       4.418  -6.913   0.433  1.00  0.00     0.021 C 
BRANCH   2   3
ATOM      3  C   UNL     1       3.021  -6.746   1.025  1.00  0.00     0.116 C 
BRANCH   3   4
ATOM      4  N   UNL     1       2.113  -7.857   0.845  1.00  0.00    -0.356 N 
ATOM      5  C   UNL     1       0.883  -8.059   1.430  1.00  0.00     0.224 C 
ATOM      6  O   UNL     1       0.246  -9.050   1.077  1.00  0.00    -0.275 OA
ATOM      7  H   UNL     1       2.413  -8.560   0.224  1.00  0.00     0.163 HD
BRANCH   5   8
ATOM      8  C   UNL     1       0.360  -7.065   2.495  1.00  0.00     0.095 C 
ATOM      9  C   UNL     1       0.669  -7.551   3.933  1.00  0.00     0.095 C 
ATOM     10  C   UNL     1      -0.225  -8.810   4.205  1.00  0.00     0.041 C 
ATOM     11  C   UNL     1      -1.667  -8.617   3.815  1.00  0.00    -0.030 C 
ATOM     12  C   UNL     1      -1.124  -6.731   2.287  1.00  0.00     0.041 C 
ATOM     13  C   UNL     1      -2.072  -7.665   2.966  1.00  0.00    -0.030 C 
BRANCH   9  14
ATOM     14  C   UNL     1       0.549  -6.630   5.194  1.00  0.00     0.228 C 
ATOM     15  N   UNL     1       0.614  -5.274   5.292  1.00  0.00    -0.326 N 
ATOM     16  H   UNL     1       0.376  -4.955   6.192  1.00  0.00     0.169 HD
ATOM     17  O   UNL     1       0.407  -7.169   6.307  1.00  0.00    -0.274 OA
BRANCH  15  18
ATOM     18  C   UNL     1       0.935  -4.226   4.429  1.00  0.00     0.043 A 
ATOM     19  C   UNL     1       0.828   0.652   0.454  1.00  0.00     0.067 C 
ATOM     20  C   UNL     1       0.249  -0.295   1.506  1.00  0.00     0.182 C 
ATOM     21  C   UNL     1      -1.245  -0.519   1.202  1.00  0.00     0.067 C 
ATOM     22  O   UNL     1       0.987  -1.509   1.333  1.00  0.00    -0.476 OA
ATOM     23  C   UNL     1       0.322   0.311   2.927  1.00  0.00     0.268 C 
ATOM     24  C   UNL     1       1.055  -2.306   2.434  1.00  0.00     0.144 A 
ATOM     25  N   UNL     1       0.239  -0.626   3.936  1.00  0.00    -0.319 N 
ATOM     26  O   UNL     1       0.328   1.514   3.170  1.00  0.00    -0.270 OA
ATOM     27  C   UNL     1       1.744  -3.495   2.288  1.00  0.00     0.051 A 
ATOM     28  C   UNL     1       0.548  -1.966   3.685  1.00  0.00     0.086 A 
ATOM     29  H   UNL     1      -0.040  -0.350   4.838  1.00  0.00     0.170 HD
ATOM     30  C   UNL     1       1.759  -4.404   3.339  1.00  0.00     0.030 A 
ATOM     31  C   UNL     1       0.446  -2.940   4.682  1.00  0.00     0.056 A 
ENDBRANCH  15  18
ENDBRANCH   9  14
ENDBRANCH   5   8
ENDBRANCH   3   4
ENDBRANCH   2   3
ENDBRANCH   1   2
BRANCH   1  32
ATOM     32  C   UNL     1       4.115  -5.574  -1.784  1.00  0.00     0.002 C 
BRANCH  32  33
ATOM     33  C   UNL     1       4.857  -4.303  -1.362  1.00  0.00     0.021 C 
BRANCH  33  34
ATOM     34  C   UNL     1       6.383  -4.357  -1.380  1.00  0.00     0.116 C 
BRANCH  34  35
ATOM     35  N   UNL     1       6.954  -4.682  -2.678  1.00  0.00    -0.352 N 
ATOM     36  C   UNL     1       8.028  -4.121  -3.333  1.00  0.00     0.251 C 
ATOM     37  H   UNL     1       6.505  -5.413  -3.161  1.00  0.00     0.163 HD
ATOM     38  O   UNL     1       8.321  -4.498  -4.466  1.00  0.00    -0.269 OA
BRANCH  36  39
ATOM     39  C   UNL     1       8.805  -3.029  -2.702  1.00  0.00     0.039 A 
ATOM     40  C   UNL     1       9.191  -3.095  -1.363  1.00  0.00     0.014 A 
ATOM     41  C   UNL     1       9.133  -1.902  -3.465  1.00  0.00     0.014 A 
ATOM     42  C   UNL     1       9.732  -1.972  -0.743  1.00  0.00     0.010 A 
ATOM     43  C   UNL     1       9.752  -0.803  -2.859  1.00  0.00     0.010 A 
ATOM     44  C   UNL     1      10.002  -0.805  -1.478  1.00  0.00    -0.014 A 
BRANCH  44  45
ATOM     45  C   UNL     1      10.498   0.409  -0.773  1.00  0.00     0.031 A 
ATOM     46  C   UNL     1       9.651   1.655  -0.704  1.00  0.00     0.074 A 
ATOM     47  C   UNL     1      11.680   0.369  -0.126  1.00  0.00     0.049 A 
ATOM     48  N   UNL     1       9.905   2.799  -0.116  1.00  0.00    -0.248 NA
ATOM     49  C   UNL     1       8.346   1.613  -1.384  1.00  0.00     0.031 C 
ATOM     50  C   UNL     1      12.587  -0.779  -0.093  1.00  0.00     0.029 A 
ATOM     51  N   UNL     1      12.308   1.311   0.650  1.00  0.00    -0.354 N 
ATOM     52  C   UNL     1       8.799   3.607  -0.355  1.00  0.00     0.074 A 
ATOM     53  C   UNL     1       7.890   2.840  -1.180  1.00  0.00     0.031 C 
ATOM     54  C   UNL     1      13.629  -0.493   0.703  1.00  0.00     0.029 A 
ATOM     55  C   UNL     1      13.496   0.876   1.187  1.00  0.00     0.049 A 
ATOM     56  H   UNL     1      11.942   2.211   0.808  1.00  0.00     0.167 HD
ATOM     57  C   UNL     1       8.550   4.864   0.087  1.00  0.00     0.037 A 
ATOM     58  C   UNL     1      14.385   1.515   1.970  1.00  0.00     0.037 A 
ATOM     59  C   UNL     1       9.449   5.631   0.911  1.00  0.00     0.049 A 
ATOM     60  C   UNL     1      14.120   2.938   2.376  1.00  0.00     0.074 A 
ATOM     61  C   UNL     1       9.294   6.920   1.392  1.00  0.00     0.029 A 
ATOM     62  N   UNL     1      10.671   5.176   1.381  1.00  0.00    -0.354 N 
ATOM     63  N   UNL     1      13.071   3.686   2.136  1.00  0.00    -0.248 NA
ATOM     64  C   UNL     1      15.171   3.606   3.156  1.00  0.00     0.031 C 
ATOM     65  C   UNL     1      10.436   7.256   2.127  1.00  0.00     0.029 A 
ATOM     66  C   UNL     1      11.284   6.161   2.138  1.00  0.00     0.049 A 
ATOM     67  H   UNL     1      11.048   4.284   1.203  1.00  0.00     0.167 HD
ATOM     68  C   UNL     1      13.325   4.903   2.757  1.00  0.00     0.074 A 
ATOM     69  C   UNL     1      14.615   4.782   3.403  1.00  0.00     0.031 C 
ATOM     70  C   UNL     1      12.562   6.022   2.785  1.00  0.00     0.037 A 
BRANCH  57  71
ATOM     71  C   UNL     1       7.246   5.491  -0.313  1.00  0.00     0.057 A 
ATOM     72  C   UNL     1       7.207   6.547  -1.233  1.00  0.00     0.134 A 
ATOM     73  C   UNL     1       6.029   5.074   0.242  1.00  0.00     0.134 A 
ATOM     74  F   UNL     1       8.336   7.001  -1.797  1.00  0.00    -0.206 F 
ATOM     75  C   UNL     1       6.005   7.166  -1.583  1.00  0.00     0.040 A 
ATOM     76  C   UNL     1       4.819   5.669  -0.118  1.00  0.00     0.040 A 
ATOM     77  F   UNL     1       5.996   4.058   1.119  1.00  0.00    -0.206 F 
ATOM     78  C   UNL     1       4.806   6.723  -1.029  1.00  0.00     0.006 A 
ENDBRANCH  57  71
BRANCH  58  79
ATOM     79  C   UNL     1      15.628   0.832   2.413  1.00  0.00     0.057 A 
ATOM     80  C   UNL     1      16.643   0.507   1.506  1.00  0.00     0.134 A 
ATOM     81  C   UNL     1      15.852   0.541   3.764  1.00  0.00     0.134 A 
ATOM     82  F   UNL     1      16.490   0.758   0.197  1.00  0.00    -0.206 F 
ATOM     83  C   UNL     1      17.837  -0.080   1.925  1.00  0.00     0.040 A 
ATOM     84  C   UNL     1      17.053  -0.019   4.201  1.00  0.00     0.040 A 
ATOM     85  F   UNL     1      14.925   0.849   4.683  1.00  0.00    -0.206 F 
ATOM     86  C   UNL     1      18.049  -0.333   3.279  1.00  0.00     0.006 A 
ENDBRANCH  58  79
BRANCH  70  87
ATOM     87  C   UNL     1      13.091   7.183   3.575  1.00  0.00     0.057 A 
ATOM     88  C   UNL     1      12.505   7.540   4.796  1.00  0.00     0.134 A 
ATOM     89  C   UNL     1      14.178   7.946   3.130  1.00  0.00     0.134 A 
ATOM     90  F   UNL     1      11.457   6.854   5.275  1.00  0.00    -0.206 F 
ATOM     91  C   UNL     1      12.986   8.611   5.550  1.00  0.00     0.040 A 
ATOM     92  C   UNL     1      14.685   9.003   3.889  1.00  0.00     0.040 A 
ATOM     93  F   UNL     1      14.794   7.645   1.977  1.00  0.00    -0.206 F 
ATOM     94  C   UNL     1      14.085   9.340   5.101  1.00  0.00     0.006 A 
ENDBRANCH  70  87
ENDBRANCH  44  45
ENDBRANCH  36  39
ENDBRANCH  34  35
ENDBRANCH  33  34
ENDBRANCH  32  33
ENDBRANCH   1  32
TORSDOF 15
