REMARK SMILES O=C1C[N@@H+](Cc2ccc(C(=O)NCCCCCCNC(=O)c3ccc(-c4c5nc(c(-c6c(F)cccc6F)c6ccc([nH]6)c(-c6c(F)cccc6F)c6nc(c(-c7c(F)cccc7F)c7ccc4[nH]7)C=C6)C=C5)cc3)cc2)CCN1
REMARK SMILES IDX 15 1 14 2 13 3 12 4 10 5 11 6 9 8 6 9 7 10 77 11 8 12 76 13
REMARK SMILES IDX 5 14 4 15 1 16 2 17 3 18 80 19 79 20 78 22 16 24 17 25 18 26
REMARK SMILES IDX 19 27 20 28 21 30 22 31 23 32 75 33 24 34 74 35 25 36 26 37
REMARK SMILES IDX 27 38 68 39 28 40 73 41 67 42 69 43 29 44 72 45 66 46 65 47
REMARK SMILES IDX 30 49 56 50 39 51 55 52 40 53 43 54 54 55 70 56 41 57 42 58
REMARK SMILES IDX 53 60 71 61 44 62 31 63 32 64 37 65 33 66 34 67 36 68 38 69
REMARK SMILES IDX 35 70 57 71 58 72 63 73 59 74 60 75 62 76 64 77 61 78 45 79
REMARK SMILES IDX 46 80 51 81 47 82 48 83 50 84 52 85 49 86
REMARK H PARENT 12 7 80 21 4 23 19 29 69 48 43 59
REMARK Flexibility Score: inf
ROOT
ATOM      1  C   UNL     1      -1.070   7.326   3.348  1.00  0.00     0.002 C 
ENDROOT
BRANCH   1   2
ATOM      2  C   UNL     1      -1.465   5.918   2.882  1.00  0.00     0.021 C 
BRANCH   2   3
ATOM      3  C   UNL     1      -0.265   5.024   2.566  1.00  0.00     0.116 C 
BRANCH   3   4
ATOM      4  N   UNL     1       0.408   4.636   3.793  1.00  0.00    -0.352 N 
ATOM      5  C   UNL     1       0.456   3.435   4.453  1.00  0.00     0.251 C 
ATOM      6  O   UNL     1       1.119   3.341   5.482  1.00  0.00    -0.269 OA
ATOM      7  H   UNL     1       0.917   5.360   4.225  1.00  0.00     0.163 HD
BRANCH   5   8
ATOM      8  C   UNL     1      -0.202   2.232   3.893  1.00  0.00     0.039 A 
ATOM      9  C   UNL     1      -1.194  -0.015   2.549  1.00  0.00     0.006 A 
ATOM     10  C   UNL     1       0.055  -0.065   3.183  1.00  0.00     0.010 A 
ATOM     11  C   UNL     1      -1.996   1.124   2.715  1.00  0.00     0.010 A 
ATOM     12  C   UNL     1       0.550   1.054   3.850  1.00  0.00     0.014 A 
ATOM     13  C   UNL     1      -1.505   2.241   3.393  1.00  0.00     0.014 A 
BRANCH   9  14
ATOM     14  C   UNL     1      -1.653  -1.150   1.668  1.00  0.00     0.299 C 
BRANCH  14  15
ATOM     15  N   UNL     1      -1.225  -1.112   0.267  1.00  0.00    -0.322 N 
ATOM     16  O   UNL     1       2.319  -0.223   0.192  1.00  0.00    -0.269 OA
ATOM     17  C   UNL     1       1.109  -0.154  -0.020  1.00  0.00     0.275 C 
ATOM     18  C   UNL     1       0.203  -1.387   0.032  1.00  0.00     0.363 C 
ATOM     19  N   UNL     1       0.566   1.030  -0.436  1.00  0.00    -0.346 N 
ATOM     20  C   UNL     1      -0.854   1.273  -0.520  1.00  0.00     0.177 C 
ATOM     21  H   UNL     1       1.178   1.758  -0.692  1.00  0.00     0.163 HD
ATOM     22  C   UNL     1      -1.713  -0.001  -0.550  1.00  0.00     0.284 C 
ATOM     23  H   UNL     1      -1.734  -1.923  -0.085  1.00  0.00     0.348 HD
ENDBRANCH  14  15
ENDBRANCH   9  14
ENDBRANCH   5   8
ENDBRANCH   3   4
ENDBRANCH   2   3
ENDBRANCH   1   2
BRANCH   1  24
ATOM     24  C   UNL     1      -0.326   8.165   2.303  1.00  0.00     0.002 C 
BRANCH  24  25
ATOM     25  C   UNL     1      -1.065   8.345   0.975  1.00  0.00     0.021 C 
BRANCH  25  26
ATOM     26  C   UNL     1      -2.428   9.018   1.099  1.00  0.00     0.116 C 
BRANCH  26  27
ATOM     27  N   UNL     1      -2.316  10.389   1.573  1.00  0.00    -0.352 N 
ATOM     28  C   UNL     1      -2.776  11.548   0.998  1.00  0.00     0.251 C 
ATOM     29  H   UNL     1      -1.842  10.502   2.428  1.00  0.00     0.163 HD
ATOM     30  O   UNL     1      -2.409  12.637   1.423  1.00  0.00    -0.269 OA
BRANCH  28  31
ATOM     31  C   UNL     1      -3.706  11.478  -0.148  1.00  0.00     0.039 A 
ATOM     32  C   UNL     1      -3.492  12.314  -1.246  1.00  0.00     0.014 A 
ATOM     33  C   UNL     1      -4.790  10.595  -0.135  1.00  0.00     0.014 A 
ATOM     34  C   UNL     1      -4.332  12.222  -2.358  1.00  0.00     0.010 A 
ATOM     35  C   UNL     1      -5.579  10.452  -1.272  1.00  0.00     0.010 A 
ATOM     36  C   UNL     1      -5.361  11.267  -2.393  1.00  0.00    -0.014 A 
BRANCH  36  37
ATOM     37  C   UNL     1      -6.220  11.105  -3.593  1.00  0.00     0.031 A 
ATOM     38  C   UNL     1      -7.696  11.379  -3.509  1.00  0.00     0.074 A 
ATOM     39  C   UNL     1      -5.682  10.650  -4.741  1.00  0.00     0.049 A 
ATOM     40  N   UNL     1      -8.619  11.229  -4.426  1.00  0.00    -0.248 NA
ATOM     41  C   UNL     1      -8.207  11.858  -2.216  1.00  0.00     0.031 C 
ATOM     42  C   UNL     1      -4.272  10.308  -4.938  1.00  0.00     0.029 A 
ATOM     43  N   UNL     1      -6.260  10.387  -5.957  1.00  0.00    -0.354 N 
ATOM     44  C   UNL     1      -9.816  11.585  -3.818  1.00  0.00     0.074 A 
ATOM     45  C   UNL     1      -9.512  11.900  -2.439  1.00  0.00     0.031 C 
ATOM     46  C   UNL     1      -4.090   9.906  -6.205  1.00  0.00     0.029 A 
ATOM     47  C   UNL     1      -5.374   9.920  -6.899  1.00  0.00     0.049 A 
ATOM     48  H   UNL     1      -7.218  10.520  -6.139  1.00  0.00     0.167 HD
ATOM     49  C   UNL     1     -11.052  11.666  -4.366  1.00  0.00     0.037 A 
ATOM     50  C   UNL     1      -5.576   9.539  -8.174  1.00  0.00     0.037 A 
ATOM     51  C   UNL     1     -11.347  11.367  -5.743  1.00  0.00     0.049 A 
ATOM     52  C   UNL     1      -6.962   9.614  -8.752  1.00  0.00     0.074 A 
ATOM     53  C   UNL     1     -12.557  11.468  -6.407  1.00  0.00     0.029 A 
ATOM     54  N   UNL     1     -10.422  10.902  -6.666  1.00  0.00    -0.354 N 
ATOM     55  N   UNL     1      -8.074  10.014  -8.184  1.00  0.00    -0.248 NA
ATOM     56  C   UNL     1      -7.120   9.190 -10.150  1.00  0.00     0.031 C 
ATOM     57  C   UNL     1     -12.376  11.015  -7.718  1.00  0.00     0.029 A 
ATOM     58  C   UNL     1     -11.040  10.686  -7.887  1.00  0.00     0.049 A 
ATOM     59  H   UNL     1      -9.467  10.749  -6.481  1.00  0.00     0.167 HD
ATOM     60  C   UNL     1      -9.056   9.920  -9.162  1.00  0.00     0.074 A 
ATOM     61  C   UNL     1      -8.405   9.437 -10.362  1.00  0.00     0.031 C 
ATOM     62  C   UNL     1     -10.377  10.209  -9.075  1.00  0.00     0.037 A 
BRANCH  49  63
ATOM     63  C   UNL     1     -12.179  12.095  -3.469  1.00  0.00     0.057 A 
ATOM     64  C   UNL     1     -12.271  13.400  -2.967  1.00  0.00     0.134 A 
ATOM     65  C   UNL     1     -13.198  11.199  -3.122  1.00  0.00     0.134 A 
ATOM     66  F   UNL     1     -11.323  14.306  -3.251  1.00  0.00    -0.206 F 
ATOM     67  C   UNL     1     -13.317  13.790  -2.128  1.00  0.00     0.040 A 
ATOM     68  C   UNL     1     -14.266  11.585  -2.308  1.00  0.00     0.040 A 
ATOM     69  F   UNL     1     -13.178   9.935  -3.571  1.00  0.00    -0.206 F 
ATOM     70  C   UNL     1     -14.322  12.882  -1.802  1.00  0.00     0.006 A 
ENDBRANCH  49  63
BRANCH  50  71
ATOM     71  C   UNL     1      -4.433   9.072  -8.999  1.00  0.00     0.057 A 
ATOM     72  C   UNL     1      -3.958   9.836 -10.072  1.00  0.00     0.134 A 
ATOM     73  C   UNL     1      -3.792   7.854  -8.743  1.00  0.00     0.134 A 
ATOM     74  F   UNL     1      -4.542  11.004 -10.378  1.00  0.00    -0.206 F 
ATOM     75  C   UNL     1      -2.901   9.399 -10.871  1.00  0.00     0.040 A 
ATOM     76  C   UNL     1      -2.717   7.416  -9.518  1.00  0.00     0.040 A 
ATOM     77  F   UNL     1      -4.193   7.078  -7.725  1.00  0.00    -0.206 F 
ATOM     78  C   UNL     1      -2.274   8.187 -10.591  1.00  0.00     0.006 A 
ENDBRANCH  50  71
BRANCH  62  79
ATOM     79  C   UNL     1     -11.201  10.048 -10.320  1.00  0.00     0.057 A 
ATOM     80  C   UNL     1     -11.520   8.788 -10.841  1.00  0.00     0.134 A 
ATOM     81  C   UNL     1     -11.716  11.171 -10.982  1.00  0.00     0.134 A 
ATOM     82  F   UNL     1     -11.049   7.673 -10.263  1.00  0.00    -0.206 F 
ATOM     83  C   UNL     1     -12.301   8.651 -11.990  1.00  0.00     0.040 A 
ATOM     84  C   UNL     1     -12.522  11.045 -12.114  1.00  0.00     0.040 A 
ATOM     85  F   UNL     1     -11.456  12.407 -10.531  1.00  0.00    -0.206 F 
ATOM     86  C   UNL     1     -12.811   9.782 -12.625  1.00  0.00     0.006 A 
ENDBRANCH  62  79
ENDBRANCH  36  37
ENDBRANCH  28  31
ENDBRANCH  26  27
ENDBRANCH  25  26
ENDBRANCH  24  25
ENDBRANCH   1  24
TORSDOF 15
