REMARK SMILES O=C(NCCCCCCNC(=O)[C@H]1SC=C[C@@H]1S(=O)(=O)NCCC1=c2ccccc2=NC1)c1ccc(-c2c3nc(c(-c4c(F)cccc4F)c4ccc([nH]4)c(-c4c(F)cccc4F)c4nc(c(-c5c(F)cccc5F)c5ccc2[nH]5)C=C4)C=C3)cc1
REMARK SMILES IDX 8 1 7 2 6 3 5 4 4 5 3 6 1 7 2 8 33 10 34 11 86 12 35 13
REMARK SMILES IDX 85 14 36 15 37 16 38 17 79 18 39 19 84 20 78 21 80 22 40 23
REMARK SMILES IDX 83 24 77 25 76 26 41 28 67 29 50 30 66 31 51 32 54 33 65 34
REMARK SMILES IDX 81 35 52 36 53 37 64 39 82 40 55 41 42 42 43 43 48 44 44 45
REMARK SMILES IDX 45 46 47 47 49 48 46 49 68 50 69 51 74 52 70 53 71 54 73 55
REMARK SMILES IDX 75 56 72 57 56 58 57 59 62 60 58 61 59 62 61 63 63 64 60 65
REMARK SMILES IDX 9 66 10 67 11 68 12 70 13 71 14 72 17 73 15 74 16 75 18 76
REMARK SMILES IDX 19 77 20 78 21 79 22 81 23 82 24 83 25 84 32 85 26 86 30 87
REMARK SMILES IDX 31 88 27 89 29 90 28 91
REMARK H PARENT 3 9 80 27 54 38 10 69 21 80
REMARK Flexibility Score: inf
ROOT
ATOM      1  C   UNL     1       6.505  -2.827   3.162  1.00  0.00     0.021 C 
ENDROOT
BRANCH   1   2
ATOM      2  C   UNL     1       4.972  -2.749   3.165  1.00  0.00     0.002 C 
BRANCH   2   3
ATOM      3  C   UNL     1       4.394  -1.354   3.417  1.00  0.00     0.002 C 
BRANCH   3   4
ATOM      4  C   UNL     1       4.863  -0.278   2.437  1.00  0.00     0.021 C 
BRANCH   4   5
ATOM      5  C   UNL     1       4.574  -0.592   0.973  1.00  0.00     0.116 C 
BRANCH   5   6
ATOM      6  N   UNL     1       3.148  -0.701   0.724  1.00  0.00    -0.352 N 
ATOM      7  O   UNL     1       1.132  -0.024  -0.008  1.00  0.00    -0.269 OA
ATOM      8  C   UNL     1       2.354   0.035  -0.114  1.00  0.00     0.251 C 
ATOM      9  H   UNL     1       2.685  -1.407   1.231  1.00  0.00     0.163 HD
BRANCH   8  10
ATOM     10  C   UNL     1       2.958   0.887  -1.160  1.00  0.00     0.039 A 
ATOM     11  C   UNL     1       2.373   2.125  -1.442  1.00  0.00     0.014 A 
ATOM     12  C   UNL     1       4.034   0.429  -1.927  1.00  0.00     0.014 A 
ATOM     13  C   UNL     1       2.857   2.899  -2.499  1.00  0.00     0.010 A 
ATOM     14  C   UNL     1       4.561   1.232  -2.934  1.00  0.00     0.010 A 
ATOM     15  C   UNL     1       3.948   2.452  -3.259  1.00  0.00    -0.014 A 
BRANCH  15  16
ATOM     16  C   UNL     1       4.379   3.170  -4.485  1.00  0.00     0.031 A 
ATOM     17  C   UNL     1       4.199   2.498  -5.822  1.00  0.00     0.074 A 
ATOM     18  C   UNL     1       4.953   4.385  -4.407  1.00  0.00     0.049 A 
ATOM     19  N   UNL     1       4.616   2.873  -7.003  1.00  0.00    -0.248 NA
ATOM     20  C   UNL     1       3.467   1.219  -5.824  1.00  0.00     0.031 C 
ATOM     21  C   UNL     1       5.172   5.145  -3.177  1.00  0.00     0.029 A 
ATOM     22  N   UNL     1       5.473   5.187  -5.392  1.00  0.00    -0.354 N 
ATOM     23  C   UNL     1       4.228   1.865  -7.878  1.00  0.00     0.074 A 
ATOM     24  C   UNL     1       3.575   0.845  -7.090  1.00  0.00     0.031 C 
ATOM     25  C   UNL     1       5.778   6.306  -3.481  1.00  0.00     0.029 A 
ATOM     26  C   UNL     1       6.036   6.348  -4.918  1.00  0.00     0.049 A 
ATOM     27  H   UNL     1       5.446   4.953  -6.348  1.00  0.00     0.167 HD
ATOM     28  C   UNL     1       4.388   1.802  -9.220  1.00  0.00     0.037 A 
ATOM     29  C   UNL     1       6.710   7.316  -5.569  1.00  0.00     0.037 A 
ATOM     30  C   UNL     1       5.002   2.838 -10.006  1.00  0.00     0.049 A 
ATOM     31  C   UNL     1       6.921   7.190  -7.056  1.00  0.00     0.074 A 
ATOM     32  C   UNL     1       5.156   2.898 -11.380  1.00  0.00     0.029 A 
ATOM     33  N   UNL     1       5.564   3.993  -9.486  1.00  0.00    -0.354 N 
ATOM     34  N   UNL     1       6.505   6.258  -7.879  1.00  0.00    -0.248 NA
ATOM     35  C   UNL     1       7.703   8.253  -7.707  1.00  0.00     0.031 C 
ATOM     36  C   UNL     1       5.870   4.060 -11.686  1.00  0.00     0.029 A 
ATOM     37  C   UNL     1       6.101   4.754 -10.510  1.00  0.00     0.049 A 
ATOM     38  H   UNL     1       5.581   4.234  -8.532  1.00  0.00     0.167 HD
ATOM     39  C   UNL     1       6.938   6.643  -9.143  1.00  0.00     0.074 A 
ATOM     40  C   UNL     1       7.639   7.898  -8.981  1.00  0.00     0.031 C 
ATOM     41  C   UNL     1       6.770   6.016 -10.332  1.00  0.00     0.037 A 
BRANCH  28  42
ATOM     42  C   UNL     1       3.910   0.568  -9.928  1.00  0.00     0.057 A 
ATOM     43  C   UNL     1       4.831  -0.314 -10.510  1.00  0.00     0.134 A 
ATOM     44  C   UNL     1       2.550   0.277 -10.086  1.00  0.00     0.134 A 
ATOM     45  F   UNL     1       6.149  -0.092 -10.402  1.00  0.00    -0.206 F 
ATOM     46  C   UNL     1       4.415  -1.435 -11.230  1.00  0.00     0.040 A 
ATOM     47  C   UNL     1       2.121  -0.857 -10.778  1.00  0.00     0.040 A 
ATOM     48  F   UNL     1       1.616   1.074  -9.544  1.00  0.00    -0.206 F 
ATOM     49  C   UNL     1       3.056  -1.711 -11.361  1.00  0.00     0.006 A 
ENDBRANCH  28  42
BRANCH  29  50
ATOM     50  C   UNL     1       7.271   8.480  -4.834  1.00  0.00     0.057 A 
ATOM     51  C   UNL     1       8.329   8.332  -3.928  1.00  0.00     0.134 A 
ATOM     52  C   UNL     1       6.817   9.781  -5.083  1.00  0.00     0.134 A 
ATOM     53  F   UNL     1       8.809   7.113  -3.639  1.00  0.00    -0.206 F 
ATOM     54  C   UNL     1       8.922   9.433  -3.308  1.00  0.00     0.040 A 
ATOM     55  C   UNL     1       7.423  10.894  -4.496  1.00  0.00     0.040 A 
ATOM     56  F   UNL     1       5.821   9.993  -5.956  1.00  0.00    -0.206 F 
ATOM     57  C   UNL     1       8.481  10.720  -3.606  1.00  0.00     0.006 A 
ENDBRANCH  29  50
BRANCH  41  58
ATOM     58  C   UNL     1       7.295   6.702 -11.560  1.00  0.00     0.057 A 
ATOM     59  C   UNL     1       6.409   7.225 -12.511  1.00  0.00     0.134 A 
ATOM     60  C   UNL     1       8.665   6.796 -11.832  1.00  0.00     0.134 A 
ATOM     61  F   UNL     1       5.083   7.158 -12.316  1.00  0.00    -0.206 F 
ATOM     62  C   UNL     1       6.866   7.806 -13.693  1.00  0.00     0.040 A 
ATOM     63  C   UNL     1       9.136   7.404 -12.997  1.00  0.00     0.040 A 
ATOM     64  F   UNL     1       9.567   6.327 -10.956  1.00  0.00    -0.206 F 
ATOM     65  C   UNL     1       8.234   7.902 -13.936  1.00  0.00     0.006 A 
ENDBRANCH  41  58
ENDBRANCH  15  16
ENDBRANCH   8  10
ENDBRANCH   5   6
ENDBRANCH   4   5
ENDBRANCH   3   4
ENDBRANCH   2   3
ENDBRANCH   1   2
BRANCH   1  66
ATOM     66  C   UNL     1       7.176  -2.270   4.418  1.00  0.00     0.116 C 
BRANCH  66  67
ATOM     67  N   UNL     1       6.681  -2.928   5.614  1.00  0.00    -0.355 N 
ATOM     68  C   UNL     1       7.339  -3.579   6.612  1.00  0.00     0.235 C 
ATOM     69  H   UNL     1       5.702  -2.899   5.721  1.00  0.00     0.163 HD
ATOM     70  O   UNL     1       6.648  -4.152   7.456  1.00  0.00    -0.274 OA
BRANCH  68  71
ATOM     71  C   UNL     1       8.860  -3.630   6.601  1.00  0.00     0.163 C 
ATOM     72  S   UNL     1       9.517  -3.490   8.320  1.00  0.00    -0.119 SA
ATOM     73  C   UNL     1       9.284  -5.016   6.116  1.00  0.00     0.170 C 
ATOM     74  C   UNL     1       9.657  -5.204   8.490  1.00  0.00     0.038 C 
ATOM     75  C   UNL     1       9.527  -5.869   7.338  1.00  0.00     0.002 C 
BRANCH  73  76
ATOM     76  S   UNL     1      10.756  -4.920   5.067  1.00  0.00     0.219 S 
ATOM     77  O   UNL     1      10.531  -5.759   3.914  1.00  0.00    -0.212 OA
ATOM     78  O   UNL     1      11.113  -3.525   4.889  1.00  0.00    -0.212 OA
BRANCH  76  79
ATOM     79  N   UNL     1      12.008  -5.558   5.965  1.00  0.00    -0.214 NA
ATOM     80  H   UNL     1      11.807  -5.306   6.933  1.00  0.00     0.141 HD
BRANCH  79  81
ATOM     81  C   UNL     1      12.367  -6.975   5.995  1.00  0.00     0.103 C 
BRANCH  81  82
ATOM     82  C   UNL     1      12.854  -7.562   4.669  1.00  0.00     0.050 C 
BRANCH  82  83
ATOM     83  C   UNL     1      14.110  -7.060   4.007  1.00  0.00    -0.038 C 
ATOM     84  C   UNL     1      14.765  -5.897   3.991  1.00  0.00     0.001 A 
ATOM     85  C   UNL     1      14.812  -8.056   3.119  1.00  0.00     0.174 C 
ATOM     86  C   UNL     1      14.606  -4.586   4.538  1.00  0.00     0.010 A 
ATOM     87  C   UNL     1      15.915  -6.188   3.106  1.00  0.00     0.065 A 
ATOM     88  N   UNL     1      16.008  -7.375   2.592  1.00  0.00    -0.280 NA
ATOM     89  C   UNL     1      15.512  -3.632   4.273  1.00  0.00     0.001 A 
ATOM     90  C   UNL     1      16.886  -5.095   2.878  1.00  0.00     0.028 A 
ATOM     91  C   UNL     1      16.671  -3.899   3.448  1.00  0.00     0.002 A 
ENDBRANCH  82  83
ENDBRANCH  81  82
ENDBRANCH  79  81
ENDBRANCH  76  79
ENDBRANCH  73  76
ENDBRANCH  68  71
ENDBRANCH  66  67
ENDBRANCH   1  66
TORSDOF 18
