REMARK SMILES CN1C(=O)C[C@@H](C(=O)NCCCCCCNC(=O)c2ccc(-c3c4nc(c(-c5c(F)cccc5F)c5ccc([nH]5)c(-c5c(F)cccc5F)c5nc(c(-c6c(F)cccc6F)c6ccc3[nH]6)C=C5)C=C4)cc2)C12CC[NH+](CCSc1ccccc1)CC2
REMARK SMILES IDX 11 1 10 2 9 3 7 4 8 5 6 7 1 8 2 9 3 10 73 11 4 12 5 13 74 14
REMARK SMILES IDX 87 15 75 16 86 17 76 18 77 20 78 21 79 22 80 23 81 24 85 25
REMARK SMILES IDX 82 26 84 27 83 28 12 29 13 30 14 31 15 32 16 33 17 34 18 36
REMARK SMILES IDX 19 37 20 38 72 39 21 40 71 41 22 42 23 43 24 44 65 45 25 46
REMARK SMILES IDX 70 47 64 48 66 49 26 50 69 51 63 52 62 53 27 55 53 56 36 57
REMARK SMILES IDX 52 58 37 59 40 60 51 61 67 62 38 63 39 64 50 66 68 67 41 68
REMARK SMILES IDX 28 69 29 70 34 71 30 72 31 73 33 74 35 75 32 76 54 77 55 78
REMARK SMILES IDX 60 79 56 80 57 81 59 82 61 83 58 84 42 85 43 86 48 87 44 88
REMARK SMILES IDX 45 89 47 90 49 91 46 92
REMARK H PARENT 9 6 76 19 16 35 66 54 40 65
REMARK Flexibility Score: inf
ROOT
ATOM      1  C   UNL     1      -3.528   0.350   0.524  1.00  0.00     0.021 C 
ENDROOT
BRANCH   1   2
ATOM      2  C   UNL     1      -3.021   0.951   1.823  1.00  0.00     0.116 C 
BRANCH   2   3
ATOM      3  N   UNL     1      -3.258   0.073   2.938  1.00  0.00    -0.356 N 
ATOM      4  C   UNL     1      -2.393  -0.687   3.641  1.00  0.00     0.226 C 
ATOM      5  O   UNL     1      -2.857  -1.418   4.521  1.00  0.00    -0.275 OA
ATOM      6  H   UNL     1      -4.196   0.018   3.233  1.00  0.00     0.163 HD
BRANCH   4   7
ATOM      7  C   UNL     1      -0.908  -0.667   3.388  1.00  0.00     0.114 C 
ATOM      8  C   UNL     1       0.610  -0.102  -0.040  1.00  0.00     0.147 C 
ATOM      9  N   UNL     1       0.051  -0.091   1.305  1.00  0.00    -0.339 N 
ATOM     10  C   UNL     1       0.294   1.008   2.127  1.00  0.00     0.223 C 
ATOM     11  C   UNL     1      -0.356  -1.293   2.076  1.00  0.00     0.065 C 
ATOM     12  O   UNL     1       0.838   2.050   1.798  1.00  0.00    -0.275 OA
ATOM     13  C   UNL     1      -0.243   0.715   3.504  1.00  0.00     0.116 C 
ATOM     14  C   UNL     1      -1.253  -2.273   1.268  1.00  0.00     0.091 C 
ATOM     15  C   UNL     1       0.910  -2.007   2.525  1.00  0.00     0.091 C 
ATOM     16  C   UNL     1      -1.120  -3.781   1.544  1.00  0.00     0.264 C 
ATOM     17  C   UNL     1       0.644  -3.405   3.047  1.00  0.00     0.264 C 
ATOM     18  N   UNL     1       0.190  -4.236   1.974  1.00  0.00    -0.334 N 
ATOM     19  H   UNL     1       0.021  -5.188   2.300  1.00  0.00     0.348 HD
BRANCH  18  20
ATOM     20  C   UNL     1       1.212  -4.643   0.997  1.00  0.00     0.273 C 
BRANCH  20  21
ATOM     21  C   UNL     1       2.591  -3.918   0.735  1.00  0.00     0.136 C 
BRANCH  21  22
ATOM     22  S   UNL     1       4.094  -3.943   1.889  1.00  0.00    -0.120 SA
BRANCH  22  23
ATOM     23  C   UNL     1       3.806  -2.886   3.316  1.00  0.00     0.007 A 
ATOM     24  C   UNL     1       3.893  -1.485   3.314  1.00  0.00     0.015 A 
ATOM     25  C   UNL     1       3.474  -3.517   4.527  1.00  0.00     0.015 A 
ATOM     26  C   UNL     1       3.485  -0.744   4.446  1.00  0.00     0.001 A 
ATOM     27  C   UNL     1       3.011  -2.785   5.628  1.00  0.00     0.001 A 
ATOM     28  C   UNL     1       2.992  -1.396   5.579  1.00  0.00     0.000 A 
ENDBRANCH  22  23
ENDBRANCH  21  22
ENDBRANCH  20  21
ENDBRANCH  18  20
ENDBRANCH   4   7
ENDBRANCH   2   3
ENDBRANCH   1   2
BRANCH   1  29
ATOM     29  C   UNL     1      -5.050   0.367   0.450  1.00  0.00     0.002 C 
BRANCH  29  30
ATOM     30  C   UNL     1      -5.626   1.779   0.574  1.00  0.00     0.002 C 
BRANCH  30  31
ATOM     31  C   UNL     1      -4.956   2.790  -0.361  1.00  0.00     0.021 C 
BRANCH  31  32
ATOM     32  C   UNL     1      -4.949   2.335  -1.814  1.00  0.00     0.116 C 
BRANCH  32  33
ATOM     33  N   UNL     1      -6.306   2.097  -2.277  1.00  0.00    -0.352 N 
ATOM     34  C   UNL     1      -6.966   2.759  -3.272  1.00  0.00     0.251 C 
ATOM     35  H   UNL     1      -6.804   1.380  -1.823  1.00  0.00     0.163 HD
ATOM     36  O   UNL     1      -8.191   2.721  -3.365  1.00  0.00    -0.269 OA
BRANCH  34  37
ATOM     37  C   UNL     1      -6.155   3.514  -4.236  1.00  0.00     0.039 A 
ATOM     38  C   UNL     1      -6.459   4.848  -4.497  1.00  0.00     0.014 A 
ATOM     39  C   UNL     1      -5.047   2.892  -4.822  1.00  0.00     0.014 A 
ATOM     40  C   UNL     1      -5.623   5.578  -5.339  1.00  0.00     0.010 A 
ATOM     41  C   UNL     1      -4.175   3.642  -5.593  1.00  0.00     0.010 A 
ATOM     42  C   UNL     1      -4.468   4.985  -5.875  1.00  0.00    -0.014 A 
BRANCH  42  43
ATOM     43  C   UNL     1      -3.560   5.730  -6.777  1.00  0.00     0.031 A 
ATOM     44  C   UNL     1      -3.385   5.255  -8.193  1.00  0.00     0.074 A 
ATOM     45  C   UNL     1      -2.840   6.764  -6.301  1.00  0.00     0.049 A 
ATOM     46  N   UNL     1      -2.547   5.671  -9.105  1.00  0.00    -0.248 NA
ATOM     47  C   UNL     1      -4.245   4.141  -8.632  1.00  0.00     0.031 C 
ATOM     48  C   UNL     1      -2.901   7.286  -4.934  1.00  0.00     0.029 A 
ATOM     49  N   UNL     1      -1.897   7.549  -6.914  1.00  0.00    -0.354 N 
ATOM     50  C   UNL     1      -2.757   4.854 -10.208  1.00  0.00     0.074 A 
ATOM     51  C   UNL     1      -3.769   3.890  -9.842  1.00  0.00     0.031 C 
ATOM     52  C   UNL     1      -2.040   8.310  -4.816  1.00  0.00     0.029 A 
ATOM     53  C   UNL     1      -1.334   8.486  -6.081  1.00  0.00     0.049 A 
ATOM     54  H   UNL     1      -1.647   7.450  -7.862  1.00  0.00     0.167 HD
ATOM     55  C   UNL     1      -2.168   4.917 -11.424  1.00  0.00     0.037 A 
ATOM     56  C   UNL     1      -0.343   9.368  -6.311  1.00  0.00     0.037 A 
ATOM     57  C   UNL     1      -1.196   5.909 -11.793  1.00  0.00     0.049 A 
ATOM     58  C   UNL     1       0.296   9.408  -7.675  1.00  0.00     0.074 A 
ATOM     59  C   UNL     1      -0.601   6.111 -13.025  1.00  0.00     0.029 A 
ATOM     60  N   UNL     1      -0.679   6.865 -10.933  1.00  0.00    -0.354 N 
ATOM     61  N   UNL     1       0.031   8.682  -8.735  1.00  0.00    -0.248 NA
ATOM     62  C   UNL     1       1.370  10.391  -7.877  1.00  0.00     0.031 C 
ATOM     63  C   UNL     1       0.321   7.151 -12.896  1.00  0.00     0.029 A 
ATOM     64  C   UNL     1       0.252   7.640 -11.601  1.00  0.00     0.049 A 
ATOM     65  H   UNL     1      -0.934   6.975  -9.988  1.00  0.00     0.167 HD
ATOM     66  C   UNL     1       0.871   9.151  -9.736  1.00  0.00     0.074 A 
ATOM     67  C   UNL     1       1.649  10.227  -9.161  1.00  0.00     0.031 C 
ATOM     68  C   UNL     1       0.989   8.730 -11.019  1.00  0.00     0.037 A 
BRANCH  55  69
ATOM     69  C   UNL     1      -2.552   3.893 -12.450  1.00  0.00     0.057 A 
ATOM     70  C   UNL     1      -3.804   3.905 -13.078  1.00  0.00     0.134 A 
ATOM     71  C   UNL     1      -1.623   2.935 -12.876  1.00  0.00     0.134 A 
ATOM     72  F   UNL     1      -4.743   4.788 -12.707  1.00  0.00    -0.206 F 
ATOM     73  C   UNL     1      -4.121   2.994 -14.087  1.00  0.00     0.040 A 
ATOM     74  C   UNL     1      -1.918   2.038 -13.902  1.00  0.00     0.040 A 
ATOM     75  F   UNL     1      -0.405   2.872 -12.317  1.00  0.00    -0.206 F 
ATOM     76  C   UNL     1      -3.171   2.066 -14.511  1.00  0.00     0.006 A 
ENDBRANCH  55  69
BRANCH  56  77
ATOM     77  C   UNL     1       0.122  10.284  -5.237  1.00  0.00     0.057 A 
ATOM     78  C   UNL     1      -0.050  11.670  -5.342  1.00  0.00     0.134 A 
ATOM     79  C   UNL     1       0.800   9.805  -4.109  1.00  0.00     0.134 A 
ATOM     80  F   UNL     1      -0.677  12.193  -6.406  1.00  0.00    -0.206 F 
ATOM     81  C   UNL     1       0.474  12.548  -4.391  1.00  0.00     0.040 A 
ATOM     82  C   UNL     1       1.300  10.670  -3.134  1.00  0.00     0.040 A 
ATOM     83  F   UNL     1       0.989   8.488  -3.940  1.00  0.00    -0.206 F 
ATOM     84  C   UNL     1       1.151  12.047  -3.282  1.00  0.00     0.006 A 
ENDBRANCH  56  77
BRANCH  68  85
ATOM     85  C   UNL     1       1.940   9.473 -11.910  1.00  0.00     0.057 A 
ATOM     86  C   UNL     1       3.328   9.358 -11.779  1.00  0.00     0.134 A 
ATOM     87  C   UNL     1       1.450  10.261 -12.962  1.00  0.00     0.134 A 
ATOM     88  F   UNL     1       3.860   8.629 -10.787  1.00  0.00    -0.206 F 
ATOM     89  C   UNL     1       4.198  10.014 -12.652  1.00  0.00     0.040 A 
ATOM     90  C   UNL     1       2.308  10.895 -13.859  1.00  0.00     0.040 A 
ATOM     91  F   UNL     1       0.129  10.402 -13.149  1.00  0.00    -0.206 F 
ATOM     92  C   UNL     1       3.687  10.775 -13.703  1.00  0.00     0.006 A 
ENDBRANCH  68  85
ENDBRANCH  42  43
ENDBRANCH  34  37
ENDBRANCH  32  33
ENDBRANCH  31  32
ENDBRANCH  30  31
ENDBRANCH  29  30
ENDBRANCH   1  29
TORSDOF 17
