REMARK SMILES COc1ccc(-c2nc(SCC(=O)NCCCCCCNC(=O)c3ccc(-c4c5nc(c(-c6c(F)cccc6F)c6ccc([nH]6)c(-c6c(F)cccc6F)c6nc(c(-c7c(F)cccc7F)c7ccc4[nH]7)C=C6)C=C5)cc3)cc(-c3ccncc3)n2)cc1
REMARK SMILES IDX 16 1 15 2 14 3 12 4 13 5 11 7 10 8 9 9 7 10 8 11 86 12 79 13
REMARK SMILES IDX 78 14 6 15 3 16 4 17 88 18 5 19 87 20 2 21 1 22 80 23 81 24
REMARK SMILES IDX 85 25 82 26 84 27 83 28 17 29 18 30 19 31 20 32 21 33 22 34
REMARK SMILES IDX 23 36 24 37 25 38 77 39 26 40 76 41 27 42 28 43 29 44 70 45
REMARK SMILES IDX 30 46 75 47 69 48 71 49 31 50 74 51 68 52 67 53 32 55 58 56
REMARK SMILES IDX 41 57 57 58 42 59 45 60 56 61 72 62 43 63 44 64 55 66 73 67
REMARK SMILES IDX 46 68 33 69 34 70 39 71 35 72 36 73 38 74 40 75 37 76 59 77
REMARK SMILES IDX 60 78 65 79 61 80 62 81 64 82 66 83 63 84 47 85 48 86 53 87
REMARK SMILES IDX 49 88 50 89 52 90 54 91 51 92
REMARK H PARENT 14 6 21 35 71 54 45 65
REMARK Flexibility Score: inf
ROOT
ATOM      1  C   UNL     1       2.848   3.496  -9.086  1.00  0.00     0.021 C 
ENDROOT
BRANCH   1   2
ATOM      2  C   UNL     1       2.438   3.112 -10.509  1.00  0.00     0.116 C 
BRANCH   2   3
ATOM      3  N   UNL     1       3.240   2.006 -10.989  1.00  0.00    -0.355 N 
ATOM      4  C   UNL     1       2.892   0.710 -11.202  1.00  0.00     0.230 C 
ATOM      5  O   UNL     1       3.795  -0.086 -11.478  1.00  0.00    -0.274 OA
ATOM      6  H   UNL     1       4.178   2.225 -11.191  1.00  0.00     0.163 HD
BRANCH   4   7
ATOM      7  C   UNL     1       1.441   0.266 -11.187  1.00  0.00     0.176 C 
BRANCH   7   8
ATOM      8  S   UNL     1       0.635   0.299  -9.557  1.00  0.00    -0.096 SA
BRANCH   8   9
ATOM      9  C   UNL     1       1.645  -0.715  -8.505  1.00  0.00     0.101 A 
ATOM     10  C   UNL     1       2.078  -1.295  -6.323  1.00  0.00     0.161 A 
ATOM     11  N   UNL     1       1.345  -0.589  -7.200  1.00  0.00    -0.222 NA
ATOM     12  N   UNL     1       3.102  -2.099  -6.650  1.00  0.00    -0.228 NA
ATOM     13  C   UNL     1       3.362  -2.220  -7.966  1.00  0.00     0.076 A 
ATOM     14  C   UNL     1       2.631  -1.564  -8.937  1.00  0.00     0.064 A 
BRANCH  10  15
ATOM     15  C   UNL     1       1.701  -1.196  -4.909  1.00  0.00     0.019 A 
ATOM     16  C   UNL     1       0.945  -0.986  -2.192  1.00  0.00     0.118 A 
ATOM     17  C   UNL     1      -0.005  -1.293  -3.164  1.00  0.00     0.047 A 
ATOM     18  C   UNL     1       2.276  -0.808  -2.564  1.00  0.00     0.047 A 
ATOM     19  C   UNL     1       0.365  -1.377  -4.510  1.00  0.00     0.016 A 
ATOM     20  C   UNL     1       2.650  -0.920  -3.911  1.00  0.00     0.016 A 
BRANCH  16  21
ATOM     21  O   UNL     1       0.481  -0.943  -0.905  1.00  0.00    -0.497 OA
ATOM     22  C   UNL     1       1.081   0.056  -0.087  1.00  0.00     0.278 C 
ENDBRANCH  16  21
ENDBRANCH  10  15
BRANCH  13  23
ATOM     23  C   UNL     1       4.467  -3.105  -8.340  1.00  0.00     0.003 A 
ATOM     24  C   UNL     1       5.587  -2.608  -9.020  1.00  0.00     0.030 A 
ATOM     25  C   UNL     1       4.407  -4.477  -8.083  1.00  0.00     0.030 A 
ATOM     26  C   UNL     1       6.574  -3.494  -9.418  1.00  0.00     0.111 A 
ATOM     27  C   UNL     1       5.440  -5.284  -8.531  1.00  0.00     0.111 A 
ATOM     28  N   UNL     1       6.521  -4.823  -9.195  1.00  0.00    -0.265 NA
ENDBRANCH  13  23
ENDBRANCH   8   9
ENDBRANCH   7   8
ENDBRANCH   4   7
ENDBRANCH   2   3
ENDBRANCH   1   2
BRANCH   1  29
ATOM     29  C   UNL     1       4.283   4.034  -8.967  1.00  0.00     0.002 C 
BRANCH  29  30
ATOM     30  C   UNL     1       4.600   5.254  -9.838  1.00  0.00     0.002 C 
BRANCH  30  31
ATOM     31  C   UNL     1       3.660   6.446  -9.651  1.00  0.00     0.021 C 
BRANCH  31  32
ATOM     32  C   UNL     1       3.603   6.997  -8.230  1.00  0.00     0.116 C 
BRANCH  32  33
ATOM     33  N   UNL     1       4.875   7.559  -7.804  1.00  0.00    -0.352 N 
ATOM     34  C   UNL     1       5.144   8.793  -7.271  1.00  0.00     0.251 C 
ATOM     35  H   UNL     1       5.655   6.968  -7.914  1.00  0.00     0.163 HD
ATOM     36  O   UNL     1       6.310   9.165  -7.134  1.00  0.00    -0.269 OA
BRANCH  34  37
ATOM     37  C   UNL     1       4.037   9.693  -6.883  1.00  0.00     0.039 A 
ATOM     38  C   UNL     1       4.109  11.043  -7.236  1.00  0.00     0.014 A 
ATOM     39  C   UNL     1       2.936   9.211  -6.170  1.00  0.00     0.014 A 
ATOM     40  C   UNL     1       3.047  11.896  -6.930  1.00  0.00     0.010 A 
ATOM     41  C   UNL     1       1.847  10.046  -5.928  1.00  0.00     0.010 A 
ATOM     42  C   UNL     1       1.892  11.397  -6.305  1.00  0.00    -0.014 A 
BRANCH  42  43
ATOM     43  C   UNL     1       0.720  12.272  -6.050  1.00  0.00     0.031 A 
ATOM     44  C   UNL     1       0.280  12.564  -4.643  1.00  0.00     0.074 A 
ATOM     45  C   UNL     1       0.012  12.754  -7.090  1.00  0.00     0.049 A 
ATOM     46  N   UNL     1      -0.747  13.261  -4.225  1.00  0.00    -0.248 NA
ATOM     47  C   UNL     1       1.086  11.976  -3.562  1.00  0.00     0.031 C 
ATOM     48  C   UNL     1       0.306  12.504  -8.502  1.00  0.00     0.029 A 
ATOM     49  N   UNL     1      -1.106  13.549  -7.120  1.00  0.00    -0.354 N 
ATOM     50  C   UNL     1      -0.717  13.184  -2.838  1.00  0.00     0.074 A 
ATOM     51  C   UNL     1       0.397  12.330  -2.487  1.00  0.00     0.031 C 
ATOM     52  C   UNL     1      -0.592  13.152  -9.260  1.00  0.00     0.029 A 
ATOM     53  C   UNL     1      -1.547  13.832  -8.390  1.00  0.00     0.049 A 
ATOM     54  H   UNL     1      -1.550  13.885  -6.308  1.00  0.00     0.167 HD
ATOM     55  C   UNL     1      -1.530  13.788  -1.939  1.00  0.00     0.037 A 
ATOM     56  C   UNL     1      -2.604  14.554  -8.808  1.00  0.00     0.037 A 
ATOM     57  C   UNL     1      -2.627  14.652  -2.290  1.00  0.00     0.049 A 
ATOM     58  C   UNL     1      -3.497  15.206  -7.790  1.00  0.00     0.074 A 
ATOM     59  C   UNL     1      -3.470  15.360  -1.451  1.00  0.00     0.029 A 
ATOM     60  N   UNL     1      -3.036  14.922  -3.588  1.00  0.00    -0.354 N 
ATOM     61  N   UNL     1      -3.415  15.183  -6.482  1.00  0.00    -0.248 NA
ATOM     62  C   UNL     1      -4.628  15.989  -8.308  1.00  0.00     0.031 C 
ATOM     63  C   UNL     1      -4.418  16.021  -2.240  1.00  0.00     0.029 A 
ATOM     64  C   UNL     1      -4.135  15.765  -3.572  1.00  0.00     0.049 A 
ATOM     65  H   UNL     1      -2.608  14.566  -4.400  1.00  0.00     0.167 HD
ATOM     66  C   UNL     1      -4.464  15.968  -6.021  1.00  0.00     0.074 A 
ATOM     67  C   UNL     1      -5.160  16.464  -7.190  1.00  0.00     0.031 C 
ATOM     68  C   UNL     1      -4.818  16.253  -4.744  1.00  0.00     0.037 A 
BRANCH  55  69
ATOM     69  C   UNL     1      -1.261  13.533  -0.484  1.00  0.00     0.057 A 
ATOM     70  C   UNL     1      -0.127  14.046   0.160  1.00  0.00     0.134 A 
ATOM     71  C   UNL     1      -2.159  12.788   0.291  1.00  0.00     0.134 A 
ATOM     72  F   UNL     1       0.780  14.758  -0.526  1.00  0.00    -0.206 F 
ATOM     73  C   UNL     1       0.119  13.803   1.512  1.00  0.00     0.040 A 
ATOM     74  C   UNL     1      -1.939  12.563   1.651  1.00  0.00     0.040 A 
ATOM     75  F   UNL     1      -3.269  12.273  -0.259  1.00  0.00    -0.206 F 
ATOM     76  C   UNL     1      -0.792  13.065   2.264  1.00  0.00     0.006 A 
ENDBRANCH  55  69
BRANCH  56  77
ATOM     77  C   UNL     1      -2.860  14.719 -10.260  1.00  0.00     0.057 A 
ATOM     78  C   UNL     1      -2.667  15.954 -10.890  1.00  0.00     0.134 A 
ATOM     79  C   UNL     1      -3.303  13.653 -11.053  1.00  0.00     0.134 A 
ATOM     80  F   UNL     1      -2.262  17.017 -10.179  1.00  0.00    -0.206 F 
ATOM     81  C   UNL     1      -2.920  16.129 -12.251  1.00  0.00     0.040 A 
ATOM     82  C   UNL     1      -3.535  13.807 -12.420  1.00  0.00     0.040 A 
ATOM     83  F   UNL     1      -3.499  12.442 -10.511  1.00  0.00    -0.206 F 
ATOM     84  C   UNL     1      -3.350  15.051 -13.022  1.00  0.00     0.006 A 
ENDBRANCH  56  77
BRANCH  68  85
ATOM     85  C   UNL     1      -5.993  17.165  -4.545  1.00  0.00     0.057 A 
ATOM     86  C   UNL     1      -7.305  16.748  -4.798  1.00  0.00     0.134 A 
ATOM     87  C   UNL     1      -5.810  18.467  -4.060  1.00  0.00     0.134 A 
ATOM     88  F   UNL     1      -7.548  15.518  -5.277  1.00  0.00    -0.206 F 
ATOM     89  C   UNL     1      -8.393  17.601  -4.600  1.00  0.00     0.040 A 
ATOM     90  C   UNL     1      -6.891  19.319  -3.831  1.00  0.00     0.040 A 
ATOM     91  F   UNL     1      -4.579  18.926  -3.788  1.00  0.00    -0.206 F 
ATOM     92  C   UNL     1      -8.186  18.889  -4.108  1.00  0.00     0.006 A 
ENDBRANCH  68  85
ENDBRANCH  42  43
ENDBRANCH  34  37
ENDBRANCH  32  33
ENDBRANCH  31  32
ENDBRANCH  30  31
ENDBRANCH  29  30
ENDBRANCH   1  29
TORSDOF 18
