REMARK SMILES O=C(NCCCCCCNC(=O)c1ncc2ccccc2n1)c1ccc(-c2c3nc(c(-c4c(F)cccc4F)c4ccc([nH]4)c(-c4c(F)cccc4F)c4nc(c(-c5c(F)cccc5F)c5ccc2[nH]5)C=C4)C=C3)cc1
REMARK SMILES IDX 5 1 4 2 3 3 1 4 2 5 23 7 24 8 76 9 25 10 75 11 26 12 27 13
REMARK SMILES IDX 28 14 69 15 29 16 74 17 68 18 70 19 30 20 73 21 67 22 66 23
REMARK SMILES IDX 31 25 57 26 40 27 56 28 41 29 44 30 55 31 71 32 42 33 43 34
REMARK SMILES IDX 54 36 72 37 45 38 32 39 33 40 38 41 34 42 35 43 37 44 39 45
REMARK SMILES IDX 36 46 58 47 59 48 64 49 60 50 61 51 63 52 65 53 62 54 46 55
REMARK SMILES IDX 47 56 52 57 48 58 49 59 51 60 53 61 50 62 6 63 7 64 8 65
REMARK SMILES IDX 9 66 10 67 11 68 12 70 13 71 14 72 22 73 15 74 21 75 16 76
REMARK SMILES IDX 20 77 17 78 19 79 18 80
REMARK H PARENT 3 6 70 24 44 35 10 69
REMARK Flexibility Score: inf
ROOT
ATOM      1  C   UNL     1       4.651   2.595   0.308  1.00  0.00     0.021 C 
ENDROOT
BRANCH   1   2
ATOM      2  C   UNL     1       4.371   1.132   0.623  1.00  0.00     0.116 C 
BRANCH   2   3
ATOM      3  N   UNL     1       2.948   0.840   0.661  1.00  0.00    -0.352 N 
ATOM      4  O   UNL     1       1.023  -0.116  -0.040  1.00  0.00    -0.269 OA
ATOM      5  C   UNL     1       2.251  -0.111  -0.041  1.00  0.00     0.251 C 
ATOM      6  H   UNL     1       2.413   1.398   1.271  1.00  0.00     0.163 HD
BRANCH   5   7
ATOM      7  C   UNL     1       2.995  -1.130  -0.808  1.00  0.00     0.039 A 
ATOM      8  C   UNL     1       4.085  -1.788  -0.230  1.00  0.00     0.014 A 
ATOM      9  C   UNL     1       2.589  -1.443  -2.108  1.00  0.00     0.014 A 
ATOM     10  C   UNL     1       4.833  -2.680  -0.986  1.00  0.00     0.010 A 
ATOM     11  C   UNL     1       3.290  -2.407  -2.837  1.00  0.00     0.010 A 
ATOM     12  C   UNL     1       4.418  -3.030  -2.281  1.00  0.00    -0.014 A 
BRANCH  12  13
ATOM     13  C   UNL     1       5.090  -4.159  -2.969  1.00  0.00     0.031 A 
ATOM     14  C   UNL     1       5.864  -3.961  -4.238  1.00  0.00     0.074 A 
ATOM     15  C   UNL     1       4.974  -5.385  -2.420  1.00  0.00     0.049 A 
ATOM     16  N   UNL     1       6.483  -4.856  -4.966  1.00  0.00    -0.248 NA
ATOM     17  C   UNL     1       5.957  -2.591  -4.764  1.00  0.00     0.031 C 
ATOM     18  C   UNL     1       4.223  -5.691  -1.197  1.00  0.00     0.029 A 
ATOM     19  N   UNL     1       5.479  -6.598  -2.807  1.00  0.00    -0.354 N 
ATOM     20  C   UNL     1       7.021  -4.166  -6.044  1.00  0.00     0.074 A 
ATOM     21  C   UNL     1       6.646  -2.777  -5.884  1.00  0.00     0.031 C 
ATOM     22  C   UNL     1       4.339  -6.997  -0.922  1.00  0.00     0.029 A 
ATOM     23  C   UNL     1       5.106  -7.633  -1.984  1.00  0.00     0.049 A 
ATOM     24  H   UNL     1       6.054  -6.716  -3.598  1.00  0.00     0.167 HD
ATOM     25  C   UNL     1       7.757  -4.657  -7.069  1.00  0.00     0.037 A 
ATOM     26  C   UNL     1       5.321  -8.956  -2.092  1.00  0.00     0.037 A 
ATOM     27  C   UNL     1       8.135  -6.042  -7.205  1.00  0.00     0.049 A 
ATOM     28  C   UNL     1       6.107  -9.467  -3.263  1.00  0.00     0.074 A 
ATOM     29  C   UNL     1       8.943  -6.621  -8.169  1.00  0.00     0.029 A 
ATOM     30  N   UNL     1       7.718  -7.065  -6.367  1.00  0.00    -0.354 N 
ATOM     31  N   UNL     1       6.675  -8.792  -4.232  1.00  0.00    -0.248 NA
ATOM     32  C   UNL     1       6.276 -10.922  -3.362  1.00  0.00     0.031 C 
ATOM     33  C   UNL     1       8.962  -8.002  -7.952  1.00  0.00     0.029 A 
ATOM     34  C   UNL     1       8.214  -8.277  -6.819  1.00  0.00     0.049 A 
ATOM     35  H   UNL     1       7.154  -6.947  -5.568  1.00  0.00     0.167 HD
ATOM     36  C   UNL     1       7.275  -9.738  -5.050  1.00  0.00     0.074 A 
ATOM     37  C   UNL     1       7.032 -11.030  -4.444  1.00  0.00     0.031 C 
ATOM     38  C   UNL     1       7.958  -9.555  -6.206  1.00  0.00     0.037 A 
BRANCH  25  39
ATOM     39  C   UNL     1       8.200  -3.711  -8.147  1.00  0.00     0.057 A 
ATOM     40  C   UNL     1       9.231  -2.786  -7.947  1.00  0.00     0.134 A 
ATOM     41  C   UNL     1       7.661  -3.809  -9.438  1.00  0.00     0.134 A 
ATOM     42  F   UNL     1       9.786  -2.639  -6.735  1.00  0.00    -0.206 F 
ATOM     43  C   UNL     1       9.710  -1.991  -8.991  1.00  0.00     0.040 A 
ATOM     44  C   UNL     1       8.146  -3.036 -10.494  1.00  0.00     0.040 A 
ATOM     45  F   UNL     1       6.676  -4.682  -9.700  1.00  0.00    -0.206 F 
ATOM     46  C   UNL     1       9.175  -2.124 -10.271  1.00  0.00     0.006 A 
ENDBRANCH  25  39
BRANCH  26  47
ATOM     47  C   UNL     1       4.739  -9.891  -1.096  1.00  0.00     0.057 A 
ATOM     48  C   UNL     1       5.551 -10.651  -0.247  1.00  0.00     0.134 A 
ATOM     49  C   UNL     1       3.353 -10.067  -0.989  1.00  0.00     0.134 A 
ATOM     50  F   UNL     1       6.886 -10.539  -0.312  1.00  0.00    -0.206 F 
ATOM     51  C   UNL     1       5.009 -11.573   0.649  1.00  0.00     0.040 A 
ATOM     52  C   UNL     1       2.796 -10.960  -0.074  1.00  0.00     0.040 A 
ATOM     53  F   UNL     1       2.517  -9.363  -1.767  1.00  0.00    -0.206 F 
ATOM     54  C   UNL     1       3.626 -11.726   0.740  1.00  0.00     0.006 A 
ENDBRANCH  26  47
BRANCH  38  55
ATOM     55  C   UNL     1       8.495 -10.782  -6.879  1.00  0.00     0.057 A 
ATOM     56  C   UNL     1       7.650 -11.697  -7.520  1.00  0.00     0.134 A 
ATOM     57  C   UNL     1       9.871 -11.038  -6.910  1.00  0.00     0.134 A 
ATOM     58  F   UNL     1       6.321 -11.518  -7.510  1.00  0.00    -0.206 F 
ATOM     59  C   UNL     1       8.154 -12.836  -8.149  1.00  0.00     0.040 A 
ATOM     60  C   UNL     1      10.389 -12.158  -7.561  1.00  0.00     0.040 A 
ATOM     61  F   UNL     1      10.735 -10.198  -6.320  1.00  0.00    -0.206 F 
ATOM     62  C   UNL     1       9.529 -13.064  -8.177  1.00  0.00     0.006 A 
ENDBRANCH  38  55
ENDBRANCH  12  13
ENDBRANCH   5   7
ENDBRANCH   2   3
ENDBRANCH   1   2
BRANCH   1  63
ATOM     63  C   UNL     1       4.183   3.572   1.386  1.00  0.00     0.002 C 
BRANCH  63  64
ATOM     64  C   UNL     1       4.752   3.314   2.784  1.00  0.00     0.002 C 
BRANCH  64  65
ATOM     65  C   UNL     1       6.280   3.240   2.863  1.00  0.00     0.021 C 
BRANCH  65  66
ATOM     66  C   UNL     1       7.007   4.472   2.328  1.00  0.00     0.116 C 
BRANCH  66  67
ATOM     67  N   UNL     1       6.682   5.659   3.098  1.00  0.00    -0.349 N 
ATOM     68  C   UNL     1       7.540   6.489   3.795  1.00  0.00     0.289 C 
ATOM     69  H   UNL     1       5.729   5.903   3.128  1.00  0.00     0.163 HD
ATOM     70  O   UNL     1       7.062   7.343   4.542  1.00  0.00    -0.266 OA
BRANCH  68  71
ATOM     71  C   UNL     1       9.026   6.330   3.633  1.00  0.00     0.218 A 
ATOM     72  N   UNL     1       9.764   6.303   4.758  1.00  0.00    -0.232 NA
ATOM     73  N   UNL     1       9.485   6.158   2.374  1.00  0.00    -0.224 NA
ATOM     74  C   UNL     1      11.074   6.061   4.576  1.00  0.00     0.124 A 
ATOM     75  C   UNL     1      10.789   5.909   2.239  1.00  0.00     0.074 A 
ATOM     76  C   UNL     1      11.657   5.838   3.335  1.00  0.00     0.019 A 
ATOM     77  C   UNL     1      11.312   5.687   0.972  1.00  0.00     0.029 A 
ATOM     78  C   UNL     1      13.023   5.548   3.155  1.00  0.00     0.012 A 
ATOM     79  C   UNL     1      12.665   5.393   0.780  1.00  0.00     0.002 A 
ATOM     80  C   UNL     1      13.521   5.323   1.874  1.00  0.00     0.001 A 
ENDBRANCH  68  71
ENDBRANCH  66  67
ENDBRANCH  65  66
ENDBRANCH  64  65
ENDBRANCH  63  64
ENDBRANCH   1  63
TORSDOF 13
