REMARK SMILES Cc1ccc(C(=O)N2CCC(CC(=O)NCCCCCCNC(=O)c3ccc(-c4c5nc(c(-c6c(F)cccc6F)c6ccc([nH]6)c(-c6c(F)cccc6F)c6nc(c(-c7c(F)cccc7F)c7ccc4[nH]7)C=C6)C=C5)cc3)CC2)cn1
REMARK SMILES IDX 18 1 17 2 16 3 15 4 13 5 14 6 12 8 11 9 6 10 7 11 8 12 9 13
REMARK SMILES IDX 80 14 10 15 79 16 5 17 1 18 2 19 3 20 82 21 4 22 81 23 19 24
REMARK SMILES IDX 20 25 21 26 22 27 23 28 24 30 25 31 26 32 78 33 27 34 77 35
REMARK SMILES IDX 28 36 29 37 30 38 71 39 31 40 76 41 70 42 72 43 32 44 75 45
REMARK SMILES IDX 69 46 68 47 33 49 59 50 42 51 58 52 43 53 46 54 57 55 73 56
REMARK SMILES IDX 44 57 45 58 56 60 74 61 47 62 34 63 35 64 40 65 36 66 37 67
REMARK SMILES IDX 39 68 41 69 38 70 60 71 61 72 66 73 62 74 63 75 65 76 67 77
REMARK SMILES IDX 64 78 48 79 49 80 54 81 50 82 51 83 53 84 55 85 52 86
REMARK H PARENT 15 7 22 29 72 48 46 59
REMARK Flexibility Score: inf
ROOT
ATOM      1  C   UNL     1      -8.244  -0.573  -4.907  1.00  0.00     0.002 C 
ENDROOT
BRANCH   1   2
ATOM      2  C   UNL     1      -7.614  -0.784  -3.532  1.00  0.00     0.021 C 
BRANCH   2   3
ATOM      3  C   UNL     1      -8.611  -0.864  -2.368  1.00  0.00     0.116 C 
BRANCH   3   4
ATOM      4  N   UNL     1      -8.961  -2.247  -2.079  1.00  0.00    -0.356 N 
ATOM      5  C   UNL     1      -8.630  -3.049  -1.027  1.00  0.00     0.220 C 
ATOM      6  O   UNL     1      -8.963  -4.235  -1.072  1.00  0.00    -0.275 OA
ATOM      7  H   UNL     1      -9.534  -2.675  -2.756  1.00  0.00     0.163 HD
BRANCH   5   8
ATOM      8  C   UNL     1      -7.868  -2.503   0.172  1.00  0.00     0.103 C 
BRANCH   8   9
ATOM      9  C   UNL     1      -6.340  -2.698   0.090  1.00  0.00     0.002 C 
ATOM     10  C   UNL     1      -3.134  -0.249   0.279  1.00  0.00     0.255 C 
ATOM     11  O   UNL     1      -3.800   0.781   0.283  1.00  0.00    -0.269 OA
ATOM     12  N   UNL     1      -3.689  -1.508   0.156  1.00  0.00    -0.339 N 
ATOM     13  C   UNL     1      -4.235  -1.903  -1.119  1.00  0.00     0.120 C 
ATOM     14  C   UNL     1      -4.144  -2.249   1.319  1.00  0.00     0.120 C 
ATOM     15  C   UNL     1      -5.747  -1.908  -1.078  1.00  0.00     0.026 C 
ATOM     16  C   UNL     1      -5.671  -2.275   1.414  1.00  0.00     0.026 C 
BRANCH  10  17
ATOM     17  C   UNL     1      -1.650  -0.222   0.267  1.00  0.00     0.058 A 
ATOM     18  C   UNL     1       2.583   0.085   0.013  1.00  0.00     0.066 C 
ATOM     19  C   UNL     1       1.094  -0.049   0.119  1.00  0.00     0.037 A 
ATOM     20  C   UNL     1       0.498  -1.305   0.113  1.00  0.00     0.024 A 
ATOM     21  N   UNL     1       0.376   1.098   0.202  1.00  0.00    -0.261 NA
ATOM     22  C   UNL     1      -0.888  -1.390   0.189  1.00  0.00     0.017 A 
ATOM     23  C   UNL     1      -0.977   0.990   0.272  1.00  0.00     0.125 A 
ENDBRANCH  10  17
ENDBRANCH   8   9
ENDBRANCH   5   8
ENDBRANCH   3   4
ENDBRANCH   2   3
ENDBRANCH   1   2
BRANCH   1  24
ATOM     24  C   UNL     1      -8.855   0.810  -5.130  1.00  0.00     0.002 C 
BRANCH  24  25
ATOM     25  C   UNL     1      -7.916   1.994  -4.880  1.00  0.00     0.021 C 
BRANCH  25  26
ATOM     26  C   UNL     1      -6.595   1.947  -5.645  1.00  0.00     0.116 C 
BRANCH  26  27
ATOM     27  N   UNL     1      -6.798   1.930  -7.084  1.00  0.00    -0.352 N 
ATOM     28  C   UNL     1      -6.424   2.850  -8.034  1.00  0.00     0.251 C 
ATOM     29  H   UNL     1      -7.275   1.141  -7.430  1.00  0.00     0.163 HD
ATOM     30  O   UNL     1      -6.874   2.786  -9.166  1.00  0.00    -0.269 OA
BRANCH  28  31
ATOM     31  C   UNL     1      -5.473   3.926  -7.675  1.00  0.00     0.039 A 
ATOM     32  C   UNL     1      -5.738   5.231  -8.100  1.00  0.00     0.014 A 
ATOM     33  C   UNL     1      -4.310   3.642  -6.955  1.00  0.00     0.014 A 
ATOM     34  C   UNL     1      -4.856   6.260  -7.760  1.00  0.00     0.010 A 
ATOM     35  C   UNL     1      -3.471   4.678  -6.557  1.00  0.00     0.010 A 
ATOM     36  C   UNL     1      -3.728   5.995  -6.967  1.00  0.00    -0.014 A 
BRANCH  36  37
ATOM     37  C   UNL     1      -2.787   7.077  -6.582  1.00  0.00     0.031 A 
ATOM     38  C   UNL     1      -1.369   7.052  -7.083  1.00  0.00     0.074 A 
ATOM     39  C   UNL     1      -3.191   8.051  -5.744  1.00  0.00     0.049 A 
ATOM     40  N   UNL     1      -0.377   7.860  -6.806  1.00  0.00    -0.248 NA
ATOM     41  C   UNL     1      -1.011   5.957  -8.000  1.00  0.00     0.031 C 
ATOM     42  C   UNL     1      -4.529   8.167  -5.161  1.00  0.00     0.029 A 
ATOM     43  N   UNL     1      -2.511   9.126  -5.228  1.00  0.00    -0.354 N 
ATOM     44  C   UNL     1       0.719   7.366  -7.501  1.00  0.00     0.074 A 
ATOM     45  C   UNL     1       0.288   6.157  -8.168  1.00  0.00     0.031 C 
ATOM     46  C   UNL     1      -4.578   9.263  -4.386  1.00  0.00     0.029 A 
ATOM     47  C   UNL     1      -3.267   9.905  -4.386  1.00  0.00     0.049 A 
ATOM     48  H   UNL     1      -1.569   9.320  -5.442  1.00  0.00     0.167 HD
ATOM     49  C   UNL     1       1.966   7.885  -7.598  1.00  0.00     0.037 A 
ATOM     50  C   UNL     1      -2.936  11.008  -3.689  1.00  0.00     0.037 A 
ATOM     51  C   UNL     1       2.387   9.100  -6.950  1.00  0.00     0.049 A 
ATOM     52  C   UNL     1      -1.538  11.554  -3.799  1.00  0.00     0.074 A 
ATOM     53  C   UNL     1       3.617   9.731  -7.016  1.00  0.00     0.029 A 
ATOM     54  N   UNL     1       1.587   9.868  -6.118  1.00  0.00    -0.354 N 
ATOM     55  N   UNL     1      -0.528  11.107  -4.505  1.00  0.00    -0.248 NA
ATOM     56  C   UNL     1      -1.237  12.763  -3.019  1.00  0.00     0.031 C 
ATOM     57  C   UNL     1       3.573  10.861  -6.194  1.00  0.00     0.029 A 
ATOM     58  C   UNL     1       2.300  10.961  -5.655  1.00  0.00     0.049 A 
ATOM     59  H   UNL     1       0.650   9.666  -5.891  1.00  0.00     0.167 HD
ATOM     60  C   UNL     1       0.514  11.999  -4.284  1.00  0.00     0.074 A 
ATOM     61  C   UNL     1       0.010  13.018  -3.387  1.00  0.00     0.031 C 
ATOM     62  C   UNL     1       1.775  11.977  -4.780  1.00  0.00     0.037 A 
BRANCH  49  63
ATOM     63  C   UNL     1       2.961   7.146  -8.444  1.00  0.00     0.057 A 
ATOM     64  C   UNL     1       2.852   7.103  -9.841  1.00  0.00     0.134 A 
ATOM     65  C   UNL     1       4.061   6.502  -7.864  1.00  0.00     0.134 A 
ATOM     66  F   UNL     1       1.815   7.689 -10.460  1.00  0.00    -0.206 F 
ATOM     67  C   UNL     1       3.785   6.426 -10.627  1.00  0.00     0.040 A 
ATOM     68  C   UNL     1       5.017   5.846  -8.641  1.00  0.00     0.040 A 
ATOM     69  F   UNL     1       4.231   6.510  -6.533  1.00  0.00    -0.206 F 
ATOM     70  C   UNL     1       4.877   5.801 -10.027  1.00  0.00     0.006 A 
ENDBRANCH  49  63
BRANCH  50  71
ATOM     71  C   UNL     1      -3.947  11.690  -2.841  1.00  0.00     0.057 A 
ATOM     72  C   UNL     1      -4.439  12.956  -3.182  1.00  0.00     0.134 A 
ATOM     73  C   UNL     1      -4.424  11.111  -1.659  1.00  0.00     0.134 A 
ATOM     74  F   UNL     1      -4.006  13.570  -4.293  1.00  0.00    -0.206 F 
ATOM     75  C   UNL     1      -5.346  13.633  -2.367  1.00  0.00     0.040 A 
ATOM     76  C   UNL     1      -5.352  11.766  -0.847  1.00  0.00     0.040 A 
ATOM     77  F   UNL     1      -3.999   9.898  -1.279  1.00  0.00    -0.206 F 
ATOM     78  C   UNL     1      -5.808  13.036  -1.196  1.00  0.00     0.006 A 
ENDBRANCH  50  71
BRANCH  62  79
ATOM     79  C   UNL     1       2.680  13.115  -4.409  1.00  0.00     0.057 A 
ATOM     80  C   UNL     1       3.213  13.252  -3.121  1.00  0.00     0.134 A 
ATOM     81  C   UNL     1       3.053  14.066  -5.367  1.00  0.00     0.134 A 
ATOM     82  F   UNL     1       2.885  12.382  -2.154  1.00  0.00    -0.206 F 
ATOM     83  C   UNL     1       4.065  14.307  -2.793  1.00  0.00     0.040 A 
ATOM     84  C   UNL     1       3.926  15.110  -5.060  1.00  0.00     0.040 A 
ATOM     85  F   UNL     1       2.585  13.988  -6.623  1.00  0.00    -0.206 F 
ATOM     86  C   UNL     1       4.429  15.236  -3.767  1.00  0.00     0.006 A 
ENDBRANCH  62  79
ENDBRANCH  36  37
ENDBRANCH  28  31
ENDBRANCH  26  27
ENDBRANCH  25  26
ENDBRANCH  24  25
ENDBRANCH   1  24
TORSDOF 15
