REMARK SMILES O=Cc1ccc(-c2ccc(C(=O)NCCCCCCNC(=O)c3ccc(-c4c5nc(c(-c6c(F)cccc6F)c6ccc([nH]6)c(-c6c(F)cccc6F)c6nc(c(-c7c(F)cccc7F)c7ccc4[nH]7)C=C6)C=C5)cc3)cn2)cc1
REMARK SMILES IDX 16 1 15 2 14 3 13 4 11 5 12 6 10 8 7 9 8 10 78 11 9 12 77 13
REMARK SMILES IDX 6 14 3 15 4 16 80 17 5 18 79 19 2 20 1 21 17 22 18 23 19 24
REMARK SMILES IDX 20 25 21 26 22 28 23 29 24 30 76 31 25 32 75 33 26 34 27 35
REMARK SMILES IDX 28 36 69 37 29 38 74 39 68 40 70 41 30 42 73 43 67 44 66 45
REMARK SMILES IDX 31 47 57 48 40 49 56 50 41 51 44 52 55 53 71 54 42 55 43 56
REMARK SMILES IDX 54 58 72 59 45 60 32 61 33 62 38 63 34 64 35 65 37 66 39 67
REMARK SMILES IDX 36 68 58 69 59 70 64 71 60 72 61 73 63 74 65 75 62 76 46 77
REMARK SMILES IDX 47 78 52 79 48 80 49 81 51 82 53 83 50 84
REMARK H PARENT 13 7 20 27 70 46 44 57
REMARK Flexibility Score: inf
ROOT
ATOM      1  C   UNL     1       8.575   9.274  -5.985  1.00  0.00     0.002 C 
ENDROOT
BRANCH   1   2
ATOM      2  C   UNL     1       7.909   8.207  -5.104  1.00  0.00     0.021 C 
BRANCH   2   3
ATOM      3  C   UNL     1       6.454   7.930  -5.486  1.00  0.00     0.116 C 
BRANCH   3   4
ATOM      4  N   UNL     1       6.402   7.069  -6.652  1.00  0.00    -0.352 N 
ATOM      5  C   UNL     1       6.113   5.739  -6.808  1.00  0.00     0.252 C 
ATOM      6  O   UNL     1       6.142   5.272  -7.946  1.00  0.00    -0.269 OA
ATOM      7  H   UNL     1       6.616   7.529  -7.496  1.00  0.00     0.163 HD
BRANCH   5   8
ATOM      8  C   UNL     1       5.708   4.861  -5.687  1.00  0.00     0.058 A 
ATOM      9  C   UNL     1       4.681   3.149  -3.777  1.00  0.00     0.070 A 
ATOM     10  C   UNL     1       5.600   4.123  -3.394  1.00  0.00     0.030 A 
ATOM     11  N   UNL     1       4.312   2.968  -5.064  1.00  0.00    -0.255 NA
ATOM     12  C   UNL     1       6.138   4.969  -4.367  1.00  0.00     0.018 A 
ATOM     13  C   UNL     1       4.832   3.821  -5.984  1.00  0.00     0.125 A 
BRANCH   9  14
ATOM     14  C   UNL     1       4.028   2.281  -2.799  1.00  0.00     0.000 A 
ATOM     15  C   UNL     1       2.779   0.638  -0.896  1.00  0.00     0.014 A 
ATOM     16  C   UNL     1       3.877   0.158  -1.614  1.00  0.00     0.012 A 
ATOM     17  C   UNL     1       2.292   1.926  -1.128  1.00  0.00     0.012 A 
ATOM     18  C   UNL     1       4.494   0.977  -2.565  1.00  0.00     0.011 A 
ATOM     19  C   UNL     1       2.916   2.741  -2.075  1.00  0.00     0.011 A 
BRANCH  15  20
ATOM     20  C   UNL     1       2.135  -0.226   0.113  1.00  0.00     0.260 C 
ATOM     21  O   UNL     1       1.159   0.139   0.756  1.00  0.00    -0.298 OA
ENDBRANCH  15  20
ENDBRANCH   9  14
ENDBRANCH   5   8
ENDBRANCH   3   4
ENDBRANCH   2   3
ENDBRANCH   1   2
BRANCH   1  22
ATOM     22  C   UNL     1       7.968  10.678  -5.867  1.00  0.00     0.002 C 
BRANCH  22  23
ATOM     23  C   UNL     1       7.903  11.241  -4.445  1.00  0.00     0.021 C 
BRANCH  23  24
ATOM     24  C   UNL     1       9.258  11.377  -3.758  1.00  0.00     0.116 C 
BRANCH  24  25
ATOM     25  N   UNL     1      10.105  12.353  -4.424  1.00  0.00    -0.352 N 
ATOM     26  C   UNL     1      10.720  13.467  -3.911  1.00  0.00     0.251 C 
ATOM     27  H   UNL     1      10.260  12.191  -5.383  1.00  0.00     0.163 HD
ATOM     28  O   UNL     1      11.214  14.300  -4.663  1.00  0.00    -0.269 OA
BRANCH  26  29
ATOM     29  C   UNL     1      10.780  13.671  -2.448  1.00  0.00     0.039 A 
ATOM     30  C   UNL     1      10.518  14.942  -1.932  1.00  0.00     0.014 A 
ATOM     31  C   UNL     1      11.123  12.620  -1.591  1.00  0.00     0.014 A 
ATOM     32  C   UNL     1      10.555  15.150  -0.552  1.00  0.00     0.010 A 
ATOM     33  C   UNL     1      11.094  12.813  -0.213  1.00  0.00     0.010 A 
ATOM     34  C   UNL     1      10.819  14.081   0.320  1.00  0.00    -0.014 A 
BRANCH  34  35
ATOM     35  C   UNL     1      10.820  14.275   1.791  1.00  0.00     0.031 A 
ATOM     36  C   UNL     1      12.092  14.105   2.575  1.00  0.00     0.074 A 
ATOM     37  C   UNL     1       9.665  14.550   2.427  1.00  0.00     0.049 A 
ATOM     38  N   UNL     1      12.282  14.179   3.868  1.00  0.00    -0.248 NA
ATOM     39  C   UNL     1      13.305  13.784   1.807  1.00  0.00     0.031 C 
ATOM     40  C   UNL     1       8.358  14.691   1.784  1.00  0.00     0.029 A 
ATOM     41  N   UNL     1       9.404  14.749   3.759  1.00  0.00    -0.354 N 
ATOM     42  C   UNL     1      13.628  13.900   4.069  1.00  0.00     0.074 A 
ATOM     43  C   UNL     1      14.196  13.606   2.771  1.00  0.00     0.031 C 
ATOM     44  C   UNL     1       7.437  14.976   2.719  1.00  0.00     0.029 A 
ATOM     45  C   UNL     1       8.082  15.005   4.028  1.00  0.00     0.049 A 
ATOM     46  H   UNL     1      10.098  14.711   4.456  1.00  0.00     0.167 HD
ATOM     47  C   UNL     1      14.331  13.911   5.226  1.00  0.00     0.037 A 
ATOM     48  C   UNL     1       7.459  15.234   5.199  1.00  0.00     0.037 A 
ATOM     49  C   UNL     1      13.769  14.231   6.512  1.00  0.00     0.049 A 
ATOM     50  C   UNL     1       8.263  15.247   6.469  1.00  0.00     0.074 A 
ATOM     51  C   UNL     1      14.411  14.329   7.734  1.00  0.00     0.029 A 
ATOM     52  N   UNL     1      12.430  14.506   6.741  1.00  0.00    -0.354 N 
ATOM     53  N   UNL     1       9.548  15.046   6.635  1.00  0.00    -0.248 NA
ATOM     54  C   UNL     1       7.532  15.527   7.712  1.00  0.00     0.031 C 
ATOM     55  C   UNL     1      13.453  14.625   8.709  1.00  0.00     0.029 A 
ATOM     56  C   UNL     1      12.222  14.755   8.087  1.00  0.00     0.049 A 
ATOM     57  H   UNL     1      11.730  14.523   6.048  1.00  0.00     0.167 HD
ATOM     58  C   UNL     1       9.784  15.201   7.995  1.00  0.00     0.074 A 
ATOM     59  C   UNL     1       8.511  15.527   8.605  1.00  0.00     0.031 C 
ATOM     60  C   UNL     1      10.949  15.083   8.677  1.00  0.00     0.037 A 
BRANCH  47  61
ATOM     61  C   UNL     1      15.791  13.571   5.150  1.00  0.00     0.057 A 
ATOM     62  C   UNL     1      16.723  14.440   4.566  1.00  0.00     0.134 A 
ATOM     63  C   UNL     1      16.277  12.375   5.694  1.00  0.00     0.134 A 
ATOM     64  F   UNL     1      16.321  15.596   4.016  1.00  0.00    -0.206 F 
ATOM     65  C   UNL     1      18.080  14.120   4.502  1.00  0.00     0.040 A 
ATOM     66  C   UNL     1      17.636  12.057   5.660  1.00  0.00     0.040 A 
ATOM     67  F   UNL     1      15.441  11.500   6.273  1.00  0.00    -0.206 F 
ATOM     68  C   UNL     1      18.541  12.928   5.056  1.00  0.00     0.006 A 
ENDBRANCH  47  61
BRANCH  48  69
ATOM     69  C   UNL     1       5.999  15.499   5.224  1.00  0.00     0.057 A 
ATOM     70  C   UNL     1       5.503  16.775   5.512  1.00  0.00     0.134 A 
ATOM     71  C   UNL     1       5.067  14.487   4.966  1.00  0.00     0.134 A 
ATOM     72  F   UNL     1       6.347  17.781   5.785  1.00  0.00    -0.206 F 
ATOM     73  C   UNL     1       4.132  17.033   5.562  1.00  0.00     0.040 A 
ATOM     74  C   UNL     1       3.694  14.736   4.989  1.00  0.00     0.040 A 
ATOM     75  F   UNL     1       5.479  13.244   4.675  1.00  0.00    -0.206 F 
ATOM     76  C   UNL     1       3.223  16.011   5.296  1.00  0.00     0.006 A 
ENDBRANCH  48  69
BRANCH  60  77
ATOM     77  C   UNL     1      10.904  15.337  10.155  1.00  0.00     0.057 A 
ATOM     78  C   UNL     1      10.322  14.425  11.044  1.00  0.00     0.134 A 
ATOM     79  C   UNL     1      11.478  16.495  10.696  1.00  0.00     0.134 A 
ATOM     80  F   UNL     1       9.744  13.304  10.587  1.00  0.00    -0.206 F 
ATOM     81  C   UNL     1      10.291  14.668  12.419  1.00  0.00     0.040 A 
ATOM     82  C   UNL     1      11.476  16.736  12.070  1.00  0.00     0.040 A 
ATOM     83  F   UNL     1      12.059  17.404   9.899  1.00  0.00    -0.206 F 
ATOM     84  C   UNL     1      10.875  15.823  12.935  1.00  0.00     0.006 A 
ENDBRANCH  60  77
ENDBRANCH  34  35
ENDBRANCH  26  29
ENDBRANCH  24  25
ENDBRANCH  23  24
ENDBRANCH  22  23
ENDBRANCH   1  22
TORSDOF 15
