REMARK SMILES CC(C)CSc1cc2c(cc1Cl)C=C(C(=O)NCCCCCCNC(=O)c1ccc(-c3c4nc(c(-c5c(F)cccc5F)c5ccc([nH]5)c(-c5c(F)cccc5F)c5nc(c(-c6c(F)cccc6F)c6ccc3[nH]6)C=C5)C=C4)cc1)[C@H](C(F)(F)F)O2
REMARK SMILES IDX 20 1 19 2 18 3 17 4 15 5 16 6 14 8 6 9 7 10 11 11 8 12 10 13
REMARK SMILES IDX 12 14 9 15 86 16 13 17 81 18 5 19 4 20 2 21 1 22 3 23 82 24
REMARK SMILES IDX 83 25 84 26 85 27 21 28 22 29 23 30 24 31 25 32 26 34 27 35
REMARK SMILES IDX 28 36 80 37 29 38 79 39 30 40 31 41 32 42 73 43 33 44 78 45
REMARK SMILES IDX 72 46 74 47 34 48 77 49 71 50 70 51 35 53 61 54 44 55 60 56
REMARK SMILES IDX 45 57 48 58 59 59 75 60 46 61 47 62 58 64 76 65 49 66 36 67
REMARK SMILES IDX 37 68 42 69 38 70 39 71 41 72 43 73 40 74 62 75 63 76 68 77
REMARK SMILES IDX 64 78 65 79 67 80 69 81 66 82 50 83 51 84 56 85 52 86 53 87
REMARK SMILES IDX 55 88 57 89 54 90
REMARK H PARENT 17 7 24 33 74 52 48 63
REMARK Flexibility Score: inf
ROOT
ATOM      1  C   UNL     1      -1.470  10.552  -0.581  1.00  0.00     0.002 C 
ENDROOT
BRANCH   1   2
ATOM      2  C   UNL     1      -1.676   9.054  -0.329  1.00  0.00     0.021 C 
BRANCH   2   3
ATOM      3  C   UNL     1      -2.046   8.258  -1.579  1.00  0.00     0.116 C 
BRANCH   3   4
ATOM      4  N   UNL     1      -0.859   7.861  -2.311  1.00  0.00    -0.352 N 
ATOM      5  C   UNL     1      -0.232   6.708  -2.634  1.00  0.00     0.251 C 
ATOM      6  O   UNL     1       0.801   6.847  -3.298  1.00  0.00    -0.270 OA
ATOM      7  H   UNL     1      -0.379   8.643  -2.668  1.00  0.00     0.163 HD
BRANCH   5   8
ATOM      8  C   UNL     1      -0.694   5.335  -2.267  1.00  0.00     0.067 C 
ATOM      9  C   UNL     1      -1.062   0.304  -1.997  1.00  0.00     0.030 A 
ATOM     10  C   UNL     1      -1.781   1.369  -1.438  1.00  0.00     0.063 A 
ATOM     11  C   UNL     1      -0.051   0.587  -2.931  1.00  0.00     0.055 A 
ATOM     12  C   UNL     1      -1.451   2.688  -1.750  1.00  0.00     0.129 A 
ATOM     13  C   UNL     1       0.274   1.912  -3.241  1.00  0.00     0.033 A 
ATOM     14  Cl  UNL     1       0.878  -0.653  -3.701  1.00  0.00    -0.083 Cl
ATOM     15  C   UNL     1      -0.418   2.965  -2.640  1.00  0.00     0.019 A 
ATOM     16  O   UNL     1      -2.207   3.655  -1.161  1.00  0.00    -0.475 OA
ATOM     17  C   UNL     1      -0.084   4.346  -2.944  1.00  0.00     0.025 C 
ATOM     18  C   UNL     1      -1.712   5.024  -1.203  1.00  0.00     0.314 C 
BRANCH   9  19
ATOM     19  S   UNL     1      -1.466  -1.358  -1.479  1.00  0.00    -0.124 SA
BRANCH  19  20
ATOM     20  C   UNL     1      -0.969  -1.304   0.286  1.00  0.00     0.078 C 
BRANCH  20  21
ATOM     21  C   UNL     1       0.550  -1.417   0.524  1.00  0.00    -0.007 C 
ATOM     22  C   UNL     1       1.270  -0.068   0.441  1.00  0.00     0.008 C 
ATOM     23  C   UNL     1       0.807  -2.017   1.911  1.00  0.00     0.008 C 
ENDBRANCH  20  21
ENDBRANCH  19  20
ENDBRANCH   9  19
BRANCH  18  24
ATOM     24  C   UNL     1      -1.276   5.435   0.218  1.00  0.00     0.429 C 
ATOM     25  F   UNL     1      -2.278   6.107   0.842  1.00  0.00    -0.167 F 
ATOM     26  F   UNL     1      -0.969   4.371   0.996  1.00  0.00    -0.167 F 
ATOM     27  F   UNL     1      -0.198   6.251   0.229  1.00  0.00    -0.167 F 
ENDBRANCH  18  24
ENDBRANCH   5   8
ENDBRANCH   3   4
ENDBRANCH   2   3
ENDBRANCH   1   2
BRANCH   1  28
ATOM     28  C   UNL     1      -2.694  11.301  -1.121  1.00  0.00     0.002 C 
BRANCH  28  29
ATOM     29  C   UNL     1      -3.997  11.069  -0.355  1.00  0.00     0.021 C 
BRANCH  29  30
ATOM     30  C   UNL     1      -3.936  11.416   1.128  1.00  0.00     0.116 C 
BRANCH  30  31
ATOM     31  N   UNL     1      -3.719  12.835   1.358  1.00  0.00    -0.352 N 
ATOM     32  C   UNL     1      -4.462  13.723   2.102  1.00  0.00     0.251 C 
ATOM     33  H   UNL     1      -2.925  13.216   0.918  1.00  0.00     0.163 HD
ATOM     34  O   UNL     1      -4.232  14.923   2.047  1.00  0.00    -0.269 OA
BRANCH  32  35
ATOM     35  C   UNL     1      -5.568  13.217   2.945  1.00  0.00     0.039 A 
ATOM     36  C   UNL     1      -5.387  12.093   3.753  1.00  0.00     0.014 A 
ATOM     37  C   UNL     1      -6.807  13.860   2.901  1.00  0.00     0.014 A 
ATOM     38  C   UNL     1      -6.485  11.512   4.377  1.00  0.00     0.010 A 
ATOM     39  C   UNL     1      -7.891  13.323   3.601  1.00  0.00     0.010 A 
ATOM     40  C   UNL     1      -7.752  12.114   4.301  1.00  0.00    -0.014 A 
BRANCH  40  41
ATOM     41  C   UNL     1      -8.916  11.443   4.936  1.00  0.00     0.031 A 
ATOM     42  C   UNL     1     -10.053  10.920   4.097  1.00  0.00     0.074 A 
ATOM     43  C   UNL     1      -8.920  11.247   6.269  1.00  0.00     0.049 A 
ATOM     44  N   UNL     1     -11.135  10.283   4.475  1.00  0.00    -0.248 NA
ATOM     45  C   UNL     1      -9.968  11.142   2.646  1.00  0.00     0.031 C 
ATOM     46  C   UNL     1      -7.874  11.696   7.190  1.00  0.00     0.029 A 
ATOM     47  N   UNL     1      -9.819  10.600   7.076  1.00  0.00    -0.354 N 
ATOM     48  C   UNL     1     -11.863  10.046   3.315  1.00  0.00     0.074 A 
ATOM     49  C   UNL     1     -11.118  10.636   2.223  1.00  0.00     0.031 C 
ATOM     50  C   UNL     1      -8.165  11.267   8.427  1.00  0.00     0.029 A 
ATOM     51  C   UNL     1      -9.444  10.567   8.397  1.00  0.00     0.049 A 
ATOM     52  H   UNL     1     -10.653  10.197   6.742  1.00  0.00     0.167 HD
ATOM     53  C   UNL     1     -13.037   9.385   3.169  1.00  0.00     0.037 A 
ATOM     54  C   UNL     1     -10.068  10.043   9.468  1.00  0.00     0.037 A 
ATOM     55  C   UNL     1     -13.772   8.785   4.252  1.00  0.00     0.049 A 
ATOM     56  C   UNL     1     -11.392   9.359   9.283  1.00  0.00     0.074 A 
ATOM     57  C   UNL     1     -14.964   8.082   4.204  1.00  0.00     0.029 A 
ATOM     58  N   UNL     1     -13.384   8.819   5.584  1.00  0.00    -0.354 N 
ATOM     59  N   UNL     1     -12.059   9.131   8.179  1.00  0.00    -0.248 NA
ATOM     60  C   UNL     1     -12.052   8.865  10.499  1.00  0.00     0.031 C 
ATOM     61  C   UNL     1     -15.317   7.725   5.510  1.00  0.00     0.029 A 
ATOM     62  C   UNL     1     -14.322   8.166   6.367  1.00  0.00     0.049 A 
ATOM     63  H   UNL     1     -12.564   9.245   5.922  1.00  0.00     0.167 HD
ATOM     64  C   UNL     1     -13.207   8.451   8.563  1.00  0.00     0.074 A 
ATOM     65  C   UNL     1     -13.133   8.284  10.000  1.00  0.00     0.031 C 
ATOM     66  C   UNL     1     -14.233   8.007   7.796  1.00  0.00     0.037 A 
BRANCH  53  67
ATOM     67  C   UNL     1     -13.608   9.291   1.783  1.00  0.00     0.057 A 
ATOM     68  C   UNL     1     -14.759  10.010   1.434  1.00  0.00     0.134 A 
ATOM     69  C   UNL     1     -13.037   8.473   0.799  1.00  0.00     0.134 A 
ATOM     70  F   UNL     1     -15.361  10.807   2.329  1.00  0.00    -0.206 F 
ATOM     71  C   UNL     1     -15.319   9.920   0.159  1.00  0.00     0.040 A 
ATOM     72  C   UNL     1     -13.574   8.394  -0.488  1.00  0.00     0.040 A 
ATOM     73  F   UNL     1     -11.926   7.769   1.062  1.00  0.00    -0.206 F 
ATOM     74  C   UNL     1     -14.722   9.115  -0.809  1.00  0.00     0.006 A 
ENDBRANCH  53  67
BRANCH  54  75
ATOM     75  C   UNL     1      -9.455  10.152  10.816  1.00  0.00     0.057 A 
ATOM     76  C   UNL     1      -9.347  11.385  11.470  1.00  0.00     0.134 A 
ATOM     77  C   UNL     1      -8.985   9.020  11.490  1.00  0.00     0.134 A 
ATOM     78  F   UNL     1      -9.775  12.508  10.874  1.00  0.00    -0.206 F 
ATOM     79  C   UNL     1      -8.788  11.490  12.743  1.00  0.00     0.040 A 
ATOM     80  C   UNL     1      -8.449   9.106  12.776  1.00  0.00     0.040 A 
ATOM     81  F   UNL     1      -9.079   7.808  10.923  1.00  0.00    -0.206 F 
ATOM     82  C   UNL     1      -8.346  10.346  13.404  1.00  0.00     0.006 A 
ENDBRANCH  54  75
BRANCH  66  83
ATOM     83  C   UNL     1     -15.334   7.270   8.500  1.00  0.00     0.057 A 
ATOM     84  C   UNL     1     -15.481   5.887   8.341  1.00  0.00     0.134 A 
ATOM     85  C   UNL     1     -16.250   7.928   9.332  1.00  0.00     0.134 A 
ATOM     86  F   UNL     1     -14.641   5.198   7.553  1.00  0.00    -0.206 F 
ATOM     87  C   UNL     1     -16.496   5.182   8.989  1.00  0.00     0.040 A 
ATOM     88  C   UNL     1     -17.253   7.230  10.006  1.00  0.00     0.040 A 
ATOM     89  F   UNL     1     -16.153   9.250   9.539  1.00  0.00    -0.206 F 
ATOM     90  C   UNL     1     -17.380   5.853   9.832  1.00  0.00     0.006 A 
ENDBRANCH  66  83
ENDBRANCH  40  41
ENDBRANCH  32  35
ENDBRANCH  30  31
ENDBRANCH  29  30
ENDBRANCH  28  29
ENDBRANCH   1  28
TORSDOF 17
