REMARK SMILES Cc1nn2c(nnc3c(=O)n(CCCC(=O)NCCCCCCNC(=O)c4ccc(-c5c6nc(c(-c7c(F)cccc7F)c7ccc([nH]7)c(-c7c(F)cccc7F)c7nc(c(-c8c(F)cccc8F)c8ccc5[nH]8)C=C7)C=C6)cc4)ccc32)c1-c1ccc(F)cc1
REMARK SMILES IDX 19 1 18 2 17 3 15 4 16 5 14 7 13 8 12 9 11 10 1 11 2 12 3 13
REMARK SMILES IDX 84 14 4 15 5 16 83 17 6 18 8 19 82 20 7 21 9 22 81 23 10 24
REMARK SMILES IDX 85 25 86 26 91 27 87 28 90 29 88 30 89 31 20 32 21 33 22 34
REMARK SMILES IDX 23 35 24 36 25 37 26 39 27 40 28 41 80 42 29 43 79 44 30 45
REMARK SMILES IDX 31 46 32 47 73 48 33 49 78 50 72 51 74 52 34 53 77 54 71 55
REMARK SMILES IDX 70 56 35 58 61 59 44 60 60 61 45 62 48 63 59 64 75 65 46 66
REMARK SMILES IDX 47 67 58 69 76 70 49 71 36 72 37 73 42 74 38 75 39 76 41 77
REMARK SMILES IDX 43 78 40 79 62 80 63 81 68 82 64 83 65 84 67 85 69 86 66 87
REMARK SMILES IDX 50 88 51 89 56 90 52 91 53 92 55 93 57 94 54 95
REMARK H PARENT 17 6 24 38 74 57 48 68
REMARK Flexibility Score: inf
ROOT
ATOM      1  C   UNL     1       0.365  -0.003  10.183  1.00  0.00     0.021 C 
ENDROOT
BRANCH   1   2
ATOM      2  C   UNL     1      -0.158  -1.289   9.543  1.00  0.00     0.116 C 
BRANCH   2   3
ATOM      3  N   UNL     1      -0.952  -2.061  10.464  1.00  0.00    -0.356 N 
ATOM      4  C   UNL     1      -2.244  -2.459  10.462  1.00  0.00     0.220 C 
ATOM      5  O   UNL     1      -2.553  -3.231  11.381  1.00  0.00    -0.275 OA
ATOM      6  H   UNL     1      -0.451  -2.360  11.257  1.00  0.00     0.163 HD
BRANCH   4   7
ATOM      7  C   UNL     1      -3.294  -2.124   9.409  1.00  0.00     0.102 C 
BRANCH   7   8
ATOM      8  C   UNL     1      -3.674  -0.713   8.947  1.00  0.00     0.032 C 
BRANCH   8   9
ATOM      9  C   UNL     1      -2.757   0.288   8.223  1.00  0.00     0.126 C 
BRANCH   9  10
ATOM     10  N   UNL     1      -2.169   0.035   6.882  1.00  0.00    -0.313 N 
ATOM     11  C   UNL     1       1.085   0.349  -0.014  1.00  0.00     0.069 C 
ATOM     12  C   UNL     1       0.694  -0.289   1.267  1.00  0.00     0.070 A 
ATOM     13  N   UNL     1       0.234   0.460   2.282  1.00  0.00    -0.170 NA
ATOM     14  C   UNL     1       0.707  -1.667   1.585  1.00  0.00     0.051 A 
ATOM     15  N   UNL     1      -0.118  -0.439   3.243  1.00  0.00    -0.210 N 
ATOM     16  C   UNL     1       0.213  -1.734   2.866  1.00  0.00     0.186 A 
ATOM     17  C   UNL     1      -0.769  -0.230   4.460  1.00  0.00     0.102 A 
ATOM     18  N   UNL     1      -0.014  -2.784   3.703  1.00  0.00    -0.129 NA
ATOM     19  C   UNL     1      -1.023  -1.339   5.173  1.00  0.00     0.177 A 
ATOM     20  C   UNL     1      -1.182   1.063   4.955  1.00  0.00     0.049 A 
ATOM     21  N   UNL     1      -0.615  -2.600   4.787  1.00  0.00    -0.141 NA
ATOM     22  C   UNL     1      -1.769  -1.236   6.459  1.00  0.00     0.280 A 
ATOM     23  C   UNL     1      -1.845   1.157   6.118  1.00  0.00     0.091 A 
ATOM     24  O   UNL     1      -1.938  -2.274   7.085  1.00  0.00    -0.267 OA
BRANCH  14  25
ATOM     25  C   UNL     1       1.077  -2.848   0.832  1.00  0.00    -0.012 A 
ATOM     26  C   UNL     1       2.383  -3.006   0.354  1.00  0.00     0.012 A 
ATOM     27  C   UNL     1       0.134  -3.869   0.628  1.00  0.00     0.012 A 
ATOM     28  C   UNL     1       2.740  -4.180  -0.316  1.00  0.00     0.040 A 
ATOM     29  C   UNL     1       0.494  -5.038  -0.042  1.00  0.00     0.040 A 
ATOM     30  C   UNL     1       1.794  -5.182  -0.507  1.00  0.00     0.123 A 
ATOM     31  F   UNL     1       2.145  -6.307  -1.144  1.00  0.00    -0.207 F 
ENDBRANCH  14  25
ENDBRANCH   9  10
ENDBRANCH   8   9
ENDBRANCH   7   8
ENDBRANCH   4   7
ENDBRANCH   2   3
ENDBRANCH   1   2
BRANCH   1  32
ATOM     32  C   UNL     1       1.738  -0.164  10.836  1.00  0.00     0.002 C 
BRANCH  32  33
ATOM     33  C   UNL     1       2.870  -0.569   9.878  1.00  0.00     0.002 C 
BRANCH  33  34
ATOM     34  C   UNL     1       3.090   0.344   8.661  1.00  0.00     0.021 C 
BRANCH  34  35
ATOM     35  C   UNL     1       3.498   1.760   9.035  1.00  0.00     0.116 C 
BRANCH  35  36
ATOM     36  N   UNL     1       4.755   1.779   9.772  1.00  0.00    -0.352 N 
ATOM     37  C   UNL     1       5.483   2.847  10.241  1.00  0.00     0.251 C 
ATOM     38  H   UNL     1       5.142   0.894   9.962  1.00  0.00     0.163 HD
ATOM     39  O   UNL     1       6.657   2.708  10.546  1.00  0.00    -0.269 OA
BRANCH  37  40
ATOM     40  C   UNL     1       4.834   4.162  10.392  1.00  0.00     0.039 A 
ATOM     41  C   UNL     1       5.574   5.329  10.178  1.00  0.00     0.014 A 
ATOM     42  C   UNL     1       3.508   4.228  10.822  1.00  0.00     0.014 A 
ATOM     43  C   UNL     1       4.960   6.560  10.372  1.00  0.00     0.010 A 
ATOM     44  C   UNL     1       2.866   5.437  10.902  1.00  0.00     0.010 A 
ATOM     45  C   UNL     1       3.608   6.598  10.737  1.00  0.00    -0.014 A 
BRANCH  45  46
ATOM     46  C   UNL     1       2.917   7.868  10.860  1.00  0.00     0.031 A 
ATOM     47  C   UNL     1       2.822   8.621   9.586  1.00  0.00     0.074 A 
ATOM     48  C   UNL     1       2.246   8.229  11.972  1.00  0.00     0.049 A 
ATOM     49  N   UNL     1       3.465   9.691   9.257  1.00  0.00    -0.248 NA
ATOM     50  C   UNL     1       2.053   8.024   8.482  1.00  0.00     0.031 C 
ATOM     51  C   UNL     1       1.980   7.436  13.177  1.00  0.00     0.029 A 
ATOM     52  N   UNL     1       1.576   9.385  12.219  1.00  0.00    -0.354 N 
ATOM     53  C   UNL     1       3.008  10.033   7.988  1.00  0.00     0.074 A 
ATOM     54  C   UNL     1       2.318   8.875   7.487  1.00  0.00     0.031 C 
ATOM     55  C   UNL     1       1.036   8.054  13.924  1.00  0.00     0.029 A 
ATOM     56  C   UNL     1       0.750   9.350  13.336  1.00  0.00     0.049 A 
ATOM     57  H   UNL     1       1.668  10.184  11.650  1.00  0.00     0.167 HD
ATOM     58  C   UNL     1       3.003  11.333   7.582  1.00  0.00     0.037 A 
ATOM     59  C   UNL     1      -0.121  10.317  13.720  1.00  0.00     0.037 A 
ATOM     60  C   UNL     1       3.832  12.141   8.448  1.00  0.00     0.049 A 
ATOM     61  C   UNL     1       0.283  11.572  13.036  1.00  0.00     0.074 A 
ATOM     62  C   UNL     1       5.165  12.141   8.809  1.00  0.00     0.029 A 
ATOM     63  N   UNL     1       3.191  12.901   9.396  1.00  0.00    -0.354 N 
ATOM     64  N   UNL     1       1.379  12.222  13.310  1.00  0.00    -0.248 NA
ATOM     65  C   UNL     1      -0.290  11.842  11.727  1.00  0.00     0.031 C 
ATOM     66  C   UNL     1       5.173  12.486  10.194  1.00  0.00     0.029 A 
ATOM     67  C   UNL     1       3.859  12.746  10.582  1.00  0.00     0.049 A 
ATOM     68  H   UNL     1       2.393  13.459   9.250  1.00  0.00     0.167 HD
ATOM     69  C   UNL     1       1.870  12.624  12.076  1.00  0.00     0.074 A 
ATOM     70  C   UNL     1       0.754  12.441  11.148  1.00  0.00     0.031 C 
ATOM     71  C   UNL     1       3.212  12.782  11.873  1.00  0.00     0.037 A 
BRANCH  58  72
ATOM     72  C   UNL     1       1.936  11.958   6.708  1.00  0.00     0.057 A 
ATOM     73  C   UNL     1       0.655  11.415   6.485  1.00  0.00     0.134 A 
ATOM     74  C   UNL     1       2.076  13.312   6.347  1.00  0.00     0.134 A 
ATOM     75  F   UNL     1       0.335  10.154   6.793  1.00  0.00    -0.206 F 
ATOM     76  C   UNL     1      -0.420  12.176   6.016  1.00  0.00     0.040 A 
ATOM     77  C   UNL     1       0.995  14.094   5.925  1.00  0.00     0.040 A 
ATOM     78  F   UNL     1       3.251  13.946   6.488  1.00  0.00    -0.206 F 
ATOM     79  C   UNL     1      -0.264  13.530   5.777  1.00  0.00     0.006 A 
ENDBRANCH  58  72
BRANCH  59  80
ATOM     80  C   UNL     1      -1.424  10.183  14.407  1.00  0.00     0.057 A 
ATOM     81  C   UNL     1      -2.228   9.044  14.231  1.00  0.00     0.134 A 
ATOM     82  C   UNL     1      -2.040  11.283  15.022  1.00  0.00     0.134 A 
ATOM     83  F   UNL     1      -1.764   7.963  13.588  1.00  0.00    -0.206 F 
ATOM     84  C   UNL     1      -3.571   9.007  14.622  1.00  0.00     0.040 A 
ATOM     85  C   UNL     1      -3.385  11.261  15.415  1.00  0.00     0.040 A 
ATOM     86  F   UNL     1      -1.367  12.430  15.196  1.00  0.00    -0.206 F 
ATOM     87  C   UNL     1      -4.159  10.123  15.204  1.00  0.00     0.006 A 
ENDBRANCH  59  80
BRANCH  71  88
ATOM     88  C   UNL     1       4.104  12.770  13.084  1.00  0.00     0.057 A 
ATOM     89  C   UNL     1       4.921  13.879  13.324  1.00  0.00     0.134 A 
ATOM     90  C   UNL     1       4.269  11.666  13.936  1.00  0.00     0.134 A 
ATOM     91  F   UNL     1       4.861  14.949  12.515  1.00  0.00    -0.206 F 
ATOM     92  C   UNL     1       5.846  13.902  14.370  1.00  0.00     0.040 A 
ATOM     93  C   UNL     1       5.167  11.690  15.009  1.00  0.00     0.040 A 
ATOM     94  F   UNL     1       3.608  10.522  13.727  1.00  0.00    -0.206 F 
ATOM     95  C   UNL     1       5.961  12.810  15.226  1.00  0.00     0.006 A 
ENDBRANCH  71  88
ENDBRANCH  45  46
ENDBRANCH  37  40
ENDBRANCH  35  36
ENDBRANCH  34  35
ENDBRANCH  33  34
ENDBRANCH  32  33
ENDBRANCH   1  32
TORSDOF 17
