REMARK SMILES O=C(NCCCCCCNC(=O)[C@H]1CC=CC[C@@H]1C(=O)Nc1nn(Cc2ccccc2F)cc1Br)c1ccc(-c2c3nc(c(-c4c(F)cccc4F)c4ccc([nH]4)c(-c4c(F)cccc4F)c4nc(c(-c5c(F)cccc5F)c5ccc2[nH]5)C=C4)C=C3)cc1
REMARK SMILES IDX 7 1 6 2 5 3 4 4 3 5 1 6 2 7 36 9 37 10 89 11 38 12 88 13
REMARK SMILES IDX 39 14 40 15 41 16 82 17 42 18 87 19 81 20 83 21 43 22 86 23
REMARK SMILES IDX 80 24 79 25 44 27 70 28 53 29 69 30 54 31 57 32 68 33 84 34
REMARK SMILES IDX 55 35 56 36 67 38 85 39 58 40 45 41 46 42 51 43 47 44 48 45
REMARK SMILES IDX 50 46 52 47 49 48 71 49 72 50 77 51 73 52 74 53 76 54 78 55
REMARK SMILES IDX 75 56 59 57 60 58 65 59 61 60 62 61 64 62 66 63 63 64 8 65
REMARK SMILES IDX 9 66 10 67 11 68 12 70 13 71 14 72 18 73 15 74 17 75 16 76
REMARK SMILES IDX 19 77 20 78 21 79 22 81 23 82 34 83 24 84 33 85 35 86 25 87
REMARK SMILES IDX 26 88 27 89 31 90 28 91 30 92 32 93 29 94
REMARK H PARENT 3 8 83 26 57 37 10 69 21 80
REMARK Flexibility Score: inf
ROOT
ATOM      1  C   UNL     1       4.333  -2.082   3.581  1.00  0.00     0.002 C 
ENDROOT
BRANCH   1   2
ATOM      2  C   UNL     1       3.789  -0.663   3.364  1.00  0.00     0.002 C 
BRANCH   2   3
ATOM      3  C   UNL     1       4.459   0.145   2.248  1.00  0.00     0.021 C 
BRANCH   3   4
ATOM      4  C   UNL     1       4.462  -0.540   0.882  1.00  0.00     0.116 C 
BRANCH   4   5
ATOM      5  N   UNL     1       3.145  -0.870   0.377  1.00  0.00    -0.352 N 
ATOM      6  O   UNL     1       1.089  -0.760  -0.447  1.00  0.00    -0.269 OA
ATOM      7  C   UNL     1       2.091  -0.135  -0.089  1.00  0.00     0.251 C 
ATOM      8  H   UNL     1       2.971  -1.839   0.365  1.00  0.00     0.163 HD
BRANCH   7   9
ATOM      9  C   UNL     1       2.061   1.350  -0.148  1.00  0.00     0.039 A 
ATOM     10  C   UNL     1       3.188   2.168  -0.216  1.00  0.00     0.014 A 
ATOM     11  C   UNL     1       0.789   1.950  -0.195  1.00  0.00     0.014 A 
ATOM     12  C   UNL     1       3.053   3.553  -0.271  1.00  0.00     0.010 A 
ATOM     13  C   UNL     1       0.647   3.333  -0.285  1.00  0.00     0.010 A 
ATOM     14  C   UNL     1       1.784   4.138  -0.311  1.00  0.00    -0.014 A 
BRANCH  14  15
ATOM     15  C   UNL     1       1.716   5.581  -0.545  1.00  0.00     0.031 A 
ATOM     16  C   UNL     1       2.251   6.059  -1.857  1.00  0.00     0.074 A 
ATOM     17  C   UNL     1       1.076   6.461   0.247  1.00  0.00     0.049 A 
ATOM     18  N   UNL     1       3.188   6.925  -2.085  1.00  0.00    -0.248 NA
ATOM     19  C   UNL     1       1.678   5.462  -3.074  1.00  0.00     0.031 C 
ATOM     20  C   UNL     1       0.188   6.189   1.376  1.00  0.00     0.029 A 
ATOM     21  N   UNL     1       1.020   7.819   0.120  1.00  0.00    -0.354 N 
ATOM     22  C   UNL     1       3.234   7.091  -3.470  1.00  0.00     0.074 A 
ATOM     23  C   UNL     1       2.341   6.110  -4.032  1.00  0.00     0.031 C 
ATOM     24  C   UNL     1      -0.474   7.325   1.698  1.00  0.00     0.029 A 
ATOM     25  C   UNL     1       0.037   8.420   0.889  1.00  0.00     0.049 A 
ATOM     26  H   UNL     1       1.625   8.328  -0.467  1.00  0.00     0.167 HD
ATOM     27  C   UNL     1       3.897   8.116  -4.074  1.00  0.00     0.037 A 
ATOM     28  C   UNL     1      -0.368   9.709   0.812  1.00  0.00     0.037 A 
ATOM     29  C   UNL     1       4.837   8.755  -3.201  1.00  0.00     0.049 A 
ATOM     30  C   UNL     1       0.691  10.491   0.129  1.00  0.00     0.074 A 
ATOM     31  C   UNL     1       5.973   8.355  -2.526  1.00  0.00     0.029 A 
ATOM     32  N   UNL     1       4.514   9.981  -2.680  1.00  0.00    -0.354 N 
ATOM     33  N   UNL     1       1.853  10.779   0.642  1.00  0.00    -0.248 NA
ATOM     34  C   UNL     1       0.575  10.694  -1.307  1.00  0.00     0.031 C 
ATOM     35  C   UNL     1       5.979   9.119  -1.323  1.00  0.00     0.029 A 
ATOM     36  C   UNL     1       4.850   9.939  -1.353  1.00  0.00     0.049 A 
ATOM     37  H   UNL     1       4.118  10.742  -3.164  1.00  0.00     0.167 HD
ATOM     38  C   UNL     1       2.720  10.810  -0.439  1.00  0.00     0.074 A 
ATOM     39  C   UNL     1       1.860  10.879  -1.614  1.00  0.00     0.031 C 
ATOM     40  C   UNL     1       4.041  10.501  -0.297  1.00  0.00     0.037 A 
BRANCH  27  41
ATOM     41  C   UNL     1       3.512   8.711  -5.401  1.00  0.00     0.057 A 
ATOM     42  C   UNL     1       2.188   8.731  -5.879  1.00  0.00     0.134 A 
ATOM     43  C   UNL     1       4.421   9.520  -6.107  1.00  0.00     0.134 A 
ATOM     44  F   UNL     1       1.197   8.101  -5.233  1.00  0.00    -0.206 F 
ATOM     45  C   UNL     1       1.798   9.478  -6.994  1.00  0.00     0.040 A 
ATOM     46  C   UNL     1       4.031  10.311  -7.196  1.00  0.00     0.040 A 
ATOM     47  F   UNL     1       5.701   9.617  -5.719  1.00  0.00    -0.206 F 
ATOM     48  C   UNL     1       2.716  10.290  -7.644  1.00  0.00     0.006 A 
ENDBRANCH  27  41
BRANCH  28  49
ATOM     49  C   UNL     1      -1.711  10.278   1.064  1.00  0.00     0.057 A 
ATOM     50  C   UNL     1      -2.881   9.527   0.858  1.00  0.00     0.134 A 
ATOM     51  C   UNL     1      -1.888  11.657   1.250  1.00  0.00     0.134 A 
ATOM     52  F   UNL     1      -2.826   8.214   0.594  1.00  0.00    -0.206 F 
ATOM     53  C   UNL     1      -4.150  10.113   0.825  1.00  0.00     0.040 A 
ATOM     54  C   UNL     1      -3.151  12.258   1.206  1.00  0.00     0.040 A 
ATOM     55  F   UNL     1      -0.830  12.464   1.415  1.00  0.00    -0.206 F 
ATOM     56  C   UNL     1      -4.287  11.486   0.982  1.00  0.00     0.006 A 
ENDBRANCH  28  49
BRANCH  40  57
ATOM     57  C   UNL     1       4.608  10.437   1.092  1.00  0.00     0.057 A 
ATOM     58  C   UNL     1       5.723  11.225   1.402  1.00  0.00     0.134 A 
ATOM     59  C   UNL     1       4.191   9.515   2.062  1.00  0.00     0.134 A 
ATOM     60  F   UNL     1       6.217  12.086   0.498  1.00  0.00    -0.206 F 
ATOM     61  C   UNL     1       6.389  11.111   2.624  1.00  0.00     0.040 A 
ATOM     62  C   UNL     1       4.827   9.417   3.304  1.00  0.00     0.040 A 
ATOM     63  F   UNL     1       3.203   8.646   1.815  1.00  0.00    -0.206 F 
ATOM     64  C   UNL     1       5.935  10.211   3.585  1.00  0.00     0.006 A 
ENDBRANCH  40  57
ENDBRANCH  14  15
ENDBRANCH   7   9
ENDBRANCH   4   5
ENDBRANCH   3   4
ENDBRANCH   2   3
ENDBRANCH   1   2
BRANCH   1  65
ATOM     65  C   UNL     1       5.856  -2.194   3.697  1.00  0.00     0.021 C 
BRANCH  65  66
ATOM     66  C   UNL     1       6.436  -1.441   4.889  1.00  0.00     0.116 C 
BRANCH  66  67
ATOM     67  N   UNL     1       6.555  -2.293   6.056  1.00  0.00    -0.356 N 
ATOM     68  C   UNL     1       7.551  -2.766   6.834  1.00  0.00     0.224 C 
ATOM     69  H   UNL     1       5.675  -2.611   6.362  1.00  0.00     0.163 HD
ATOM     70  O   UNL     1       7.142  -3.323   7.868  1.00  0.00    -0.275 OA
BRANCH  68  71
ATOM     71  C   UNL     1       9.069  -2.705   6.585  1.00  0.00     0.095 C 
ATOM     72  C   UNL     1       9.624  -4.144   6.695  1.00  0.00     0.041 C 
ATOM     73  C   UNL     1       9.619  -1.990   5.353  1.00  0.00     0.095 C 
ATOM     74  C   UNL     1       9.556  -4.902   5.403  1.00  0.00    -0.030 C 
ATOM     75  C   UNL     1       9.540  -2.807   4.046  1.00  0.00     0.041 C 
ATOM     76  C   UNL     1       9.503  -4.295   4.212  1.00  0.00    -0.030 C 
BRANCH  73  77
ATOM     77  C   UNL     1      11.062  -1.507   5.537  1.00  0.00     0.229 C 
ATOM     78  O   UNL     1      12.002  -2.295   5.675  1.00  0.00    -0.274 OA
ATOM     79  N   UNL     1      11.346  -0.182   5.341  1.00  0.00    -0.308 N 
ATOM     80  H   UNL     1      12.253   0.020   5.016  1.00  0.00     0.171 HD
BRANCH  79  81
ATOM     81  C   UNL     1      10.522   0.906   5.540  1.00  0.00     0.168 A 
ATOM     82  N   UNL     1       9.446   0.895   6.335  1.00  0.00    -0.153 NA
ATOM     83  C   UNL     1      10.729   2.201   5.016  1.00  0.00     0.080 A 
ATOM     84  N   UNL     1       9.021   2.178   6.364  1.00  0.00    -0.265 N 
ATOM     85  C   UNL     1       9.729   2.991   5.520  1.00  0.00     0.127 A 
ATOM     86  Br  UNL     1      12.087   2.713   3.837  1.00  0.00    -0.045 Br
BRANCH  84  87
ATOM     87  C   UNL     1       8.075   2.632   7.382  1.00  0.00     0.182 C 
BRANCH  87  88
ATOM     88  C   UNL     1       6.756   1.914   7.363  1.00  0.00     0.009 A 
ATOM     89  C   UNL     1       5.645   2.434   6.683  1.00  0.00     0.008 A 
ATOM     90  C   UNL     1       6.603   0.719   8.074  1.00  0.00     0.128 A 
ATOM     91  C   UNL     1       4.415   1.770   6.729  1.00  0.00     0.001 A 
ATOM     92  C   UNL     1       5.383   0.052   8.119  1.00  0.00     0.039 A 
ATOM     93  F   UNL     1       7.640   0.210   8.752  1.00  0.00    -0.207 F 
ATOM     94  C   UNL     1       4.283   0.578   7.445  1.00  0.00     0.003 A 
ENDBRANCH  87  88
ENDBRANCH  84  87
ENDBRANCH  79  81
ENDBRANCH  73  77
ENDBRANCH  68  71
ENDBRANCH  66  67
ENDBRANCH  65  66
ENDBRANCH   1  65
TORSDOF 17
