REMARK SMILES Cc1c(CC(=O)NCCCCCCNC(=O)c2ccc(-c3c4nc(c(-c5c(F)cccc5F)c5ccc([nH]5)c(-c5c(F)cccc5F)c5nc(c(-c6c(F)cccc6F)c6ccc3[nH]6)C=C5)C=C4)cc2)c(=O)oc2cc(OCc3c(F)cccc3Cl)ccc12
REMARK SMILES IDX 9 1 8 2 7 3 5 4 6 5 4 7 3 8 1 9 2 10 89 11 71 12 74 13 88 14
REMARK SMILES IDX 72 15 73 16 75 17 87 18 76 19 77 20 78 21 79 22 80 23 85 24
REMARK SMILES IDX 81 25 82 26 84 27 86 28 83 29 10 30 11 31 12 32 13 33 14 34
REMARK SMILES IDX 15 35 16 37 17 38 18 39 70 40 19 41 69 42 20 43 21 44 22 45
REMARK SMILES IDX 63 46 23 47 68 48 62 49 64 50 24 51 67 52 61 53 60 54 25 56
REMARK SMILES IDX 51 57 34 58 50 59 35 60 38 61 49 62 65 63 36 64 37 65 48 67
REMARK SMILES IDX 66 68 39 69 26 70 27 71 32 72 28 73 29 74 31 75 33 76 30 77
REMARK SMILES IDX 52 78 53 79 58 80 54 81 55 82 57 83 59 84 56 85 40 86 41 87
REMARK SMILES IDX 46 88 42 89 43 90 45 91 47 92 44 93
REMARK H PARENT 7 6 14 36 64 55 38 66
REMARK Flexibility Score: inf
ROOT
ATOM      1  C   UNL     1      -1.860  -0.300  -3.458  1.00  0.00     0.021 C 
ENDROOT
BRANCH   1   2
ATOM      2  C   UNL     1      -3.160  -0.652  -2.732  1.00  0.00     0.116 C 
BRANCH   2   3
ATOM      3  N   UNL     1      -3.208  -2.062  -2.408  1.00  0.00    -0.356 N 
ATOM      4  C   UNL     1      -3.112  -2.684  -1.202  1.00  0.00     0.224 C 
ATOM      5  O   UNL     1      -3.122  -3.917  -1.188  1.00  0.00    -0.275 OA
ATOM      6  H   UNL     1      -3.329  -2.663  -3.179  1.00  0.00     0.163 HD
BRANCH   4   7
ATOM      7  C   UNL     1      -3.048  -1.880   0.095  1.00  0.00     0.143 C 
BRANCH   7   8
ATOM      8  C   UNL     1      -1.777  -1.078   0.286  1.00  0.00     0.051 A 
ATOM      9  C   UNL     1      -0.226  -3.066   0.209  1.00  0.00     0.046 C 
ATOM     10  C   UNL     1      -0.527  -1.591   0.313  1.00  0.00    -0.029 A 
ATOM     11  C   UNL     1       0.625  -0.673   0.404  1.00  0.00     0.021 A 
ATOM     12  C   UNL     1      -2.011   0.383   0.479  1.00  0.00     0.340 A 
ATOM     13  C   UNL     1       0.395   0.698   0.488  1.00  0.00     0.142 A 
ATOM     14  C   UNL     1       1.958  -1.092   0.342  1.00  0.00     0.016 A 
ATOM     15  O   UNL     1      -3.142   0.857   0.538  1.00  0.00    -0.246 OA
ATOM     16  O   UNL     1      -0.907   1.209   0.564  1.00  0.00    -0.422 OA
ATOM     17  C   UNL     1       1.423   1.647   0.447  1.00  0.00     0.094 A 
ATOM     18  C   UNL     1       2.997  -0.158   0.284  1.00  0.00     0.047 A 
ATOM     19  C   UNL     1       2.729   1.212   0.274  1.00  0.00     0.123 A 
BRANCH  19  20
ATOM     20  O   UNL     1       3.809   1.987  -0.039  1.00  0.00    -0.489 OA
BRANCH  20  21
ATOM     21  C   UNL     1       3.622   3.364  -0.369  1.00  0.00     0.270 C 
BRANCH  21  22
ATOM     22  C   UNL     1       2.813   3.758  -1.592  1.00  0.00     0.044 A 
ATOM     23  C   UNL     1       2.448   5.114  -1.658  1.00  0.00     0.131 A 
ATOM     24  C   UNL     1       2.404   2.944  -2.658  1.00  0.00     0.050 A 
ATOM     25  F   UNL     1       2.894   5.961  -0.717  1.00  0.00    -0.207 F 
ATOM     26  C   UNL     1       1.638   5.629  -2.667  1.00  0.00     0.040 A 
ATOM     27  C   UNL     1       1.542   3.445  -3.649  1.00  0.00     0.021 A 
ATOM     28  Cl  UNL     1       2.947   1.325  -2.906  1.00  0.00    -0.084 Cl
ATOM     29  C   UNL     1       1.150   4.781  -3.650  1.00  0.00     0.005 A 
ENDBRANCH  21  22
ENDBRANCH  20  21
ENDBRANCH  19  20
ENDBRANCH   7   8
ENDBRANCH   4   7
ENDBRANCH   2   3
ENDBRANCH   1   2
BRANCH   1  30
ATOM     30  C   UNL     1      -1.746  -0.912  -4.862  1.00  0.00     0.002 C 
BRANCH  30  31
ATOM     31  C   UNL     1      -2.892  -0.564  -5.819  1.00  0.00     0.002 C 
BRANCH  31  32
ATOM     32  C   UNL     1      -3.147   0.933  -6.004  1.00  0.00     0.021 C 
BRANCH  32  33
ATOM     33  C   UNL     1      -1.960   1.711  -6.561  1.00  0.00     0.116 C 
BRANCH  33  34
ATOM     34  N   UNL     1      -1.613   1.286  -7.909  1.00  0.00    -0.352 N 
ATOM     35  C   UNL     1      -1.494   2.033  -9.055  1.00  0.00     0.251 C 
ATOM     36  H   UNL     1      -1.439   0.323  -8.014  1.00  0.00     0.163 HD
ATOM     37  O   UNL     1      -1.397   1.481 -10.144  1.00  0.00    -0.269 OA
BRANCH  35  38
ATOM     38  C   UNL     1      -1.500   3.509  -8.973  1.00  0.00     0.039 A 
ATOM     39  C   UNL     1      -2.255   4.232  -9.899  1.00  0.00     0.014 A 
ATOM     40  C   UNL     1      -0.758   4.177  -7.996  1.00  0.00     0.014 A 
ATOM     41  C   UNL     1      -2.312   5.624  -9.808  1.00  0.00     0.010 A 
ATOM     42  C   UNL     1      -0.878   5.557  -7.858  1.00  0.00     0.010 A 
ATOM     43  C   UNL     1      -1.653   6.295  -8.765  1.00  0.00    -0.014 A 
BRANCH  43  44
ATOM     44  C   UNL     1      -1.767   7.768  -8.610  1.00  0.00     0.031 A 
ATOM     45  C   UNL     1      -0.549   8.642  -8.736  1.00  0.00     0.074 A 
ATOM     46  C   UNL     1      -2.960   8.314  -8.304  1.00  0.00     0.049 A 
ATOM     47  N   UNL     1      -0.444   9.938  -8.587  1.00  0.00    -0.248 NA
ATOM     48  C   UNL     1       0.723   7.968  -9.040  1.00  0.00     0.031 C 
ATOM     49  C   UNL     1      -4.205   7.569  -8.107  1.00  0.00     0.029 A 
ATOM     50  N   UNL     1      -3.320   9.622  -8.097  1.00  0.00    -0.354 N 
ATOM     51  C   UNL     1       0.901  10.232  -8.771  1.00  0.00     0.074 A 
ATOM     52  C   UNL     1       1.584   8.973  -8.981  1.00  0.00     0.031 C 
ATOM     53  C   UNL     1      -5.196   8.433  -7.838  1.00  0.00     0.029 A 
ATOM     54  C   UNL     1      -4.652   9.787  -7.802  1.00  0.00     0.049 A 
ATOM     55  H   UNL     1      -2.684  10.371  -8.155  1.00  0.00     0.167 HD
ATOM     56  C   UNL     1       1.509  11.442  -8.791  1.00  0.00     0.037 A 
ATOM     57  C   UNL     1      -5.354  10.902  -7.528  1.00  0.00     0.037 A 
ATOM     58  C   UNL     1       0.824  12.694  -8.604  1.00  0.00     0.049 A 
ATOM     59  C   UNL     1      -4.652  12.233  -7.540  1.00  0.00     0.074 A 
ATOM     60  C   UNL     1       1.340  13.976  -8.665  1.00  0.00     0.029 A 
ATOM     61  N   UNL     1      -0.527  12.820  -8.315  1.00  0.00    -0.354 N 
ATOM     62  N   UNL     1      -3.393  12.501  -7.788  1.00  0.00    -0.248 NA
ATOM     63  C   UNL     1      -5.471  13.416  -7.240  1.00  0.00     0.031 C 
ATOM     64  C   UNL     1       0.314  14.876  -8.360  1.00  0.00     0.029 A 
ATOM     65  C   UNL     1      -0.855  14.158  -8.166  1.00  0.00     0.049 A 
ATOM     66  H   UNL     1      -1.159  12.071  -8.228  1.00  0.00     0.167 HD
ATOM     67  C   UNL     1      -3.275  13.883  -7.704  1.00  0.00     0.074 A 
ATOM     68  C   UNL     1      -4.594  14.397  -7.396  1.00  0.00     0.031 C 
ATOM     69  C   UNL     1      -2.173  14.656  -7.865  1.00  0.00     0.037 A 
BRANCH  56  70
ATOM     70  C   UNL     1       2.993  11.470  -9.026  1.00  0.00     0.057 A 
ATOM     71  C   UNL     1       3.553  11.134 -10.266  1.00  0.00     0.134 A 
ATOM     72  C   UNL     1       3.870  11.872  -8.011  1.00  0.00     0.134 A 
ATOM     73  F   UNL     1       2.770  10.729 -11.278  1.00  0.00    -0.206 F 
ATOM     74  C   UNL     1       4.932  11.170 -10.480  1.00  0.00     0.040 A 
ATOM     75  C   UNL     1       5.249  11.941  -8.222  1.00  0.00     0.040 A 
ATOM     76  F   UNL     1       3.403  12.214  -6.801  1.00  0.00    -0.206 F 
ATOM     77  C   UNL     1       5.783  11.582  -9.457  1.00  0.00     0.006 A 
ENDBRANCH  56  70
BRANCH  57  78
ATOM     78  C   UNL     1      -6.808  10.815  -7.237  1.00  0.00     0.057 A 
ATOM     79  C   UNL     1      -7.756  11.328  -8.130  1.00  0.00     0.134 A 
ATOM     80  C   UNL     1      -7.285  10.228  -6.059  1.00  0.00     0.134 A 
ATOM     81  F   UNL     1      -7.362  11.919  -9.267  1.00  0.00    -0.206 F 
ATOM     82  C   UNL     1      -9.123  11.283  -7.852  1.00  0.00     0.040 A 
ATOM     83  C   UNL     1      -8.650  10.150  -5.781  1.00  0.00     0.040 A 
ATOM     84  F   UNL     1      -6.428   9.709  -5.166  1.00  0.00    -0.206 F 
ATOM     85  C   UNL     1      -9.574  10.687  -6.675  1.00  0.00     0.006 A 
ENDBRANCH  57  78
BRANCH  69  86
ATOM     86  C   UNL     1      -2.352  16.142  -7.748  1.00  0.00     0.057 A 
ATOM     87  C   UNL     1      -2.602  16.765  -6.518  1.00  0.00     0.134 A 
ATOM     88  C   UNL     1      -2.232  16.965  -8.876  1.00  0.00     0.134 A 
ATOM     89  F   UNL     1      -2.740  16.034  -5.402  1.00  0.00    -0.206 F 
ATOM     90  C   UNL     1      -2.749  18.149  -6.419  1.00  0.00     0.040 A 
ATOM     91  C   UNL     1      -2.348  18.352  -8.784  1.00  0.00     0.040 A 
ATOM     92  F   UNL     1      -1.984  16.434 -10.083  1.00  0.00    -0.206 F 
ATOM     93  C   UNL     1      -2.614  18.948  -7.553  1.00  0.00     0.006 A 
ENDBRANCH  69  86
ENDBRANCH  43  44
ENDBRANCH  35  38
ENDBRANCH  33  34
ENDBRANCH  32  33
ENDBRANCH  31  32
ENDBRANCH  30  31
ENDBRANCH   1  30
TORSDOF 17
