REMARK SMILES CSC[C@H](C(=O)NCCCCCCNC(=O)c1ccc(-c2c3nc(c(-c4c(F)cccc4F)c4ccc([nH]4)c(-c4c(F)cccc4F)c4nc(c(-c5c(F)cccc5F)c5ccc2[nH]5)C=C4)C=C3)cc1)c1ccccc1
REMARK SMILES IDX 10 1 9 2 8 3 7 4 5 5 6 6 4 8 3 9 2 10 1 11 71 12 72 13 76 14
REMARK SMILES IDX 73 15 75 16 74 17 11 18 12 19 13 20 14 21 15 22 16 24 17 25
REMARK SMILES IDX 18 26 70 27 19 28 69 29 20 30 21 31 22 32 63 33 23 34 68 35
REMARK SMILES IDX 62 36 64 37 24 38 67 39 61 40 60 41 25 43 51 44 34 45 50 46
REMARK SMILES IDX 35 47 38 48 49 49 65 50 36 51 37 52 48 54 66 55 39 56 26 57
REMARK SMILES IDX 27 58 32 59 28 60 29 61 31 62 33 63 30 64 52 65 53 66 58 67
REMARK SMILES IDX 54 68 55 69 57 70 59 71 56 72 40 73 41 74 46 75 42 76 43 77
REMARK SMILES IDX 45 78 47 79 44 80
REMARK H PARENT 7 7 14 23 64 42 38 53
REMARK Flexibility Score: inf
ROOT
ATOM      1  C   UNL     1       5.567   1.251  -1.937  1.00  0.00     0.002 C 
ENDROOT
BRANCH   1   2
ATOM      2  C   UNL     1       4.457   2.072  -1.278  1.00  0.00     0.021 C 
BRANCH   2   3
ATOM      3  C   UNL     1       3.324   2.443  -2.222  1.00  0.00     0.116 C 
BRANCH   3   4
ATOM      4  N   UNL     1       2.475   1.307  -2.529  1.00  0.00    -0.356 N 
ATOM      5  C   UNL     1       1.113   1.271  -2.672  1.00  0.00     0.228 C 
ATOM      6  O   UNL     1       0.608   0.242  -3.126  1.00  0.00    -0.274 OA
ATOM      7  H   UNL     1       2.940   0.448  -2.651  1.00  0.00     0.163 HD
BRANCH   5   8
ATOM      8  C   UNL     1       0.252   2.486  -2.290  1.00  0.00     0.118 C 
BRANCH   8   9
ATOM      9  C   UNL     1       0.360   2.678  -0.754  1.00  0.00     0.087 C 
BRANCH   9  10
ATOM     10  S   UNL     1      -0.617   1.484   0.232  1.00  0.00    -0.164 SA
ATOM     11  C   UNL     1      -2.214   2.328   0.193  1.00  0.00     0.085 C 
ENDBRANCH   9  10
ENDBRANCH   8   9
BRANCH   8  12
ATOM     12  C   UNL     1       0.570   3.737  -3.134  1.00  0.00    -0.035 A 
ATOM     13  C   UNL     1       1.234   3.638  -4.373  1.00  0.00     0.004 A 
ATOM     14  C   UNL     1       0.193   5.021  -2.708  1.00  0.00     0.004 A 
ATOM     15  C   UNL     1       1.642   4.777  -5.073  1.00  0.00     0.000 A 
ATOM     16  C   UNL     1       0.584   6.160  -3.418  1.00  0.00     0.000 A 
ATOM     17  C   UNL     1       1.334   6.040  -4.583  1.00  0.00     0.000 A 
ENDBRANCH   8  12
ENDBRANCH   5   8
ENDBRANCH   3   4
ENDBRANCH   2   3
ENDBRANCH   1   2
BRANCH   1  18
ATOM     18  C   UNL     1       6.166   1.861  -3.210  1.00  0.00     0.002 C 
BRANCH  18  19
ATOM     19  C   UNL     1       6.607   3.322  -3.093  1.00  0.00     0.021 C 
BRANCH  19  20
ATOM     20  C   UNL     1       7.572   3.605  -1.951  1.00  0.00     0.116 C 
BRANCH  20  21
ATOM     21  N   UNL     1       8.803   2.843  -2.068  1.00  0.00    -0.352 N 
ATOM     22  C   UNL     1      10.095   3.286  -1.954  1.00  0.00     0.251 C 
ATOM     23  H   UNL     1       8.695   1.882  -2.255  1.00  0.00     0.163 HD
ATOM     24  O   UNL     1      11.037   2.556  -2.244  1.00  0.00    -0.269 OA
BRANCH  22  25
ATOM     25  C   UNL     1      10.339   4.666  -1.494  1.00  0.00     0.039 A 
ATOM     26  C   UNL     1      11.217   5.478  -2.216  1.00  0.00     0.014 A 
ATOM     27  C   UNL     1       9.681   5.158  -0.363  1.00  0.00     0.014 A 
ATOM     28  C   UNL     1      11.402   6.805  -1.828  1.00  0.00     0.010 A 
ATOM     29  C   UNL     1       9.810   6.498  -0.023  1.00  0.00     0.010 A 
ATOM     30  C   UNL     1      10.681   7.331  -0.744  1.00  0.00    -0.014 A 
BRANCH  30  31
ATOM     31  C   UNL     1      10.847   8.738  -0.306  1.00  0.00     0.031 A 
ATOM     32  C   UNL     1      11.407   9.021   1.060  1.00  0.00     0.074 A 
ATOM     33  C   UNL     1      10.422   9.745  -1.091  1.00  0.00     0.049 A 
ATOM     34  N   UNL     1      11.501  10.160   1.697  1.00  0.00    -0.248 NA
ATOM     35  C   UNL     1      11.896   7.862   1.825  1.00  0.00     0.031 C 
ATOM     36  C   UNL     1       9.836   9.593  -2.424  1.00  0.00     0.029 A 
ATOM     37  N   UNL     1      10.398  11.099  -0.870  1.00  0.00    -0.354 N 
ATOM     38  C   UNL     1      12.032   9.850   2.942  1.00  0.00     0.074 A 
ATOM     39  C   UNL     1      12.194   8.413   2.991  1.00  0.00     0.031 C 
ATOM     40  C   UNL     1       9.521  10.806  -2.906  1.00  0.00     0.029 A 
ATOM     41  C   UNL     1       9.839  11.816  -1.900  1.00  0.00     0.049 A 
ATOM     42  H   UNL     1      10.748  11.517  -0.050  1.00  0.00     0.167 HD
ATOM     43  C   UNL     1      12.374  10.690   3.947  1.00  0.00     0.037 A 
ATOM     44  C   UNL     1       9.595  13.135  -2.010  1.00  0.00     0.037 A 
ATOM     45  C   UNL     1      12.241  12.120   3.878  1.00  0.00     0.049 A 
ATOM     46  C   UNL     1       9.974  14.049  -0.876  1.00  0.00     0.074 A 
ATOM     47  C   UNL     1      12.606  13.065   4.820  1.00  0.00     0.029 A 
ATOM     48  N   UNL     1      11.701  12.810   2.803  1.00  0.00    -0.354 N 
ATOM     49  N   UNL     1      10.521  13.749   0.278  1.00  0.00    -0.248 NA
ATOM     50  C   UNL     1       9.706  15.482  -1.058  1.00  0.00     0.031 C 
ATOM     51  C   UNL     1      12.247  14.325   4.332  1.00  0.00     0.029 A 
ATOM     52  C   UNL     1      11.708  14.169   3.065  1.00  0.00     0.049 A 
ATOM     53  H   UNL     1      11.363  12.395   1.977  1.00  0.00     0.167 HD
ATOM     54  C   UNL     1      10.700  14.958   0.939  1.00  0.00     0.074 A 
ATOM     55  C   UNL     1      10.203  15.994   0.059  1.00  0.00     0.031 C 
ATOM     56  C   UNL     1      11.235  15.188   2.163  1.00  0.00     0.037 A 
BRANCH  43  57
ATOM     57  C   UNL     1      12.923  10.081   5.204  1.00  0.00     0.057 A 
ATOM     58  C   UNL     1      14.187   9.477   5.245  1.00  0.00     0.134 A 
ATOM     59  C   UNL     1      12.190  10.124   6.397  1.00  0.00     0.134 A 
ATOM     60  F   UNL     1      14.935   9.391   4.134  1.00  0.00    -0.206 F 
ATOM     61  C   UNL     1      14.690   8.913   6.418  1.00  0.00     0.040 A 
ATOM     62  C   UNL     1      12.695   9.590   7.584  1.00  0.00     0.040 A 
ATOM     63  F   UNL     1      10.975  10.692   6.432  1.00  0.00    -0.206 F 
ATOM     64  C   UNL     1      13.946   8.975   7.594  1.00  0.00     0.006 A 
ENDBRANCH  43  57
BRANCH  44  65
ATOM     65  C   UNL     1       8.976  13.677  -3.247  1.00  0.00     0.057 A 
ATOM     66  C   UNL     1       9.711  14.475  -4.131  1.00  0.00     0.134 A 
ATOM     67  C   UNL     1       7.639  13.420  -3.571  1.00  0.00     0.134 A 
ATOM     68  F   UNL     1      10.992  14.771  -3.866  1.00  0.00    -0.206 F 
ATOM     69  C   UNL     1       9.135  15.014  -5.282  1.00  0.00     0.040 A 
ATOM     70  C   UNL     1       7.057  13.932  -4.733  1.00  0.00     0.040 A 
ATOM     71  F   UNL     1       6.881  12.655  -2.771  1.00  0.00    -0.206 F 
ATOM     72  C   UNL     1       7.804  14.739  -5.588  1.00  0.00     0.006 A 
ENDBRANCH  44  65
BRANCH  56  73
ATOM     73  C   UNL     1      11.374  16.614   2.605  1.00  0.00     0.057 A 
ATOM     74  C   UNL     1      10.275  17.377   3.013  1.00  0.00     0.134 A 
ATOM     75  C   UNL     1      12.643  17.203   2.696  1.00  0.00     0.134 A 
ATOM     76  F   UNL     1       9.033  16.875   2.939  1.00  0.00    -0.206 F 
ATOM     77  C   UNL     1      10.431  18.680   3.489  1.00  0.00     0.040 A 
ATOM     78  C   UNL     1      12.814  18.494   3.194  1.00  0.00     0.040 A 
ATOM     79  F   UNL     1      13.738  16.520   2.329  1.00  0.00    -0.206 F 
ATOM     80  C   UNL     1      11.705  19.238   3.590  1.00  0.00     0.006 A 
ENDBRANCH  56  73
ENDBRANCH  30  31
ENDBRANCH  22  25
ENDBRANCH  20  21
ENDBRANCH  19  20
ENDBRANCH  18  19
ENDBRANCH   1  18
TORSDOF 16
