REMARK SMILES C[NH2+][C@@]1(C(=O)NCCCCCCNC(=O)c2ccc(-c3c4nc(c(-c5c(F)cccc5F)c5ccc([nH]5)c(-c5c(F)cccc5F)c5nc(c(-c6c(F)cccc6F)c6ccc3[nH]6)C=C5)C=C4)cc2)CC[C@H]([N@H+]2CCC[N@@H+]3CCC[C@@H]3C2)C1
REMARK SMILES IDX 8 1 7 2 6 3 4 4 5 5 3 7 70 8 83 9 71 10 72 11 2 12 1 13
REMARK SMILES IDX 73 16 74 18 75 19 82 21 81 22 77 23 80 24 78 25 79 27 76 28
REMARK SMILES IDX 9 30 10 31 11 32 12 33 13 34 14 35 15 37 16 38 17 39 69 40
REMARK SMILES IDX 18 41 68 42 19 43 20 44 21 45 62 46 22 47 67 48 61 49 63 50
REMARK SMILES IDX 23 51 66 52 60 53 59 54 24 56 50 57 33 58 49 59 34 60 37 61
REMARK SMILES IDX 48 62 64 63 35 64 36 65 47 67 65 68 38 69 25 70 26 71 31 72
REMARK SMILES IDX 27 73 28 74 30 75 32 76 29 77 51 78 52 79 57 80 53 81 54 82
REMARK SMILES IDX 56 83 58 84 55 85 39 86 40 87 45 88 41 89 42 90 44 91 46 92
REMARK SMILES IDX 43 93
REMARK H PARENT 6 6 2 14 2 15 73 17 77 26 13 36 63 55 37 66
REMARK Flexibility Score: 80.00
ROOT
ATOM      1  C   UNL     1      -4.988  -0.144   0.705  1.00  0.00     0.021 C 
ENDROOT
BRANCH   1   2
ATOM      2  C   UNL     1      -3.639   0.588   0.648  1.00  0.00     0.116 C 
BRANCH   2   3
ATOM      3  N   UNL     1      -2.546  -0.188   1.217  1.00  0.00    -0.351 N 
ATOM      4  C   UNL     1      -1.492  -0.910   0.750  1.00  0.00     0.281 C 
ATOM      5  O   UNL     1      -0.915  -1.564   1.637  1.00  0.00    -0.268 OA
ATOM      6  H   UNL     1      -2.578  -0.192   2.201  1.00  0.00     0.163 HD
BRANCH   4   7
ATOM      7  C   UNL     1      -0.934  -0.955  -0.726  1.00  0.00     0.181 C 
ATOM      8  C   UNL     1      -1.603  -0.176  -1.853  1.00  0.00     0.085 C 
ATOM      9  C   UNL     1      -1.081  -2.391  -1.256  1.00  0.00     0.144 C 
ATOM     10  C   UNL     1      -2.751  -1.064  -2.357  1.00  0.00     0.072 C 
ATOM     11  C   UNL     1      -2.515  -2.494  -1.793  1.00  0.00     0.191 C 
BRANCH   7  12
ATOM     12  N   UNL     1       0.540  -0.706  -0.716  1.00  0.00    -0.336 N 
ATOM     13  C   UNL     1       0.958   0.547  -0.119  1.00  0.00     0.331 C 
ATOM     14  H   UNL     1       0.984  -1.464  -0.197  1.00  0.00     0.346 HD
ATOM     15  H   UNL     1       0.823  -0.658  -1.695  1.00  0.00     0.346 HD
ENDBRANCH   7  12
BRANCH  11  16
ATOM     16  N   UNL     1      -3.613  -2.905  -0.870  1.00  0.00    -0.327 N 
ATOM     17  H   UNL     1      -3.776  -2.153  -0.200  1.00  0.00     0.348 HD
BRANCH  16  18
ATOM     18  C   UNL     1      -4.830  -3.140  -1.686  1.00  0.00     0.268 C 
BRANCH  18  19
ATOM     19  C   UNL     1      -5.867  -4.144  -1.191  1.00  0.00     0.123 CG0
ATOM     20  G   UNL     1      -6.326  -3.842   0.220  1.00  0.00     0.000 G0
ENDBRANCH  18  19
ENDBRANCH  16  18
BRANCH  16  21
ATOM     21  C   UNL     1      -3.273  -4.071  -0.024  1.00  0.00     0.328 C 
BRANCH  21  22
ATOM     22  C   UNL     1      -4.118  -4.399   1.254  1.00  0.00     0.240 C 
ATOM     23  N   UNL     1      -5.586  -4.552   1.247  1.00  0.00    -0.328 N 
ATOM     24  C   UNL     1      -3.820  -3.492   2.447  1.00  0.00     0.077 C 
ATOM     25  C   UNL     1      -6.093  -4.199   2.588  1.00  0.00     0.262 C 
ATOM     26  H   UNL     1      -5.751  -5.529   1.006  1.00  0.00     0.348 HD
ATOM     27  C   UNL     1      -4.885  -3.885   3.451  1.00  0.00     0.068 C 
BRANCH  23  28
ATOM     28  C   UNL     1      -6.326  -3.842   0.220  1.00  0.00     0.268 CG0
ATOM     29  G   UNL     1      -5.867  -4.144  -1.191  1.00  0.00     0.000 G0
ENDBRANCH  23  28
ENDBRANCH  21  22
ENDBRANCH  16  21
ENDBRANCH  11  16
ENDBRANCH   4   7
ENDBRANCH   2   3
ENDBRANCH   1   2
BRANCH   1  30
ATOM     30  C   UNL     1      -5.713  -0.125   2.060  1.00  0.00     0.002 C 
BRANCH  30  31
ATOM     31  C   UNL     1      -6.987   0.729   2.131  1.00  0.00     0.002 C 
BRANCH  31  32
ATOM     32  C   UNL     1      -8.104   0.459   1.112  1.00  0.00     0.021 C 
BRANCH  32  33
ATOM     33  C   UNL     1      -8.711  -0.941   1.058  1.00  0.00     0.116 C 
BRANCH  33  34
ATOM     34  N   UNL     1      -9.340  -1.390   2.286  1.00  0.00    -0.352 N 
ATOM     35  C   UNL     1     -10.539  -2.048   2.447  1.00  0.00     0.251 C 
ATOM     36  H   UNL     1      -8.844  -1.198   3.115  1.00  0.00     0.163 HD
ATOM     37  O   UNL     1     -10.929  -2.377   3.563  1.00  0.00    -0.269 OA
BRANCH  35  38
ATOM     38  C   UNL     1     -11.397  -2.308   1.270  1.00  0.00     0.039 A 
ATOM     39  C   UNL     1     -12.671  -1.735   1.240  1.00  0.00     0.014 A 
ATOM     40  C   UNL     1     -10.943  -3.074   0.192  1.00  0.00     0.014 A 
ATOM     41  C   UNL     1     -13.459  -1.857   0.093  1.00  0.00     0.010 A 
ATOM     42  C   UNL     1     -11.718  -3.163  -0.969  1.00  0.00     0.010 A 
ATOM     43  C   UNL     1     -12.973  -2.537  -1.037  1.00  0.00    -0.014 A 
BRANCH  43  44
ATOM     44  C   UNL     1     -13.756  -2.536  -2.302  1.00  0.00     0.031 A 
ATOM     45  C   UNL     1     -14.403  -3.791  -2.814  1.00  0.00     0.074 A 
ATOM     46  C   UNL     1     -13.864  -1.395  -3.011  1.00  0.00     0.049 A 
ATOM     47  N   UNL     1     -15.145  -3.959  -3.881  1.00  0.00    -0.248 NA
ATOM     48  C   UNL     1     -14.177  -5.018  -2.038  1.00  0.00     0.031 C 
ATOM     49  C   UNL     1     -13.246  -0.116  -2.652  1.00  0.00     0.029 A 
ATOM     50  N   UNL     1     -14.530  -1.123  -4.181  1.00  0.00    -0.354 N 
ATOM     51  C   UNL     1     -15.476  -5.307  -3.904  1.00  0.00     0.074 A 
ATOM     52  C   UNL     1     -14.815  -5.920  -2.770  1.00  0.00     0.031 C 
ATOM     53  C   UNL     1     -13.582   0.806  -3.568  1.00  0.00     0.029 A 
ATOM     54  C   UNL     1     -14.418   0.183  -4.590  1.00  0.00     0.049 A 
ATOM     55  H   UNL     1     -15.041  -1.802  -4.679  1.00  0.00     0.167 HD
ATOM     56  C   UNL     1     -16.274  -5.971  -4.776  1.00  0.00     0.037 A 
ATOM     57  C   UNL     1     -14.932   0.813  -5.664  1.00  0.00     0.037 A 
ATOM     58  C   UNL     1     -16.941  -5.364  -5.899  1.00  0.00     0.049 A 
ATOM     59  C   UNL     1     -15.808   0.052  -6.621  1.00  0.00     0.074 A 
ATOM     60  C   UNL     1     -17.814  -5.948  -6.802  1.00  0.00     0.029 A 
ATOM     61  N   UNL     1     -16.804  -4.038  -6.278  1.00  0.00    -0.354 N 
ATOM     62  N   UNL     1     -16.179  -1.204  -6.581  1.00  0.00    -0.248 NA
ATOM     63  C   UNL     1     -16.345   0.801  -7.767  1.00  0.00     0.031 C 
ATOM     64  C   UNL     1     -18.174  -4.984  -7.751  1.00  0.00     0.029 A 
ATOM     65  C   UNL     1     -17.557  -3.791  -7.415  1.00  0.00     0.049 A 
ATOM     66  H   UNL     1     -16.253  -3.370  -5.809  1.00  0.00     0.167 HD
ATOM     67  C   UNL     1     -17.011  -1.389  -7.677  1.00  0.00     0.074 A 
ATOM     68  C   UNL     1     -17.101  -0.114  -8.357  1.00  0.00     0.031 C 
ATOM     69  C   UNL     1     -17.644  -2.517  -8.082  1.00  0.00     0.037 A 
BRANCH  56  70
ATOM     70  C   UNL     1     -16.475  -7.439  -4.544  1.00  0.00     0.057 A 
ATOM     71  C   UNL     1     -17.260  -7.915  -3.485  1.00  0.00     0.134 A 
ATOM     72  C   UNL     1     -15.912  -8.386  -5.408  1.00  0.00     0.134 A 
ATOM     73  F   UNL     1     -17.821  -7.059  -2.618  1.00  0.00    -0.206 F 
ATOM     74  C   UNL     1     -17.456  -9.281  -3.279  1.00  0.00     0.040 A 
ATOM     75  C   UNL     1     -16.120  -9.754  -5.226  1.00  0.00     0.040 A 
ATOM     76  F   UNL     1     -15.157  -7.997  -6.447  1.00  0.00    -0.206 F 
ATOM     77  C   UNL     1     -16.890 -10.205  -4.155  1.00  0.00     0.006 A 
ENDBRANCH  56  70
BRANCH  57  78
ATOM     78  C   UNL     1     -14.659   2.255  -5.881  1.00  0.00     0.057 A 
ATOM     79  C   UNL     1     -15.663   3.214  -5.707  1.00  0.00     0.134 A 
ATOM     80  C   UNL     1     -13.395   2.707  -6.279  1.00  0.00     0.134 A 
ATOM     81  F   UNL     1     -16.899   2.839  -5.347  1.00  0.00    -0.206 F 
ATOM     82  C   UNL     1     -15.427   4.570  -5.939  1.00  0.00     0.040 A 
ATOM     83  C   UNL     1     -13.139   4.062  -6.493  1.00  0.00     0.040 A 
ATOM     84  F   UNL     1     -12.390   1.837  -6.457  1.00  0.00    -0.206 F 
ATOM     85  C   UNL     1     -14.159   4.997  -6.330  1.00  0.00     0.006 A 
ENDBRANCH  57  78
BRANCH  69  86
ATOM     86  C   UNL     1     -18.512  -2.418  -9.302  1.00  0.00     0.057 A 
ATOM     87  C   UNL     1     -17.967  -2.313 -10.588  1.00  0.00     0.134 A 
ATOM     88  C   UNL     1     -19.907  -2.465  -9.192  1.00  0.00     0.134 A 
ATOM     89  F   UNL     1     -16.638  -2.249 -10.761  1.00  0.00    -0.206 F 
ATOM     90  C   UNL     1     -18.781  -2.241 -11.721  1.00  0.00     0.040 A 
ATOM     91  C   UNL     1     -20.730  -2.416 -10.318  1.00  0.00     0.040 A 
ATOM     92  F   UNL     1     -20.492  -2.570  -7.989  1.00  0.00    -0.206 F 
ATOM     93  C   UNL     1     -20.167  -2.299 -11.587  1.00  0.00     0.006 A 
ENDBRANCH  69  86
ENDBRANCH  43  44
ENDBRANCH  35  38
ENDBRANCH  33  34
ENDBRANCH  32  33
ENDBRANCH  31  32
ENDBRANCH  30  31
ENDBRANCH   1  30
TORSDOF 15
