REMARK SMILES CC(C)Cc1ccc(S(=O)(=O)Nc2ccc(N3CCC[N@H+](C)CC3)cc2C(=O)NCCCCCCNC(=O)c2ccc(-c3c4nc(c(-c5c(F)cccc5F)c5ccc([nH]5)c(-c5c(F)cccc5F)c5nc(c(-c6c(F)cccc6F)c6ccc3[nH]6)C=C5)C=C4)cc2)cc1
REMARK SMILES IDX 31 1 30 2 29 3 27 4 28 5 26 7 13 8 14 9 15 10 25 11 16 12
REMARK SMILES IDX 12 13 9 15 10 16 11 17 8 18 5 19 6 20 94 21 7 22 93 23 4 24
REMARK SMILES IDX 2 25 1 26 3 27 17 28 18 29 19 30 24 32 23 33 21 34 22 35
REMARK SMILES IDX 20 37 32 39 33 40 34 41 35 42 36 43 37 44 38 46 39 47 40 48
REMARK SMILES IDX 92 49 41 50 91 51 42 52 43 53 44 54 85 55 45 56 90 57 84 58
REMARK SMILES IDX 86 59 46 60 89 61 83 62 82 63 47 65 73 66 56 67 72 68 57 69
REMARK SMILES IDX 60 70 71 71 87 72 58 73 59 74 70 76 88 77 61 78 48 79 49 80
REMARK SMILES IDX 54 81 50 82 51 83 53 84 55 85 52 86 74 87 75 88 80 89 76 90
REMARK SMILES IDX 77 91 79 92 81 93 78 94 62 95 63 96 68 97 64 98 65 99 67 100
REMARK SMILES IDX 69 101 66 102
REMARK H PARENT 29 6 12 14 21 36 36 45 86 64 60 75
REMARK Flexibility Score: 100.00
ROOT
ATOM      1  C   UNL     1      -0.462   3.152   7.221  1.00  0.00     0.021 C 
ENDROOT
BRANCH   1   2
ATOM      2  C   UNL     1      -1.261   2.194   6.343  1.00  0.00     0.116 C 
BRANCH   2   3
ATOM      3  N   UNL     1      -0.543   1.694   5.189  1.00  0.00    -0.352 N 
ATOM      4  C   UNL     1      -0.813   0.637   4.352  1.00  0.00     0.253 C 
ATOM      5  O   UNL     1       0.016   0.388   3.475  1.00  0.00    -0.269 OA
ATOM      6  H   UNL     1       0.274   2.195   4.966  1.00  0.00     0.163 HD
BRANCH   4   7
ATOM      7  C   UNL     1      -2.013  -0.247   4.473  1.00  0.00     0.066 A 
ATOM      8  C   UNL     1      -3.311   0.181   4.788  1.00  0.00     0.062 A 
ATOM      9  C   UNL     1      -4.347  -0.752   4.875  1.00  0.00     0.030 A 
ATOM     10  C   UNL     1      -4.123  -2.087   4.539  1.00  0.00     0.028 A 
ATOM     11  C   UNL     1      -1.821  -1.604   4.109  1.00  0.00     0.042 A 
ATOM     12  C   UNL     1      -2.876  -2.530   4.084  1.00  0.00     0.038 A 
BRANCH   8  13
ATOM     13  N   UNL     1      -3.675   1.563   4.902  1.00  0.00    -0.279 N 
ATOM     14  H   UNL     1      -3.612   2.023   5.770  1.00  0.00     0.180 HD
BRANCH  13  15
ATOM     15  S   UNL     1      -4.215   2.403   3.523  1.00  0.00     0.261 S 
ATOM     16  O   UNL     1      -4.017   3.803   3.830  1.00  0.00    -0.201 OA
ATOM     17  O   UNL     1      -5.548   1.903   3.244  1.00  0.00    -0.201 OA
BRANCH  15  18
ATOM     18  C   UNL     1      -3.177   1.970   2.155  1.00  0.00     0.087 A 
ATOM     19  C   UNL     1      -1.706   1.324  -0.144  1.00  0.00    -0.048 A 
ATOM     20  C   UNL     1      -1.603   2.600   0.429  1.00  0.00     0.005 A 
ATOM     21  C   UNL     1      -2.564   0.383   0.440  1.00  0.00     0.005 A 
ATOM     22  C   UNL     1      -2.329   2.923   1.582  1.00  0.00     0.022 A 
ATOM     23  C   UNL     1      -3.319   0.713   1.563  1.00  0.00     0.022 A 
BRANCH  19  24
ATOM     24  C   UNL     1      -0.939   0.958  -1.394  1.00  0.00     0.038 C 
BRANCH  24  25
ATOM     25  C   UNL     1       0.595   0.956  -1.245  1.00  0.00    -0.013 C 
ATOM     26  C   UNL     1       1.072   0.008  -0.142  1.00  0.00     0.008 C 
ATOM     27  C   UNL     1       1.235   0.555  -2.578  1.00  0.00     0.008 C 
ENDBRANCH  24  25
ENDBRANCH  19  24
ENDBRANCH  15  18
ENDBRANCH  13  15
ENDBRANCH   8  13
BRANCH  12  28
ATOM     28  N   UNL     1      -2.742  -3.803   3.560  1.00  0.00    -0.366 N 
BRANCH  28  29
ATOM     29  C   UNL     1      -3.728  -4.279   2.591  1.00  0.00     0.122 C 
BRANCH  29  30
ATOM     30  C   UNL     1      -4.463  -5.519   3.089  1.00  0.00     0.083 CG0
ATOM     31  G   UNL     1      -3.576  -6.764   3.046  1.00  0.00     0.000 G0
ENDBRANCH  29  30
ENDBRANCH  28  29
BRANCH  28  32
ATOM     32  C   UNL     1      -1.606  -4.680   3.866  1.00  0.00     0.177 C 
BRANCH  32  33
ATOM     33  C   UNL     1      -2.056  -5.828   4.803  1.00  0.00     0.283 C 
BRANCH  33  34
ATOM     34  N   UNL     1      -2.700  -7.011   4.194  1.00  0.00    -0.336 N 
ATOM     35  C   UNL     1      -3.380  -7.799   5.224  1.00  0.00     0.332 C 
ATOM     36  H   UNL     1      -1.929  -7.540   3.786  1.00  0.00     0.347 HD
BRANCH  34  37
ATOM     37  C   UNL     1      -3.576  -6.764   3.046  1.00  0.00     0.263 CG0
ATOM     38  G   UNL     1      -4.463  -5.519   3.089  1.00  0.00     0.000 G0
ENDBRANCH  34  37
ENDBRANCH  33  34
ENDBRANCH  32  33
ENDBRANCH  28  32
ENDBRANCH  12  28
ENDBRANCH   4   7
ENDBRANCH   2   3
ENDBRANCH   1   2
BRANCH   1  39
ATOM     39  C   UNL     1       0.054   4.424   6.534  1.00  0.00     0.002 C 
BRANCH  39  40
ATOM     40  C   UNL     1      -0.923   5.210   5.652  1.00  0.00     0.002 C 
BRANCH  40  41
ATOM     41  C   UNL     1      -2.250   5.644   6.276  1.00  0.00     0.021 C 
BRANCH  41  42
ATOM     42  C   UNL     1      -2.173   6.356   7.620  1.00  0.00     0.116 C 
BRANCH  42  43
ATOM     43  N   UNL     1      -1.370   7.565   7.601  1.00  0.00    -0.352 N 
ATOM     44  C   UNL     1      -1.606   8.781   8.195  1.00  0.00     0.251 C 
ATOM     45  H   UNL     1      -0.533   7.504   7.086  1.00  0.00     0.163 HD
ATOM     46  O   UNL     1      -0.834   9.716   7.999  1.00  0.00    -0.269 OA
BRANCH  44  47
ATOM     47  C   UNL     1      -2.804   8.989   9.041  1.00  0.00     0.039 A 
ATOM     48  C   UNL     1      -3.524  10.180   8.898  1.00  0.00     0.014 A 
ATOM     49  C   UNL     1      -3.219   8.038   9.977  1.00  0.00     0.014 A 
ATOM     50  C   UNL     1      -4.689  10.387   9.642  1.00  0.00     0.010 A 
ATOM     51  C   UNL     1      -4.421   8.211  10.662  1.00  0.00     0.010 A 
ATOM     52  C   UNL     1      -5.167   9.389  10.505  1.00  0.00    -0.014 A 
BRANCH  52  53
ATOM     53  C   UNL     1      -6.442   9.561  11.250  1.00  0.00     0.031 A 
ATOM     54  C   UNL     1      -6.441   9.610  12.753  1.00  0.00     0.074 A 
ATOM     55  C   UNL     1      -7.607   9.614  10.575  1.00  0.00     0.049 A 
ATOM     56  N   UNL     1      -7.454   9.689  13.580  1.00  0.00    -0.248 NA
ATOM     57  C   UNL     1      -5.131   9.533  13.417  1.00  0.00     0.031 C 
ATOM     58  C   UNL     1      -7.748   9.531   9.120  1.00  0.00     0.029 A 
ATOM     59  N   UNL     1      -8.898   9.739  11.026  1.00  0.00    -0.354 N 
ATOM     60  C   UNL     1      -6.905   9.656  14.855  1.00  0.00     0.074 A 
ATOM     61  C   UNL     1      -5.476   9.496  14.696  1.00  0.00     0.031 C 
ATOM     62  C   UNL     1      -9.047   9.631   8.798  1.00  0.00     0.029 A 
ATOM     63  C   UNL     1      -9.835   9.745  10.021  1.00  0.00     0.049 A 
ATOM     64  H   UNL     1      -9.130   9.817  11.980  1.00  0.00     0.167 HD
ATOM     65  C   UNL     1      -7.532   9.773  16.051  1.00  0.00     0.037 A 
ATOM     66  C   UNL     1     -11.178   9.826  10.079  1.00  0.00     0.037 A 
ATOM     67  C   UNL     1      -8.951   9.956  16.207  1.00  0.00     0.049 A 
ATOM     68  C   UNL     1     -11.850   9.948  11.418  1.00  0.00     0.074 A 
ATOM     69  C   UNL     1      -9.674  10.143  17.372  1.00  0.00     0.029 A 
ATOM     70  N   UNL     1      -9.864   9.974  15.163  1.00  0.00    -0.354 N 
ATOM     71  N   UNL     1     -11.312   9.982  12.613  1.00  0.00    -0.248 NA
ATOM     72  C   UNL     1     -13.316  10.048  11.417  1.00  0.00     0.031 C 
ATOM     73  C   UNL     1     -11.030  10.226  17.038  1.00  0.00     0.029 A 
ATOM     74  C   UNL     1     -11.146  10.145  15.659  1.00  0.00     0.049 A 
ATOM     75  H   UNL     1      -9.635   9.879  14.210  1.00  0.00     0.167 HD
ATOM     76  C   UNL     1     -12.368  10.137  13.502  1.00  0.00     0.074 A 
ATOM     77  C   UNL     1     -13.577  10.204  12.707  1.00  0.00     0.031 C 
ATOM     78  C   UNL     1     -12.339  10.217  14.855  1.00  0.00     0.037 A 
BRANCH  65  79
ATOM     79  C   UNL     1      -6.681   9.708  17.288  1.00  0.00     0.057 A 
ATOM     80  C   UNL     1      -5.790  10.735  17.628  1.00  0.00     0.134 A 
ATOM     81  C   UNL     1      -6.778   8.622  18.167  1.00  0.00     0.134 A 
ATOM     82  F   UNL     1      -5.641  11.799  16.824  1.00  0.00    -0.206 F 
ATOM     83  C   UNL     1      -5.006  10.671  18.781  1.00  0.00     0.040 A 
ATOM     84  C   UNL     1      -6.020   8.560  19.338  1.00  0.00     0.040 A 
ATOM     85  F   UNL     1      -7.616   7.607  17.908  1.00  0.00    -0.206 F 
ATOM     86  C   UNL     1      -5.125   9.584  19.644  1.00  0.00     0.006 A 
ENDBRANCH  65  79
BRANCH  66  87
ATOM     87  C   UNL     1     -11.978   9.818   8.827  1.00  0.00     0.057 A 
ATOM     88  C   UNL     1     -12.652  10.966   8.393  1.00  0.00     0.134 A 
ATOM     89  C   UNL     1     -12.097   8.665   8.042  1.00  0.00     0.134 A 
ATOM     90  F   UNL     1     -12.592  12.095   9.113  1.00  0.00    -0.206 F 
ATOM     91  C   UNL     1     -13.430  10.963   7.234  1.00  0.00     0.040 A 
ATOM     92  C   UNL     1     -12.851   8.655   6.867  1.00  0.00     0.040 A 
ATOM     93  F   UNL     1     -11.473   7.534   8.400  1.00  0.00    -0.206 F 
ATOM     94  C   UNL     1     -13.526   9.806   6.464  1.00  0.00     0.006 A 
ENDBRANCH  66  87
BRANCH  78  95
ATOM     95  C   UNL     1     -13.649  10.422  15.559  1.00  0.00     0.057 A 
ATOM     96  C   UNL     1     -14.607   9.405  15.656  1.00  0.00     0.134 A 
ATOM     97  C   UNL     1     -13.938  11.644  16.180  1.00  0.00     0.134 A 
ATOM     98  F   UNL     1     -14.396   8.216  15.072  1.00  0.00    -0.206 F 
ATOM     99  C   UNL     1     -15.816   9.603  16.325  1.00  0.00     0.040 A 
ATOM    100  C   UNL     1     -15.131  11.845  16.876  1.00  0.00     0.040 A 
ATOM    101  F   UNL     1     -13.060  12.658  16.134  1.00  0.00    -0.206 F 
ATOM    102  C   UNL     1     -16.077  10.825  16.944  1.00  0.00     0.006 A 
ENDBRANCH  78  95
ENDBRANCH  52  53
ENDBRANCH  44  47
ENDBRANCH  42  43
ENDBRANCH  41  42
ENDBRANCH  40  41
ENDBRANCH  39  40
ENDBRANCH   1  39
TORSDOF 19
