REMARK SMILES Cc1ccc(C(=O)NCCCCCCNC(=O)c2ccc(-c3c4nc(c(-c5c(F)cccc5F)c5ccc([nH]5)c(-c5c(F)cccc5F)c5nc(c(-c6c(F)cccc6F)c6ccc3[nH]6)C=C5)C=C4)cc2)cc1S(=O)(=O)N(C)[C@H]1CCSC1
REMARK SMILES IDX 11 1 10 2 9 3 8 4 6 5 7 6 5 8 1 9 2 10 3 11 73 12 4 13 72 14
REMARK SMILES IDX 74 15 75 16 76 17 77 18 78 19 79 20 80 21 83 22 81 23 82 24
REMARK SMILES IDX 12 25 13 26 14 27 15 28 16 29 17 31 18 32 19 33 71 34 20 35
REMARK SMILES IDX 70 36 21 37 22 38 23 39 64 40 24 41 69 42 63 43 65 44 25 45
REMARK SMILES IDX 68 46 62 47 61 48 26 50 52 51 35 52 51 53 36 54 39 55 50 56
REMARK SMILES IDX 66 57 37 58 38 59 49 61 67 62 40 63 27 64 28 65 33 66 29 67
REMARK SMILES IDX 30 68 32 69 34 70 31 71 53 72 54 73 59 74 55 75 56 76 58 77
REMARK SMILES IDX 60 78 57 79 41 80 42 81 47 82 43 83 44 84 46 85 48 86 45 87
REMARK H PARENT 8 7 15 30 65 49 39 60
REMARK Flexibility Score: inf
ROOT
ATOM      1  C   UNL     1      -4.488   6.324  -3.573  1.00  0.00     0.002 C 
ENDROOT
BRANCH   1   2
ATOM      2  C   UNL     1      -3.090   5.801  -3.201  1.00  0.00     0.021 C 
BRANCH   2   3
ATOM      3  C   UNL     1      -2.998   5.234  -1.781  1.00  0.00     0.116 C 
BRANCH   3   4
ATOM      4  N   UNL     1      -3.565   3.904  -1.728  1.00  0.00    -0.352 N 
ATOM      5  C   UNL     1      -3.037   2.648  -1.618  1.00  0.00     0.251 C 
ATOM      6  O   UNL     1      -3.841   1.714  -1.572  1.00  0.00    -0.269 OA
ATOM      7  H   UNL     1      -4.548   3.903  -1.784  1.00  0.00     0.163 HD
BRANCH   5   8
ATOM      8  C   UNL     1      -1.581   2.344  -1.502  1.00  0.00     0.041 A 
ATOM      9  C   UNL     1       2.507   0.954  -1.031  1.00  0.00     0.046 C 
ATOM     10  C   UNL     1       1.152   1.574  -1.166  1.00  0.00    -0.031 A 
ATOM     11  C   UNL     1       0.089   0.701  -0.861  1.00  0.00     0.005 A 
ATOM     12  C   UNL     1       0.822   2.851  -1.644  1.00  0.00     0.086 A 
ATOM     13  C   UNL     1      -1.245   1.083  -1.004  1.00  0.00     0.014 A 
ATOM     14  C   UNL     1      -0.536   3.191  -1.866  1.00  0.00     0.035 A 
BRANCH  12  15
ATOM     15  S   UNL     1       1.934   4.218  -1.984  1.00  0.00     0.243 S 
ATOM     16  O   UNL     1       2.144   4.210  -3.421  1.00  0.00    -0.207 OA
ATOM     17  O   UNL     1       1.358   5.369  -1.327  1.00  0.00    -0.207 OA
BRANCH  15  18
ATOM     18  N   UNL     1       3.403   3.910  -1.220  1.00  0.00    -0.197 NA
ATOM     19  C   UNL     1       4.562   3.637  -2.078  1.00  0.00     0.125 C 
BRANCH  18  20
ATOM     20  C   UNL     1       3.542   4.207   0.224  1.00  0.00     0.083 C 
ATOM     21  C   UNL     1       4.481   3.258   0.972  1.00  0.00     0.032 C 
ATOM     22  C   UNL     1       4.073   5.610   0.515  1.00  0.00     0.089 C 
ATOM     23  C   UNL     1       4.473   3.741   2.413  1.00  0.00     0.071 C 
ATOM     24  S   UNL     1       4.572   5.549   2.272  1.00  0.00    -0.160 SA
ENDBRANCH  18  20
ENDBRANCH  15  18
ENDBRANCH  12  15
ENDBRANCH   5   8
ENDBRANCH   3   4
ENDBRANCH   2   3
ENDBRANCH   1   2
BRANCH   1  25
ATOM     25  C   UNL     1      -5.121   7.317  -2.583  1.00  0.00     0.002 C 
BRANCH  25  26
ATOM     26  C   UNL     1      -4.198   8.432  -2.088  1.00  0.00     0.021 C 
BRANCH  26  27
ATOM     27  C   UNL     1      -3.909   9.488  -3.138  1.00  0.00     0.116 C 
BRANCH  27  28
ATOM     28  N   UNL     1      -4.867  10.588  -3.130  1.00  0.00    -0.352 N 
ATOM     29  C   UNL     1      -4.928  11.726  -3.911  1.00  0.00     0.251 C 
ATOM     30  H   UNL     1      -5.584  10.506  -2.461  1.00  0.00     0.163 HD
ATOM     31  O   UNL     1      -5.794  12.568  -3.691  1.00  0.00    -0.269 OA
BRANCH  29  32
ATOM     32  C   UNL     1      -4.085  11.835  -5.126  1.00  0.00     0.039 A 
ATOM     33  C   UNL     1      -4.734  12.256  -6.295  1.00  0.00     0.014 A 
ATOM     34  C   UNL     1      -2.854  11.197  -5.195  1.00  0.00     0.014 A 
ATOM     35  C   UNL     1      -4.326  11.734  -7.513  1.00  0.00     0.010 A 
ATOM     36  C   UNL     1      -2.533  10.561  -6.365  1.00  0.00     0.010 A 
ATOM     37  C   UNL     1      -3.317  10.779  -7.498  1.00  0.00    -0.014 A 
BRANCH  37  38
ATOM     38  C   UNL     1      -2.978   9.952  -8.632  1.00  0.00     0.031 A 
ATOM     39  C   UNL     1      -1.881  10.401  -9.491  1.00  0.00     0.074 A 
ATOM     40  C   UNL     1      -3.590   8.760  -8.788  1.00  0.00     0.049 A 
ATOM     41  N   UNL     1      -1.785  10.114 -10.738  1.00  0.00    -0.248 NA
ATOM     42  C   UNL     1      -0.810  11.268  -9.006  1.00  0.00     0.031 C 
ATOM     43  C   UNL     1      -3.231   7.674  -9.692  1.00  0.00     0.029 A 
ATOM     44  N   UNL     1      -4.828   8.375  -8.260  1.00  0.00    -0.354 N 
ATOM     45  C   UNL     1      -0.511  10.456 -11.123  1.00  0.00     0.074 A 
ATOM     46  C   UNL     1       0.016  11.270 -10.055  1.00  0.00     0.031 C 
ATOM     47  C   UNL     1      -4.317   6.908  -9.899  1.00  0.00     0.029 A 
ATOM     48  C   UNL     1      -5.434   7.572  -9.250  1.00  0.00     0.049 A 
ATOM     49  H   UNL     1      -5.199   8.614  -7.380  1.00  0.00     0.167 HD
ATOM     50  C   UNL     1       0.025   9.852 -12.217  1.00  0.00     0.037 A 
ATOM     51  C   UNL     1      -6.568   7.996  -9.880  1.00  0.00     0.037 A 
ATOM     52  C   UNL     1      -0.931   8.918 -12.804  1.00  0.00     0.049 A 
ATOM     53  C   UNL     1      -6.378   8.185 -11.369  1.00  0.00     0.074 A 
ATOM     54  C   UNL     1      -1.103   7.550 -12.662  1.00  0.00     0.029 A 
ATOM     55  N   UNL     1      -2.122   9.404 -13.332  1.00  0.00    -0.354 N 
ATOM     56  N   UNL     1      -5.223   8.379 -11.948  1.00  0.00    -0.248 NA
ATOM     57  C   UNL     1      -7.475   8.132 -12.327  1.00  0.00     0.031 C 
ATOM     58  C   UNL     1      -2.406   7.216 -13.109  1.00  0.00     0.029 A 
ATOM     59  C   UNL     1      -3.025   8.378 -13.534  1.00  0.00     0.049 A 
ATOM     60  H   UNL     1      -2.298  10.351 -13.535  1.00  0.00     0.167 HD
ATOM     61  C   UNL     1      -5.387   8.452 -13.313  1.00  0.00     0.074 A 
ATOM     62  C   UNL     1      -6.817   8.278 -13.491  1.00  0.00     0.031 C 
ATOM     63  C   UNL     1      -4.319   8.638 -14.156  1.00  0.00     0.037 A 
BRANCH  50  64
ATOM     64  C   UNL     1       1.502   9.872 -12.505  1.00  0.00     0.057 A 
ATOM     65  C   UNL     1       2.158   8.738 -13.018  1.00  0.00     0.134 A 
ATOM     66  C   UNL     1       2.340  10.974 -12.257  1.00  0.00     0.134 A 
ATOM     67  F   UNL     1       1.488   7.636 -13.374  1.00  0.00    -0.206 F 
ATOM     68  C   UNL     1       3.546   8.671 -13.181  1.00  0.00     0.040 A 
ATOM     69  C   UNL     1       3.736  10.906 -12.371  1.00  0.00     0.040 A 
ATOM     70  F   UNL     1       1.836  12.170 -11.921  1.00  0.00    -0.206 F 
ATOM     71  C   UNL     1       4.346   9.746 -12.827  1.00  0.00     0.006 A 
ENDBRANCH  50  64
BRANCH  51  72
ATOM     72  C   UNL     1      -7.434   8.819  -8.985  1.00  0.00     0.057 A 
ATOM     73  C   UNL     1      -7.920   8.213  -7.807  1.00  0.00     0.134 A 
ATOM     74  C   UNL     1      -7.397  10.215  -9.007  1.00  0.00     0.134 A 
ATOM     75  F   UNL     1      -8.002   6.875  -7.723  1.00  0.00    -0.206 F 
ATOM     76  C   UNL     1      -8.180   8.950  -6.648  1.00  0.00     0.040 A 
ATOM     77  C   UNL     1      -7.688  10.965  -7.859  1.00  0.00     0.040 A 
ATOM     78  F   UNL     1      -6.956  10.870 -10.090  1.00  0.00    -0.206 F 
ATOM     79  C   UNL     1      -8.020  10.331  -6.661  1.00  0.00     0.006 A 
ENDBRANCH  51  72
BRANCH  63  80
ATOM     80  C   UNL     1      -4.315   8.996 -15.643  1.00  0.00     0.057 A 
ATOM     81  C   UNL     1      -5.434   9.350 -16.407  1.00  0.00     0.134 A 
ATOM     82  C   UNL     1      -3.086   9.102 -16.355  1.00  0.00     0.134 A 
ATOM     83  F   UNL     1      -6.667   9.385 -15.898  1.00  0.00    -0.206 F 
ATOM     84  C   UNL     1      -5.347   9.743 -17.754  1.00  0.00     0.040 A 
ATOM     85  C   UNL     1      -2.982   9.556 -17.674  1.00  0.00     0.040 A 
ATOM     86  F   UNL     1      -1.903   8.788 -15.809  1.00  0.00    -0.206 F 
ATOM     87  C   UNL     1      -4.120   9.869 -18.387  1.00  0.00     0.006 A 
ENDBRANCH  63  80
ENDBRANCH  37  38
ENDBRANCH  29  32
ENDBRANCH  27  28
ENDBRANCH  26  27
ENDBRANCH  25  26
ENDBRANCH   1  25
TORSDOF 16
