REMARK SMILES CC[C@H](C(=O)NCCCCCCNC(=O)c1ccc(-c2c3nc(c(-c4c(F)cccc4F)c4ccc([nH]4)c(-c4c(F)cccc4F)c4nc(c(-c5c(F)cccc5F)c5ccc2[nH]5)C=C4)C=C3)cc1)C1=CCCc2c(C)ccc(C)c21
REMARK SMILES IDX 10 1 9 2 8 3 7 4 6 5 4 6 5 7 3 9 2 10 1 11 70 12 71 13 81 14
REMARK SMILES IDX 72 15 74 16 79 17 73 18 75 19 78 20 80 21 76 22 77 23 11 24
REMARK SMILES IDX 12 25 13 26 14 27 15 29 16 30 17 31 69 32 18 33 68 34 19 35
REMARK SMILES IDX 20 36 21 37 62 38 22 39 67 40 61 41 63 42 23 43 66 44 60 45
REMARK SMILES IDX 59 46 24 48 50 49 33 50 49 51 34 52 37 53 48 54 64 55 35 56
REMARK SMILES IDX 36 57 47 59 65 60 38 61 25 62 26 63 31 64 27 65 28 66 30 67
REMARK SMILES IDX 32 68 29 69 51 70 52 71 57 72 53 73 54 74 56 75 58 76 55 77
REMARK SMILES IDX 39 78 40 79 45 80 41 81 42 82 44 83 46 84 43 85
REMARK H PARENT 6 8 13 28 63 47 37 58
REMARK Flexibility Score: inf
ROOT
ATOM      1  C   UNL     1       0.550   0.400  -3.442  1.00  0.00     0.002 C 
ENDROOT
BRANCH   1   2
ATOM      2  C   UNL     1       1.700  -0.377  -2.792  1.00  0.00     0.002 C 
BRANCH   2   3
ATOM      3  C   UNL     1       2.298   0.212  -1.514  1.00  0.00     0.021 C 
BRANCH   3   4
ATOM      4  C   UNL     1       1.335   0.479  -0.351  1.00  0.00     0.116 C 
BRANCH   4   5
ATOM      5  N   UNL     1       0.697  -0.680   0.269  1.00  0.00    -0.356 N 
ATOM      6  C   UNL     1      -0.009  -0.885   1.434  1.00  0.00     0.227 C 
ATOM      7  O   UNL     1      -0.651  -1.946   1.451  1.00  0.00    -0.274 OA
ATOM      8  H   UNL     1       0.793  -1.500  -0.267  1.00  0.00     0.163 HD
BRANCH   6   9
ATOM      9  C   UNL     1       0.046  -0.003   2.735  1.00  0.00     0.108 C 
BRANCH   9  10
ATOM     10  C   UNL     1       0.782   1.382   2.593  1.00  0.00     0.015 C 
ATOM     11  C   UNL     1       0.170   2.432   1.649  1.00  0.00     0.005 C 
ENDBRANCH   9  10
BRANCH   9  12
ATOM     12  C   UNL     1      -1.271   0.161   3.558  1.00  0.00    -0.032 C 
ATOM     13  C   UNL     1      -1.798   1.416   3.542  1.00  0.00    -0.022 C 
ATOM     14  C   UNL     1      -2.350  -0.915   3.975  1.00  0.00    -0.016 A 
ATOM     15  C   UNL     1      -2.870   1.597   2.444  1.00  0.00     0.032 C 
ATOM     16  C   UNL     1      -3.625  -0.380   3.605  1.00  0.00    -0.037 A 
ATOM     17  C   UNL     1      -2.332  -1.556   5.235  1.00  0.00    -0.043 A 
ATOM     18  C   UNL     1      -3.625   0.279   2.238  1.00  0.00     0.040 C 
ATOM     19  C   UNL     1      -4.528   0.054   4.616  1.00  0.00    -0.047 A 
ATOM     20  C   UNL     1      -3.201  -1.108   6.259  1.00  0.00     0.004 A 
ATOM     21  C   UNL     1      -2.193  -3.082   5.291  1.00  0.00     0.045 C 
ATOM     22  C   UNL     1      -5.540   1.143   4.364  1.00  0.00     0.044 C 
ATOM     23  C   UNL     1      -4.267  -0.274   5.951  1.00  0.00     0.004 A 
ENDBRANCH   9  12
ENDBRANCH   6   9
ENDBRANCH   4   5
ENDBRANCH   3   4
ENDBRANCH   2   3
ENDBRANCH   1   2
BRANCH   1  24
ATOM     24  C   UNL     1       0.846   1.833  -3.899  1.00  0.00     0.021 C 
BRANCH  24  25
ATOM     25  C   UNL     1       2.026   2.019  -4.854  1.00  0.00     0.116 C 
BRANCH  25  26
ATOM     26  N   UNL     1       1.915   1.232  -6.073  1.00  0.00    -0.352 N 
ATOM     27  C   UNL     1       2.038   1.603  -7.389  1.00  0.00     0.251 C 
ATOM     28  H   UNL     1       1.719   0.278  -5.931  1.00  0.00     0.163 HD
ATOM     29  O   UNL     1       1.794   0.785  -8.278  1.00  0.00    -0.269 OA
BRANCH  27  30
ATOM     30  C   UNL     1       2.426   2.982  -7.762  1.00  0.00     0.039 A 
ATOM     31  C   UNL     1       1.728   3.617  -8.796  1.00  0.00     0.014 A 
ATOM     32  C   UNL     1       3.471   3.650  -7.119  1.00  0.00     0.014 A 
ATOM     33  C   UNL     1       2.017   4.946  -9.120  1.00  0.00     0.010 A 
ATOM     34  C   UNL     1       3.715   4.995  -7.399  1.00  0.00     0.010 A 
ATOM     35  C   UNL     1       2.977   5.663  -8.388  1.00  0.00    -0.014 A 
BRANCH  35  36
ATOM     36  C   UNL     1       3.171   7.122  -8.604  1.00  0.00     0.031 A 
ATOM     37  C   UNL     1       4.482   7.662  -9.105  1.00  0.00     0.074 A 
ATOM     38  C   UNL     1       2.178   7.973  -8.275  1.00  0.00     0.049 A 
ATOM     39  N   UNL     1       4.848   8.906  -9.284  1.00  0.00    -0.248 NA
ATOM     40  C   UNL     1       5.525   6.677  -9.430  1.00  0.00     0.031 C 
ATOM     41  C   UNL     1       0.874   7.581  -7.734  1.00  0.00     0.029 A 
ATOM     42  N   UNL     1       2.112   9.344  -8.331  1.00  0.00    -0.354 N 
ATOM     43  C   UNL     1       6.162   8.856  -9.732  1.00  0.00     0.074 A 
ATOM     44  C   UNL     1       6.545   7.460  -9.756  1.00  0.00     0.031 C 
ATOM     45  C   UNL     1       0.135   8.681  -7.526  1.00  0.00     0.029 A 
ATOM     46  C   UNL     1       0.923   9.858  -7.872  1.00  0.00     0.049 A 
ATOM     47  H   UNL     1       2.848   9.905  -8.669  1.00  0.00     0.167 HD
ATOM     48  C   UNL     1       6.969   9.879 -10.105  1.00  0.00     0.037 A 
ATOM     49  C   UNL     1       0.518  11.134  -7.726  1.00  0.00     0.037 A 
ATOM     50  C   UNL     1       6.581  11.266 -10.093  1.00  0.00     0.049 A 
ATOM     51  C   UNL     1       1.444  12.250  -8.124  1.00  0.00     0.074 A 
ATOM     52  C   UNL     1       7.308  12.366 -10.517  1.00  0.00     0.029 A 
ATOM     53  N   UNL     1       5.367  11.746  -9.626  1.00  0.00    -0.354 N 
ATOM     54  N   UNL     1       2.655  12.181  -8.621  1.00  0.00    -0.248 NA
ATOM     55  C   UNL     1       0.948  13.621  -7.941  1.00  0.00     0.031 C 
ATOM     56  C   UNL     1       6.558  13.516 -10.251  1.00  0.00     0.029 A 
ATOM     57  C   UNL     1       5.340  13.129  -9.716  1.00  0.00     0.049 A 
ATOM     58  H   UNL     1       4.634  11.188  -9.280  1.00  0.00     0.167 HD
ATOM     59  C   UNL     1       3.055  13.495  -8.832  1.00  0.00     0.074 A 
ATOM     60  C   UNL     1       1.949  14.338  -8.431  1.00  0.00     0.031 C 
ATOM     61  C   UNL     1       4.234  13.960  -9.313  1.00  0.00     0.037 A 
BRANCH  48  62
ATOM     62  C   UNL     1       8.361   9.542 -10.559  1.00  0.00     0.057 A 
ATOM     63  C   UNL     1       8.606   8.901 -11.780  1.00  0.00     0.134 A 
ATOM     64  C   UNL     1       9.473   9.924  -9.797  1.00  0.00     0.134 A 
ATOM     65  F   UNL     1       7.587   8.502 -12.556  1.00  0.00    -0.206 F 
ATOM     66  C   UNL     1       9.905   8.633 -12.217  1.00  0.00     0.040 A 
ATOM     67  C   UNL     1      10.777   9.687 -10.236  1.00  0.00     0.040 A 
ATOM     68  F   UNL     1       9.311  10.550  -8.621  1.00  0.00    -0.206 F 
ATOM     69  C   UNL     1      10.995   9.035 -11.448  1.00  0.00     0.006 A 
ENDBRANCH  48  62
BRANCH  49  70
ATOM     70  C   UNL     1      -0.830  11.432  -7.174  1.00  0.00     0.057 A 
ATOM     71  C   UNL     1      -1.827  12.011  -7.968  1.00  0.00     0.134 A 
ATOM     72  C   UNL     1      -1.145  11.168  -5.836  1.00  0.00     0.134 A 
ATOM     73  F   UNL     1      -1.580  12.306  -9.253  1.00  0.00    -0.206 F 
ATOM     74  C   UNL     1      -3.079  12.340  -7.446  1.00  0.00     0.040 A 
ATOM     75  C   UNL     1      -2.403  11.464  -5.308  1.00  0.00     0.040 A 
ATOM     76  F   UNL     1      -0.237  10.607  -5.023  1.00  0.00    -0.206 F 
ATOM     77  C   UNL     1      -3.371  12.061  -6.112  1.00  0.00     0.006 A 
ENDBRANCH  49  70
BRANCH  61  78
ATOM     78  C   UNL     1       4.380  15.448  -9.454  1.00  0.00     0.057 A 
ATOM     79  C   UNL     1       4.500  16.288  -8.339  1.00  0.00     0.134 A 
ATOM     80  C   UNL     1       4.436  16.044 -10.721  1.00  0.00     0.134 A 
ATOM     81  F   UNL     1       4.440  15.784  -7.098  1.00  0.00    -0.206 F 
ATOM     82  C   UNL     1       4.647  17.669  -8.479  1.00  0.00     0.040 A 
ATOM     83  C   UNL     1       4.613  17.419 -10.874  1.00  0.00     0.040 A 
ATOM     84  F   UNL     1       4.336  15.296 -11.830  1.00  0.00    -0.206 F 
ATOM     85  C   UNL     1       4.711  18.237  -9.751  1.00  0.00     0.006 A 
ENDBRANCH  61  78
ENDBRANCH  35  36
ENDBRANCH  27  30
ENDBRANCH  25  26
ENDBRANCH  24  25
ENDBRANCH   1  24
TORSDOF 15
