REMARK SMILES O=C(NCCCCCCNC(=O)[C@@H](Cc1ccc(F)cc1)NC(=O)c1ccn(C2CCCC2)n1)c1ccc(-c2c3nc(c(-c4c(F)cccc4F)c4ccc([nH]4)c(-c4c(F)cccc4F)c4nc(c(-c5c(F)cccc5F)c5ccc2[nH]5)C=C4)C=C3)cc1
REMARK SMILES IDX 7 1 6 2 5 3 4 4 3 5 1 6 2 7 35 9 36 10 88 11 37 12 87 13
REMARK SMILES IDX 38 14 39 15 40 16 81 17 41 18 86 19 80 20 82 21 42 22 85 23
REMARK SMILES IDX 79 24 78 25 43 27 69 28 52 29 68 30 53 31 56 32 67 33 83 34
REMARK SMILES IDX 54 35 55 36 66 38 84 39 57 40 44 41 45 42 50 43 46 44 47 45
REMARK SMILES IDX 49 46 51 47 48 48 70 49 71 50 76 51 72 52 73 53 75 54 77 55
REMARK SMILES IDX 74 56 58 57 59 58 64 59 60 60 61 61 63 62 65 63 62 64 8 65
REMARK SMILES IDX 9 66 10 67 11 68 12 70 13 71 14 72 15 73 16 74 21 75 17 76
REMARK SMILES IDX 20 77 18 78 19 79 22 80 23 81 24 83 25 84 26 85 34 86 27 87
REMARK SMILES IDX 28 88 29 89 30 90 33 91 31 92 32 93
REMARK H PARENT 3 8 82 26 56 37 10 69 22 82
REMARK Flexibility Score: inf
ROOT
ATOM      1  C   UNL     1       4.322   2.586  -3.406  1.00  0.00     0.002 C 
ENDROOT
BRANCH   1   2
ATOM      2  C   UNL     1       3.870   1.123  -3.370  1.00  0.00     0.002 C 
BRANCH   2   3
ATOM      3  C   UNL     1       4.588   0.222  -2.355  1.00  0.00     0.021 C 
BRANCH   3   4
ATOM      4  C   UNL     1       4.545   0.710  -0.907  1.00  0.00     0.116 C 
BRANCH   4   5
ATOM      5  N   UNL     1       3.210   0.921  -0.390  1.00  0.00    -0.352 N 
ATOM      6  O   UNL     1       1.233   0.674   0.562  1.00  0.00    -0.269 OA
ATOM      7  C   UNL     1       2.229   0.109   0.104  1.00  0.00     0.251 C 
ATOM      8  H   UNL     1       2.947   1.870  -0.395  1.00  0.00     0.163 HD
BRANCH   7   9
ATOM      9  C   UNL     1       2.245  -1.378   0.052  1.00  0.00     0.039 A 
ATOM     10  C   UNL     1       3.351  -2.180  -0.231  1.00  0.00     0.014 A 
ATOM     11  C   UNL     1       1.004  -2.001   0.282  1.00  0.00     0.014 A 
ATOM     12  C   UNL     1       3.200  -3.554  -0.399  1.00  0.00     0.010 A 
ATOM     13  C   UNL     1       0.850  -3.372   0.140  1.00  0.00     0.010 A 
ATOM     14  C   UNL     1       1.941  -4.143  -0.249  1.00  0.00    -0.014 A 
BRANCH  14  15
ATOM     15  C   UNL     1       1.833  -5.599  -0.323  1.00  0.00     0.031 A 
ATOM     16  C   UNL     1       2.574  -6.318   0.760  1.00  0.00     0.074 A 
ATOM     17  C   UNL     1       0.994  -6.230  -1.173  1.00  0.00     0.049 A 
ATOM     18  N   UNL     1       3.478  -7.237   0.647  1.00  0.00    -0.248 NA
ATOM     19  C   UNL     1       2.356  -5.870   2.148  1.00  0.00     0.031 C 
ATOM     20  C   UNL     1       0.008  -5.629  -2.076  1.00  0.00     0.029 A 
ATOM     21  N   UNL     1       0.773  -7.565  -1.340  1.00  0.00    -0.354 N 
ATOM     22  C   UNL     1       3.806  -7.616   1.951  1.00  0.00     0.074 A 
ATOM     23  C   UNL     1       3.200  -6.648   2.824  1.00  0.00     0.031 C 
ATOM     24  C   UNL     1      -0.848  -6.583  -2.509  1.00  0.00     0.029 A 
ATOM     25  C   UNL     1      -0.397  -7.876  -2.027  1.00  0.00     0.049 A 
ATOM     26  H   UNL     1       1.391  -8.253  -1.002  1.00  0.00     0.167 HD
ATOM     27  C   UNL     1       4.366  -8.827   2.223  1.00  0.00     0.037 A 
ATOM     28  C   UNL     1      -0.978  -9.100  -2.134  1.00  0.00     0.037 A 
ATOM     29  C   UNL     1       5.018  -9.370   1.062  1.00  0.00     0.049 A 
ATOM     30  C   UNL     1       0.052 -10.111  -1.796  1.00  0.00     0.074 A 
ATOM     31  C   UNL     1       6.066  -8.967   0.257  1.00  0.00     0.029 A 
ATOM     32  N   UNL     1       4.368 -10.350   0.356  1.00  0.00    -0.354 N 
ATOM     33  N   UNL     1       1.102 -10.356  -2.526  1.00  0.00    -0.248 NA
ATOM     34  C   UNL     1       0.139 -10.530  -0.406  1.00  0.00     0.031 C 
ATOM     35  C   UNL     1       5.682  -9.350  -1.062  1.00  0.00     0.029 A 
ATOM     36  C   UNL     1       4.463 -10.022  -0.970  1.00  0.00     0.049 A 
ATOM     37  H   UNL     1       3.917 -11.140   0.732  1.00  0.00     0.167 HD
ATOM     38  C   UNL     1       2.125 -10.552  -1.612  1.00  0.00     0.074 A 
ATOM     39  C   UNL     1       1.458 -10.715  -0.321  1.00  0.00     0.031 C 
ATOM     40  C   UNL     1       3.422 -10.279  -1.935  1.00  0.00     0.037 A 
BRANCH  27  41
ATOM     41  C   UNL     1       3.992  -9.679   3.416  1.00  0.00     0.057 A 
ATOM     42  C   UNL     1       2.818  -9.508   4.179  1.00  0.00     0.134 A 
ATOM     43  C   UNL     1       4.660 -10.901   3.626  1.00  0.00     0.134 A 
ATOM     44  F   UNL     1       2.027  -8.436   4.056  1.00  0.00    -0.206 F 
ATOM     45  C   UNL     1       2.327 -10.485   5.050  1.00  0.00     0.040 A 
ATOM     46  C   UNL     1       4.150 -11.906   4.458  1.00  0.00     0.040 A 
ATOM     47  F   UNL     1       5.786 -11.195   2.958  1.00  0.00    -0.206 F 
ATOM     48  C   UNL     1       2.973 -11.704   5.166  1.00  0.00     0.006 A 
ENDBRANCH  27  41
BRANCH  28  49
ATOM     49  C   UNL     1      -2.422  -9.449  -2.132  1.00  0.00     0.057 A 
ATOM     50  C   UNL     1      -3.372  -8.640  -1.485  1.00  0.00     0.134 A 
ATOM     51  C   UNL     1      -2.857 -10.736  -2.490  1.00  0.00     0.134 A 
ATOM     52  F   UNL     1      -3.050  -7.419  -1.036  1.00  0.00    -0.206 F 
ATOM     53  C   UNL     1      -4.663  -9.091  -1.185  1.00  0.00     0.040 A 
ATOM     54  C   UNL     1      -4.146 -11.202  -2.189  1.00  0.00     0.040 A 
ATOM     55  F   UNL     1      -2.015 -11.601  -3.074  1.00  0.00    -0.206 F 
ATOM     56  C   UNL     1      -5.049 -10.382  -1.521  1.00  0.00     0.006 A 
ENDBRANCH  28  49
BRANCH  40  57
ATOM     57  C   UNL     1       3.750  -9.981  -3.372  1.00  0.00     0.057 A 
ATOM     58  C   UNL     1       4.726 -10.755  -4.007  1.00  0.00     0.134 A 
ATOM     59  C   UNL     1       3.274  -8.862  -4.073  1.00  0.00     0.134 A 
ATOM     60  F   UNL     1       5.265 -11.812  -3.378  1.00  0.00    -0.206 F 
ATOM     61  C   UNL     1       5.218 -10.430  -5.273  1.00  0.00     0.040 A 
ATOM     62  C   UNL     1       3.733  -8.545  -5.356  1.00  0.00     0.040 A 
ATOM     63  F   UNL     1       2.405  -8.010  -3.515  1.00  0.00    -0.206 F 
ATOM     64  C   UNL     1       4.718  -9.324  -5.955  1.00  0.00     0.006 A 
ENDBRANCH  40  57
ENDBRANCH  14  15
ENDBRANCH   7   9
ENDBRANCH   4   5
ENDBRANCH   3   4
ENDBRANCH   2   3
ENDBRANCH   1   2
BRANCH   1  65
ATOM     65  C   UNL     1       5.829   2.778  -3.553  1.00  0.00     0.021 C 
BRANCH  65  66
ATOM     66  C   UNL     1       6.418   2.316  -4.885  1.00  0.00     0.116 C 
BRANCH  66  67
ATOM     67  N   UNL     1       6.497   3.427  -5.805  1.00  0.00    -0.354 N 
ATOM     68  C   UNL     1       7.529   4.251  -6.121  1.00  0.00     0.242 C 
ATOM     69  H   UNL     1       5.659   3.620  -6.285  1.00  0.00     0.163 HD
ATOM     70  O   UNL     1       7.228   5.330  -6.646  1.00  0.00    -0.273 OA
BRANCH  68  71
ATOM     71  C   UNL     1       9.013   3.939  -5.810  1.00  0.00     0.176 C 
BRANCH  71  72
ATOM     72  C   UNL     1       9.520   4.300  -4.394  1.00  0.00     0.070 C 
BRANCH  72  73
ATOM     73  C   UNL     1       9.214   3.399  -3.217  1.00  0.00    -0.045 A 
ATOM     74  C   UNL     1       9.585   2.044  -3.195  1.00  0.00     0.007 A 
ATOM     75  C   UNL     1       8.582   3.936  -2.080  1.00  0.00     0.007 A 
ATOM     76  C   UNL     1       9.208   1.219  -2.132  1.00  0.00     0.039 A 
ATOM     77  C   UNL     1       8.231   3.117  -1.004  1.00  0.00     0.039 A 
ATOM     78  C   UNL     1       8.519   1.759  -1.054  1.00  0.00     0.123 A 
ATOM     79  F   UNL     1       8.095   0.957  -0.070  1.00  0.00    -0.207 F 
ENDBRANCH  72  73
ENDBRANCH  71  72
BRANCH  71  80
ATOM     80  N   UNL     1       9.458   2.632  -6.294  1.00  0.00    -0.339 N 
ATOM     81  C   UNL     1      10.296   2.339  -7.345  1.00  0.00     0.272 C 
ATOM     82  H   UNL     1       9.111   1.856  -5.799  1.00  0.00     0.164 HD
ATOM     83  O   UNL     1      10.424   1.149  -7.653  1.00  0.00    -0.267 OA
BRANCH  81  84
ATOM     84  C   UNL     1      10.982   3.427  -8.052  1.00  0.00     0.150 A 
ATOM     85  C   UNL     1      11.755   4.492  -7.510  1.00  0.00     0.056 A 
ATOM     86  N   UNL     1      10.924   3.528  -9.391  1.00  0.00    -0.167 NA
ATOM     87  C   UNL     1      12.095   5.284  -8.580  1.00  0.00     0.110 A 
ATOM     88  N   UNL     1      11.593   4.656  -9.682  1.00  0.00    -0.269 N 
BRANCH  88  89
ATOM     89  C   UNL     1      11.748   5.081 -11.056  1.00  0.00     0.107 C 
ATOM     90  C   UNL     1      12.522   4.088 -11.920  1.00  0.00     0.027 C 
ATOM     91  C   UNL     1      10.436   5.256 -11.822  1.00  0.00     0.027 C 
ATOM     92  C   UNL     1      12.229   4.553 -13.339  1.00  0.00     0.002 C 
ATOM     93  C   UNL     1      10.831   5.172 -13.296  1.00  0.00     0.002 C 
ENDBRANCH  88  89
ENDBRANCH  81  84
ENDBRANCH  71  80
ENDBRANCH  68  71
ENDBRANCH  66  67
ENDBRANCH  65  66
ENDBRANCH   1  65
TORSDOF 18
