REMARK SMILES COc1cc(/C=C2\SC(=S)N(CCC(=O)Nc3ccc(C(=O)NCCCCCCNC(=O)c4ccc(-c5c6nc(c(-c7c(F)cccc7F)c7ccc([nH]7)c(-c7c(F)cccc7F)c7nc(c(-c8c(F)cccc8F)c8ccc5[nH]8)C=C7)C=C6)cc4)cc3)C2=O)ccc1O
REMARK SMILES IDX 24 1 23 2 21 3 22 4 20 6 17 7 18 8 88 9 19 10 87 11 16 12
REMARK SMILES IDX 14 13 15 14 13 16 12 17 11 18 6 19 7 20 8 21 89 22 9 23
REMARK SMILES IDX 90 24 10 25 5 26 3 27 4 28 93 29 92 30 91 31 2 32 1 33 94 34
REMARK SMILES IDX 25 36 26 37 27 38 28 39 29 40 30 41 31 42 32 44 33 45 34 46
REMARK SMILES IDX 86 47 35 48 85 49 36 50 37 51 38 52 79 53 39 54 84 55 78 56
REMARK SMILES IDX 80 57 40 58 83 59 77 60 76 61 41 63 67 64 50 65 66 66 51 67
REMARK SMILES IDX 54 68 65 69 81 70 52 71 53 72 64 74 82 75 55 76 42 77 43 78
REMARK SMILES IDX 48 79 44 80 45 81 47 82 49 83 46 84 68 85 69 86 74 87 70 88
REMARK SMILES IDX 71 89 73 90 75 91 72 92 56 93 57 94 62 95 58 96 59 97 61 98
REMARK SMILES IDX 63 99 60 100
REMARK H PARENT 23 5 16 15 94 35 30 43 80 62 54 73
REMARK Flexibility Score: inf
ROOT
ATOM      1  C   UNL     1       0.400  -7.386   4.781  1.00  0.00     0.116 C 
ENDROOT
BRANCH   1   2
ATOM      2  N   UNL     1      -0.072  -6.012   4.747  1.00  0.00    -0.352 N 
ATOM      3  C   UNL     1      -0.842  -5.359   3.806  1.00  0.00     0.251 C 
ATOM      4  O   UNL     1      -1.053  -4.155   3.939  1.00  0.00    -0.269 OA
ATOM      5  H   UNL     1       0.200  -5.461   5.516  1.00  0.00     0.163 HD
BRANCH   3   6
ATOM      6  C   UNL     1      -1.380  -6.061   2.607  1.00  0.00     0.039 A 
ATOM      7  C   UNL     1      -2.063  -7.414   0.220  1.00  0.00     0.041 A 
ATOM      8  C   UNL     1      -1.815  -6.035   0.216  1.00  0.00     0.027 A 
ATOM      9  C   UNL     1      -2.141  -8.056   1.451  1.00  0.00     0.027 A 
ATOM     10  C   UNL     1      -1.465  -5.365   1.398  1.00  0.00     0.016 A 
ATOM     11  C   UNL     1      -1.822  -7.381   2.636  1.00  0.00     0.016 A 
BRANCH   7  12
ATOM     12  N   UNL     1      -2.184  -8.038  -1.034  1.00  0.00    -0.326 N 
ATOM     13  C   UNL     1      -2.108  -9.326  -1.479  1.00  0.00     0.226 C 
ATOM     14  O   UNL     1      -2.293  -9.520  -2.686  1.00  0.00    -0.275 OA
ATOM     15  H   UNL     1      -2.367  -7.397  -1.760  1.00  0.00     0.169 HD
BRANCH  13  16
ATOM     16  C   UNL     1      -1.781 -10.503  -0.589  1.00  0.00     0.122 C 
BRANCH  16  17
ATOM     17  C   UNL     1      -0.293 -10.794  -0.341  1.00  0.00     0.137 C 
BRANCH  17  18
ATOM     18  N   UNL     1       0.534  -9.701   0.183  1.00  0.00    -0.292 N 
ATOM     19  C   UNL     1       1.600  -6.355  -0.444  1.00  0.00     0.029 C 
ATOM     20  C   UNL     1       1.596  -7.595   0.067  1.00  0.00     0.081 C 
ATOM     21  S   UNL     1       2.055  -8.171   1.605  1.00  0.00    -0.054 SA
ATOM     22  C   UNL     1       0.934  -8.697  -0.686  1.00  0.00     0.266 C 
ATOM     23  C   UNL     1       1.086  -9.641   1.445  1.00  0.00     0.148 C 
ATOM     24  O   UNL     1       0.771  -8.685  -1.893  1.00  0.00    -0.268 OA
ATOM     25  S   UNL     1       0.925 -10.734   2.697  1.00  0.00    -0.052 S 
BRANCH  19  26
ATOM     26  C   UNL     1       1.956  -5.050   0.149  1.00  0.00    -0.020 A 
ATOM     27  C   UNL     1       1.491  -2.626   0.176  1.00  0.00     0.161 A 
ATOM     28  C   UNL     1       1.252  -3.919  -0.314  1.00  0.00     0.058 A 
ATOM     29  C   UNL     1       2.474  -2.466   1.147  1.00  0.00     0.157 A 
ATOM     30  C   UNL     1       3.213  -3.564   1.593  1.00  0.00     0.051 A 
ATOM     31  C   UNL     1       2.954  -4.850   1.101  1.00  0.00     0.012 A 
BRANCH  27  32
ATOM     32  O   UNL     1       0.669  -1.683  -0.374  1.00  0.00    -0.493 OA
ATOM     33  C   UNL     1       1.036  -0.313  -0.291  1.00  0.00     0.278 C 
ENDBRANCH  27  32
BRANCH  29  34
ATOM     34  O   UNL     1       2.760  -1.277   1.752  1.00  0.00    -0.504 OA
ATOM     35  H   UNL     1       2.300  -0.500   1.500  1.00  0.00     0.293 HD
ENDBRANCH  29  34
ENDBRANCH  19  26
ENDBRANCH  17  18
ENDBRANCH  16  17
ENDBRANCH  13  16
ENDBRANCH   7  12
ENDBRANCH   3   6
ENDBRANCH   1   2
BRANCH   1  36
ATOM     36  C   UNL     1       1.845  -7.536   5.256  1.00  0.00     0.021 C 
BRANCH  36  37
ATOM     37  C   UNL     1       2.036  -7.500   6.772  1.00  0.00     0.002 C 
BRANCH  37  38
ATOM     38  C   UNL     1       1.325  -8.611   7.554  1.00  0.00     0.002 C 
BRANCH  38  39
ATOM     39  C   UNL     1       1.697 -10.051   7.181  1.00  0.00     0.021 C 
BRANCH  39  40
ATOM     40  C   UNL     1       3.176 -10.414   7.316  1.00  0.00     0.116 C 
BRANCH  40  41
ATOM     41  N   UNL     1       3.679 -10.199   8.663  1.00  0.00    -0.352 N 
ATOM     42  C   UNL     1       4.300 -11.053   9.539  1.00  0.00     0.251 C 
ATOM     43  H   UNL     1       3.553  -9.284   9.005  1.00  0.00     0.163 HD
ATOM     44  O   UNL     1       4.470 -10.698  10.703  1.00  0.00    -0.269 OA
BRANCH  42  45
ATOM     45  C   UNL     1       4.759 -12.396   9.115  1.00  0.00     0.039 A 
ATOM     46  C   UNL     1       4.635 -13.456  10.020  1.00  0.00     0.014 A 
ATOM     47  C   UNL     1       5.364 -12.616   7.875  1.00  0.00     0.014 A 
ATOM     48  C   UNL     1       5.069 -14.735   9.664  1.00  0.00     0.010 A 
ATOM     49  C   UNL     1       5.731 -13.908   7.492  1.00  0.00     0.010 A 
ATOM     50  C   UNL     1       5.592 -14.982   8.384  1.00  0.00    -0.014 A 
BRANCH  50  51
ATOM     51  C   UNL     1       5.983 -16.359   7.979  1.00  0.00     0.031 A 
ATOM     52  C   UNL     1       7.417 -16.692   7.660  1.00  0.00     0.074 A 
ATOM     53  C   UNL     1       5.035 -17.314   7.881  1.00  0.00     0.049 A 
ATOM     54  N   UNL     1       7.937 -17.838   7.294  1.00  0.00    -0.248 NA
ATOM     55  C   UNL     1       8.392 -15.594   7.745  1.00  0.00     0.031 C 
ATOM     56  C   UNL     1       3.605 -17.112   8.122  1.00  0.00     0.029 A 
ATOM     57  N   UNL     1       5.131 -18.645   7.558  1.00  0.00    -0.354 N 
ATOM     58  C   UNL     1       9.294 -17.600   7.113  1.00  0.00     0.074 A 
ATOM     59  C   UNL     1       9.507 -16.188   7.345  1.00  0.00     0.031 C 
ATOM     60  C   UNL     1       2.964 -18.283   7.976  1.00  0.00     0.029 A 
ATOM     61  C   UNL     1       3.928 -19.308   7.591  1.00  0.00     0.049 A 
ATOM     62  H   UNL     1       5.981 -19.082   7.324  1.00  0.00     0.167 HD
ATOM     63  C   UNL     1      10.279 -18.481   6.811  1.00  0.00     0.037 A 
ATOM     64  C   UNL     1       3.633 -20.598   7.339  1.00  0.00     0.037 A 
ATOM     65  C   UNL     1      10.069 -19.888   6.586  1.00  0.00     0.049 A 
ATOM     66  C   UNL     1       4.743 -21.544   6.969  1.00  0.00     0.074 A 
ATOM     67  C   UNL     1      11.007 -20.865   6.299  1.00  0.00     0.029 A 
ATOM     68  N   UNL     1       8.835 -20.519   6.620  1.00  0.00    -0.354 N 
ATOM     69  N   UNL     1       6.029 -21.314   6.864  1.00  0.00    -0.248 NA
ATOM     70  C   UNL     1       4.358 -22.935   6.690  1.00  0.00     0.031 C 
ATOM     71  C   UNL     1      10.336 -22.078   6.115  1.00  0.00     0.029 A 
ATOM     72  C   UNL     1       8.986 -21.869   6.342  1.00  0.00     0.049 A 
ATOM     73  H   UNL     1       7.978 -20.074   6.813  1.00  0.00     0.167 HD
ATOM     74  C   UNL     1       6.609 -22.536   6.544  1.00  0.00     0.074 A 
ATOM     75  C   UNL     1       5.537 -23.507   6.495  1.00  0.00     0.031 C 
ATOM     76  C   UNL     1       7.912 -22.828   6.309  1.00  0.00     0.037 A 
BRANCH  63  77
ATOM     77  C   UNL     1      11.683 -17.953   6.721  1.00  0.00     0.057 A 
ATOM     78  C   UNL     1      12.383 -17.532   7.860  1.00  0.00     0.134 A 
ATOM     79  C   UNL     1      12.365 -17.921   5.498  1.00  0.00     0.134 A 
ATOM     80  F   UNL     1      11.787 -17.528   9.062  1.00  0.00    -0.206 F 
ATOM     81  C   UNL     1      13.702 -17.080   7.783  1.00  0.00     0.040 A 
ATOM     82  C   UNL     1      13.693 -17.498   5.412  1.00  0.00     0.040 A 
ATOM     83  F   UNL     1      11.758 -18.317   4.369  1.00  0.00    -0.206 F 
ATOM     84  C   UNL     1      14.364 -17.072   6.557  1.00  0.00     0.006 A 
ENDBRANCH  63  77
BRANCH  64  85
ATOM     85  C   UNL     1       2.233 -21.088   7.441  1.00  0.00     0.057 A 
ATOM     86  C   UNL     1       1.861 -22.019   8.418  1.00  0.00     0.134 A 
ATOM     87  C   UNL     1       1.247 -20.678   6.535  1.00  0.00     0.134 A 
ATOM     88  F   UNL     1       2.764 -22.465   9.304  1.00  0.00    -0.206 F 
ATOM     89  C   UNL     1       0.572 -22.554   8.469  1.00  0.00     0.040 A 
ATOM     90  C   UNL     1      -0.054 -21.180   6.594  1.00  0.00     0.040 A 
ATOM     91  F   UNL     1       1.533 -19.783   5.579  1.00  0.00    -0.206 F 
ATOM     92  C   UNL     1      -0.391 -22.132   7.554  1.00  0.00     0.006 A 
ENDBRANCH  64  85
BRANCH  76  93
ATOM     93  C   UNL     1       8.252 -24.264   6.027  1.00  0.00     0.057 A 
ATOM     94  C   UNL     1       7.869 -24.899   4.838  1.00  0.00     0.134 A 
ATOM     95  C   UNL     1       8.984 -25.017   6.954  1.00  0.00     0.134 A 
ATOM     96  F   UNL     1       7.155 -24.239   3.913  1.00  0.00    -0.206 F 
ATOM     97  C   UNL     1       8.169 -26.242   4.599  1.00  0.00     0.040 A 
ATOM     98  C   UNL     1       9.319 -26.350   6.711  1.00  0.00     0.040 A 
ATOM     99  F   UNL     1       9.393 -24.469   8.108  1.00  0.00    -0.206 F 
ATOM    100  C   UNL     1       8.901 -26.969   5.535  1.00  0.00     0.006 A 
ENDBRANCH  76  93
ENDBRANCH  50  51
ENDBRANCH  42  45
ENDBRANCH  40  41
ENDBRANCH  39  40
ENDBRANCH  38  39
ENDBRANCH  37  38
ENDBRANCH  36  37
ENDBRANCH   1  36
TORSDOF 20
