REMARK SMILES O=C(CC1c2ccccc2CCc2ccccc21)NCCCCCCNC(=O)c1ccc(-c2c3nc(c(-c4c(F)cccc4F)c4ccc([nH]4)c(-c4c(F)cccc4F)c4nc(c(-c5c(F)cccc5F)c5ccc2[nH]5)C=C4)C=C3)cc1
REMARK SMILES IDX 22 1 21 2 20 3 19 4 1 5 2 6 3 8 4 9 5 10 6 11 10 12 7 13
REMARK SMILES IDX 9 14 8 15 11 16 18 18 13 19 17 20 14 21 16 22 15 23 12 24
REMARK SMILES IDX 23 26 24 27 25 28 26 29 27 30 28 32 29 33 30 34 82 35 31 36
REMARK SMILES IDX 81 37 32 38 33 39 34 40 75 41 35 42 80 43 74 44 76 45 36 46
REMARK SMILES IDX 79 47 73 48 72 49 37 51 63 52 46 53 62 54 47 55 50 56 61 57
REMARK SMILES IDX 77 58 48 59 49 60 60 62 78 63 51 64 38 65 39 66 44 67 40 68
REMARK SMILES IDX 41 69 43 70 45 71 42 72 64 73 65 74 70 75 66 76 67 77 69 78
REMARK SMILES IDX 71 79 68 80 52 81 53 82 58 83 54 84 55 85 57 86 59 87 56 88
REMARK H PARENT 19 7 26 31 76 50 50 61
REMARK Flexibility Score: 90.00
ROOT
ATOM      1  C   UNL     1       4.227   1.318   3.484  1.00  0.00     0.002 C 
ENDROOT
BRANCH   1   2
ATOM      2  C   UNL     1       2.719   1.134   3.268  1.00  0.00     0.021 C 
BRANCH   2   3
ATOM      3  C   UNL     1       2.211   1.618   1.910  1.00  0.00     0.116 C 
BRANCH   3   4
ATOM      4  N   UNL     1       2.847   0.890   0.831  1.00  0.00    -0.356 N 
ATOM      5  O   UNL     1       0.905   0.050  -0.047  1.00  0.00    -0.275 OA
ATOM      6  C   UNL     1       2.130   0.130  -0.061  1.00  0.00     0.220 C 
ATOM      7  H   UNL     1       3.825   0.941   0.734  1.00  0.00     0.163 HD
BRANCH   6   8
ATOM      8  C   UNL     1       2.970  -0.703  -1.003  1.00  0.00     0.113 C 
BRANCH   8   9
ATOM      9  C   UNL     1       3.868   0.086  -1.974  1.00  0.00     0.059 C 
BRANCH   9  10
ATOM     10  C   UNL     1       3.153   1.147  -2.806  1.00  0.00    -0.037 A 
ATOM     11  C   UNL     1       3.191   2.470  -2.295  1.00  0.00     0.004 A 
ATOM     12  C   UNL     1       2.482   0.924  -4.023  1.00  0.00    -0.044 A 
ATOM     13  C   UNL     1       2.592   3.541  -2.956  1.00  0.00     0.000 A 
ATOM     14  C   UNL     1       1.876   2.029  -4.672  1.00  0.00     0.004 A 
ATOM     15  C   UNL     1       1.929   3.318  -4.149  1.00  0.00     0.000 A 
BRANCH  12  16
ATOM     16  C   UNL     1       2.393  -0.376  -4.795  1.00  0.00     0.040 CG0
ATOM     17  G   UNL     1       2.836  -1.696  -4.177  1.00  0.00     0.000 G0
ENDBRANCH  12  16
ENDBRANCH   9  10
BRANCH   9  18
ATOM     18  C   UNL     1       4.778  -0.841  -2.777  1.00  0.00    -0.037 A 
ATOM     19  C   UNL     1       4.287  -1.702  -3.776  1.00  0.00    -0.044 A 
ATOM     20  C   UNL     1       6.159  -0.852  -2.494  1.00  0.00     0.004 A 
ATOM     21  C   UNL     1       5.172  -2.571  -4.437  1.00  0.00     0.004 A 
ATOM     22  C   UNL     1       7.028  -1.710  -3.170  1.00  0.00     0.000 A 
ATOM     23  C   UNL     1       6.532  -2.576  -4.135  1.00  0.00     0.000 A 
BRANCH  19  24
ATOM     24  C   UNL     1       2.836  -1.696  -4.177  1.00  0.00     0.040 CG0
ATOM     25  G   UNL     1       2.393  -0.376  -4.795  1.00  0.00     0.000 G0
ENDBRANCH  19  24
ENDBRANCH   9  18
ENDBRANCH   8   9
ENDBRANCH   6   8
ENDBRANCH   3   4
ENDBRANCH   2   3
ENDBRANCH   1   2
BRANCH   1  26
ATOM     26  C   UNL     1       4.740   2.751   3.320  1.00  0.00     0.002 C 
BRANCH  26  27
ATOM     27  C   UNL     1       4.070   3.791   4.221  1.00  0.00     0.021 C 
BRANCH  27  28
ATOM     28  C   UNL     1       4.153   3.499   5.717  1.00  0.00     0.116 C 
BRANCH  28  29
ATOM     29  N   UNL     1       5.523   3.457   6.202  1.00  0.00    -0.352 N 
ATOM     30  C   UNL     1       6.080   4.054   7.302  1.00  0.00     0.251 C 
ATOM     31  H   UNL     1       6.143   2.918   5.659  1.00  0.00     0.163 HD
ATOM     32  O   UNL     1       7.301   4.024   7.463  1.00  0.00    -0.269 OA
BRANCH  30  33
ATOM     33  C   UNL     1       5.231   4.761   8.286  1.00  0.00     0.039 A 
ATOM     34  C   UNL     1       5.668   5.991   8.785  1.00  0.00     0.014 A 
ATOM     35  C   UNL     1       4.024   4.214   8.735  1.00  0.00     0.014 A 
ATOM     36  C   UNL     1       4.871   6.698   9.687  1.00  0.00     0.010 A 
ATOM     37  C   UNL     1       3.199   4.951   9.583  1.00  0.00     0.010 A 
ATOM     38  C   UNL     1       3.615   6.199  10.069  1.00  0.00    -0.014 A 
BRANCH  38  39
ATOM     39  C   UNL     1       2.727   6.988  10.960  1.00  0.00     0.031 A 
ATOM     40  C   UNL     1       2.388   6.495  12.339  1.00  0.00     0.074 A 
ATOM     41  C   UNL     1       2.188   8.136  10.506  1.00  0.00     0.049 A 
ATOM     42  N   UNL     1       1.641   7.057  13.256  1.00  0.00    -0.248 NA
ATOM     43  C   UNL     1       2.939   5.189  12.731  1.00  0.00     0.031 C 
ATOM     44  C   UNL     1       2.391   8.694   9.168  1.00  0.00     0.029 A 
ATOM     45  N   UNL     1       1.362   9.041  11.122  1.00  0.00    -0.354 N 
ATOM     46  C   UNL     1       1.620   6.170  14.325  1.00  0.00     0.074 A 
ATOM     47  C   UNL     1       2.390   5.012  13.925  1.00  0.00     0.031 C 
ATOM     48  C   UNL     1       1.741   9.864   9.077  1.00  0.00     0.029 A 
ATOM     49  C   UNL     1       1.054  10.126  10.338  1.00  0.00     0.049 A 
ATOM     50  H   UNL     1       1.022   8.925  12.039  1.00  0.00     0.167 HD
ATOM     51  C   UNL     1       1.031   6.316  15.536  1.00  0.00     0.037 A 
ATOM     52  C   UNL     1       0.309  11.214  10.608  1.00  0.00     0.037 A 
ATOM     53  C   UNL     1       0.288   7.480  15.944  1.00  0.00     0.049 A 
ATOM     54  C   UNL     1      -0.322  11.358  11.963  1.00  0.00     0.074 A 
ATOM     55  C   UNL     1      -0.273   7.758  17.179  1.00  0.00     0.029 A 
ATOM     56  N   UNL     1      -0.003   8.558  15.122  1.00  0.00    -0.354 N 
ATOM     57  N   UNL     1      -0.259  10.552  12.995  1.00  0.00    -0.248 NA
ATOM     58  C   UNL     1      -1.123  12.569  12.192  1.00  0.00     0.031 C 
ATOM     59  C   UNL     1      -0.940   8.985  17.091  1.00  0.00     0.029 A 
ATOM     60  C   UNL     1      -0.759   9.491  15.814  1.00  0.00     0.049 A 
ATOM     61  H   UNL     1       0.285   8.648  14.185  1.00  0.00     0.167 HD
ATOM     62  C   UNL     1      -0.990  11.167  14.002  1.00  0.00     0.074 A 
ATOM     63  C   UNL     1      -1.473  12.422  13.462  1.00  0.00     0.031 C 
ATOM     64  C   UNL     1      -1.239  10.732  15.262  1.00  0.00     0.037 A 
BRANCH  51  65
ATOM     65  C   UNL     1       1.167   5.180  16.509  1.00  0.00     0.057 A 
ATOM     66  C   UNL     1       2.387   4.878  17.129  1.00  0.00     0.134 A 
ATOM     67  C   UNL     1       0.059   4.392  16.846  1.00  0.00     0.134 A 
ATOM     68  F   UNL     1       3.489   5.587  16.842  1.00  0.00    -0.206 F 
ATOM     69  C   UNL     1       2.507   3.815  18.026  1.00  0.00     0.040 A 
ATOM     70  C   UNL     1       0.161   3.342  17.761  1.00  0.00     0.040 A 
ATOM     71  F   UNL     1      -1.140   4.630  16.294  1.00  0.00    -0.206 F 
ATOM     72  C   UNL     1       1.390   3.046  18.347  1.00  0.00     0.006 A 
ENDBRANCH  51  65
BRANCH  52  73
ATOM     73  C   UNL     1       0.160  12.280   9.588  1.00  0.00     0.057 A 
ATOM     74  C   UNL     1       0.803  13.514   9.743  1.00  0.00     0.134 A 
ATOM     75  C   UNL     1      -0.620  12.097   8.441  1.00  0.00     0.134 A 
ATOM     76  F   UNL     1       1.549  13.753  10.832  1.00  0.00    -0.206 F 
ATOM     77  C   UNL     1       0.663  14.534   8.802  1.00  0.00     0.040 A 
ATOM     78  C   UNL     1      -0.751  13.101   7.480  1.00  0.00     0.040 A 
ATOM     79  F   UNL     1      -1.255  10.934   8.232  1.00  0.00    -0.206 F 
ATOM     80  C   UNL     1      -0.112  14.326   7.663  1.00  0.00     0.006 A 
ENDBRANCH  52  73
BRANCH  64  81
ATOM     81  C   UNL     1      -2.054  11.634  16.142  1.00  0.00     0.057 A 
ATOM     82  C   UNL     1      -3.429  11.814  15.943  1.00  0.00     0.134 A 
ATOM     83  C   UNL     1      -1.458  12.325  17.205  1.00  0.00     0.134 A 
ATOM     84  F   UNL     1      -4.056  11.193  14.932  1.00  0.00    -0.206 F 
ATOM     85  C   UNL     1      -4.177  12.672  16.751  1.00  0.00     0.040 A 
ATOM     86  C   UNL     1      -2.200  13.165  18.035  1.00  0.00     0.040 A 
ATOM     87  F   UNL     1      -0.147  12.191  17.455  1.00  0.00    -0.206 F 
ATOM     88  C   UNL     1      -3.562  13.348  17.804  1.00  0.00     0.006 A 
ENDBRANCH  64  81
ENDBRANCH  38  39
ENDBRANCH  30  33
ENDBRANCH  28  29
ENDBRANCH  27  28
ENDBRANCH  26  27
ENDBRANCH   1  26
TORSDOF 14
