REMARK SMILES CC(C)[C@@H](NS(=O)(=O)c1ccc(Cl)c([N+](=O)[O-])c1)C(=O)NCCCCCCNC(=O)c1ccc(-c2c3nc(c(-c4c(F)cccc4F)c4ccc([nH]4)c(-c4c(F)cccc4F)c4nc(c(-c5c(F)cccc5F)c5ccc2[nH]5)C=C4)C=C3)cc1
REMARK SMILES IDX 23 1 22 2 21 3 19 4 20 5 4 7 2 8 1 9 3 10 5 11 6 13 7 14
REMARK SMILES IDX 8 15 9 16 10 17 18 18 11 19 14 20 12 21 13 22 15 23 16 24
REMARK SMILES IDX 17 25 24 26 25 27 26 28 27 29 28 30 29 31 30 33 31 34 32 35
REMARK SMILES IDX 84 36 33 37 83 38 34 39 35 40 36 41 77 42 37 43 82 44 76 45
REMARK SMILES IDX 78 46 38 47 81 48 75 49 74 50 39 52 65 53 48 54 64 55 49 56
REMARK SMILES IDX 52 57 63 58 79 59 50 60 51 61 62 63 80 64 53 65 40 66 41 67
REMARK SMILES IDX 46 68 42 69 43 70 45 71 47 72 44 73 66 74 67 75 72 76 68 77
REMARK SMILES IDX 69 78 71 79 73 80 70 81 54 82 55 83 60 84 56 85 57 86 59 87
REMARK SMILES IDX 61 88 58 89
REMARK H PARENT 21 6 5 12 28 32 78 51 52 62
REMARK Flexibility Score: inf
ROOT
ATOM      1  C   UNL     1       0.777  -0.077   4.887  1.00  0.00     0.021 C 
ENDROOT
BRANCH   1   2
ATOM      2  C   UNL     1      -0.477  -0.338   4.058  1.00  0.00     0.116 C 
BRANCH   2   3
ATOM      3  N   UNL     1      -1.133   0.927   3.779  1.00  0.00    -0.355 N 
ATOM      4  C   UNL     1      -1.278   1.588   2.593  1.00  0.00     0.238 C 
ATOM      5  O   UNL     1      -1.640   2.766   2.625  1.00  0.00    -0.273 OA
ATOM      6  H   UNL     1      -1.531   1.375   4.560  1.00  0.00     0.163 HD
BRANCH   4   7
ATOM      7  C   UNL     1      -1.016   0.869   1.263  1.00  0.00     0.161 C 
BRANCH   7   8
ATOM      8  C   UNL     1       0.513   0.741   1.029  1.00  0.00     0.010 C 
ATOM      9  C   UNL     1       0.853   0.077  -0.306  1.00  0.00     0.009 C 
ATOM     10  C   UNL     1       1.194   2.120   1.086  1.00  0.00     0.009 C 
ENDBRANCH   7   8
BRANCH   7  11
ATOM     11  N   UNL     1      -1.721  -0.444   1.288  1.00  0.00    -0.198 NA
ATOM     12  H   UNL     1      -1.498  -0.882   2.182  1.00  0.00     0.142 HD
BRANCH  11  13
ATOM     13  S   UNL     1      -3.402  -0.499   1.123  1.00  0.00     0.241 S 
ATOM     14  O   UNL     1      -3.776   0.407   0.064  1.00  0.00    -0.207 OA
ATOM     15  O   UNL     1      -3.733  -1.907   1.062  1.00  0.00    -0.207 OA
BRANCH  13  16
ATOM     16  C   UNL     1      -4.057   0.123   2.658  1.00  0.00     0.089 A 
ATOM     17  C   UNL     1      -4.327   1.486   2.772  1.00  0.00     0.024 A 
ATOM     18  C   UNL     1      -4.314  -0.732   3.736  1.00  0.00     0.109 A 
ATOM     19  C   UNL     1      -4.692   2.021   4.008  1.00  0.00     0.029 A 
ATOM     20  C   UNL     1      -4.741  -0.195   4.975  1.00  0.00     0.289 A 
ATOM     21  C   UNL     1      -4.880   1.195   5.125  1.00  0.00     0.118 A 
ATOM     22  Cl  UNL     1      -5.221   2.035   6.597  1.00  0.00    -0.077 Cl
BRANCH  20  23
ATOM     23  N   UNL     1      -5.021  -1.147   6.064  1.00  0.00     0.064 N 
ATOM     24  O   UNL     1      -4.879  -2.352   5.809  1.00  0.00    -0.258 OA
ATOM     25  O   UNL     1      -5.379  -0.725   7.168  1.00  0.00    -0.258 OA
ENDBRANCH  20  23
ENDBRANCH  13  16
ENDBRANCH  11  13
ENDBRANCH   7  11
ENDBRANCH   4   7
ENDBRANCH   2   3
ENDBRANCH   1   2
BRANCH   1  26
ATOM     26  C   UNL     1       0.451   0.363   6.318  1.00  0.00     0.002 C 
BRANCH  26  27
ATOM     27  C   UNL     1      -0.339  -0.672   7.127  1.00  0.00     0.002 C 
BRANCH  27  28
ATOM     28  C   UNL     1       0.334  -2.043   7.218  1.00  0.00     0.021 C 
BRANCH  28  29
ATOM     29  C   UNL     1       1.735  -2.002   7.815  1.00  0.00     0.116 C 
BRANCH  29  30
ATOM     30  N   UNL     1       1.722  -1.507   9.182  1.00  0.00    -0.352 N 
ATOM     31  C   UNL     1       2.236  -2.085  10.314  1.00  0.00     0.251 C 
ATOM     32  H   UNL     1       1.284  -0.635   9.313  1.00  0.00     0.163 HD
ATOM     33  O   UNL     1       1.948  -1.648  11.422  1.00  0.00    -0.269 OA
BRANCH  31  34
ATOM     34  C   UNL     1       3.130  -3.253  10.186  1.00  0.00     0.039 A 
ATOM     35  C   UNL     1       2.925  -4.355  11.017  1.00  0.00     0.014 A 
ATOM     36  C   UNL     1       4.158  -3.260   9.239  1.00  0.00     0.014 A 
ATOM     37  C   UNL     1       3.720  -5.490  10.861  1.00  0.00     0.010 A 
ATOM     38  C   UNL     1       4.896  -4.420   9.031  1.00  0.00     0.010 A 
ATOM     39  C   UNL     1       4.688  -5.544   9.843  1.00  0.00    -0.014 A 
BRANCH  39  40
ATOM     40  C   UNL     1       5.483  -6.775   9.609  1.00  0.00     0.031 A 
ATOM     41  C   UNL     1       6.976  -6.758   9.782  1.00  0.00     0.074 A 
ATOM     42  C   UNL     1       4.864  -7.893   9.182  1.00  0.00     0.049 A 
ATOM     43  N   UNL     1       7.842  -7.717   9.575  1.00  0.00    -0.248 NA
ATOM     44  C   UNL     1       7.578  -5.489  10.222  1.00  0.00     0.031 C 
ATOM     45  C   UNL     1       3.427  -8.020   8.930  1.00  0.00     0.029 A 
ATOM     46  N   UNL     1       5.365  -9.133   8.877  1.00  0.00    -0.354 N 
ATOM     47  C   UNL     1       9.088  -7.166   9.848  1.00  0.00     0.074 A 
ATOM     48  C   UNL     1       8.871  -5.774  10.178  1.00  0.00     0.031 C 
ATOM     49  C   UNL     1       3.159  -9.274   8.534  1.00  0.00     0.029 A 
ATOM     50  C   UNL     1       4.408 -10.027   8.461  1.00  0.00     0.049 A 
ATOM     51  H   UNL     1       6.320  -9.360   8.948  1.00  0.00     0.167 HD
ATOM     52  C   UNL     1      10.299  -7.771   9.845  1.00  0.00     0.037 A 
ATOM     53  C   UNL     1       4.524 -11.306   8.058  1.00  0.00     0.037 A 
ATOM     54  C   UNL     1      10.507  -9.160   9.530  1.00  0.00     0.049 A 
ATOM     55  C   UNL     1       5.883 -11.949   8.045  1.00  0.00     0.074 A 
ATOM     56  C   UNL     1      11.687  -9.883   9.557  1.00  0.00     0.029 A 
ATOM     57  N   UNL     1       9.511 -10.036   9.120  1.00  0.00    -0.354 N 
ATOM     58  N   UNL     1       7.044 -11.437   8.378  1.00  0.00    -0.248 NA
ATOM     59  C   UNL     1       5.948 -13.349   7.606  1.00  0.00     0.031 C 
ATOM     60  C   UNL     1      11.416 -11.178   9.106  1.00  0.00     0.029 A 
ATOM     61  C   UNL     1      10.057 -11.283   8.860  1.00  0.00     0.049 A 
ATOM     62  H   UNL     1       8.559  -9.805   9.027  1.00  0.00     0.167 HD
ATOM     63  C   UNL     1       7.971 -12.459   8.217  1.00  0.00     0.074 A 
ATOM     64  C   UNL     1       7.234 -13.624   7.773  1.00  0.00     0.031 C 
ATOM     65  C   UNL     1       9.311 -12.435   8.420  1.00  0.00     0.037 A 
BRANCH  52  66
ATOM     66  C   UNL     1      11.496  -6.931  10.190  1.00  0.00     0.057 A 
ATOM     67  C   UNL     1      11.706  -6.432  11.483  1.00  0.00     0.134 A 
ATOM     68  C   UNL     1      12.472  -6.647   9.226  1.00  0.00     0.134 A 
ATOM     69  F   UNL     1      10.806  -6.657  12.453  1.00  0.00    -0.206 F 
ATOM     70  C   UNL     1      12.825  -5.658  11.796  1.00  0.00     0.040 A 
ATOM     71  C   UNL     1      13.611  -5.901   9.534  1.00  0.00     0.040 A 
ATOM     72  F   UNL     1      12.339  -7.098   7.969  1.00  0.00    -0.206 F 
ATOM     73  C   UNL     1      13.785  -5.398  10.822  1.00  0.00     0.006 A 
ENDBRANCH  52  66
BRANCH  53  74
ATOM     74  C   UNL     1       3.318 -12.067   7.644  1.00  0.00     0.057 A 
ATOM     75  C   UNL     1       2.839 -13.137   8.410  1.00  0.00     0.134 A 
ATOM     76  C   UNL     1       2.619 -11.751   6.473  1.00  0.00     0.134 A 
ATOM     77  F   UNL     1       3.475 -13.500   9.533  1.00  0.00    -0.206 F 
ATOM     78  C   UNL     1       1.725 -13.879   8.015  1.00  0.00     0.040 A 
ATOM     79  C   UNL     1       1.486 -12.465   6.081  1.00  0.00     0.040 A 
ATOM     80  F   UNL     1       3.020 -10.731   5.699  1.00  0.00    -0.206 F 
ATOM     81  C   UNL     1       1.041 -13.539   6.849  1.00  0.00     0.006 A 
ENDBRANCH  53  74
BRANCH  65  82
ATOM     82  C   UNL     1      10.064 -13.716   8.197  1.00  0.00     0.057 A 
ATOM     83  C   UNL     1      10.259 -14.250   6.917  1.00  0.00     0.134 A 
ATOM     84  C   UNL     1      10.632 -14.403   9.278  1.00  0.00     0.134 A 
ATOM     85  F   UNL     1       9.731 -13.649   5.841  1.00  0.00    -0.206 F 
ATOM     86  C   UNL     1      10.970 -15.436   6.723  1.00  0.00     0.040 A 
ATOM     87  C   UNL     1      11.371 -15.572   9.093  1.00  0.00     0.040 A 
ATOM     88  F   UNL     1      10.492 -13.941  10.530  1.00  0.00    -0.206 F 
ATOM     89  C   UNL     1      11.535 -16.096   7.813  1.00  0.00     0.006 A 
ENDBRANCH  65  82
ENDBRANCH  39  40
ENDBRANCH  31  34
ENDBRANCH  29  30
ENDBRANCH  28  29
ENDBRANCH  27  28
ENDBRANCH  26  27
ENDBRANCH   1  26
TORSDOF 18
