REMARK SMILES Cc1cc(N2N=C(C(=O)NCCCCCCNC(=O)c3ccc(-c4c5nc(c(-c6c(F)cccc6F)c6ccc([nH]6)c(-c6c(F)cccc6F)c6nc(c(-c7c(F)cccc7F)c7ccc4[nH]7)C=C6)C=C5)cc3)C[C@H]2c2ccccc2)c([N+](=O)[O-])cc1C
REMARK SMILES IDX 13 1 12 2 11 3 10 4 8 5 9 6 7 8 5 9 6 10 75 11 74 12 4 13
REMARK SMILES IDX 1 14 2 15 3 16 87 17 86 18 88 19 82 20 83 21 84 22 85 23
REMARK SMILES IDX 76 24 77 25 81 26 78 27 80 28 79 29 14 30 15 31 16 32 17 33
REMARK SMILES IDX 18 34 19 36 20 37 21 38 73 39 22 40 72 41 23 42 24 43 25 44
REMARK SMILES IDX 66 45 26 46 71 47 65 48 67 49 27 50 70 51 64 52 63 53 28 55
REMARK SMILES IDX 54 56 37 57 53 58 38 59 41 60 52 61 68 62 39 63 40 64 51 66
REMARK SMILES IDX 69 67 42 68 29 69 30 70 35 71 31 72 32 73 34 74 36 75 33 76
REMARK SMILES IDX 55 77 56 78 61 79 57 80 58 81 60 82 62 83 59 84 43 85 44 86
REMARK SMILES IDX 49 87 45 88 46 89 48 90 50 91 47 92
REMARK H PARENT 10 7 17 35 67 54 41 65
REMARK Flexibility Score: inf
ROOT
ATOM      1  C   UNL     1     -10.212   3.364   0.248  1.00  0.00     0.002 C 
ENDROOT
BRANCH   1   2
ATOM      2  C   UNL     1      -8.979   2.963  -0.560  1.00  0.00     0.021 C 
BRANCH   2   3
ATOM      3  C   UNL     1      -7.654   3.434   0.027  1.00  0.00     0.116 C 
BRANCH   3   4
ATOM      4  N   UNL     1      -7.276   2.662   1.190  1.00  0.00    -0.351 N 
ATOM      5  C   UNL     1      -6.144   1.979   1.555  1.00  0.00     0.267 C 
ATOM      6  O   UNL     1      -6.167   1.377   2.627  1.00  0.00    -0.268 OA
ATOM      7  H   UNL     1      -7.988   2.616   1.869  1.00  0.00     0.163 HD
BRANCH   5   8
ATOM      8  C   UNL     1      -4.857   1.967   0.742  1.00  0.00     0.128 C 
ATOM      9  N   UNL     1      -2.783   1.667   0.317  1.00  0.00    -0.250 N 
ATOM     10  N   UNL     1      -3.767   1.451   1.230  1.00  0.00    -0.171 NA
ATOM     11  C   UNL     1      -3.248   2.325  -0.911  1.00  0.00     0.144 C 
ATOM     12  C   UNL     1      -4.745   2.489  -0.651  1.00  0.00     0.096 C 
BRANCH   9  13
ATOM     13  C   UNL     1      -1.692   0.800   0.269  1.00  0.00     0.138 A 
ATOM     14  C   UNL     1       2.078   1.364   0.241  1.00  0.00     0.045 C 
ATOM     15  C   UNL     1       0.769   0.624   0.228  1.00  0.00    -0.046 A 
ATOM     16  C   UNL     1      -0.413   1.370   0.367  1.00  0.00     0.039 A 
ATOM     17  C   UNL     1       0.684  -0.769   0.069  1.00  0.00    -0.041 A 
ATOM     18  C   UNL     1      -0.585  -1.369   0.017  1.00  0.00     0.091 A 
ATOM     19  C   UNL     1       1.894  -1.656  -0.033  1.00  0.00     0.045 C 
ATOM     20  C   UNL     1      -1.753  -0.587   0.100  1.00  0.00     0.294 A 
BRANCH  20  21
ATOM     21  N   UNL     1      -3.026  -1.272  -0.091  1.00  0.00     0.065 N 
ATOM     22  O   UNL     1      -3.184  -2.350   0.503  1.00  0.00    -0.258 OA
ATOM     23  O   UNL     1      -3.821  -0.802  -0.923  1.00  0.00    -0.258 OA
ENDBRANCH  20  21
ENDBRANCH   9  13
BRANCH  11  24
ATOM     24  C   UNL     1      -2.479   3.613  -1.194  1.00  0.00    -0.023 A 
ATOM     25  C   UNL     1      -2.887   4.884  -0.754  1.00  0.00     0.006 A 
ATOM     26  C   UNL     1      -1.273   3.531  -1.917  1.00  0.00     0.006 A 
ATOM     27  C   UNL     1      -2.138   6.026  -1.052  1.00  0.00     0.000 A 
ATOM     28  C   UNL     1      -0.499   4.665  -2.169  1.00  0.00     0.000 A 
ATOM     29  C   UNL     1      -0.938   5.915  -1.748  1.00  0.00     0.000 A 
ENDBRANCH  11  24
ENDBRANCH   5   8
ENDBRANCH   3   4
ENDBRANCH   2   3
ENDBRANCH   1   2
BRANCH   1  30
ATOM     30  C   UNL     1     -10.368   4.867   0.500  1.00  0.00     0.002 C 
BRANCH  30  31
ATOM     31  C   UNL     1     -10.252   5.757  -0.740  1.00  0.00     0.021 C 
BRANCH  31  32
ATOM     32  C   UNL     1     -11.216   5.408  -1.868  1.00  0.00     0.116 C 
BRANCH  32  33
ATOM     33  N   UNL     1     -12.605   5.571  -1.474  1.00  0.00    -0.352 N 
ATOM     34  C   UNL     1     -13.591   6.307  -2.083  1.00  0.00     0.251 C 
ATOM     35  H   UNL     1     -12.876   5.088  -0.661  1.00  0.00     0.163 HD
ATOM     36  O   UNL     1     -14.668   6.492  -1.525  1.00  0.00    -0.269 OA
BRANCH  34  37
ATOM     37  C   UNL     1     -13.334   6.895  -3.412  1.00  0.00     0.039 A 
ATOM     38  C   UNL     1     -13.621   8.245  -3.626  1.00  0.00     0.014 A 
ATOM     39  C   UNL     1     -12.783   6.116  -4.433  1.00  0.00     0.014 A 
ATOM     40  C   UNL     1     -13.290   8.834  -4.849  1.00  0.00     0.010 A 
ATOM     41  C   UNL     1     -12.390   6.720  -5.622  1.00  0.00     0.010 A 
ATOM     42  C   UNL     1     -12.637   8.085  -5.841  1.00  0.00    -0.014 A 
BRANCH  42  43
ATOM     43  C   UNL     1     -12.199   8.694  -7.121  1.00  0.00     0.031 A 
ATOM     44  C   UNL     1     -12.778   8.200  -8.417  1.00  0.00     0.074 A 
ATOM     45  C   UNL     1     -11.210   9.610  -7.126  1.00  0.00     0.049 A 
ATOM     46  N   UNL     1     -12.417   8.475  -9.644  1.00  0.00    -0.248 NA
ATOM     47  C   UNL     1     -13.893   7.243  -8.319  1.00  0.00     0.031 C 
ATOM     48  C   UNL     1     -10.543  10.145  -5.937  1.00  0.00     0.029 A 
ATOM     49  N   UNL     1     -10.572  10.231  -8.171  1.00  0.00    -0.354 N 
ATOM     50  C   UNL     1     -13.237   7.707 -10.459  1.00  0.00     0.074 A 
ATOM     51  C   UNL     1     -14.089   6.925  -9.590  1.00  0.00     0.031 C 
ATOM     52  C   UNL     1      -9.592  11.012  -6.318  1.00  0.00     0.029 A 
ATOM     53  C   UNL     1      -9.548  11.059  -7.777  1.00  0.00     0.049 A 
ATOM     54  H   UNL     1     -10.824  10.097  -9.113  1.00  0.00     0.167 HD
ATOM     55  C   UNL     1     -13.284   7.668 -11.812  1.00  0.00     0.037 A 
ATOM     56  C   UNL     1      -8.655  11.755  -8.508  1.00  0.00     0.037 A 
ATOM     57  C   UNL     1     -12.459   8.474 -12.671  1.00  0.00     0.049 A 
ATOM     58  C   UNL     1      -8.724  11.687 -10.010  1.00  0.00     0.074 A 
ATOM     59  C   UNL     1     -12.483   8.562 -14.051  1.00  0.00     0.029 A 
ATOM     60  N   UNL     1     -11.459   9.328 -12.231  1.00  0.00    -0.354 N 
ATOM     61  N   UNL     1      -9.549  11.007 -10.769  1.00  0.00    -0.248 NA
ATOM     62  C   UNL     1      -7.740  12.483 -10.758  1.00  0.00     0.031 C 
ATOM     63  C   UNL     1     -11.463   9.429 -14.451  1.00  0.00     0.029 A 
ATOM     64  C   UNL     1     -10.841   9.926 -13.317  1.00  0.00     0.049 A 
ATOM     65  H   UNL     1     -11.224   9.487 -11.289  1.00  0.00     0.167 HD
ATOM     66  C   UNL     1      -9.207  11.319 -12.079  1.00  0.00     0.074 A 
ATOM     67  C   UNL     1      -8.105  12.255 -12.012  1.00  0.00     0.031 C 
ATOM     68  C   UNL     1      -9.758  10.872 -13.233  1.00  0.00     0.037 A 
BRANCH  55  69
ATOM     69  C   UNL     1     -14.258   6.722 -12.452  1.00  0.00     0.057 A 
ATOM     70  C   UNL     1     -15.641   6.940 -12.411  1.00  0.00     0.134 A 
ATOM     71  C   UNL     1     -13.800   5.609 -13.170  1.00  0.00     0.134 A 
ATOM     72  F   UNL     1     -16.145   7.981 -11.731  1.00  0.00    -0.206 F 
ATOM     73  C   UNL     1     -16.535   6.074 -13.043  1.00  0.00     0.040 A 
ATOM     74  C   UNL     1     -14.682   4.753 -13.830  1.00  0.00     0.040 A 
ATOM     75  F   UNL     1     -12.487   5.346 -13.255  1.00  0.00    -0.206 F 
ATOM     76  C   UNL     1     -16.055   4.981 -13.763  1.00  0.00     0.006 A 
ENDBRANCH  55  69
BRANCH  56  77
ATOM     77  C   UNL     1      -7.612  12.571  -7.836  1.00  0.00     0.057 A 
ATOM     78  C   UNL     1      -7.627  13.969  -7.910  1.00  0.00     0.134 A 
ATOM     79  C   UNL     1      -6.563  11.976  -7.124  1.00  0.00     0.134 A 
ATOM     80  F   UNL     1      -8.595  14.598  -8.593  1.00  0.00    -0.206 F 
ATOM     81  C   UNL     1      -6.623  14.744  -7.326  1.00  0.00     0.040 A 
ATOM     82  C   UNL     1      -5.568  12.740  -6.511  1.00  0.00     0.040 A 
ATOM     83  F   UNL     1      -6.494  10.642  -7.007  1.00  0.00    -0.206 F 
ATOM     84  C   UNL     1      -5.592  14.129  -6.620  1.00  0.00     0.006 A 
ENDBRANCH  56  77
BRANCH  68  85
ATOM     85  C   UNL     1      -9.219  11.422 -14.520  1.00  0.00     0.057 A 
ATOM     86  C   UNL     1      -7.971  11.041 -15.025  1.00  0.00     0.134 A 
ATOM     87  C   UNL     1      -9.996  12.289 -15.300  1.00  0.00     0.134 A 
ATOM     88  F   UNL     1      -7.173  10.223 -14.322  1.00  0.00    -0.206 F 
ATOM     89  C   UNL     1      -7.509  11.512 -16.255  1.00  0.00     0.040 A 
ATOM     90  C   UNL     1      -9.557  12.744 -16.543  1.00  0.00     0.040 A 
ATOM     91  F   UNL     1     -11.207  12.685 -14.877  1.00  0.00    -0.206 F 
ATOM     92  C   UNL     1      -8.308  12.357 -17.023  1.00  0.00     0.006 A 
ENDBRANCH  68  85
ENDBRANCH  42  43
ENDBRANCH  34  37
ENDBRANCH  32  33
ENDBRANCH  31  32
ENDBRANCH  30  31
ENDBRANCH   1  30
TORSDOF 16
