REMARK SMILES Cc1ccc(/[NH+]=C2/S[C@@H](CC(=O)Nc3ccc(C(=O)NCCCCCCNC(=O)c4ccc(-c5c6nc(c(-c7c(F)cccc7F)c7ccc([nH]7)c(-c7c(F)cccc7F)c7nc(c(-c8c(F)cccc8F)c8ccc5[nH]8)C=C7)C=C6)cc4)cc3)C(=O)N2C)cc1
REMARK SMILES IDX 22 1 21 2 20 3 18 4 19 5 17 7 14 8 15 9 85 10 16 11 84 12
REMARK SMILES IDX 13 13 11 14 12 15 10 17 9 18 6 19 7 20 8 22 88 23 86 24
REMARK SMILES IDX 89 25 87 26 5 27 1 28 2 29 3 30 91 31 4 32 90 33 23 34 24 35
REMARK SMILES IDX 25 36 26 37 27 38 28 39 29 41 30 42 31 43 83 44 32 45 82 46
REMARK SMILES IDX 33 47 34 48 35 49 76 50 36 51 81 52 75 53 77 54 37 55 80 56
REMARK SMILES IDX 74 57 73 58 38 60 64 61 47 62 63 63 48 64 51 65 62 66 78 67
REMARK SMILES IDX 49 68 50 69 61 71 79 72 52 73 39 74 40 75 45 76 41 77 42 78
REMARK SMILES IDX 44 79 46 80 43 81 65 82 66 83 71 84 67 85 68 86 70 87 72 88
REMARK SMILES IDX 69 89 53 90 54 91 59 92 55 93 56 94 58 95 60 96 57 97
REMARK H PARENT 20 6 13 16 6 21 27 40 77 59 51 70
REMARK Flexibility Score: inf
ROOT
ATOM      1  C   UNL     1      -0.347   2.434   1.987  1.00  0.00     0.021 C 
ENDROOT
BRANCH   1   2
ATOM      2  C   UNL     1      -1.690   2.796   2.634  1.00  0.00     0.116 C 
BRANCH   2   3
ATOM      3  N   UNL     1      -1.669   4.072   3.331  1.00  0.00    -0.352 N 
ATOM      4  C   UNL     1      -2.486   5.176   3.244  1.00  0.00     0.251 C 
ATOM      5  O   UNL     1      -2.194   6.179   3.894  1.00  0.00    -0.269 OA
ATOM      6  H   UNL     1      -0.938   4.163   3.984  1.00  0.00     0.163 HD
BRANCH   4   7
ATOM      7  C   UNL     1      -3.684   5.223   2.364  1.00  0.00     0.039 A 
ATOM      8  C   UNL     1      -5.902   5.407   0.604  1.00  0.00     0.041 A 
ATOM      9  C   UNL     1      -5.677   4.253   1.355  1.00  0.00     0.027 A 
ATOM     10  C   UNL     1      -5.055   6.505   0.820  1.00  0.00     0.027 A 
ATOM     11  C   UNL     1      -4.585   4.165   2.239  1.00  0.00     0.016 A 
ATOM     12  C   UNL     1      -3.956   6.415   1.685  1.00  0.00     0.016 A 
BRANCH   8  13
ATOM     13  N   UNL     1      -6.894   5.584  -0.381  1.00  0.00    -0.326 N 
ATOM     14  C   UNL     1      -7.679   4.763  -1.132  1.00  0.00     0.226 C 
ATOM     15  O   UNL     1      -8.430   5.291  -1.961  1.00  0.00    -0.275 OA
ATOM     16  H   UNL     1      -7.059   6.535  -0.574  1.00  0.00     0.169 HD
BRANCH  14  17
ATOM     17  C   UNL     1      -7.627   3.259  -1.059  1.00  0.00     0.128 C 
BRANCH  17  18
ATOM     18  C   UNL     1      -6.534   2.655  -1.932  1.00  0.00     0.183 C 
ATOM     19  N   UNL     1      -3.679   0.194  -1.508  1.00  0.00    -0.235 N 
ATOM     20  C   UNL     1      -4.438   1.235  -1.441  1.00  0.00     0.319 C 
ATOM     21  H   UNL     1      -4.102  -0.693  -1.450  1.00  0.00     0.313 HD
ATOM     22  S   UNL     1      -6.167   0.954  -1.415  1.00  0.00    -0.022 SA
ATOM     23  N   UNL     1      -4.185   2.578  -1.409  1.00  0.00    -0.193 N 
ATOM     24  C   UNL     1      -5.201   3.371  -1.893  1.00  0.00     0.324 C 
ATOM     25  C   UNL     1      -2.944   3.242  -1.054  1.00  0.00     0.301 C 
ATOM     26  O   UNL     1      -5.029   4.507  -2.325  1.00  0.00    -0.245 OA
BRANCH  19  27
ATOM     27  C   UNL     1      -2.295   0.251  -1.658  1.00  0.00     0.125 A 
ATOM     28  C   UNL     1       1.903   0.979  -1.360  1.00  0.00     0.044 C 
ATOM     29  C   UNL     1       0.476   0.599  -1.579  1.00  0.00    -0.051 A 
ATOM     30  C   UNL     1      -0.134  -0.398  -0.818  1.00  0.00     0.008 A 
ATOM     31  C   UNL     1      -0.286   1.294  -2.515  1.00  0.00     0.008 A 
ATOM     32  C   UNL     1      -1.515  -0.559  -0.842  1.00  0.00     0.052 A 
ATOM     33  C   UNL     1      -1.659   1.072  -2.594  1.00  0.00     0.052 A 
ENDBRANCH  19  27
ENDBRANCH  17  18
ENDBRANCH  14  17
ENDBRANCH   8  13
ENDBRANCH   4   7
ENDBRANCH   2   3
ENDBRANCH   1   2
BRANCH   1  34
ATOM     34  C   UNL     1       0.775   1.975   2.932  1.00  0.00     0.002 C 
BRANCH  34  35
ATOM     35  C   UNL     1       0.531   0.668   3.702  1.00  0.00     0.002 C 
BRANCH  35  36
ATOM     36  C   UNL     1       0.518  -0.624   2.870  1.00  0.00     0.021 C 
BRANCH  36  37
ATOM     37  C   UNL     1       1.910  -1.124   2.443  1.00  0.00     0.116 C 
BRANCH  37  38
ATOM     38  N   UNL     1       2.146  -2.506   2.876  1.00  0.00    -0.352 N 
ATOM     39  C   UNL     1       2.880  -3.518   2.292  1.00  0.00     0.251 C 
ATOM     40  H   UNL     1       1.708  -2.752   3.723  1.00  0.00     0.163 HD
ATOM     41  O   UNL     1       3.172  -4.527   2.927  1.00  0.00    -0.269 OA
BRANCH  39  42
ATOM     42  C   UNL     1       3.385  -3.343   0.919  1.00  0.00     0.039 A 
ATOM     43  C   UNL     1       4.764  -3.307   0.711  1.00  0.00     0.014 A 
ATOM     44  C   UNL     1       2.502  -3.047  -0.115  1.00  0.00     0.014 A 
ATOM     45  C   UNL     1       5.257  -2.713  -0.449  1.00  0.00     0.010 A 
ATOM     46  C   UNL     1       2.995  -2.423  -1.255  1.00  0.00     0.010 A 
ATOM     47  C   UNL     1       4.364  -2.139  -1.360  1.00  0.00    -0.014 A 
BRANCH  47  48
ATOM     48  C   UNL     1       4.770  -0.982  -2.174  1.00  0.00     0.031 A 
ATOM     49  C   UNL     1       4.739  -0.946  -3.652  1.00  0.00     0.074 A 
ATOM     50  C   UNL     1       5.117   0.165  -1.537  1.00  0.00     0.049 A 
ATOM     51  N   UNL     1       5.487  -0.160  -4.359  1.00  0.00    -0.248 NA
ATOM     52  C   UNL     1       3.884  -1.794  -4.463  1.00  0.00     0.031 C 
ATOM     53  C   UNL     1       5.262   1.500  -2.118  1.00  0.00     0.029 A 
ATOM     54  N   UNL     1       5.565   0.319  -0.221  1.00  0.00    -0.354 N 
ATOM     55  C   UNL     1       5.021  -0.167  -5.654  1.00  0.00     0.074 A 
ATOM     56  C   UNL     1       4.085  -1.271  -5.680  1.00  0.00     0.031 C 
ATOM     57  C   UNL     1       6.005   2.255  -1.298  1.00  0.00     0.029 A 
ATOM     58  C   UNL     1       6.464   1.402  -0.222  1.00  0.00     0.049 A 
ATOM     59  H   UNL     1       5.301  -0.224   0.557  1.00  0.00     0.167 HD
ATOM     60  C   UNL     1       5.388   0.842  -6.505  1.00  0.00     0.037 A 
ATOM     61  C   UNL     1       7.762   1.246   0.157  1.00  0.00     0.037 A 
ATOM     62  C   UNL     1       6.331   1.774  -5.870  1.00  0.00     0.049 A 
ATOM     63  C   UNL     1       8.773   1.591  -0.908  1.00  0.00     0.074 A 
ATOM     64  C   UNL     1       6.211   3.071  -5.392  1.00  0.00     0.029 A 
ATOM     65  N   UNL     1       7.583   1.329  -5.457  1.00  0.00    -0.354 N 
ATOM     66  N   UNL     1       8.483   1.798  -2.161  1.00  0.00    -0.248 NA
ATOM     67  C   UNL     1      10.203   1.685  -0.646  1.00  0.00     0.031 C 
ATOM     68  C   UNL     1       7.411   3.415  -4.721  1.00  0.00     0.029 A 
ATOM     69  C   UNL     1       8.256   2.320  -4.767  1.00  0.00     0.049 A 
ATOM     70  H   UNL     1       7.941   0.428  -5.633  1.00  0.00     0.167 HD
ATOM     71  C   UNL     1       9.641   1.978  -2.884  1.00  0.00     0.074 A 
ATOM     72  C   UNL     1      10.681   1.952  -1.874  1.00  0.00     0.031 C 
ATOM     73  C   UNL     1       9.605   2.096  -4.249  1.00  0.00     0.037 A 
BRANCH  60  74
ATOM     74  C   UNL     1       4.720   1.162  -7.841  1.00  0.00     0.057 A 
ATOM     75  C   UNL     1       4.821   2.447  -8.423  1.00  0.00     0.134 A 
ATOM     76  C   UNL     1       3.934   0.274  -8.595  1.00  0.00     0.134 A 
ATOM     77  F   UNL     1       5.635   3.390  -7.930  1.00  0.00    -0.206 F 
ATOM     78  C   UNL     1       4.103   2.843  -9.562  1.00  0.00     0.040 A 
ATOM     79  C   UNL     1       3.177   0.665  -9.713  1.00  0.00     0.040 A 
ATOM     80  F   UNL     1       3.914  -1.038  -8.345  1.00  0.00    -0.206 F 
ATOM     81  C   UNL     1       3.244   1.961 -10.192  1.00  0.00     0.006 A 
ENDBRANCH  60  74
BRANCH  61  82
ATOM     82  C   UNL     1       7.952   0.227   1.218  1.00  0.00     0.057 A 
ATOM     83  C   UNL     1       7.396   0.471   2.486  1.00  0.00     0.134 A 
ATOM     84  C   UNL     1       8.335  -1.084   0.928  1.00  0.00     0.134 A 
ATOM     85  F   UNL     1       6.999   1.709   2.820  1.00  0.00    -0.206 F 
ATOM     86  C   UNL     1       7.138  -0.561   3.389  1.00  0.00     0.040 A 
ATOM     87  C   UNL     1       8.091  -2.126   1.831  1.00  0.00     0.040 A 
ATOM     88  F   UNL     1       8.837  -1.399  -0.274  1.00  0.00    -0.206 F 
ATOM     89  C   UNL     1       7.461  -1.871   3.049  1.00  0.00     0.006 A 
ENDBRANCH  61  82
BRANCH  73  90
ATOM     90  C   UNL     1      10.773   2.099  -5.234  1.00  0.00     0.057 A 
ATOM     91  C   UNL     1      12.108   1.783  -4.936  1.00  0.00     0.134 A 
ATOM     92  C   UNL     1      10.547   2.358  -6.612  1.00  0.00     0.134 A 
ATOM     93  F   UNL     1      12.495   1.396  -3.718  1.00  0.00    -0.206 F 
ATOM     94  C   UNL     1      13.134   1.789  -5.898  1.00  0.00     0.040 A 
ATOM     95  C   UNL     1      11.552   2.317  -7.588  1.00  0.00     0.040 A 
ATOM     96  F   UNL     1       9.329   2.642  -7.094  1.00  0.00    -0.206 F 
ATOM     97  C   UNL     1      12.859   2.048  -7.231  1.00  0.00     0.006 A 
ENDBRANCH  73  90
ENDBRANCH  47  48
ENDBRANCH  39  42
ENDBRANCH  37  38
ENDBRANCH  36  37
ENDBRANCH  35  36
ENDBRANCH  34  35
ENDBRANCH   1  34
TORSDOF 17
