REMARK SMILES Cc1cccc([C@H]([NH3+])[C@H](O)C(=O)NCCCCCCNC(=O)c2ccc(-c3c4nc(c(-c5c(F)cccc5F)c5ccc([nH]5)c(-c5c(F)cccc5F)c5nc(c(-c6c(F)cccc6F)c6ccc3[nH]6)C=C5)C=C4)cc2)c1
REMARK SMILES IDX 16 1 15 2 14 3 13 4 11 5 12 6 9 8 7 9 6 10 1 11 2 12 3 13
REMARK SMILES IDX 77 14 4 15 5 16 8 17 10 21 17 23 18 24 19 25 20 26 21 27
REMARK SMILES IDX 22 29 23 30 24 31 76 32 25 33 75 34 26 35 27 36 28 37 69 38
REMARK SMILES IDX 29 39 74 40 68 41 70 42 30 43 73 44 67 45 66 46 31 48 57 49
REMARK SMILES IDX 40 50 56 51 41 52 44 53 55 54 71 55 42 56 43 57 54 59 72 60
REMARK SMILES IDX 45 61 32 62 33 63 38 64 34 65 35 66 37 67 39 68 36 69 58 70
REMARK SMILES IDX 59 71 64 72 60 73 61 74 63 75 65 76 62 77 46 78 47 79 52 80
REMARK SMILES IDX 48 81 49 82 51 83 53 84 50 85
REMARK H PARENT 13 7 8 18 8 19 8 20 10 22 20 28 70 47 44 58
REMARK Flexibility Score: inf
ROOT
ATOM      1  C   UNL     1      -1.548   7.741   0.239  1.00  0.00     0.002 C 
ENDROOT
BRANCH   1   2
ATOM      2  C   UNL     1      -1.186   6.250   0.230  1.00  0.00     0.021 C 
BRANCH   2   3
ATOM      3  C   UNL     1      -1.665   5.448   1.435  1.00  0.00     0.116 C 
BRANCH   3   4
ATOM      4  N   UNL     1      -3.055   5.079   1.383  1.00  0.00    -0.354 N 
ATOM      5  C   UNL     1      -3.642   3.853   1.416  1.00  0.00     0.255 C 
ATOM      6  O   UNL     1      -4.870   3.842   1.573  1.00  0.00    -0.272 OA
ATOM      7  H   UNL     1      -3.682   5.836   1.312  1.00  0.00     0.163 HD
BRANCH   5   8
ATOM      8  C   UNL     1      -2.881   2.511   1.232  1.00  0.00     0.266 C 
BRANCH   8   9
ATOM      9  C   UNL     1      -1.760   2.184   2.288  1.00  0.00     0.250 C 
BRANCH   9  10
ATOM     10  C   UNL     1      -0.268   2.241   1.909  1.00  0.00     0.013 A 
ATOM     11  C   UNL     1       3.055   1.745   3.768  1.00  0.00     0.044 C 
ATOM     12  C   UNL     1       2.066   2.046   2.681  1.00  0.00    -0.051 A 
ATOM     13  C   UNL     1       2.519   2.425   1.417  1.00  0.00     0.003 A 
ATOM     14  C   UNL     1       0.684   1.968   2.917  1.00  0.00     0.013 A 
ATOM     15  C   UNL     1       1.606   2.700   0.405  1.00  0.00     0.001 A 
ATOM     16  C   UNL     1       0.232   2.601   0.647  1.00  0.00     0.010 A 
ENDBRANCH   9  10
BRANCH   9  17
ATOM     17  N   UNL     1      -2.014   0.848   2.891  1.00  0.00    -0.349 N 
ATOM     18  H   UNL     1      -1.883   0.125   2.183  1.00  0.00     0.345 HD
ATOM     19  H   UNL     1      -2.971   0.810   3.242  1.00  0.00     0.345 HD
ATOM     20  H   UNL     1      -1.363   0.693   3.660  1.00  0.00     0.345 HD
ENDBRANCH   9  17
ENDBRANCH   8   9
BRANCH   8  21
ATOM     21  O   UNL     1      -2.538   2.240  -0.121  1.00  0.00    -0.378 OA
ATOM     22  H   UNL     1      -1.870   2.878  -0.419  1.00  0.00     0.211 HD
ENDBRANCH   8  21
ENDBRANCH   5   8
ENDBRANCH   3   4
ENDBRANCH   2   3
ENDBRANCH   1   2
BRANCH   1  23
ATOM     23  C   UNL     1      -1.260   8.520   1.534  1.00  0.00     0.002 C 
BRANCH  23  24
ATOM     24  C   UNL     1       0.113   8.299   2.176  1.00  0.00     0.021 C 
BRANCH  24  25
ATOM     25  C   UNL     1       1.274   8.929   1.419  1.00  0.00     0.116 C 
BRANCH  25  26
ATOM     26  N   UNL     1       1.674  10.235   1.931  1.00  0.00    -0.352 N 
ATOM     27  C   UNL     1       2.594  11.129   1.409  1.00  0.00     0.251 C 
ATOM     28  H   UNL     1       1.229  10.520   2.762  1.00  0.00     0.163 HD
ATOM     29  O   UNL     1       2.808  12.197   1.961  1.00  0.00    -0.269 OA
BRANCH  27  30
ATOM     30  C   UNL     1       3.213  10.827   0.096  1.00  0.00     0.039 A 
ATOM     31  C   UNL     1       3.107  11.796  -0.906  1.00  0.00     0.014 A 
ATOM     32  C   UNL     1       3.659   9.543  -0.207  1.00  0.00     0.014 A 
ATOM     33  C   UNL     1       3.183  11.402  -2.239  1.00  0.00     0.010 A 
ATOM     34  C   UNL     1       3.653   9.132  -1.528  1.00  0.00     0.010 A 
ATOM     35  C   UNL     1       3.331  10.045  -2.537  1.00  0.00    -0.014 A 
BRANCH  35  36
ATOM     36  C   UNL     1       2.963   9.489  -3.836  1.00  0.00     0.031 A 
ATOM     37  C   UNL     1       3.978   9.039  -4.805  1.00  0.00     0.074 A 
ATOM     38  C   UNL     1       1.655   9.364  -4.160  1.00  0.00     0.049 A 
ATOM     39  N   UNL     1       3.790   9.048  -6.083  1.00  0.00    -0.248 NA
ATOM     40  C   UNL     1       5.299   8.560  -4.414  1.00  0.00     0.031 C 
ATOM     41  C   UNL     1       1.091   8.660  -5.308  1.00  0.00     0.029 A 
ATOM     42  N   UNL     1       0.570  10.060  -3.611  1.00  0.00    -0.354 N 
ATOM     43  C   UNL     1       4.826   8.361  -6.659  1.00  0.00     0.074 A 
ATOM     44  C   UNL     1       5.771   8.125  -5.588  1.00  0.00     0.031 C 
ATOM     45  C   UNL     1      -0.121   9.170  -5.572  1.00  0.00     0.029 A 
ATOM     46  C   UNL     1      -0.327  10.293  -4.677  1.00  0.00     0.049 A 
ATOM     47  H   UNL     1       0.456  10.332  -2.672  1.00  0.00     0.167 HD
ATOM     48  C   UNL     1       4.743   7.954  -7.956  1.00  0.00     0.037 A 
ATOM     49  C   UNL     1      -0.647  11.563  -5.058  1.00  0.00     0.037 A 
ATOM     50  C   UNL     1       3.492   8.344  -8.594  1.00  0.00     0.049 A 
ATOM     51  C   UNL     1      -0.246  11.923  -6.474  1.00  0.00     0.074 A 
ATOM     52  C   UNL     1       2.299   7.695  -8.870  1.00  0.00     0.029 A 
ATOM     53  N   UNL     1       3.247   9.688  -8.800  1.00  0.00    -0.354 N 
ATOM     54  N   UNL     1       0.363  11.119  -7.300  1.00  0.00    -0.248 NA
ATOM     55  C   UNL     1      -0.410  13.269  -7.029  1.00  0.00     0.031 C 
ATOM     56  C   UNL     1       1.335   8.672  -9.249  1.00  0.00     0.029 A 
ATOM     57  C   UNL     1       1.946   9.911  -9.205  1.00  0.00     0.049 A 
ATOM     58  H   UNL     1       3.916  10.398  -8.675  1.00  0.00     0.167 HD
ATOM     59  C   UNL     1       0.741  11.820  -8.416  1.00  0.00     0.074 A 
ATOM     60  C   UNL     1       0.221  13.157  -8.210  1.00  0.00     0.031 C 
ATOM     61  C   UNL     1       1.503  11.278  -9.408  1.00  0.00     0.037 A 
BRANCH  48  62
ATOM     62  C   UNL     1       5.741   7.006  -8.550  1.00  0.00     0.057 A 
ATOM     63  C   UNL     1       5.342   5.941  -9.375  1.00  0.00     0.134 A 
ATOM     64  C   UNL     1       7.122   7.087  -8.303  1.00  0.00     0.134 A 
ATOM     65  F   UNL     1       4.065   5.779  -9.744  1.00  0.00    -0.206 F 
ATOM     66  C   UNL     1       6.238   4.972  -9.841  1.00  0.00     0.040 A 
ATOM     67  C   UNL     1       8.022   6.098  -8.719  1.00  0.00     0.040 A 
ATOM     68  F   UNL     1       7.646   8.135  -7.649  1.00  0.00    -0.206 F 
ATOM     69  C   UNL     1       7.577   5.028  -9.483  1.00  0.00     0.006 A 
ENDBRANCH  48  62
BRANCH  49  70
ATOM     70  C   UNL     1      -0.697  12.515  -3.919  1.00  0.00     0.057 A 
ATOM     71  C   UNL     1      -1.669  12.323  -2.920  1.00  0.00     0.134 A 
ATOM     72  C   UNL     1       0.368  13.366  -3.619  1.00  0.00     0.134 A 
ATOM     73  F   UNL     1      -2.717  11.514  -3.144  1.00  0.00    -0.206 F 
ATOM     74  C   UNL     1      -1.530  12.869  -1.643  1.00  0.00     0.040 A 
ATOM     75  C   UNL     1       0.509  13.931  -2.347  1.00  0.00     0.040 A 
ATOM     76  F   UNL     1       1.345  13.580  -4.512  1.00  0.00    -0.206 F 
ATOM     77  C   UNL     1      -0.420  13.652  -1.345  1.00  0.00     0.006 A 
ENDBRANCH  49  70
BRANCH  61  78
ATOM     78  C   UNL     1       1.905  12.018 -10.651  1.00  0.00     0.057 A 
ATOM     79  C   UNL     1       0.995  12.773 -11.403  1.00  0.00     0.134 A 
ATOM     80  C   UNL     1       3.195  11.887 -11.202  1.00  0.00     0.134 A 
ATOM     81  F   UNL     1      -0.278  12.915 -11.006  1.00  0.00    -0.206 F 
ATOM     82  C   UNL     1       1.355  13.390 -12.608  1.00  0.00     0.040 A 
ATOM     83  C   UNL     1       3.553  12.459 -12.426  1.00  0.00     0.040 A 
ATOM     84  F   UNL     1       4.166  11.216 -10.568  1.00  0.00    -0.206 F 
ATOM     85  C   UNL     1       2.634  13.224 -13.129  1.00  0.00     0.006 A 
ENDBRANCH  61  78
ENDBRANCH  35  36
ENDBRANCH  27  30
ENDBRANCH  25  26
ENDBRANCH  24  25
ENDBRANCH  23  24
ENDBRANCH   1  23
TORSDOF 17
