REMARK SMILES Cc1occc1C(=O)N[C@@H]1CCCCC[C@@H]1C(=O)NCCCCCCNC(=O)c1ccc(-c2c3nc(c(-c4c(F)cccc4F)c4ccc([nH]4)c(-c4c(F)cccc4F)c4nc(c(-c5c(F)cccc5F)c5ccc2[nH]5)C=C4)C=C3)cc1
REMARK SMILES IDX 22 1 21 2 20 3 19 4 17 5 18 6 16 8 10 9 9 10 7 11 8 12 6 14
REMARK SMILES IDX 1 15 2 16 3 17 4 18 5 19 11 20 12 21 15 23 14 24 13 25 23 27
REMARK SMILES IDX 24 28 25 29 26 30 27 31 28 33 29 34 30 35 82 36 31 37 81 38
REMARK SMILES IDX 32 39 33 40 34 41 75 42 35 43 80 44 74 45 76 46 36 47 79 48
REMARK SMILES IDX 73 49 72 50 37 52 63 53 46 54 62 55 47 56 50 57 61 58 77 59
REMARK SMILES IDX 48 60 49 61 60 63 78 64 51 65 38 66 39 67 44 68 40 69 41 70
REMARK SMILES IDX 43 71 45 72 42 73 64 74 65 75 70 76 66 77 67 78 69 79 71 80
REMARK SMILES IDX 68 81 52 82 53 83 58 84 54 85 55 86 57 87 59 88 56 89
REMARK H PARENT 19 7 9 13 26 32 76 51 50 62
REMARK Flexibility Score: 100.00
ROOT
ATOM      1  C   UNL     1      -3.297  -1.595  -1.367  1.00  0.00     0.002 C 
ENDROOT
BRANCH   1   2
ATOM      2  C   UNL     1      -1.913  -1.565  -0.716  1.00  0.00     0.021 C 
BRANCH   2   3
ATOM      3  C   UNL     1      -0.787  -2.425  -1.346  1.00  0.00     0.116 C 
BRANCH   3   4
ATOM      4  N   UNL     1       0.168  -1.717  -2.245  1.00  0.00    -0.356 N 
ATOM      5  C   UNL     1       1.452  -1.283  -2.378  1.00  0.00     0.225 C 
ATOM      6  O   UNL     1       1.689  -0.974  -3.565  1.00  0.00    -0.275 OA
ATOM      7  H   UNL     1      -0.320  -1.464  -3.062  1.00  0.00     0.163 HD
BRANCH   5   8
ATOM      8  C   UNL     1       2.644  -1.006  -1.365  1.00  0.00     0.101 C 
BRANCH   8   9
ATOM      9  C   UNL     1       2.819  -1.930  -0.152  1.00  0.00     0.094 C 
BRANCH   9  10
ATOM     10  N   UNL     1       1.615  -2.326   0.547  1.00  0.00    -0.348 N 
ATOM     11  C   UNL     1       0.743  -1.618   1.326  1.00  0.00     0.255 C 
ATOM     12  O   UNL     1       0.040  -2.264   2.100  1.00  0.00    -0.269 OA
ATOM     13  H   UNL     1       1.382  -3.277   0.443  1.00  0.00     0.164 HD
BRANCH  11  14
ATOM     14  C   UNL     1       0.615  -0.179   1.220  1.00  0.00     0.080 A 
ATOM     15  C   UNL     1       1.332   0.485   3.633  1.00  0.00     0.088 C 
ATOM     16  C   UNL     1       0.796   0.686   2.279  1.00  0.00     0.113 A 
ATOM     17  O   UNL     1       0.416   1.953   1.956  1.00  0.00    -0.469 OA
ATOM     18  C   UNL     1       0.001   1.923   0.671  1.00  0.00     0.196 A 
ATOM     19  C   UNL     1       0.163   0.660   0.165  1.00  0.00     0.056 A 
ENDBRANCH  11  14
ENDBRANCH   9  10
BRANCH   9  20
ATOM     20  C   UNL     1       3.896  -1.737   0.941  1.00  0.00     0.026 C 
BRANCH  20  21
ATOM     21  C   UNL     1       5.053  -0.785   0.750  1.00  0.00     0.002 CG0
ATOM     22  G   UNL     1       4.590   0.656   0.736  1.00  0.00     0.000 G0
ENDBRANCH  20  21
ENDBRANCH   9  20
ENDBRANCH   8   9
BRANCH   8  23
ATOM     23  C   UNL     1       2.939   0.523  -1.280  1.00  0.00     0.015 C 
BRANCH  23  24
ATOM     24  C   UNL     1       4.214   1.101  -0.661  1.00  0.00     0.001 C 
BRANCH  24  25
ATOM     25  C   UNL     1       4.590   0.656   0.736  1.00  0.00     0.000 CG0
ATOM     26  G   UNL     1       5.053  -0.785   0.750  1.00  0.00     0.000 G0
ENDBRANCH  24  25
ENDBRANCH  23  24
ENDBRANCH   8  23
ENDBRANCH   5   8
ENDBRANCH   3   4
ENDBRANCH   2   3
ENDBRANCH   1   2
BRANCH   1  27
ATOM     27  C   UNL     1      -4.179  -2.784  -0.992  1.00  0.00     0.002 C 
BRANCH  27  28
ATOM     28  C   UNL     1      -4.494  -2.944   0.502  1.00  0.00     0.021 C 
BRANCH  28  29
ATOM     29  C   UNL     1      -5.096  -1.715   1.183  1.00  0.00     0.116 C 
BRANCH  29  30
ATOM     30  N   UNL     1      -6.366  -1.343   0.573  1.00  0.00    -0.352 N 
ATOM     31  C   UNL     1      -7.619  -1.407   1.125  1.00  0.00     0.251 C 
ATOM     32  H   UNL     1      -6.318  -1.003  -0.350  1.00  0.00     0.163 HD
ATOM     33  O   UNL     1      -8.625  -1.394   0.419  1.00  0.00    -0.269 OA
BRANCH  31  34
ATOM     34  C   UNL     1      -7.744  -1.466   2.592  1.00  0.00     0.039 A 
ATOM     35  C   UNL     1      -8.563  -2.428   3.183  1.00  0.00     0.014 A 
ATOM     36  C   UNL     1      -7.042  -0.543   3.374  1.00  0.00     0.014 A 
ATOM     37  C   UNL     1      -8.655  -2.484   4.575  1.00  0.00     0.010 A 
ATOM     38  C   UNL     1      -7.083  -0.642   4.758  1.00  0.00     0.010 A 
ATOM     39  C   UNL     1      -7.905  -1.600   5.370  1.00  0.00    -0.014 A 
BRANCH  39  40
ATOM     40  C   UNL     1      -7.999  -1.636   6.849  1.00  0.00     0.031 A 
ATOM     41  C   UNL     1      -8.589  -0.467   7.587  1.00  0.00     0.074 A 
ATOM     42  C   UNL     1      -7.511  -2.695   7.521  1.00  0.00     0.049 A 
ATOM     43  N   UNL     1      -8.732  -0.287   8.875  1.00  0.00    -0.248 NA
ATOM     44  C   UNL     1      -9.056   0.666   6.769  1.00  0.00     0.031 C 
ATOM     45  C   UNL     1      -6.869  -3.860   6.910  1.00  0.00     0.029 A 
ATOM     46  N   UNL     1      -7.472  -2.960   8.865  1.00  0.00    -0.354 N 
ATOM     47  C   UNL     1      -9.292   0.976   9.019  1.00  0.00     0.074 A 
ATOM     48  C   UNL     1      -9.404   1.545   7.695  1.00  0.00     0.031 C 
ATOM     49  C   UNL     1      -6.526  -4.728   7.875  1.00  0.00     0.029 A 
ATOM     50  C   UNL     1      -6.891  -4.166   9.171  1.00  0.00     0.049 A 
ATOM     51  H   UNL     1      -7.827  -2.344   9.546  1.00  0.00     0.167 HD
ATOM     52  C   UNL     1      -9.702   1.593  10.152  1.00  0.00     0.037 A 
ATOM     53  C   UNL     1      -6.677  -4.748  10.366  1.00  0.00     0.037 A 
ATOM     54  C   UNL     1      -9.601   1.008  11.463  1.00  0.00     0.049 A 
ATOM     55  C   UNL     1      -7.136  -4.040  11.611  1.00  0.00     0.074 A 
ATOM     56  C   UNL     1     -10.035   1.520  12.672  1.00  0.00     0.029 A 
ATOM     57  N   UNL     1      -9.019  -0.222  11.733  1.00  0.00    -0.354 N 
ATOM     58  N   UNL     1      -7.735  -2.879  11.729  1.00  0.00    -0.248 NA
ATOM     59  C   UNL     1      -6.899  -4.726  12.888  1.00  0.00     0.031 C 
ATOM     60  C   UNL     1      -9.669   0.623  13.681  1.00  0.00     0.029 A 
ATOM     61  C   UNL     1      -9.060  -0.475  13.094  1.00  0.00     0.049 A 
ATOM     62  H   UNL     1      -8.634  -0.826  11.057  1.00  0.00     0.167 HD
ATOM     63  C   UNL     1      -7.973  -2.708  13.087  1.00  0.00     0.074 A 
ATOM     64  C   UNL     1      -7.467  -3.894  13.749  1.00  0.00     0.031 C 
ATOM     65  C   UNL     1      -8.555  -1.666  13.730  1.00  0.00     0.037 A 
BRANCH  52  66
ATOM     66  C   UNL     1     -10.296   2.966  10.018  1.00  0.00     0.057 A 
ATOM     67  C   UNL     1     -11.536   3.180   9.400  1.00  0.00     0.134 A 
ATOM     68  C   UNL     1      -9.633   4.087  10.534  1.00  0.00     0.134 A 
ATOM     69  F   UNL     1     -12.219   2.153   8.873  1.00  0.00    -0.206 F 
ATOM     70  C   UNL     1     -12.079   4.460   9.272  1.00  0.00     0.040 A 
ATOM     71  C   UNL     1     -10.181   5.368  10.440  1.00  0.00     0.040 A 
ATOM     72  F   UNL     1      -8.445   3.957  11.144  1.00  0.00    -0.206 F 
ATOM     73  C   UNL     1     -11.404   5.558   9.800  1.00  0.00     0.006 A 
ENDBRANCH  52  66
BRANCH  53  74
ATOM     74  C   UNL     1      -6.025  -6.081  10.441  1.00  0.00     0.057 A 
ATOM     75  C   UNL     1      -6.739  -7.215  10.845  1.00  0.00     0.134 A 
ATOM     76  C   UNL     1      -4.674  -6.254  10.114  1.00  0.00     0.134 A 
ATOM     77  F   UNL     1      -8.032  -7.112  11.186  1.00  0.00    -0.206 F 
ATOM     78  C   UNL     1      -6.130  -8.467  10.946  1.00  0.00     0.040 A 
ATOM     79  C   UNL     1      -4.059  -7.505  10.183  1.00  0.00     0.040 A 
ATOM     80  F   UNL     1      -3.936  -5.210   9.710  1.00  0.00    -0.206 F 
ATOM     81  C   UNL     1      -4.786  -8.615  10.608  1.00  0.00     0.006 A 
ENDBRANCH  53  74
BRANCH  65  82
ATOM     82  C   UNL     1      -8.710  -1.780  15.218  1.00  0.00     0.057 A 
ATOM     83  C   UNL     1      -7.614  -1.700  16.086  1.00  0.00     0.134 A 
ATOM     84  C   UNL     1      -9.980  -1.930  15.790  1.00  0.00     0.134 A 
ATOM     85  F   UNL     1      -6.370  -1.568  15.601  1.00  0.00    -0.206 F 
ATOM     86  C   UNL     1      -7.773  -1.793  17.470  1.00  0.00     0.040 A 
ATOM     87  C   UNL     1     -10.155  -1.992  17.173  1.00  0.00     0.040 A 
ATOM     88  F   UNL     1     -11.073  -2.002  15.016  1.00  0.00    -0.206 F 
ATOM     89  C   UNL     1      -9.048  -1.931  18.017  1.00  0.00     0.006 A 
ENDBRANCH  65  82
ENDBRANCH  39  40
ENDBRANCH  31  34
ENDBRANCH  29  30
ENDBRANCH  28  29
ENDBRANCH  27  28
ENDBRANCH   1  27
TORSDOF 15
