REMARK SMILES COC[C@@H]1CCN(C(=O)N[C@H]2CCCCC[C@@H]2C(=O)NCCCCCCNC(=O)c2ccc(-c3c4nc(c(-c5c(F)cccc5F)c5ccc([nH]5)c(-c5c(F)cccc5F)c5nc(c(-c6c(F)cccc6F)c6ccc3[nH]6)C=C5)C=C4)cc2)C1
REMARK SMILES IDX 22 1 21 2 20 3 18 4 19 5 17 7 11 8 10 10 8 11 9 12 7 14 4 15
REMARK SMILES IDX 5 16 84 17 6 18 3 19 2 20 1 21 16 22 15 23 14 24 13 25 12 26
REMARK SMILES IDX 23 28 24 29 25 30 26 31 27 32 28 33 29 35 30 36 31 37 83 38
REMARK SMILES IDX 32 39 82 40 33 41 34 42 35 43 76 44 36 45 81 46 75 47 77 48
REMARK SMILES IDX 37 49 80 50 74 51 73 52 38 54 64 55 47 56 63 57 48 58 51 59
REMARK SMILES IDX 62 60 78 61 49 62 50 63 61 65 79 66 52 67 39 68 40 69 45 70
REMARK SMILES IDX 41 71 42 72 44 73 46 74 43 75 65 76 66 77 71 78 67 79 68 80
REMARK SMILES IDX 70 81 72 82 69 83 53 84 54 85 59 86 55 87 56 88 58 89 60 90
REMARK SMILES IDX 57 91
REMARK H PARENT 20 6 10 13 27 34 77 53 51 64
REMARK Flexibility Score: 100.00
ROOT
ATOM      1  C   UNL     1       0.496   3.171  -0.986  1.00  0.00     0.021 C 
ENDROOT
BRANCH   1   2
ATOM      2  C   UNL     1      -0.439   4.344  -1.272  1.00  0.00     0.116 C 
BRANCH   2   3
ATOM      3  N   UNL     1      -0.886   4.323  -2.652  1.00  0.00    -0.356 N 
ATOM      4  C   UNL     1      -2.080   3.965  -3.198  1.00  0.00     0.225 C 
ATOM      5  O   UNL     1      -2.153   3.914  -4.428  1.00  0.00    -0.275 OA
ATOM      6  H   UNL     1      -0.211   4.619  -3.304  1.00  0.00     0.163 HD
BRANCH   4   7
ATOM      7  C   UNL     1      -3.305   3.651  -2.337  1.00  0.00     0.101 C 
BRANCH   7   8
ATOM      8  C   UNL     1      -3.787   4.944  -1.638  1.00  0.00     0.096 CG0
ATOM      9  G   UNL     1      -4.702   4.726  -0.417  1.00  0.00     0.000 G0
BRANCH   8  10
ATOM     10  N   UNL     1      -4.438   5.836  -2.604  1.00  0.00    -0.334 N 
ATOM     11  C   UNL     1      -4.639   7.165  -2.693  1.00  0.00     0.317 C 
ATOM     12  O   UNL     1      -5.259   7.549  -3.690  1.00  0.00    -0.249 OA
ATOM     13  H   UNL     1      -4.819   5.348  -3.369  1.00  0.00     0.165 HD
BRANCH  11  14
ATOM     14  N   UNL     1      -4.224   8.046  -1.745  1.00  0.00    -0.324 N 
ATOM     15  C   UNL     1      -4.336  10.102  -0.519  1.00  0.00     0.036 C 
ATOM     16  C   UNL     1      -4.119   8.904   0.406  1.00  0.00     0.029 C 
ATOM     17  C   UNL     1      -4.625   9.448  -1.878  1.00  0.00     0.127 C 
ATOM     18  C   UNL     1      -3.480   7.883  -0.510  1.00  0.00     0.122 C 
BRANCH  15  19
ATOM     19  C   UNL     1      -3.127  11.043  -0.563  1.00  0.00     0.165 C 
BRANCH  19  20
ATOM     20  O   UNL     1      -2.604  11.339   0.735  1.00  0.00    -0.384 OA
ATOM     21  C   UNL     1      -3.484  12.091   1.559  1.00  0.00     0.194 C 
ENDBRANCH  19  20
ENDBRANCH  15  19
ENDBRANCH  11  14
ENDBRANCH   8  10
ENDBRANCH   7   8
BRANCH   7  22
ATOM     22  C   UNL     1      -3.051   2.427  -1.441  1.00  0.00     0.015 C 
BRANCH  22  23
ATOM     23  C   UNL     1      -4.312   1.615  -1.146  1.00  0.00     0.001 C 
BRANCH  23  24
ATOM     24  C   UNL     1      -5.247   2.261  -0.133  1.00  0.00     0.000 C 
BRANCH  24  25
ATOM     25  C   UNL     1      -5.761   3.636  -0.544  1.00  0.00     0.002 C 
BRANCH  25  26
ATOM     26  C   UNL     1      -4.702   4.726  -0.417  1.00  0.00     0.026 CG0
ATOM     27  G   UNL     1      -3.787   4.944  -1.638  1.00  0.00     0.000 G0
ENDBRANCH  25  26
ENDBRANCH  24  25
ENDBRANCH  23  24
ENDBRANCH  22  23
ENDBRANCH   7  22
ENDBRANCH   4   7
ENDBRANCH   2   3
ENDBRANCH   1   2
BRANCH   1  28
ATOM     28  C   UNL     1       1.889   3.332  -1.606  1.00  0.00     0.002 C 
BRANCH  28  29
ATOM     29  C   UNL     1       2.682   4.546  -1.107  1.00  0.00     0.002 C 
BRANCH  29  30
ATOM     30  C   UNL     1       2.852   4.632   0.412  1.00  0.00     0.021 C 
BRANCH  30  31
ATOM     31  C   UNL     1       3.558   3.434   1.042  1.00  0.00     0.116 C 
BRANCH  31  32
ATOM     32  N   UNL     1       4.926   3.299   0.570  1.00  0.00    -0.352 N 
ATOM     33  C   UNL     1       6.085   3.178   1.288  1.00  0.00     0.251 C 
ATOM     34  H   UNL     1       5.035   3.295  -0.408  1.00  0.00     0.163 HD
ATOM     35  O   UNL     1       7.175   3.276   0.719  1.00  0.00    -0.269 OA
BRANCH  33  36
ATOM     36  C   UNL     1       6.041   2.941   2.745  1.00  0.00     0.039 A 
ATOM     37  C   UNL     1       6.926   3.642   3.569  1.00  0.00     0.014 A 
ATOM     38  C   UNL     1       5.158   2.009   3.298  1.00  0.00     0.014 A 
ATOM     39  C   UNL     1       6.898   3.439   4.950  1.00  0.00     0.010 A 
ATOM     40  C   UNL     1       5.085   1.855   4.681  1.00  0.00     0.010 A 
ATOM     41  C   UNL     1       5.962   2.561   5.519  1.00  0.00    -0.014 A 
BRANCH  41  42
ATOM     42  C   UNL     1       5.902   2.359   6.988  1.00  0.00     0.031 A 
ATOM     43  C   UNL     1       6.250   1.022   7.584  1.00  0.00     0.074 A 
ATOM     44  C   UNL     1       5.491   3.365   7.782  1.00  0.00     0.049 A 
ATOM     45  N   UNL     1       6.224   0.644   8.837  1.00  0.00    -0.248 NA
ATOM     46  C   UNL     1       6.657  -0.036   6.646  1.00  0.00     0.031 C 
ATOM     47  C   UNL     1       5.080   4.693   7.322  1.00  0.00     0.029 A 
ATOM     48  N   UNL     1       5.346   3.426   9.145  1.00  0.00    -0.354 N 
ATOM     49  C   UNL     1       6.597  -0.694   8.835  1.00  0.00     0.074 A 
ATOM     50  C   UNL     1       6.793  -1.077   7.454  1.00  0.00     0.031 C 
ATOM     51  C   UNL     1       4.753   5.444   8.385  1.00  0.00     0.029 A 
ATOM     52  C   UNL     1       4.902   4.645   9.598  1.00  0.00     0.049 A 
ATOM     53  H   UNL     1       5.541   2.668   9.742  1.00  0.00     0.167 HD
ATOM     54  C   UNL     1       6.783  -1.523   9.890  1.00  0.00     0.037 A 
ATOM     55  C   UNL     1       4.646   5.069  10.849  1.00  0.00     0.037 A 
ATOM     56  C   UNL     1       6.616  -1.133  11.265  1.00  0.00     0.049 A 
ATOM     57  C   UNL     1       4.868   4.133  12.003  1.00  0.00     0.074 A 
ATOM     58  C   UNL     1       6.841  -1.882  12.408  1.00  0.00     0.029 A 
ATOM     59  N   UNL     1       6.183   0.116  11.684  1.00  0.00    -0.354 N 
ATOM     60  N   UNL     1       5.286   2.891  11.991  1.00  0.00    -0.248 NA
ATOM     61  C   UNL     1       4.590   4.661  13.347  1.00  0.00     0.031 C 
ATOM     62  C   UNL     1       6.507  -1.097  13.517  1.00  0.00     0.029 A 
ATOM     63  C   UNL     1       6.115   0.153  13.067  1.00  0.00     0.049 A 
ATOM     64  H   UNL     1       5.957   0.865  11.086  1.00  0.00     0.167 HD
ATOM     65  C   UNL     1       5.346   2.497  13.322  1.00  0.00     0.074 A 
ATOM     66  C   UNL     1       4.936   3.637  14.114  1.00  0.00     0.031 C 
ATOM     67  C   UNL     1       5.708   1.298  13.840  1.00  0.00     0.037 A 
BRANCH  54  68
ATOM     68  C   UNL     1       7.197  -2.935   9.594  1.00  0.00     0.057 A 
ATOM     69  C   UNL     1       8.479  -3.244   9.118  1.00  0.00     0.134 A 
ATOM     70  C   UNL     1       6.317  -4.002   9.816  1.00  0.00     0.134 A 
ATOM     71  F   UNL     1       9.366  -2.267   8.873  1.00  0.00    -0.206 F 
ATOM     72  C   UNL     1       8.861  -4.559   8.848  1.00  0.00     0.040 A 
ATOM     73  C   UNL     1       6.697  -5.323   9.575  1.00  0.00     0.040 A 
ATOM     74  F   UNL     1       5.077  -3.777  10.277  1.00  0.00    -0.206 F 
ATOM     75  C   UNL     1       7.970  -5.604   9.082  1.00  0.00     0.006 A 
ENDBRANCH  54  68
BRANCH  55  76
ATOM     76  C   UNL     1       4.180   6.459  11.080  1.00  0.00     0.057 A 
ATOM     77  C   UNL     1       5.017   7.410  11.676  1.00  0.00     0.134 A 
ATOM     78  C   UNL     1       2.892   6.870  10.717  1.00  0.00     0.134 A 
ATOM     79  F   UNL     1       6.256   7.070  12.061  1.00  0.00    -0.206 F 
ATOM     80  C   UNL     1       4.585   8.714  11.921  1.00  0.00     0.040 A 
ATOM     81  C   UNL     1       2.454   8.177  10.935  1.00  0.00     0.040 A 
ATOM     82  F   UNL     1       2.046   6.008  10.135  1.00  0.00    -0.206 F 
ATOM     83  C   UNL     1       3.300   9.101  11.546  1.00  0.00     0.006 A 
ENDBRANCH  55  76
BRANCH  67  84
ATOM     84  C   UNL     1       5.702   1.170  15.335  1.00  0.00     0.057 A 
ATOM     85  C   UNL     1       4.509   1.090  16.064  1.00  0.00     0.134 A 
ATOM     86  C   UNL     1       6.905   1.093  16.049  1.00  0.00     0.134 A 
ATOM     87  F   UNL     1       3.324   1.171  15.439  1.00  0.00    -0.206 F 
ATOM     88  C   UNL     1       4.512   0.960  17.453  1.00  0.00     0.040 A 
ATOM     89  C   UNL     1       6.920   0.939  17.435  1.00  0.00     0.040 A 
ATOM     90  F   UNL     1       8.082   1.156  15.409  1.00  0.00    -0.206 F 
ATOM     91  C   UNL     1       5.721   0.878  18.142  1.00  0.00     0.006 A 
ENDBRANCH  67  84
ENDBRANCH  41  42
ENDBRANCH  33  36
ENDBRANCH  31  32
ENDBRANCH  30  31
ENDBRANCH  29  30
ENDBRANCH  28  29
ENDBRANCH   1  28
TORSDOF 17
