REMARK SMILES C[C@H]1CCCC[C@@]1(NC(=O)N[C@@H]1CCOC1)C(=O)NCCCCCCNC(=O)c1ccc(-c2c3nc(c(-c4c(F)cccc4F)c4ccc([nH]4)c(-c4c(F)cccc4F)c4nc(c(-c5c(F)cccc5F)c5ccc2[nH]5)C=C4)C=C3)cc1
REMARK SMILES IDX 22 1 21 2 20 3 19 4 17 5 18 6 7 8 1 9 2 10 3 11 4 12 6 13
REMARK SMILES IDX 5 14 8 15 9 16 10 18 11 19 12 21 13 22 16 23 14 24 15 25
REMARK SMILES IDX 23 26 24 27 25 28 26 29 27 30 28 32 29 33 30 34 82 35 31 36
REMARK SMILES IDX 81 37 32 38 33 39 34 40 75 41 35 42 80 43 74 44 76 45 36 46
REMARK SMILES IDX 79 47 73 48 72 49 37 51 63 52 46 53 62 54 47 55 50 56 61 57
REMARK SMILES IDX 77 58 48 59 49 60 60 62 78 63 51 64 38 65 39 66 44 67 40 68
REMARK SMILES IDX 41 69 43 70 45 71 42 72 64 73 65 74 70 75 66 76 67 77 69 78
REMARK SMILES IDX 71 79 68 80 52 81 53 82 58 83 54 84 55 85 57 86 59 87 56 88
REMARK H PARENT 19 7 8 17 11 20 26 31 76 50 50 61
REMARK Flexibility Score: inf
ROOT
ATOM      1  C   UNL     1       0.105   2.453  -3.990  1.00  0.00     0.002 C 
ENDROOT
BRANCH   1   2
ATOM      2  C   UNL     1       0.171   2.290  -2.468  1.00  0.00     0.021 C 
BRANCH   2   3
ATOM      3  C   UNL     1      -0.991   1.528  -1.842  1.00  0.00     0.116 C 
BRANCH   3   4
ATOM      4  N   UNL     1      -0.959   0.111  -2.050  1.00  0.00    -0.354 N 
ATOM      5  C   UNL     1      -0.828  -0.921  -1.184  1.00  0.00     0.246 C 
ATOM      6  O   UNL     1      -1.531  -1.900  -1.488  1.00  0.00    -0.272 OA
ATOM      7  H   UNL     1      -1.048  -0.161  -2.992  1.00  0.00     0.163 HD
BRANCH   5   8
ATOM      8  C   UNL     1       0.086  -1.003   0.084  1.00  0.00     0.123 C 
ATOM      9  C   UNL     1       2.349   0.331  -0.055  1.00  0.00     0.011 C 
ATOM     10  C   UNL     1       1.036   0.076   0.686  1.00  0.00     0.021 C 
ATOM     11  C   UNL     1       0.391   1.388   1.161  1.00  0.00     0.006 C 
ATOM     12  C   UNL     1      -0.997   1.267   1.801  1.00  0.00     0.000 C 
ATOM     13  C   UNL     1      -0.989  -1.208   1.212  1.00  0.00     0.039 C 
ATOM     14  C   UNL     1      -1.831   0.052   1.407  1.00  0.00     0.003 C 
BRANCH   8  15
ATOM     15  N   UNL     1       0.858  -2.298  -0.024  1.00  0.00    -0.323 N 
ATOM     16  C   UNL     1       1.830  -2.817  -0.786  1.00  0.00     0.315 C 
ATOM     17  H   UNL     1       0.564  -2.943   0.659  1.00  0.00     0.166 HD
ATOM     18  O   UNL     1       2.559  -3.661  -0.255  1.00  0.00    -0.249 OA
ATOM     19  N   UNL     1       2.078  -2.531  -2.070  1.00  0.00    -0.333 N 
ATOM     20  H   UNL     1       2.958  -2.850  -2.375  1.00  0.00     0.165 HD
BRANCH  19  21
ATOM     21  C   UNL     1       1.324  -1.849  -3.111  1.00  0.00     0.112 C 
ATOM     22  C   UNL     1       0.169  -2.684  -3.628  1.00  0.00     0.056 C 
ATOM     23  C   UNL     1       2.116  -1.539  -4.381  1.00  0.00     0.185 C 
ATOM     24  C   UNL     1       0.638  -3.247  -4.945  1.00  0.00     0.162 C 
ATOM     25  O   UNL     1       1.659  -2.386  -5.442  1.00  0.00    -0.379 OA
ENDBRANCH  19  21
ENDBRANCH   8  15
ENDBRANCH   5   8
ENDBRANCH   3   4
ENDBRANCH   2   3
ENDBRANCH   1   2
BRANCH   1  26
ATOM     26  C   UNL     1      -1.241   2.919  -4.552  1.00  0.00     0.002 C 
BRANCH  26  27
ATOM     27  C   UNL     1      -1.878   4.110  -3.833  1.00  0.00     0.021 C 
BRANCH  27  28
ATOM     28  C   UNL     1      -1.014   5.359  -3.809  1.00  0.00     0.116 C 
BRANCH  28  29
ATOM     29  N   UNL     1      -0.859   5.925  -5.136  1.00  0.00    -0.352 N 
ATOM     30  C   UNL     1      -1.252   7.165  -5.581  1.00  0.00     0.251 C 
ATOM     31  H   UNL     1      -0.417   5.349  -5.801  1.00  0.00     0.163 HD
ATOM     32  O   UNL     1      -1.285   7.427  -6.772  1.00  0.00    -0.269 OA
BRANCH  30  33
ATOM     33  C   UNL     1      -1.647   8.176  -4.579  1.00  0.00     0.039 A 
ATOM     34  C   UNL     1      -2.848   8.870  -4.739  1.00  0.00     0.014 A 
ATOM     35  C   UNL     1      -0.838   8.396  -3.461  1.00  0.00     0.014 A 
ATOM     36  C   UNL     1      -3.267   9.754  -3.742  1.00  0.00     0.010 A 
ATOM     37  C   UNL     1      -1.297   9.208  -2.434  1.00  0.00     0.010 A 
ATOM     38  C   UNL     1      -2.508   9.905  -2.570  1.00  0.00    -0.014 A 
BRANCH  38  39
ATOM     39  C   UNL     1      -2.921  10.812  -1.473  1.00  0.00     0.031 A 
ATOM     40  C   UNL     1      -2.036  11.970  -1.108  1.00  0.00     0.074 A 
ATOM     41  C   UNL     1      -4.016  10.535  -0.740  1.00  0.00     0.049 A 
ATOM     42  N   UNL     1      -2.100  12.772  -0.078  1.00  0.00    -0.248 NA
ATOM     43  C   UNL     1      -0.899  12.232  -2.007  1.00  0.00     0.031 C 
ATOM     44  C   UNL     1      -4.937   9.424  -0.978  1.00  0.00     0.029 A 
ATOM     45  N   UNL     1      -4.520  11.153   0.377  1.00  0.00    -0.354 N 
ATOM     46  C   UNL     1      -0.997  13.610  -0.187  1.00  0.00     0.074 A 
ATOM     47  C   UNL     1      -0.254  13.184  -1.352  1.00  0.00     0.031 C 
ATOM     48  C   UNL     1      -5.897   9.442  -0.038  1.00  0.00     0.029 A 
ATOM     49  C   UNL     1      -5.630  10.532   0.895  1.00  0.00     0.049 A 
ATOM     50  H   UNL     1      -4.124  11.965   0.769  1.00  0.00     0.167 HD
ATOM     51  C   UNL     1      -0.645  14.650   0.605  1.00  0.00     0.037 A 
ATOM     52  C   UNL     1      -6.337  10.798   2.010  1.00  0.00     0.037 A 
ATOM     53  C   UNL     1      -1.407  15.079   1.747  1.00  0.00     0.049 A 
ATOM     54  C   UNL     1      -5.923  11.950   2.884  1.00  0.00     0.074 A 
ATOM     55  C   UNL     1      -1.174  16.158   2.581  1.00  0.00     0.029 A 
ATOM     56  N   UNL     1      -2.548  14.446   2.218  1.00  0.00    -0.354 N 
ATOM     57  N   UNL     1      -4.908  12.769   2.745  1.00  0.00    -0.248 NA
ATOM     58  C   UNL     1      -6.752  12.218   4.068  1.00  0.00     0.031 C 
ATOM     59  C   UNL     1      -2.142  16.144   3.590  1.00  0.00     0.029 A 
ATOM     60  C   UNL     1      -3.016  15.096   3.346  1.00  0.00     0.049 A 
ATOM     61  H   UNL     1      -2.962  13.651   1.810  1.00  0.00     0.167 HD
ATOM     62  C   UNL     1      -4.999  13.672   3.797  1.00  0.00     0.074 A 
ATOM     63  C   UNL     1      -6.166  13.298   4.568  1.00  0.00     0.031 C 
ATOM     64  C   UNL     1      -4.193  14.722   4.090  1.00  0.00     0.037 A 
BRANCH  51  65
ATOM     65  C   UNL     1       0.624  15.378   0.267  1.00  0.00     0.057 A 
ATOM     66  C   UNL     1       0.755  16.146  -0.899  1.00  0.00     0.134 A 
ATOM     67  C   UNL     1       1.730  15.316   1.124  1.00  0.00     0.134 A 
ATOM     68  F   UNL     1      -0.261  16.239  -1.770  1.00  0.00    -0.206 F 
ATOM     69  C   UNL     1       1.952  16.791  -1.219  1.00  0.00     0.040 A 
ATOM     70  C   UNL     1       2.920  15.985   0.832  1.00  0.00     0.040 A 
ATOM     71  F   UNL     1       1.674  14.605   2.260  1.00  0.00    -0.206 F 
ATOM     72  C   UNL     1       3.037  16.715  -0.349  1.00  0.00     0.006 A 
ENDBRANCH  51  65
BRANCH  52  73
ATOM     73  C   UNL     1      -7.517   9.963   2.351  1.00  0.00     0.057 A 
ATOM     74  C   UNL     1      -8.815  10.476   2.253  1.00  0.00     0.134 A 
ATOM     75  C   UNL     1      -7.379   8.632   2.764  1.00  0.00     0.134 A 
ATOM     76  F   UNL     1      -9.011  11.749   1.878  1.00  0.00    -0.206 F 
ATOM     77  C   UNL     1      -9.934   9.702   2.565  1.00  0.00     0.040 A 
ATOM     78  C   UNL     1      -8.490   7.838   3.054  1.00  0.00     0.040 A 
ATOM     79  F   UNL     1      -6.163   8.077   2.867  1.00  0.00    -0.206 F 
ATOM     80  C   UNL     1      -9.772   8.375   2.961  1.00  0.00     0.006 A 
ENDBRANCH  52  73
BRANCH  64  81
ATOM     81  C   UNL     1      -4.570  15.586   5.258  1.00  0.00     0.057 A 
ATOM     82  C   UNL     1      -4.410  15.163   6.582  1.00  0.00     0.134 A 
ATOM     83  C   UNL     1      -5.022  16.896   5.046  1.00  0.00     0.134 A 
ATOM     84  F   UNL     1      -3.992  13.917   6.853  1.00  0.00    -0.206 F 
ATOM     85  C   UNL     1      -4.694  16.009   7.656  1.00  0.00     0.040 A 
ATOM     86  C   UNL     1      -5.282  17.760   6.110  1.00  0.00     0.040 A 
ATOM     87  F   UNL     1      -5.188  17.366   3.801  1.00  0.00    -0.206 F 
ATOM     88  C   UNL     1      -5.120  17.316   7.420  1.00  0.00     0.006 A 
ENDBRANCH  64  81
ENDBRANCH  38  39
ENDBRANCH  30  33
ENDBRANCH  28  29
ENDBRANCH  27  28
ENDBRANCH  26  27
ENDBRANCH   1  26
TORSDOF 15
