REMARK SMILES Cc1cc2nc(NC(=O)[C@H]3[C@@H](C(=O)NCCCCCCNC(=O)c4ccc(-c5c6nc(c(-c7c(F)cccc7F)c7ccc([nH]7)c(-c7c(F)cccc7F)c7nc(c(-c8c(F)cccc8F)c8ccc5[nH]8)C=C7)C=C6)cc4)[C@@H]4C=C[C@H]3C4)sc2cc1C
REMARK SMILES IDX 17 1 16 2 15 3 14 4 12 5 13 6 11 8 10 9 81 10 78 11 80 12
REMARK SMILES IDX 82 13 79 14 8 15 7 16 9 18 6 19 1 20 2 21 3 22 86 23 4 24
REMARK SMILES IDX 85 25 87 26 5 27 84 28 83 29 18 30 19 31 20 32 21 33 22 34
REMARK SMILES IDX 23 36 24 37 25 38 77 39 26 40 76 41 27 42 28 43 29 44 70 45
REMARK SMILES IDX 30 46 75 47 69 48 71 49 31 50 74 51 68 52 67 53 32 55 58 56
REMARK SMILES IDX 41 57 57 58 42 59 45 60 56 61 72 62 43 63 44 64 55 66 73 67
REMARK SMILES IDX 46 68 33 69 34 70 39 71 35 72 36 73 38 74 40 75 37 76 59 77
REMARK SMILES IDX 60 78 65 79 61 80 62 81 64 82 66 83 63 84 47 85 48 86 53 87
REMARK SMILES IDX 49 88 50 89 52 90 54 91 51 92
REMARK H PARENT 14 7 7 17 21 35 71 54 45 65
REMARK Flexibility Score: inf
ROOT
ATOM      1  C   UNL     1       6.480   3.364  -4.489  1.00  0.00     0.002 C 
ENDROOT
BRANCH   1   2
ATOM      2  C   UNL     1       6.020   3.301  -3.035  1.00  0.00     0.021 C 
BRANCH   2   3
ATOM      3  C   UNL     1       5.208   4.482  -2.528  1.00  0.00     0.116 C 
BRANCH   3   4
ATOM      4  N   UNL     1       3.868   4.535  -3.054  1.00  0.00    -0.356 N 
ATOM      5  C   UNL     1       2.693   4.928  -2.511  1.00  0.00     0.224 C 
ATOM      6  O   UNL     1       1.702   4.776  -3.238  1.00  0.00    -0.275 OA
ATOM      7  H   UNL     1       3.793   4.225  -3.985  1.00  0.00     0.163 HD
BRANCH   5   8
ATOM      8  C   UNL     1       2.502   5.550  -1.127  1.00  0.00     0.098 C 
ATOM      9  C   UNL     1       2.703   7.099  -0.969  1.00  0.00     0.099 C 
ATOM     10  C   UNL     1       3.475   7.197   0.367  1.00  0.00     0.025 C 
ATOM     11  C   UNL     1       3.248   4.971   0.101  1.00  0.00     0.025 C 
ATOM     12  C   UNL     1       2.576   6.684   1.486  1.00  0.00    -0.027 C 
ATOM     13  C   UNL     1       4.384   5.969   0.319  1.00  0.00     0.017 C 
ATOM     14  C   UNL     1       2.454   5.354   1.333  1.00  0.00    -0.027 C 
BRANCH   9  15
ATOM     15  C   UNL     1       3.061   7.839  -2.267  1.00  0.00     0.230 C 
ATOM     16  N   UNL     1       4.263   8.243  -2.726  1.00  0.00    -0.302 N 
ATOM     17  H   UNL     1       4.259   8.550  -3.662  1.00  0.00     0.172 HD
ATOM     18  O   UNL     1       2.130   8.043  -3.067  1.00  0.00    -0.274 OA
BRANCH  16  19
ATOM     19  C   UNL     1       5.475   8.301  -2.123  1.00  0.00     0.190 A 
ATOM     20  C   UNL     1       9.778   6.784   1.698  1.00  0.00     0.044 C 
ATOM     21  C   UNL     1       9.177   7.343   0.437  1.00  0.00    -0.046 A 
ATOM     22  C   UNL     1       7.788   7.542   0.427  1.00  0.00     0.033 A 
ATOM     23  C   UNL     1       9.931   7.702  -0.695  1.00  0.00    -0.047 A 
ATOM     24  C   UNL     1       7.135   7.977  -0.737  1.00  0.00     0.084 A 
ATOM     25  C   UNL     1       9.282   8.152  -1.869  1.00  0.00     0.025 A 
ATOM     26  C   UNL     1      11.433   7.599  -0.735  1.00  0.00     0.044 C 
ATOM     27  N   UNL     1       5.772   8.104  -0.876  1.00  0.00    -0.220 NA
ATOM     28  C   UNL     1       7.882   8.249  -1.879  1.00  0.00     0.057 A 
ATOM     29  S   UNL     1       6.790   8.652  -3.157  1.00  0.00    -0.097 S 
ENDBRANCH  16  19
ENDBRANCH   9  15
ENDBRANCH   5   8
ENDBRANCH   3   4
ENDBRANCH   2   3
ENDBRANCH   1   2
BRANCH   1  30
ATOM     30  C   UNL     1       7.354   4.556  -4.884  1.00  0.00     0.002 C 
BRANCH  30  31
ATOM     31  C   UNL     1       8.562   4.864  -3.991  1.00  0.00     0.021 C 
BRANCH  31  32
ATOM     32  C   UNL     1       9.432   3.674  -3.583  1.00  0.00     0.116 C 
BRANCH  32  33
ATOM     33  N   UNL     1       9.864   2.839  -4.678  1.00  0.00    -0.352 N 
ATOM     34  C   UNL     1      10.914   2.849  -5.554  1.00  0.00     0.251 C 
ATOM     35  H   UNL     1       9.258   2.079  -4.831  1.00  0.00     0.163 HD
ATOM     36  O   UNL     1      11.012   1.876  -6.293  1.00  0.00    -0.269 OA
BRANCH  34  37
ATOM     37  C   UNL     1      11.885   3.967  -5.702  1.00  0.00     0.039 A 
ATOM     38  C   UNL     1      11.972   5.092  -4.882  1.00  0.00     0.014 A 
ATOM     39  C   UNL     1      12.752   3.873  -6.808  1.00  0.00     0.014 A 
ATOM     40  C   UNL     1      12.823   6.141  -5.210  1.00  0.00     0.010 A 
ATOM     41  C   UNL     1      13.622   4.908  -7.127  1.00  0.00     0.010 A 
ATOM     42  C   UNL     1      13.614   6.066  -6.356  1.00  0.00    -0.014 A 
BRANCH  42  43
ATOM     43  C   UNL     1      14.436   7.226  -6.689  1.00  0.00     0.031 A 
ATOM     44  C   UNL     1      15.504   7.592  -5.711  1.00  0.00     0.074 A 
ATOM     45  C   UNL     1      14.328   7.872  -7.867  1.00  0.00     0.049 A 
ATOM     46  N   UNL     1      15.711   8.727  -5.120  1.00  0.00    -0.248 NA
ATOM     47  C   UNL     1      16.436   6.528  -5.306  1.00  0.00     0.031 C 
ATOM     48  C   UNL     1      13.565   7.470  -9.053  1.00  0.00     0.029 A 
ATOM     49  N   UNL     1      14.990   8.985  -8.288  1.00  0.00    -0.354 N 
ATOM     50  C   UNL     1      16.888   8.571  -4.386  1.00  0.00     0.074 A 
ATOM     51  C   UNL     1      17.238   7.176  -4.462  1.00  0.00     0.031 C 
ATOM     52  C   UNL     1      13.992   8.186 -10.116  1.00  0.00     0.029 A 
ATOM     53  C   UNL     1      14.952   9.177  -9.660  1.00  0.00     0.049 A 
ATOM     54  H   UNL     1      15.454   9.598  -7.673  1.00  0.00     0.167 HD
ATOM     55  C   UNL     1      17.595   9.622  -3.885  1.00  0.00     0.037 A 
ATOM     56  C   UNL     1      15.724  10.029 -10.374  1.00  0.00     0.037 A 
ATOM     57  C   UNL     1      16.814  10.822  -3.807  1.00  0.00     0.049 A 
ATOM     58  C   UNL     1      16.286  11.035  -9.441  1.00  0.00     0.074 A 
ATOM     59  C   UNL     1      15.673  11.199  -3.125  1.00  0.00     0.029 A 
ATOM     60  N   UNL     1      17.016  11.801  -4.746  1.00  0.00    -0.354 N 
ATOM     61  N   UNL     1      15.593  11.969  -8.854  1.00  0.00    -0.248 NA
ATOM     62  C   UNL     1      17.584  10.754  -8.847  1.00  0.00     0.031 C 
ATOM     63  C   UNL     1      14.990  12.084  -4.008  1.00  0.00     0.029 A 
ATOM     64  C   UNL     1      15.772  12.206  -5.156  1.00  0.00     0.049 A 
ATOM     65  H   UNL     1      17.883  12.145  -5.063  1.00  0.00     0.167 HD
ATOM     66  C   UNL     1      16.168  12.102  -7.599  1.00  0.00     0.074 A 
ATOM     67  C   UNL     1      17.448  11.406  -7.691  1.00  0.00     0.031 C 
ATOM     68  C   UNL     1      15.440  12.524  -6.524  1.00  0.00     0.037 A 
BRANCH  55  69
ATOM     69  C   UNL     1      19.090   9.625  -3.711  1.00  0.00     0.057 A 
ATOM     70  C   UNL     1      19.712  10.606  -2.919  1.00  0.00     0.134 A 
ATOM     71  C   UNL     1      19.958   8.855  -4.511  1.00  0.00     0.134 A 
ATOM     72  F   UNL     1      18.987  11.427  -2.144  1.00  0.00    -0.206 F 
ATOM     73  C   UNL     1      21.096  10.825  -2.948  1.00  0.00     0.040 A 
ATOM     74  C   UNL     1      21.344   9.032  -4.511  1.00  0.00     0.040 A 
ATOM     75  F   UNL     1      19.496   7.963  -5.397  1.00  0.00    -0.206 F 
ATOM     76  C   UNL     1      21.916  10.037  -3.746  1.00  0.00     0.006 A 
ENDBRANCH  55  69
BRANCH  56  77
ATOM     77  C   UNL     1      16.268   9.836 -11.736  1.00  0.00     0.057 A 
ATOM     78  C   UNL     1      16.777  10.916 -12.469  1.00  0.00     0.134 A 
ATOM     79  C   UNL     1      16.554   8.555 -12.241  1.00  0.00     0.134 A 
ATOM     80  F   UNL     1      16.593  12.174 -12.044  1.00  0.00    -0.206 F 
ATOM     81  C   UNL     1      17.548  10.732 -13.624  1.00  0.00     0.040 A 
ATOM     82  C   UNL     1      17.311   8.358 -13.399  1.00  0.00     0.040 A 
ATOM     83  F   UNL     1      16.186   7.448 -11.579  1.00  0.00    -0.206 F 
ATOM     84  C   UNL     1      17.825   9.449 -14.086  1.00  0.00     0.006 A 
ENDBRANCH  56  77
BRANCH  68  85
ATOM     85  C   UNL     1      14.071  13.088  -6.776  1.00  0.00     0.057 A 
ATOM     86  C   UNL     1      13.016  12.351  -7.335  1.00  0.00     0.134 A 
ATOM     87  C   UNL     1      13.765  14.367  -6.298  1.00  0.00     0.134 A 
ATOM     88  F   UNL     1      13.186  11.079  -7.718  1.00  0.00    -0.206 F 
ATOM     89  C   UNL     1      11.730  12.883  -7.460  1.00  0.00     0.040 A 
ATOM     90  C   UNL     1      12.475  14.897  -6.384  1.00  0.00     0.040 A 
ATOM     91  F   UNL     1      14.707  15.107  -5.692  1.00  0.00    -0.206 F 
ATOM     92  C   UNL     1      11.455  14.159  -6.978  1.00  0.00     0.006 A 
ENDBRANCH  68  85
ENDBRANCH  42  43
ENDBRANCH  34  37
ENDBRANCH  32  33
ENDBRANCH  31  32
ENDBRANCH  30  31
ENDBRANCH   1  30
TORSDOF 15
