REMARK SMILES C[C@@H](C(=O)NCCCCCCNC(=O)c1ccc(-c2c3nc(c(-c4c(F)cccc4F)c4ccc([nH]4)c(-c4c(F)cccc4F)c4nc(c(-c5c(F)cccc5F)c5ccc2[nH]5)C=C4)C=C3)cc1)n1ccc(C(=O)N2CC[NH+](Cc3cccc(F)c3)CC2)n1
REMARK SMILES IDX 7 1 6 2 5 3 3 4 4 5 2 7 1 8 69 9 70 10 89 11 71 12 72 13
REMARK SMILES IDX 73 14 74 15 75 16 76 17 88 18 77 19 87 20 78 21 79 23 80 24
REMARK SMILES IDX 81 25 86 26 82 27 84 28 83 29 85 30 8 31 9 32 10 33 11 34
REMARK SMILES IDX 12 35 13 36 14 38 15 39 16 40 68 41 17 42 67 43 18 44 19 45
REMARK SMILES IDX 20 46 61 47 21 48 66 49 60 50 62 51 22 52 65 53 59 54 58 55
REMARK SMILES IDX 23 57 49 58 32 59 48 60 33 61 36 62 47 63 63 64 34 65 35 66
REMARK SMILES IDX 46 68 64 69 37 70 24 71 25 72 30 73 26 74 27 75 29 76 31 77
REMARK SMILES IDX 28 78 50 79 51 80 56 81 52 82 53 83 55 84 57 85 54 86 38 87
REMARK SMILES IDX 39 88 44 89 40 90 41 91 43 92 45 93 42 94
REMARK H PARENT 5 6 78 22 12 37 62 56 36 67
REMARK Flexibility Score: inf
ROOT
ATOM      1  C   UNL     1       4.362  -0.712  -1.262  1.00  0.00     0.021 C 
ENDROOT
BRANCH   1   2
ATOM      2  C   UNL     1       3.416   0.330  -1.862  1.00  0.00     0.116 C 
BRANCH   2   3
ATOM      3  N   UNL     1       2.362  -0.290  -2.643  1.00  0.00    -0.354 N 
ATOM      4  C   UNL     1       1.034  -0.460  -2.361  1.00  0.00     0.244 C 
ATOM      5  O   UNL     1       0.372  -1.092  -3.187  1.00  0.00    -0.273 OA
ATOM      6  H   UNL     1       2.648  -0.644  -3.516  1.00  0.00     0.163 HD
BRANCH   4   7
ATOM      7  C   UNL     1       0.454   0.113  -1.072  1.00  0.00     0.193 C 
ATOM      8  C   UNL     1       0.829  -0.721   0.151  1.00  0.00     0.044 C 
BRANCH   7   9
ATOM      9  N   UNL     1      -1.002   0.274  -1.141  1.00  0.00    -0.260 N 
ATOM     10  C   UNL     1      -1.943  -0.705  -1.290  1.00  0.00     0.110 A 
ATOM     11  N   UNL     1      -1.533   1.473  -0.819  1.00  0.00    -0.167 NA
ATOM     12  C   UNL     1      -3.154  -0.112  -1.032  1.00  0.00     0.056 A 
ATOM     13  C   UNL     1      -2.860   1.248  -0.746  1.00  0.00     0.150 A 
BRANCH  13  14
ATOM     14  C   UNL     1      -3.831   2.263  -0.300  1.00  0.00     0.274 C 
ATOM     15  O   UNL     1      -4.785   1.929   0.406  1.00  0.00    -0.267 OA
ATOM     16  N   UNL     1      -3.652   3.598  -0.694  1.00  0.00    -0.326 N 
ATOM     17  C   UNL     1      -4.586   4.569  -0.138  1.00  0.00     0.181 C 
ATOM     18  C   UNL     1      -3.007   3.965  -1.957  1.00  0.00     0.181 C 
ATOM     19  C   UNL     1      -4.122   6.029  -0.261  1.00  0.00     0.284 C 
ATOM     20  C   UNL     1      -2.591   5.446  -2.042  1.00  0.00     0.284 C 
ATOM     21  N   UNL     1      -3.570   6.425  -1.560  1.00  0.00    -0.328 N 
ATOM     22  H   UNL     1      -3.042   7.282  -1.391  1.00  0.00     0.348 HD
BRANCH  21  23
ATOM     23  C   UNL     1      -4.522   6.942  -2.543  1.00  0.00     0.299 C 
BRANCH  23  24
ATOM     24  C   UNL     1      -5.505   5.975  -3.159  1.00  0.00     0.009 A 
ATOM     25  C   UNL     1      -5.198   5.304  -4.355  1.00  0.00     0.010 A 
ATOM     26  C   UNL     1      -6.749   5.737  -2.558  1.00  0.00     0.048 A 
ATOM     27  C   UNL     1      -6.090   4.380  -4.907  1.00  0.00     0.004 A 
ATOM     28  C   UNL     1      -7.627   4.811  -3.112  1.00  0.00     0.123 A 
ATOM     29  C   UNL     1      -7.306   4.125  -4.277  1.00  0.00     0.039 A 
ATOM     30  F   UNL     1      -8.798   4.572  -2.508  1.00  0.00    -0.207 F 
ENDBRANCH  23  24
ENDBRANCH  21  23
ENDBRANCH  13  14
ENDBRANCH   7   9
ENDBRANCH   4   7
ENDBRANCH   2   3
ENDBRANCH   1   2
BRANCH   1  31
ATOM     31  C   UNL     1       5.089  -1.591  -2.287  1.00  0.00     0.002 C 
BRANCH  31  32
ATOM     32  C   UNL     1       5.943  -0.843  -3.313  1.00  0.00     0.002 C 
BRANCH  32  33
ATOM     33  C   UNL     1       7.010   0.091  -2.733  1.00  0.00     0.021 C 
BRANCH  33  34
ATOM     34  C   UNL     1       7.996  -0.559  -1.764  1.00  0.00     0.116 C 
BRANCH  34  35
ATOM     35  N   UNL     1       8.783  -1.608  -2.385  1.00  0.00    -0.352 N 
ATOM     36  C   UNL     1      10.097  -1.945  -2.178  1.00  0.00     0.251 C 
ATOM     37  H   UNL     1       8.306  -2.156  -3.049  1.00  0.00     0.163 HD
ATOM     38  O   UNL     1      10.629  -2.791  -2.892  1.00  0.00    -0.269 OA
BRANCH  36  39
ATOM     39  C   UNL     1      10.890  -1.283  -1.117  1.00  0.00     0.039 A 
ATOM     40  C   UNL     1      12.198  -0.886  -1.416  1.00  0.00     0.014 A 
ATOM     41  C   UNL     1      10.386  -1.107   0.175  1.00  0.00     0.014 A 
ATOM     42  C   UNL     1      12.988  -0.284  -0.434  1.00  0.00     0.010 A 
ATOM     43  C   UNL     1      11.161  -0.471   1.146  1.00  0.00     0.010 A 
ATOM     44  C   UNL     1      12.471  -0.064   0.851  1.00  0.00    -0.014 A 
BRANCH  44  45
ATOM     45  C   UNL     1      13.308   0.556   1.906  1.00  0.00     0.031 A 
ATOM     46  C   UNL     1      13.830  -0.278   3.041  1.00  0.00     0.074 A 
ATOM     47  C   UNL     1      13.570   1.875   1.864  1.00  0.00     0.049 A 
ATOM     48  N   UNL     1      14.545   0.088   4.074  1.00  0.00    -0.248 NA
ATOM     49  C   UNL     1      13.485  -1.708   3.022  1.00  0.00     0.031 C 
ATOM     50  C   UNL     1      13.095   2.802   0.836  1.00  0.00     0.029 A 
ATOM     51  N   UNL     1      14.300   2.665   2.716  1.00  0.00    -0.354 N 
ATOM     52  C   UNL     1      14.712  -1.056   4.842  1.00  0.00     0.074 A 
ATOM     53  C   UNL     1      14.011  -2.127   4.165  1.00  0.00     0.031 C 
ATOM     54  C   UNL     1      13.560   4.032   1.108  1.00  0.00     0.029 A 
ATOM     55  C   UNL     1      14.352   3.982   2.334  1.00  0.00     0.049 A 
ATOM     56  H   UNL     1      14.744   2.320   3.524  1.00  0.00     0.167 HD
ATOM     57  C   UNL     1      15.396  -1.205   6.001  1.00  0.00     0.037 A 
ATOM     58  C   UNL     1      14.976   5.029   2.905  1.00  0.00     0.037 A 
ATOM     59  C   UNL     1      16.134  -0.159   6.655  1.00  0.00     0.049 A 
ATOM     60  C   UNL     1      15.778   4.825   4.158  1.00  0.00     0.074 A 
ATOM     61  C   UNL     1      16.906  -0.233   7.802  1.00  0.00     0.029 A 
ATOM     62  N   UNL     1      16.200   1.151   6.210  1.00  0.00    -0.354 N 
ATOM     63  N   UNL     1      15.963   3.728   4.849  1.00  0.00    -0.248 NA
ATOM     64  C   UNL     1      16.464   6.005   4.704  1.00  0.00     0.031 C 
ATOM     65  C   UNL     1      17.432   1.040   8.057  1.00  0.00     0.029 A 
ATOM     66  C   UNL     1      16.998   1.898   7.060  1.00  0.00     0.049 A 
ATOM     67  H   UNL     1      15.747   1.500   5.409  1.00  0.00     0.167 HD
ATOM     68  C   UNL     1      16.802   4.077   5.897  1.00  0.00     0.074 A 
ATOM     69  C   UNL     1      17.093   5.488   5.751  1.00  0.00     0.031 C 
ATOM     70  C   UNL     1      17.289   3.296   6.891  1.00  0.00     0.037 A 
BRANCH  57  71
ATOM     71  C   UNL     1      15.371  -2.560   6.637  1.00  0.00     0.057 A 
ATOM     72  C   UNL     1      16.168  -3.608   6.162  1.00  0.00     0.134 A 
ATOM     73  C   UNL     1      14.553  -2.813   7.744  1.00  0.00     0.134 A 
ATOM     74  F   UNL     1      16.959  -3.429   5.093  1.00  0.00    -0.206 F 
ATOM     75  C   UNL     1      16.139  -4.870   6.757  1.00  0.00     0.040 A 
ATOM     76  C   UNL     1      14.527  -4.066   8.358  1.00  0.00     0.040 A 
ATOM     77  F   UNL     1      13.766  -1.848   8.244  1.00  0.00    -0.206 F 
ATOM     78  C   UNL     1      15.319  -5.100   7.861  1.00  0.00     0.006 A 
ENDBRANCH  57  71
BRANCH  58  79
ATOM     79  C   UNL     1      14.903   6.363   2.269  1.00  0.00     0.057 A 
ATOM     80  C   UNL     1      15.976   6.858   1.520  1.00  0.00     0.134 A 
ATOM     81  C   UNL     1      13.767   7.170   2.393  1.00  0.00     0.134 A 
ATOM     82  F   UNL     1      17.095   6.132   1.384  1.00  0.00    -0.206 F 
ATOM     83  C   UNL     1      15.926   8.116   0.920  1.00  0.00     0.040 A 
ATOM     84  C   UNL     1      13.699   8.425   1.788  1.00  0.00     0.040 A 
ATOM     85  F   UNL     1      12.709   6.744   3.098  1.00  0.00    -0.206 F 
ATOM     86  C   UNL     1      14.783   8.903   1.052  1.00  0.00     0.006 A 
ENDBRANCH  58  79
BRANCH  70  87
ATOM     87  C   UNL     1      18.209   3.946   7.876  1.00  0.00     0.057 A 
ATOM     88  C   UNL     1      17.719   4.718   8.935  1.00  0.00     0.134 A 
ATOM     89  C   UNL     1      19.594   3.771   7.779  1.00  0.00     0.134 A 
ATOM     90  F   UNL     1      16.401   4.930   9.069  1.00  0.00    -0.206 F 
ATOM     91  C   UNL     1      18.580   5.306   9.862  1.00  0.00     0.040 A 
ATOM     92  C   UNL     1      20.464   4.344   8.707  1.00  0.00     0.040 A 
ATOM     93  F   UNL     1      20.121   3.040   6.785  1.00  0.00    -0.206 F 
ATOM     94  C   UNL     1      19.957   5.115   9.752  1.00  0.00     0.006 A 
ENDBRANCH  70  87
ENDBRANCH  44  45
ENDBRANCH  36  39
ENDBRANCH  34  35
ENDBRANCH  33  34
ENDBRANCH  32  33
ENDBRANCH  31  32
ENDBRANCH   1  31
TORSDOF 17
