REMARK SMILES O=C(CCC(=O)N1N=C(c2ccccc2)C[C@@H]1c1ccc2c(c1)OCO2)NCCCCCCNC(=O)c1ccc(-c2c3nc(c(-c4c(F)cccc4F)c4ccc([nH]4)c(-c4c(F)cccc4F)c4nc(c(-c5c(F)cccc5F)c5ccc2[nH]5)C=C4)C=C3)cc1
REMARK SMILES IDX 29 1 28 2 27 3 1 4 2 5 3 7 4 8 5 9 6 10 7 11 8 12 17 13 9 14
REMARK SMILES IDX 16 15 18 16 19 17 23 18 20 19 22 20 21 21 24 22 26 23 25 24
REMARK SMILES IDX 10 25 11 26 15 27 12 28 14 29 13 30 30 31 31 32 32 33 33 34
REMARK SMILES IDX 34 35 35 36 36 38 37 39 38 40 90 41 39 42 89 43 40 44 41 45
REMARK SMILES IDX 42 46 83 47 43 48 88 49 82 50 84 51 44 52 87 53 81 54 80 55
REMARK SMILES IDX 45 57 71 58 54 59 70 60 55 61 58 62 69 63 85 64 56 65 57 66
REMARK SMILES IDX 68 68 86 69 59 70 46 71 47 72 52 73 48 74 49 75 51 76 53 77
REMARK SMILES IDX 50 78 72 79 73 80 78 81 74 82 75 83 77 84 79 85 76 86 60 87
REMARK SMILES IDX 61 88 66 89 62 90 63 91 65 92 67 93 64 94
REMARK H PARENT 27 6 34 37 84 56 58 67
REMARK Flexibility Score: inf
ROOT
ATOM      1  C   UNL     1       0.853  -2.073   3.320  1.00  0.00     0.021 C 
ENDROOT
BRANCH   1   2
ATOM      2  C   UNL     1       0.830  -0.750   2.521  1.00  0.00     0.116 C 
BRANCH   2   3
ATOM      3  N   UNL     1       1.162  -0.746   1.095  1.00  0.00    -0.356 N 
ATOM      4  O   UNL     1       0.813   1.514   0.883  1.00  0.00    -0.275 OA
ATOM      5  C   UNL     1       1.279   0.476   0.422  1.00  0.00     0.220 C 
ATOM      6  H   UNL     1       1.302  -1.593   0.615  1.00  0.00     0.163 HD
BRANCH   5   7
ATOM      7  C   UNL     1       2.188   0.473  -0.823  1.00  0.00     0.110 C 
BRANCH   7   8
ATOM      8  C   UNL     1       2.999   1.779  -0.988  1.00  0.00     0.112 C 
BRANCH   8   9
ATOM      9  C   UNL     1       4.411   2.069  -0.399  1.00  0.00     0.243 C 
ATOM     10  O   UNL     1       5.170   2.799  -1.049  1.00  0.00    -0.273 OA
BRANCH   9  11
ATOM     11  N   UNL     1       4.707   1.685   0.894  1.00  0.00    -0.225 N 
ATOM     12  N   UNL     1       5.451   2.500   1.770  1.00  0.00    -0.174 NA
ATOM     13  C   UNL     1       4.270   0.478   1.552  1.00  0.00     0.147 C 
ATOM     14  C   UNL     1       5.252   1.997   2.954  1.00  0.00     0.071 C 
ATOM     15  C   UNL     1       4.292   0.864   2.997  1.00  0.00     0.091 C 
BRANCH  13  16
ATOM     16  C   UNL     1       4.954  -0.788   1.054  1.00  0.00    -0.019 A 
ATOM     17  C   UNL     1       4.175  -1.970   0.930  1.00  0.00     0.010 A 
ATOM     18  C   UNL     1       6.250  -0.806   0.528  1.00  0.00     0.056 A 
ATOM     19  C   UNL     1       4.596  -3.102   0.239  1.00  0.00     0.051 A 
ATOM     20  C   UNL     1       6.640  -1.926  -0.189  1.00  0.00     0.166 A 
ATOM     21  C   UNL     1       5.829  -3.030  -0.343  1.00  0.00     0.165 A 
ATOM     22  O   UNL     1       7.800  -2.059  -0.889  1.00  0.00    -0.454 OA
ATOM     23  O   UNL     1       6.364  -3.972  -1.162  1.00  0.00    -0.454 OA
ATOM     24  C   UNL     1       7.519  -3.258  -1.643  1.00  0.00     0.468 C 
ENDBRANCH  13  16
BRANCH  14  25
ATOM     25  C   UNL     1       5.691   2.475   4.272  1.00  0.00    -0.002 A 
ATOM     26  C   UNL     1       5.181   3.677   4.760  1.00  0.00     0.010 A 
ATOM     27  C   UNL     1       6.284   1.552   5.149  1.00  0.00     0.010 A 
ATOM     28  C   UNL     1       5.266   3.953   6.128  1.00  0.00     0.001 A 
ATOM     29  C   UNL     1       6.362   1.830   6.513  1.00  0.00     0.001 A 
ATOM     30  C   UNL     1       5.850   3.030   7.002  1.00  0.00     0.000 A 
ENDBRANCH  14  25
ENDBRANCH   9  11
ENDBRANCH   8   9
ENDBRANCH   7   8
ENDBRANCH   5   7
ENDBRANCH   2   3
ENDBRANCH   1   2
BRANCH   1  31
ATOM     31  C   UNL     1       2.118  -2.908   3.636  1.00  0.00     0.002 C 
BRANCH  31  32
ATOM     32  C   UNL     1       3.393  -2.272   4.203  1.00  0.00     0.002 C 
BRANCH  32  33
ATOM     33  C   UNL     1       3.301  -1.530   5.538  1.00  0.00     0.021 C 
BRANCH  33  34
ATOM     34  C   UNL     1       3.726  -2.382   6.728  1.00  0.00     0.116 C 
BRANCH  34  35
ATOM     35  N   UNL     1       5.175  -2.524   6.878  1.00  0.00    -0.352 N 
ATOM     36  C   UNL     1       5.874  -2.803   8.038  1.00  0.00     0.251 C 
ATOM     37  H   UNL     1       5.712  -2.407   6.061  1.00  0.00     0.163 HD
ATOM     38  O   UNL     1       7.102  -2.760   8.063  1.00  0.00    -0.269 OA
BRANCH  36  39
ATOM     39  C   UNL     1       5.115  -3.105   9.272  1.00  0.00     0.039 A 
ATOM     40  C   UNL     1       5.440  -2.461  10.469  1.00  0.00     0.014 A 
ATOM     41  C   UNL     1       4.021  -3.970   9.217  1.00  0.00     0.014 A 
ATOM     42  C   UNL     1       4.600  -2.606  11.579  1.00  0.00     0.010 A 
ATOM     43  C   UNL     1       3.132  -4.025  10.279  1.00  0.00     0.010 A 
ATOM     44  C   UNL     1       3.411  -3.346  11.474  1.00  0.00    -0.014 A 
BRANCH  44  45
ATOM     45  C   UNL     1       2.441  -3.449  12.593  1.00  0.00     0.031 A 
ATOM     46  C   UNL     1       2.107  -4.800  13.166  1.00  0.00     0.074 A 
ATOM     47  C   UNL     1       1.782  -2.352  13.014  1.00  0.00     0.049 A 
ATOM     48  N   UNL     1       1.195  -5.124  14.046  1.00  0.00    -0.248 NA
ATOM     49  C   UNL     1       2.867  -5.946  12.640  1.00  0.00     0.031 C 
ATOM     50  C   UNL     1       1.955  -0.998  12.482  1.00  0.00     0.029 A 
ATOM     51  N   UNL     1       0.817  -2.206  13.979  1.00  0.00    -0.354 N 
ATOM     52  C   UNL     1       1.246  -6.508  14.147  1.00  0.00     0.074 A 
ATOM     53  C   UNL     1       2.238  -6.968  13.201  1.00  0.00     0.031 C 
ATOM     54  C   UNL     1       1.147  -0.157  13.148  1.00  0.00     0.029 A 
ATOM     55  C   UNL     1       0.377  -0.913  14.129  1.00  0.00     0.049 A 
ATOM     56  H   UNL     1       0.472  -2.958  14.513  1.00  0.00     0.167 HD
ATOM     57  C   UNL     1       0.551  -7.323  14.975  1.00  0.00     0.037 A 
ATOM     58  C   UNL     1      -0.542  -0.398  14.967  1.00  0.00     0.037 A 
ATOM     59  C   UNL     1      -0.384  -6.855  15.961  1.00  0.00     0.049 A 
ATOM     60  C   UNL     1      -1.244  -1.311  15.933  1.00  0.00     0.074 A 
ATOM     61  C   UNL     1      -1.075  -7.587  16.911  1.00  0.00     0.029 A 
ATOM     62  N   UNL     1      -0.747  -5.528  16.133  1.00  0.00    -0.354 N 
ATOM     63  N   UNL     1      -1.136  -2.611  16.066  1.00  0.00    -0.248 NA
ATOM     64  C   UNL     1      -2.186  -0.687  16.872  1.00  0.00     0.031 C 
ATOM     65  C   UNL     1      -1.874  -6.703  17.644  1.00  0.00     0.029 A 
ATOM     66  C   UNL     1      -1.655  -5.418  17.171  1.00  0.00     0.049 A 
ATOM     67  H   UNL     1      -0.408  -4.775  15.597  1.00  0.00     0.167 HD
ATOM     68  C   UNL     1      -1.977  -2.958  17.114  1.00  0.00     0.074 A 
ATOM     69  C   UNL     1      -2.577  -1.729  17.592  1.00  0.00     0.031 C 
ATOM     70  C   UNL     1      -2.231  -4.183  17.635  1.00  0.00     0.037 A 
BRANCH  57  71
ATOM     71  C   UNL     1       0.796  -8.798  14.857  1.00  0.00     0.057 A 
ATOM     72  C   UNL     1       2.001  -9.382  15.270  1.00  0.00     0.134 A 
ATOM     73  C   UNL     1      -0.189  -9.648  14.339  1.00  0.00     0.134 A 
ATOM     74  F   UNL     1       2.991  -8.621  15.761  1.00  0.00    -0.206 F 
ATOM     75  C   UNL     1       2.231 -10.752  15.142  1.00  0.00     0.040 A 
ATOM     76  C   UNL     1       0.019 -11.025  14.231  1.00  0.00     0.040 A 
ATOM     77  F   UNL     1      -1.367  -9.156  13.928  1.00  0.00    -0.206 F 
ATOM     78  C   UNL     1       1.235 -11.579  14.627  1.00  0.00     0.006 A 
ENDBRANCH  57  71
BRANCH  58  79
ATOM     79  C   UNL     1      -0.813   1.061  14.965  1.00  0.00     0.057 A 
ATOM     80  C   UNL     1      -0.359   1.877  16.008  1.00  0.00     0.134 A 
ATOM     81  C   UNL     1      -1.520   1.675  13.925  1.00  0.00     0.134 A 
ATOM     82  F   UNL     1       0.311   1.341  17.039  1.00  0.00    -0.206 F 
ATOM     83  C   UNL     1      -0.610   3.249  16.026  1.00  0.00     0.040 A 
ATOM     84  C   UNL     1      -1.762   3.051  13.921  1.00  0.00     0.040 A 
ATOM     85  F   UNL     1      -1.973   0.950  12.893  1.00  0.00    -0.206 F 
ATOM     86  C   UNL     1      -1.310   3.841  14.976  1.00  0.00     0.006 A 
ENDBRANCH  58  79
BRANCH  70  87
ATOM     87  C   UNL     1      -3.176  -4.250  18.795  1.00  0.00     0.057 A 
ATOM     88  C   UNL     1      -4.558  -4.107  18.627  1.00  0.00     0.134 A 
ATOM     89  C   UNL     1      -2.700  -4.510  20.086  1.00  0.00     0.134 A 
ATOM     90  F   UNL     1      -5.072  -3.845  17.415  1.00  0.00    -0.206 F 
ATOM     91  C   UNL     1      -5.436  -4.204  19.707  1.00  0.00     0.040 A 
ATOM     92  C   UNL     1      -3.569  -4.631  21.171  1.00  0.00     0.040 A 
ATOM     93  F   UNL     1      -1.387  -4.665  20.310  1.00  0.00    -0.206 F 
ATOM     94  C   UNL     1      -4.941  -4.474  20.983  1.00  0.00     0.006 A 
ENDBRANCH  70  87
ENDBRANCH  44  45
ENDBRANCH  36  39
ENDBRANCH  34  35
ENDBRANCH  33  34
ENDBRANCH  32  33
ENDBRANCH  31  32
ENDBRANCH   1  31
TORSDOF 18
