REMARK SMILES COc1cccc(C(=O)NNC(=O)[C@H]2CC(C)=C(C)C[C@@H]2C(=O)NCCCCCCNC(=O)c2ccc(-c3c4nc(c(-c5c(F)cccc5F)c5ccc([nH]5)c(-c5c(F)cccc5F)c5nc(c(-c6c(F)cccc6F)c6ccc3[nH]6)C=C5)C=C4)cc2)c1
REMARK SMILES IDX 26 1 25 2 24 3 22 4 23 5 21 7 14 8 15 9 16 10 20 11 17 12
REMARK SMILES IDX 18 13 19 14 12 15 11 16 13 18 10 19 8 20 9 21 7 23 3 24 4 25
REMARK SMILES IDX 88 26 5 27 6 28 2 29 1 30 27 31 28 32 29 33 30 34 31 35
REMARK SMILES IDX 32 36 33 38 34 39 35 40 87 41 36 42 86 43 37 44 38 45 39 46
REMARK SMILES IDX 80 47 40 48 85 49 79 50 81 51 41 52 84 53 78 54 77 55 42 57
REMARK SMILES IDX 68 58 51 59 67 60 52 61 55 62 66 63 82 64 53 65 54 66 65 68
REMARK SMILES IDX 83 69 56 70 43 71 44 72 49 73 45 74 46 75 48 76 50 77 47 78
REMARK SMILES IDX 69 79 70 80 75 81 71 82 72 83 74 84 76 85 73 86 57 87 58 88
REMARK SMILES IDX 63 89 59 90 60 91 62 92 64 93 61 94
REMARK H PARENT 24 6 11 17 10 22 31 37 81 56 55 67
REMARK Flexibility Score: inf
ROOT
ATOM      1  C   UNL     1       9.271   5.984  -1.095  1.00  0.00     0.021 C 
ENDROOT
BRANCH   1   2
ATOM      2  C   UNL     1       9.248   4.465  -1.099  1.00  0.00     0.116 C 
BRANCH   2   3
ATOM      3  N   UNL     1       8.965   3.813   0.168  1.00  0.00    -0.356 N 
ATOM      4  C   UNL     1       8.389   2.580   0.385  1.00  0.00     0.224 C 
ATOM      5  O   UNL     1       8.471   2.095   1.512  1.00  0.00    -0.275 OA
ATOM      6  H   UNL     1       9.218   4.317   0.975  1.00  0.00     0.163 HD
BRANCH   4   7
ATOM      7  C   UNL     1       7.571   1.922  -0.744  1.00  0.00     0.095 C 
ATOM      8  C   UNL     1       6.812   0.650  -0.310  1.00  0.00     0.097 C 
ATOM      9  C   UNL     1       7.626  -0.647  -0.554  1.00  0.00     0.045 C 
ATOM     10  C   UNL     1       8.329  -0.737  -1.889  1.00  0.00    -0.074 C 
ATOM     11  C   UNL     1       8.405   1.736  -2.025  1.00  0.00     0.045 C 
ATOM     12  C   UNL     1       8.713  -2.126  -2.329  1.00  0.00     0.039 C 
ATOM     13  C   UNL     1       8.653   0.370  -2.577  1.00  0.00    -0.074 C 
ATOM     14  C   UNL     1       9.403   0.372  -3.887  1.00  0.00     0.039 C 
BRANCH   8  15
ATOM     15  C   UNL     1       5.370   0.384  -0.798  1.00  0.00     0.242 C 
ATOM     16  N   UNL     1       4.754   1.017  -1.841  1.00  0.00    -0.267 N 
ATOM     17  H   UNL     1       4.101   0.495  -2.361  1.00  0.00     0.191 HD
ATOM     18  O   UNL     1       4.710  -0.521  -0.264  1.00  0.00    -0.273 OA
BRANCH  16  19
ATOM     19  N   UNL     1       4.968   2.320  -2.227  1.00  0.00    -0.263 N 
ATOM     20  C   UNL     1       4.032   3.337  -2.274  1.00  0.00     0.269 C 
ATOM     21  O   UNL     1       4.426   4.475  -2.538  1.00  0.00    -0.267 OA
ATOM     22  H   UNL     1       5.886   2.554  -2.497  1.00  0.00     0.191 HD
BRANCH  20  23
ATOM     23  C   UNL     1       2.568   3.076  -2.177  1.00  0.00     0.045 A 
ATOM     24  C   UNL     1       0.623   1.806  -1.488  1.00  0.00     0.119 A 
ATOM     25  C   UNL     1      -0.169   2.553  -2.365  1.00  0.00     0.046 A 
ATOM     26  C   UNL     1       1.985   2.099  -1.361  1.00  0.00     0.060 A 
ATOM     27  C   UNL     1       0.384   3.589  -3.112  1.00  0.00     0.005 A 
ATOM     28  C   UNL     1       1.749   3.845  -3.022  1.00  0.00     0.014 A 
BRANCH  24  29
ATOM     29  O   UNL     1      -0.052   0.812  -0.834  1.00  0.00    -0.497 OA
ATOM     30  C   UNL     1       0.704  -0.042   0.017  1.00  0.00     0.278 C 
ENDBRANCH  24  29
ENDBRANCH  20  23
ENDBRANCH  16  19
ENDBRANCH   8  15
ENDBRANCH   4   7
ENDBRANCH   2   3
ENDBRANCH   1   2
BRANCH   1  31
ATOM     31  C   UNL     1      10.274   6.652  -0.161  1.00  0.00     0.002 C 
BRANCH  31  32
ATOM     32  C   UNL     1      11.715   6.142  -0.215  1.00  0.00     0.002 C 
BRANCH  32  33
ATOM     33  C   UNL     1      12.391   6.114  -1.588  1.00  0.00     0.021 C 
BRANCH  33  34
ATOM     34  C   UNL     1      12.319   7.403  -2.399  1.00  0.00     0.116 C 
BRANCH  34  35
ATOM     35  N   UNL     1      12.867   8.547  -1.692  1.00  0.00    -0.352 N 
ATOM     36  C   UNL     1      13.803   9.461  -2.099  1.00  0.00     0.251 C 
ATOM     37  H   UNL     1      12.512   8.687  -0.784  1.00  0.00     0.163 HD
ATOM     38  O   UNL     1      14.249  10.284  -1.298  1.00  0.00    -0.269 OA
BRANCH  36  39
ATOM     39  C   UNL     1      14.305   9.447  -3.488  1.00  0.00     0.039 A 
ATOM     40  C   UNL     1      15.680   9.565  -3.705  1.00  0.00     0.014 A 
ATOM     41  C   UNL     1      13.431   9.326  -4.573  1.00  0.00     0.014 A 
ATOM     42  C   UNL     1      16.186   9.495  -5.004  1.00  0.00     0.010 A 
ATOM     43  C   UNL     1      13.942   9.186  -5.861  1.00  0.00     0.010 A 
ATOM     44  C   UNL     1      15.324   9.267  -6.089  1.00  0.00    -0.014 A 
BRANCH  44  45
ATOM     45  C   UNL     1      15.858   9.083  -7.462  1.00  0.00     0.031 A 
ATOM     46  C   UNL     1      15.520  10.060  -8.552  1.00  0.00     0.074 A 
ATOM     47  C   UNL     1      16.595   7.990  -7.741  1.00  0.00     0.049 A 
ATOM     48  N   UNL     1      15.855  10.035  -9.817  1.00  0.00    -0.248 NA
ATOM     49  C   UNL     1      14.670  11.201  -8.177  1.00  0.00     0.031 C 
ATOM     50  C   UNL     1      16.939   6.937  -6.784  1.00  0.00     0.029 A 
ATOM     51  N   UNL     1      17.173   7.575  -8.915  1.00  0.00    -0.354 N 
ATOM     52  C   UNL     1      15.245  11.143 -10.392  1.00  0.00     0.074 A 
ATOM     53  C   UNL     1      14.480  11.791  -9.348  1.00  0.00     0.031 C 
ATOM     54  C   UNL     1      17.680   6.006  -7.404  1.00  0.00     0.029 A 
ATOM     55  C   UNL     1      17.832   6.375  -8.808  1.00  0.00     0.049 A 
ATOM     56  H   UNL     1      17.120   8.089  -9.753  1.00  0.00     0.167 HD
ATOM     57  C   UNL     1      15.330  11.588 -11.668  1.00  0.00     0.037 A 
ATOM     58  C   UNL     1      18.477   5.646  -9.737  1.00  0.00     0.037 A 
ATOM     59  C   UNL     1      16.109  10.948 -12.697  1.00  0.00     0.049 A 
ATOM     60  C   UNL     1      18.566   6.163 -11.145  1.00  0.00     0.074 A 
ATOM     61  C   UNL     1      16.333  11.370 -13.996  1.00  0.00     0.029 A 
ATOM     62  N   UNL     1      16.782   9.744 -12.546  1.00  0.00    -0.354 N 
ATOM     63  N   UNL     1      18.063   7.262 -11.653  1.00  0.00    -0.248 NA
ATOM     64  C   UNL     1      19.316   5.343 -12.106  1.00  0.00     0.031 C 
ATOM     65  C   UNL     1      17.091  10.391 -14.649  1.00  0.00     0.029 A 
ATOM     66  C   UNL     1      17.388   9.388 -13.741  1.00  0.00     0.049 A 
ATOM     67  H   UNL     1      16.822   9.220 -11.714  1.00  0.00     0.167 HD
ATOM     68  C   UNL     1      18.447   7.275 -12.988  1.00  0.00     0.074 A 
ATOM     69  C   UNL     1      19.243   6.083 -13.204  1.00  0.00     0.031 C 
ATOM     70  C   UNL     1      18.165   8.191 -13.947  1.00  0.00     0.037 A 
BRANCH  57  71
ATOM     71  C   UNL     1      14.549  12.820 -12.026  1.00  0.00     0.057 A 
ATOM     72  C   UNL     1      14.885  14.086 -11.527  1.00  0.00     0.134 A 
ATOM     73  C   UNL     1      13.457  12.743 -12.900  1.00  0.00     0.134 A 
ATOM     74  F   UNL     1      15.914  14.230 -10.677  1.00  0.00    -0.206 F 
ATOM     75  C   UNL     1      14.145  15.223 -11.857  1.00  0.00     0.040 A 
ATOM     76  C   UNL     1      12.727  13.877 -13.261  1.00  0.00     0.040 A 
ATOM     77  F   UNL     1      13.083  11.564 -13.422  1.00  0.00    -0.206 F 
ATOM     78  C   UNL     1      13.065  15.120 -12.732  1.00  0.00     0.006 A 
ENDBRANCH  57  71
BRANCH  58  79
ATOM     79  C   UNL     1      19.097   4.353  -9.354  1.00  0.00     0.057 A 
ATOM     80  C   UNL     1      20.486   4.208  -9.280  1.00  0.00     0.134 A 
ATOM     81  C   UNL     1      18.313   3.239  -9.028  1.00  0.00     0.134 A 
ATOM     82  F   UNL     1      21.290   5.234  -9.597  1.00  0.00    -0.206 F 
ATOM     83  C   UNL     1      21.076   2.999  -8.906  1.00  0.00     0.040 A 
ATOM     84  C   UNL     1      18.888   2.032  -8.628  1.00  0.00     0.040 A 
ATOM     85  F   UNL     1      16.975   3.317  -9.070  1.00  0.00    -0.206 F 
ATOM     86  C   UNL     1      20.275   1.909  -8.571  1.00  0.00     0.006 A 
ENDBRANCH  58  79
BRANCH  70  87
ATOM     87  C   UNL     1      18.728   7.944 -15.317  1.00  0.00     0.057 A 
ATOM     88  C   UNL     1      18.232   6.931 -16.147  1.00  0.00     0.134 A 
ATOM     89  C   UNL     1      19.752   8.753 -15.826  1.00  0.00     0.134 A 
ATOM     90  F   UNL     1      17.262   6.112 -15.714  1.00  0.00    -0.206 F 
ATOM     91  C   UNL     1      18.750   6.716 -17.425  1.00  0.00     0.040 A 
ATOM     92  C   UNL     1      20.258   8.567 -17.113  1.00  0.00     0.040 A 
ATOM     93  F   UNL     1      20.266   9.748 -15.086  1.00  0.00    -0.206 F 
ATOM     94  C   UNL     1      19.761   7.542 -17.914  1.00  0.00     0.006 A 
ENDBRANCH  70  87
ENDBRANCH  44  45
ENDBRANCH  36  39
ENDBRANCH  34  35
ENDBRANCH  33  34
ENDBRANCH  32  33
ENDBRANCH  31  32
ENDBRANCH   1  31
TORSDOF 17
