REMARK SMILES COc1ccc(CCN2C(=O)C[C@@H](C(=O)NCCCCCCNC(=O)c3ccc(-c4c5nc(c(-c6c(F)cccc6F)c6ccc([nH]6)c(-c6c(F)cccc6F)c6nc(c(-c7c(F)cccc7F)c7ccc4[nH]7)C=C6)C=C5)cc3)S/C2=[NH+]\c2ccc(F)cc2)cc1OC
REMARK SMILES IDX 18 1 17 2 16 3 14 4 15 5 13 7 9 8 10 9 81 10 11 11 12 12
REMARK SMILES IDX 80 13 82 14 8 16 7 17 6 18 3 19 4 20 91 21 5 22 90 23 2 24
REMARK SMILES IDX 1 25 92 26 93 27 83 28 84 29 89 30 85 31 88 32 86 33 87 34
REMARK SMILES IDX 19 35 20 36 21 37 22 38 23 39 24 40 25 42 26 43 27 44 79 45
REMARK SMILES IDX 28 46 78 47 29 48 30 49 31 50 72 51 32 52 77 53 71 54 73 55
REMARK SMILES IDX 33 56 76 57 70 58 69 59 34 61 60 62 43 63 59 64 44 65 47 66
REMARK SMILES IDX 58 67 74 68 45 69 46 70 57 72 75 73 48 74 35 75 36 76 41 77
REMARK SMILES IDX 37 78 38 79 40 80 42 81 39 82 61 83 62 84 67 85 63 86 64 87
REMARK SMILES IDX 66 88 68 89 65 90 49 91 50 92 55 93 51 94 52 95 54 96 56 97
REMARK SMILES IDX 53 98
REMARK H PARENT 16 6 82 15 23 41 73 60 47 71
REMARK Flexibility Score: inf
ROOT
ATOM      1  C   UNL     1      -2.314  -6.848  -9.419  1.00  0.00     0.021 C 
ENDROOT
BRANCH   1   2
ATOM      2  C   UNL     1      -2.516  -5.671  -8.469  1.00  0.00     0.116 C 
BRANCH   2   3
ATOM      3  N   UNL     1      -3.871  -5.633  -7.943  1.00  0.00    -0.355 N 
ATOM      4  C   UNL     1      -4.324  -5.605  -6.656  1.00  0.00     0.234 C 
ATOM      5  O   UNL     1      -5.545  -5.603  -6.475  1.00  0.00    -0.274 OA
ATOM      6  H   UNL     1      -4.577  -5.628  -8.628  1.00  0.00     0.163 HD
BRANCH   4   7
ATOM      7  C   UNL     1      -3.356  -5.543  -5.473  1.00  0.00     0.160 C 
ATOM      8  N   UNL     1      -0.394  -5.410  -4.939  1.00  0.00    -0.191 N 
ATOM      9  C   UNL     1      -1.059  -4.335  -5.516  1.00  0.00     0.311 C 
ATOM     10  C   UNL     1      -0.929  -6.694  -4.715  1.00  0.00     0.319 C 
ATOM     11  O   UNL     1      -0.475  -3.372  -6.022  1.00  0.00    -0.247 OA
ATOM     12  C   UNL     1      -2.561  -4.268  -5.500  1.00  0.00     0.153 C 
ATOM     13  S   UNL     1      -2.481  -7.087  -5.394  1.00  0.00    -0.024 SA
ATOM     14  N   UNL     1      -0.214  -7.595  -4.105  1.00  0.00    -0.235 N 
ATOM     15  H   UNL     1       0.685  -7.364  -3.777  1.00  0.00     0.313 HD
BRANCH   8  16
ATOM     16  C   UNL     1       1.082  -5.329  -4.808  1.00  0.00     0.251 C 
BRANCH  16  17
ATOM     17  C   UNL     1       1.813  -3.990  -4.574  1.00  0.00     0.082 C 
BRANCH  17  18
ATOM     18  C   UNL     1       1.623  -3.269  -3.259  1.00  0.00    -0.040 A 
ATOM     19  C   UNL     1       1.376  -1.772  -0.884  1.00  0.00     0.160 A 
ATOM     20  C   UNL     1       0.384  -2.683  -1.259  1.00  0.00     0.051 A 
ATOM     21  C   UNL     1       2.524  -1.625  -1.665  1.00  0.00     0.160 A 
ATOM     22  C   UNL     1       0.507  -3.427  -2.436  1.00  0.00     0.008 A 
ATOM     23  C   UNL     1       2.615  -2.353  -2.860  1.00  0.00     0.054 A 
BRANCH  19  24
ATOM     24  O   UNL     1       1.184  -1.090   0.287  1.00  0.00    -0.493 OA
ATOM     25  C   UNL     1       0.507   0.145   0.051  1.00  0.00     0.278 C 
ENDBRANCH  19  24
BRANCH  21  26
ATOM     26  O   UNL     1       3.608  -0.823  -1.436  1.00  0.00    -0.493 OA
ATOM     27  C   UNL     1       3.829  -0.366  -0.109  1.00  0.00     0.278 C 
ENDBRANCH  21  26
ENDBRANCH  17  18
ENDBRANCH  16  17
ENDBRANCH   8  16
BRANCH  14  28
ATOM     28  C   UNL     1      -0.713  -8.895  -3.909  1.00  0.00     0.125 A 
ATOM     29  C   UNL     1      -1.315  -9.227  -2.690  1.00  0.00     0.055 A 
ATOM     30  C   UNL     1      -0.666  -9.850  -4.935  1.00  0.00     0.055 A 
ATOM     31  C   UNL     1      -1.934 -10.467  -2.525  1.00  0.00     0.043 A 
ATOM     32  C   UNL     1      -1.296 -11.086  -4.776  1.00  0.00     0.043 A 
ATOM     33  C   UNL     1      -1.934 -11.377  -3.576  1.00  0.00     0.123 A 
ATOM     34  F   UNL     1      -2.567 -12.549  -3.433  1.00  0.00    -0.207 F 
ENDBRANCH  14  28
ENDBRANCH   4   7
ENDBRANCH   2   3
ENDBRANCH   1   2
BRANCH   1  35
ATOM     35  C   UNL     1      -3.180  -6.780 -10.680  1.00  0.00     0.002 C 
BRANCH  35  36
ATOM     36  C   UNL     1      -3.045  -5.479 -11.476  1.00  0.00     0.002 C 
BRANCH  36  37
ATOM     37  C   UNL     1      -1.618  -5.146 -11.918  1.00  0.00     0.021 C 
BRANCH  37  38
ATOM     38  C   UNL     1      -0.946  -6.237 -12.742  1.00  0.00     0.116 C 
BRANCH  38  39
ATOM     39  N   UNL     1      -1.692  -6.543 -13.951  1.00  0.00    -0.352 N 
ATOM     40  C   UNL     1      -1.261  -6.577 -15.253  1.00  0.00     0.251 C 
ATOM     41  H   UNL     1      -2.644  -6.757 -13.816  1.00  0.00     0.163 HD
ATOM     42  O   UNL     1      -2.066  -6.649 -16.172  1.00  0.00    -0.269 OA
BRANCH  40  43
ATOM     43  C   UNL     1       0.186  -6.508 -15.537  1.00  0.00     0.039 A 
ATOM     44  C   UNL     1       0.634  -5.663 -16.555  1.00  0.00     0.014 A 
ATOM     45  C   UNL     1       1.095  -7.273 -14.801  1.00  0.00     0.014 A 
ATOM     46  C   UNL     1       2.002  -5.545 -16.797  1.00  0.00     0.010 A 
ATOM     47  C   UNL     1       2.461  -7.094 -14.990  1.00  0.00     0.010 A 
ATOM     48  C   UNL     1       2.928  -6.234 -15.995  1.00  0.00    -0.014 A 
BRANCH  48  49
ATOM     49  C   UNL     1       4.388  -6.069 -16.197  1.00  0.00     0.031 A 
ATOM     50  C   UNL     1       5.231  -7.243 -16.610  1.00  0.00     0.074 A 
ATOM     51  C   UNL     1       4.962  -4.875 -15.954  1.00  0.00     0.049 A 
ATOM     52  N   UNL     1       6.527  -7.312 -16.776  1.00  0.00    -0.248 NA
ATOM     53  C   UNL     1       4.527  -8.514 -16.844  1.00  0.00     0.031 C 
ATOM     54  C   UNL     1       4.258  -3.673 -15.502  1.00  0.00     0.029 A 
ATOM     55  N   UNL     1       6.273  -4.478 -16.042  1.00  0.00    -0.354 N 
ATOM     56  C   UNL     1       6.793  -8.630 -17.127  1.00  0.00     0.074 A 
ATOM     57  C   UNL     1       5.534  -9.341 -17.087  1.00  0.00     0.031 C 
ATOM     58  C   UNL     1       5.139  -2.669 -15.374  1.00  0.00     0.029 A 
ATOM     59  C   UNL     1       6.475  -3.165 -15.691  1.00  0.00     0.049 A 
ATOM     60  H   UNL     1       6.999  -5.077 -16.329  1.00  0.00     0.167 HD
ATOM     61  C   UNL     1       7.974  -9.190 -17.480  1.00  0.00     0.037 A 
ATOM     62  C   UNL     1       7.611  -2.445 -15.621  1.00  0.00     0.037 A 
ATOM     63  C   UNL     1       9.223  -8.476 -17.528  1.00  0.00     0.049 A 
ATOM     64  C   UNL     1       8.914  -3.098 -15.993  1.00  0.00     0.074 A 
ATOM     65  C   UNL     1      10.469  -8.943 -17.910  1.00  0.00     0.029 A 
ATOM     66  N   UNL     1       9.386  -7.144 -17.178  1.00  0.00    -0.354 N 
ATOM     67  N   UNL     1       9.141  -4.328 -16.385  1.00  0.00    -0.248 NA
ATOM     68  C   UNL     1      10.118  -2.259 -15.919  1.00  0.00     0.031 C 
ATOM     69  C   UNL     1      11.393  -7.908 -17.743  1.00  0.00     0.029 A 
ATOM     70  C   UNL     1      10.715  -6.779 -17.314  1.00  0.00     0.049 A 
ATOM     71  H   UNL     1       8.663  -6.547 -16.878  1.00  0.00     0.167 HD
ATOM     72  C   UNL     1      10.506  -4.403 -16.634  1.00  0.00     0.074 A 
ATOM     73  C   UNL     1      11.051  -3.089 -16.364  1.00  0.00     0.031 C 
ATOM     74  C   UNL     1      11.241  -5.464 -17.048  1.00  0.00     0.037 A 
BRANCH  61  75
ATOM     75  C   UNL     1       7.967 -10.647 -17.845  1.00  0.00     0.057 A 
ATOM     76  C   UNL     1       7.350 -11.112 -19.015  1.00  0.00     0.134 A 
ATOM     77  C   UNL     1       8.612 -11.593 -17.038  1.00  0.00     0.134 A 
ATOM     78  F   UNL     1       6.705 -10.262 -19.827  1.00  0.00    -0.206 F 
ATOM     79  C   UNL     1       7.350 -12.467 -19.353  1.00  0.00     0.040 A 
ATOM     80  C   UNL     1       8.645 -12.946 -17.382  1.00  0.00     0.040 A 
ATOM     81  F   UNL     1       9.228 -11.218 -15.907  1.00  0.00    -0.206 F 
ATOM     82  C   UNL     1       8.005 -13.387 -18.539  1.00  0.00     0.006 A 
ENDBRANCH  61  75
BRANCH  62  83
ATOM     83  C   UNL     1       7.567  -1.024 -15.191  1.00  0.00     0.057 A 
ATOM     84  C   UNL     1       7.856   0.014 -16.084  1.00  0.00     0.134 A 
ATOM     85  C   UNL     1       7.252  -0.671 -13.873  1.00  0.00     0.134 A 
ATOM     86  F   UNL     1       8.182  -0.260 -17.355  1.00  0.00    -0.206 F 
ATOM     87  C   UNL     1       7.860   1.350 -15.677  1.00  0.00     0.040 A 
ATOM     88  C   UNL     1       7.222   0.662 -13.460  1.00  0.00     0.040 A 
ATOM     89  F   UNL     1       6.955  -1.617 -12.970  1.00  0.00    -0.206 F 
ATOM     90  C   UNL     1       7.537   1.676 -14.361  1.00  0.00     0.006 A 
ENDBRANCH  62  83
BRANCH  74  91
ATOM     91  C   UNL     1      12.709  -5.237 -17.273  1.00  0.00     0.057 A 
ATOM     92  C   UNL     1      13.601  -5.032 -16.213  1.00  0.00     0.134 A 
ATOM     93  C   UNL     1      13.241  -5.264 -18.569  1.00  0.00     0.134 A 
ATOM     94  F   UNL     1      13.154  -4.983 -14.948  1.00  0.00    -0.206 F 
ATOM     95  C   UNL     1      14.965  -4.835 -16.435  1.00  0.00     0.040 A 
ATOM     96  C   UNL     1      14.607  -5.099 -18.801  1.00  0.00     0.040 A 
ATOM     97  F   UNL     1      12.444  -5.466 -19.629  1.00  0.00    -0.206 F 
ATOM     98  C   UNL     1      15.472  -4.876 -17.732  1.00  0.00     0.006 A 
ENDBRANCH  74  91
ENDBRANCH  48  49
ENDBRANCH  40  43
ENDBRANCH  38  39
ENDBRANCH  37  38
ENDBRANCH  36  37
ENDBRANCH  35  36
ENDBRANCH   1  35
TORSDOF 19
