REMARK SMILES Cc1ccc(NC(=O)CN2C(=O)S/C(=C\c3cc(Cl)c(OCC(=O)NCCCCCCNC(=O)c4ccc(-c5c6nc(c(-c7c(F)cccc7F)c7ccc([nH]7)c(-c7c(F)cccc7F)c7nc(c(-c8c(F)cccc8F)c8ccc5[nH]8)C=C7)C=C6)cc4)c(Cl)c3)C2=O)cc1
REMARK SMILES IDX 26 1 25 2 23 3 24 4 22 6 21 7 20 8 16 9 17 10 91 11 18 12
REMARK SMILES IDX 89 13 19 14 90 15 15 16 10 17 11 18 92 19 12 20 13 21 14 22
REMARK SMILES IDX 93 23 9 24 7 25 6 26 8 28 5 29 1 30 2 31 3 32 95 33 4 34
REMARK SMILES IDX 94 35 27 36 28 37 29 38 30 39 31 40 32 41 33 42 34 44 35 45
REMARK SMILES IDX 36 46 88 47 37 48 87 49 38 50 39 51 40 52 81 53 41 54 86 55
REMARK SMILES IDX 80 56 82 57 42 58 85 59 79 60 78 61 43 63 69 64 52 65 68 66
REMARK SMILES IDX 53 67 56 68 67 69 83 70 54 71 55 72 66 74 84 75 57 76 44 77
REMARK SMILES IDX 45 78 50 79 46 80 47 81 49 82 51 83 48 84 70 85 71 86 76 87
REMARK SMILES IDX 72 88 73 89 75 90 77 91 74 92 58 93 59 94 64 95 60 96 61 97
REMARK SMILES IDX 63 98 65 99 62 100
REMARK H PARENT 25 5 6 27 32 43 82 62 56 73
REMARK Flexibility Score: inf
ROOT
ATOM      1  C   UNL     1      -6.479  -4.605 -12.417  1.00  0.00     0.116 C 
ENDROOT
BRANCH   1   2
ATOM      2  N   UNL     1      -7.380  -4.298 -11.331  1.00  0.00    -0.353 N 
ATOM      3  C   UNL     1      -7.567  -3.109 -10.691  1.00  0.00     0.257 C 
ATOM      4  O   UNL     1      -8.554  -3.006  -9.962  1.00  0.00    -0.271 OA
ATOM      5  H   UNL     1      -7.933  -5.047 -11.011  1.00  0.00     0.163 HD
BRANCH   3   6
ATOM      6  C   UNL     1      -6.602  -1.941 -10.948  1.00  0.00     0.329 C 
BRANCH   6   7
ATOM      7  O   UNL     1      -5.218  -2.161 -10.747  1.00  0.00    -0.481 OA
BRANCH   7   8
ATOM      8  C   UNL     1      -4.650  -2.323  -9.513  1.00  0.00     0.157 A 
ATOM      9  C   UNL     1      -3.124  -2.766  -7.128  1.00  0.00    -0.021 A 
ATOM     10  C   UNL     1      -2.517  -2.879  -8.372  1.00  0.00     0.032 A 
ATOM     11  C   UNL     1      -4.494  -2.477  -7.099  1.00  0.00     0.032 A 
ATOM     12  C   UNL     1      -3.275  -2.672  -9.542  1.00  0.00     0.085 A 
ATOM     13  C   UNL     1      -5.234  -2.187  -8.253  1.00  0.00     0.085 A 
ATOM     14  Cl  UNL     1      -2.440  -2.858 -11.056  1.00  0.00    -0.080 Cl
ATOM     15  Cl  UNL     1      -6.813  -1.584  -7.907  1.00  0.00    -0.080 Cl
BRANCH   9  16
ATOM     16  C   UNL     1      -2.417  -3.012  -5.854  1.00  0.00     0.029 C 
ATOM     17  N   UNL     1      -3.102  -2.061  -2.496  1.00  0.00    -0.259 N 
ATOM     18  C   UNL     1      -3.901  -1.102  -3.053  1.00  0.00     0.294 C 
ATOM     19  C   UNL     1      -2.297  -2.758  -3.381  1.00  0.00     0.268 C 
ATOM     20  O   UNL     1      -4.929  -0.618  -2.593  1.00  0.00    -0.261 OA
ATOM     21  S   UNL     1      -3.318  -0.701  -4.647  1.00  0.00    -0.022 SA
ATOM     22  C   UNL     1      -2.530  -2.231  -4.764  1.00  0.00     0.083 C 
ATOM     23  O   UNL     1      -1.632  -3.747  -3.129  1.00  0.00    -0.268 OA
BRANCH  17  24
ATOM     24  C   UNL     1      -3.441  -2.617  -1.195  1.00  0.00     0.230 C 
BRANCH  24  25
ATOM     25  C   UNL     1      -3.791  -1.552  -0.153  1.00  0.00     0.244 C 
ATOM     26  N   UNL     1      -2.976  -0.478   0.063  1.00  0.00    -0.325 N 
ATOM     27  H   UNL     1      -3.446   0.338   0.352  1.00  0.00     0.169 HD
ATOM     28  O   UNL     1      -4.838  -1.637   0.497  1.00  0.00    -0.273 OA
BRANCH  26  29
ATOM     29  C   UNL     1      -1.588  -0.336  -0.057  1.00  0.00     0.041 A 
ATOM     30  C   UNL     1       2.678   0.317  -0.040  1.00  0.00     0.044 C 
ATOM     31  C   UNL     1       1.194   0.105  -0.057  1.00  0.00    -0.051 A 
ATOM     32  C   UNL     1       0.676  -1.193   0.000  1.00  0.00     0.005 A 
ATOM     33  C   UNL     1       0.307   1.184  -0.114  1.00  0.00     0.005 A 
ATOM     34  C   UNL     1      -0.704  -1.412   0.001  1.00  0.00     0.026 A 
ATOM     35  C   UNL     1      -1.073   0.964  -0.099  1.00  0.00     0.026 A 
ENDBRANCH  26  29
ENDBRANCH  24  25
ENDBRANCH  17  24
ENDBRANCH   9  16
ENDBRANCH   7   8
ENDBRANCH   6   7
ENDBRANCH   3   6
ENDBRANCH   1   2
BRANCH   1  36
ATOM     36  C   UNL     1      -5.508  -5.734 -12.082  1.00  0.00     0.021 C 
BRANCH  36  37
ATOM     37  C   UNL     1      -6.130  -7.056 -11.607  1.00  0.00     0.002 C 
BRANCH  37  38
ATOM     38  C   UNL     1      -7.286  -7.638 -12.434  1.00  0.00     0.002 C 
BRANCH  38  39
ATOM     39  C   UNL     1      -7.065  -7.740 -13.941  1.00  0.00     0.021 C 
BRANCH  39  40
ATOM     40  C   UNL     1      -5.992  -8.731 -14.369  1.00  0.00     0.116 C 
BRANCH  40  41
ATOM     41  N   UNL     1      -6.506 -10.055 -14.716  1.00  0.00    -0.352 N 
ATOM     42  C   UNL     1      -5.833 -11.155 -15.224  1.00  0.00     0.251 C 
ATOM     43  H   UNL     1      -7.470 -10.183 -14.568  1.00  0.00     0.163 HD
ATOM     44  O   UNL     1      -6.434 -12.203 -15.440  1.00  0.00    -0.269 OA
BRANCH  42  45
ATOM     45  C   UNL     1      -4.355 -11.115 -15.334  1.00  0.00     0.039 A 
ATOM     46  C   UNL     1      -3.652 -12.136 -14.684  1.00  0.00     0.014 A 
ATOM     47  C   UNL     1      -3.710  -9.945 -15.716  1.00  0.00     0.014 A 
ATOM     48  C   UNL     1      -2.427 -11.841 -14.105  1.00  0.00     0.010 A 
ATOM     49  C   UNL     1      -2.555  -9.607 -15.050  1.00  0.00     0.010 A 
ATOM     50  C   UNL     1      -1.978 -10.526 -14.169  1.00  0.00    -0.014 A 
BRANCH  50  51
ATOM     51  C   UNL     1      -0.981  -9.984 -13.264  1.00  0.00     0.031 A 
ATOM     52  C   UNL     1       0.391  -9.784 -13.749  1.00  0.00     0.074 A 
ATOM     53  C   UNL     1      -1.366  -9.587 -12.029  1.00  0.00     0.049 A 
ATOM     54  N   UNL     1       1.405  -9.604 -12.979  1.00  0.00    -0.248 NA
ATOM     55  C   UNL     1       0.749  -9.857 -15.164  1.00  0.00     0.031 C 
ATOM     56  C   UNL     1      -0.627  -8.760 -11.080  1.00  0.00     0.029 A 
ATOM     57  N   UNL     1      -2.467 -10.053 -11.296  1.00  0.00    -0.354 N 
ATOM     58  C   UNL     1       2.467  -9.245 -13.773  1.00  0.00     0.074 A 
ATOM     59  C   UNL     1       2.051  -9.562 -15.114  1.00  0.00     0.031 C 
ATOM     60  C   UNL     1      -1.104  -8.983  -9.844  1.00  0.00     0.029 A 
ATOM     61  C   UNL     1      -2.054 -10.078  -9.945  1.00  0.00     0.049 A 
ATOM     62  H   UNL     1      -3.349 -10.310 -11.650  1.00  0.00     0.167 HD
ATOM     63  C   UNL     1       3.506  -8.585 -13.191  1.00  0.00     0.037 A 
ATOM     64  C   UNL     1      -1.950 -11.258  -9.265  1.00  0.00     0.037 A 
ATOM     65  C   UNL     1       3.410  -8.687 -11.733  1.00  0.00     0.049 A 
ATOM     66  C   UNL     1      -0.543 -11.558  -8.798  1.00  0.00     0.074 A 
ATOM     67  C   UNL     1       3.000  -7.808 -10.746  1.00  0.00     0.029 A 
ATOM     68  N   UNL     1       3.466  -9.947 -11.142  1.00  0.00    -0.354 N 
ATOM     69  N   UNL     1       0.526 -11.010  -9.309  1.00  0.00    -0.248 NA
ATOM     70  C   UNL     1      -0.229 -12.492  -7.721  1.00  0.00     0.031 C 
ATOM     71  C   UNL     1       2.698  -8.573  -9.585  1.00  0.00     0.029 A 
ATOM     72  C   UNL     1       2.978  -9.904  -9.851  1.00  0.00     0.049 A 
ATOM     73  H   UNL     1       3.806 -10.758 -11.584  1.00  0.00     0.167 HD
ATOM     74  C   UNL     1       1.642 -11.498  -8.678  1.00  0.00     0.074 A 
ATOM     75  C   UNL     1       1.113 -12.408  -7.678  1.00  0.00     0.031 C 
ATOM     76  C   UNL     1       2.904 -11.116  -9.041  1.00  0.00     0.037 A 
BRANCH  63  77
ATOM     77  C   UNL     1       4.479  -7.664 -13.903  1.00  0.00     0.057 A 
ATOM     78  C   UNL     1       5.455  -6.968 -13.161  1.00  0.00     0.134 A 
ATOM     79  C   UNL     1       4.438  -7.303 -15.267  1.00  0.00     0.134 A 
ATOM     80  F   UNL     1       5.630  -7.192 -11.851  1.00  0.00    -0.206 F 
ATOM     81  C   UNL     1       6.288  -5.984 -13.719  1.00  0.00     0.040 A 
ATOM     82  C   UNL     1       5.291  -6.351 -15.843  1.00  0.00     0.040 A 
ATOM     83  F   UNL     1       3.543  -7.802 -16.123  1.00  0.00    -0.206 F 
ATOM     84  C   UNL     1       6.211  -5.673 -15.066  1.00  0.00     0.006 A 
ENDBRANCH  63  77
BRANCH  64  85
ATOM     85  C   UNL     1      -2.956 -12.263  -9.706  1.00  0.00     0.057 A 
ATOM     86  C   UNL     1      -4.319 -11.962  -9.516  1.00  0.00     0.134 A 
ATOM     87  C   UNL     1      -2.650 -13.248 -10.648  1.00  0.00     0.134 A 
ATOM     88  F   UNL     1      -4.683 -11.034  -8.616  1.00  0.00    -0.206 F 
ATOM     89  C   UNL     1      -5.317 -12.503 -10.330  1.00  0.00     0.040 A 
ATOM     90  C   UNL     1      -3.647 -13.813 -11.455  1.00  0.00     0.040 A 
ATOM     91  F   UNL     1      -1.377 -13.585 -10.896  1.00  0.00    -0.206 F 
ATOM     92  C   UNL     1      -4.975 -13.403 -11.333  1.00  0.00     0.006 A 
ENDBRANCH  64  85
BRANCH  76  93
ATOM     93  C   UNL     1       4.193 -11.789  -8.616  1.00  0.00     0.057 A 
ATOM     94  C   UNL     1       4.298 -13.128  -8.210  1.00  0.00     0.134 A 
ATOM     95  C   UNL     1       5.431 -11.117  -8.756  1.00  0.00     0.134 A 
ATOM     96  F   UNL     1       3.229 -13.933  -8.151  1.00  0.00    -0.206 F 
ATOM     97  C   UNL     1       5.526 -13.731  -7.901  1.00  0.00     0.040 A 
ATOM     98  C   UNL     1       6.665 -11.727  -8.512  1.00  0.00     0.040 A 
ATOM     99  F   UNL     1       5.502  -9.841  -9.164  1.00  0.00    -0.206 F 
ATOM    100  C   UNL     1       6.716 -13.036  -8.064  1.00  0.00     0.006 A 
ENDBRANCH  76  93
ENDBRANCH  50  51
ENDBRANCH  42  45
ENDBRANCH  40  41
ENDBRANCH  39  40
ENDBRANCH  38  39
ENDBRANCH  37  38
ENDBRANCH  36  37
ENDBRANCH   1  36
TORSDOF 19
