REMARK SMILES C/C(=N\[NH+]=C1\NC(=O)[C@H](CC(=O)NCCCCCCNC(=O)c2ccc(-c3c4nc(c(-c5c(F)cccc5F)c5ccc([nH]5)c(-c5c(F)cccc5F)c5nc(c(-c6c(F)cccc6F)c6ccc3[nH]6)C=C5)C=C4)cc2)S1)c1ccc([N+](=O)[O-])cc1
REMARK SMILES IDX 15 1 14 2 13 3 11 4 12 5 10 7 9 8 4 9 5 10 6 12 77 13 7 14
REMARK SMILES IDX 8 16 3 17 1 18 2 19 78 20 79 21 86 22 80 23 85 24 81 25
REMARK SMILES IDX 82 26 83 27 84 28 16 29 17 30 18 31 19 32 20 33 21 34 22 36
REMARK SMILES IDX 23 37 24 38 76 39 25 40 75 41 26 42 27 43 28 44 69 45 29 46
REMARK SMILES IDX 74 47 68 48 70 49 30 50 73 51 67 52 66 53 31 55 57 56 40 57
REMARK SMILES IDX 56 58 41 59 44 60 55 61 71 62 42 63 43 64 54 66 72 67 45 68
REMARK SMILES IDX 32 69 33 70 38 71 34 72 35 73 37 74 39 75 36 76 58 77 59 78
REMARK SMILES IDX 64 79 60 80 61 81 63 82 65 83 62 84 46 85 47 86 52 87 48 88
REMARK SMILES IDX 49 89 51 90 53 91 50 92
REMARK H PARENT 13 6 4 11 6 15 20 35 70 54 44 65
REMARK Flexibility Score: inf
ROOT
ATOM      1  C   UNL     1      -2.610   5.786  -0.811  1.00  0.00     0.021 C 
ENDROOT
BRANCH   1   2
ATOM      2  C   UNL     1      -3.636   4.705  -1.151  1.00  0.00     0.116 C 
BRANCH   2   3
ATOM      3  N   UNL     1      -3.563   4.346  -2.556  1.00  0.00    -0.356 N 
ATOM      4  C   UNL     1      -3.311   3.140  -3.138  1.00  0.00     0.221 C 
ATOM      5  O   UNL     1      -3.146   3.078  -4.355  1.00  0.00    -0.275 OA
ATOM      6  H   UNL     1      -3.720   5.087  -3.185  1.00  0.00     0.163 HD
BRANCH   4   7
ATOM      7  C   UNL     1      -3.247   1.900  -2.280  1.00  0.00     0.127 C 
BRANCH   7   8
ATOM      8  C   UNL     1      -1.819   1.546  -1.909  1.00  0.00     0.183 C 
ATOM      9  N   UNL     1      -0.532   0.925   1.661  1.00  0.00    -0.142 N 
ATOM     10  C   UNL     1      -1.111   1.236   0.552  1.00  0.00     0.337 C 
ATOM     11  H   UNL     1      -0.240   1.607   2.308  1.00  0.00     0.343 HD
ATOM     12  N   UNL     1      -1.019   2.510   0.123  1.00  0.00    -0.202 N 
ATOM     13  S   UNL     1      -1.831   0.212  -0.655  1.00  0.00    -0.020 SA
ATOM     14  C   UNL     1      -1.074   2.671  -1.225  1.00  0.00     0.322 C 
ATOM     15  H   UNL     1      -0.918   3.270   0.741  1.00  0.00     0.316 HD
ATOM     16  O   UNL     1      -0.500   3.583  -1.805  1.00  0.00    -0.246 OA
BRANCH   9  17
ATOM     17  N   UNL     1      -0.345  -0.434   1.886  1.00  0.00    -0.090 NA
ATOM     18  C   UNL     1       1.631  -0.161   0.369  1.00  0.00     0.071 C 
ATOM     19  C   UNL     1       0.723  -0.937   1.321  1.00  0.00     0.088 C 
BRANCH  19  20
ATOM     20  C   UNL     1       1.038  -2.382   1.546  1.00  0.00    -0.000 A 
ATOM     21  C   UNL     1       0.031  -3.239   2.014  1.00  0.00     0.017 A 
ATOM     22  C   UNL     1       2.323  -2.892   1.314  1.00  0.00     0.017 A 
ATOM     23  C   UNL     1       0.304  -4.590   2.253  1.00  0.00     0.086 A 
ATOM     24  C   UNL     1       2.605  -4.238   1.554  1.00  0.00     0.086 A 
ATOM     25  C   UNL     1       1.595  -5.083   2.026  1.00  0.00     0.269 A 
BRANCH  25  26
ATOM     26  N   UNL     1       1.900  -6.493   2.293  1.00  0.00     0.062 N 
ATOM     27  O   UNL     1       0.984  -7.211   2.717  1.00  0.00    -0.258 OA
ATOM     28  O   UNL     1       3.058  -6.880   2.079  1.00  0.00    -0.258 OA
ENDBRANCH  25  26
ENDBRANCH  19  20
ENDBRANCH   9  17
ENDBRANCH   7   8
ENDBRANCH   4   7
ENDBRANCH   2   3
ENDBRANCH   1   2
BRANCH   1  29
ATOM     29  C   UNL     1      -3.007   7.185  -1.282  1.00  0.00     0.002 C 
BRANCH  29  30
ATOM     30  C   UNL     1      -4.239   7.758  -0.581  1.00  0.00     0.002 C 
BRANCH  30  31
ATOM     31  C   UNL     1      -4.157   7.777   0.948  1.00  0.00     0.021 C 
BRANCH  31  32
ATOM     32  C   UNL     1      -2.920   8.475   1.506  1.00  0.00     0.116 C 
BRANCH  32  33
ATOM     33  N   UNL     1      -2.859   9.870   1.104  1.00  0.00    -0.352 N 
ATOM     34  C   UNL     1      -2.813  10.998   1.883  1.00  0.00     0.251 C 
ATOM     35  H   UNL     1      -2.850  10.028   0.132  1.00  0.00     0.163 HD
ATOM     36  O   UNL     1      -2.996  12.101   1.388  1.00  0.00    -0.269 OA
BRANCH  34  37
ATOM     37  C   UNL     1      -2.551  10.870   3.332  1.00  0.00     0.039 A 
ATOM     38  C   UNL     1      -3.326  11.613   4.225  1.00  0.00     0.014 A 
ATOM     39  C   UNL     1      -1.535  10.033   3.804  1.00  0.00     0.014 A 
ATOM     40  C   UNL     1      -3.111  11.480   5.597  1.00  0.00     0.010 A 
ATOM     41  C   UNL     1      -1.375   9.844   5.173  1.00  0.00     0.010 A 
ATOM     42  C   UNL     1      -2.153  10.574   6.083  1.00  0.00    -0.014 A 
BRANCH  42  43
ATOM     43  C   UNL     1      -1.950  10.390   7.542  1.00  0.00     0.031 A 
ATOM     44  C   UNL     1      -0.637  10.759   8.176  1.00  0.00     0.074 A 
ATOM     45  C   UNL     1      -2.932   9.850   8.287  1.00  0.00     0.049 A 
ATOM     46  N   UNL     1      -0.260  10.643   9.424  1.00  0.00    -0.248 NA
ATOM     47  C   UNL     1       0.400  11.307   7.285  1.00  0.00     0.031 C 
ATOM     48  C   UNL     1      -4.233   9.406   7.780  1.00  0.00     0.029 A 
ATOM     49  N   UNL     1      -2.990   9.577   9.630  1.00  0.00    -0.354 N 
ATOM     50  C   UNL     1       1.053  11.093   9.466  1.00  0.00     0.074 A 
ATOM     51  C   UNL     1       1.429  11.427   8.110  1.00  0.00     0.031 C 
ATOM     52  C   UNL     1      -4.969   8.944   8.803  1.00  0.00     0.029 A 
ATOM     53  C   UNL     1      -4.182   9.023  10.030  1.00  0.00     0.049 A 
ATOM     54  H   UNL     1      -2.247   9.760  10.250  1.00  0.00     0.167 HD
ATOM     55  C   UNL     1       1.865  11.240  10.541  1.00  0.00     0.037 A 
ATOM     56  C   UNL     1      -4.592   8.621  11.247  1.00  0.00     0.037 A 
ATOM     57  C   UNL     1       1.480  10.924  11.891  1.00  0.00     0.049 A 
ATOM     58  C   UNL     1      -3.668   8.784  12.423  1.00  0.00     0.074 A 
ATOM     59  C   UNL     1       2.208  11.088  13.056  1.00  0.00     0.029 A 
ATOM     60  N   UNL     1       0.261  10.373  12.257  1.00  0.00    -0.354 N 
ATOM     61  N   UNL     1      -2.455   9.279  12.459  1.00  0.00    -0.248 NA
ATOM     62  C   UNL     1      -4.175   8.340  13.728  1.00  0.00     0.031 C 
ATOM     63  C   UNL     1       1.450  10.590  14.120  1.00  0.00     0.029 A 
ATOM     64  C   UNL     1       0.226  10.168  13.627  1.00  0.00     0.049 A 
ATOM     65  H   UNL     1      -0.472  10.159  11.635  1.00  0.00     0.167 HD
ATOM     66  C   UNL     1      -2.065   9.234  13.792  1.00  0.00     0.074 A 
ATOM     67  C   UNL     1      -3.178   8.678  14.533  1.00  0.00     0.031 C 
ATOM     68  C   UNL     1      -0.892   9.619  14.351  1.00  0.00     0.037 A 
BRANCH  55  69
ATOM     69  C   UNL     1       3.250  11.768  10.297  1.00  0.00     0.057 A 
ATOM     70  C   UNL     1       3.478  13.094   9.904  1.00  0.00     0.134 A 
ATOM     71  C   UNL     1       4.371  10.951  10.490  1.00  0.00     0.134 A 
ATOM     72  F   UNL     1       2.448  13.927   9.690  1.00  0.00    -0.206 F 
ATOM     73  C   UNL     1       4.768  13.580   9.684  1.00  0.00     0.040 A 
ATOM     74  C   UNL     1       5.668  11.434  10.303  1.00  0.00     0.040 A 
ATOM     75  F   UNL     1       4.227   9.674  10.873  1.00  0.00    -0.206 F 
ATOM     76  C   UNL     1       5.868  12.750   9.891  1.00  0.00     0.006 A 
ENDBRANCH  55  69
BRANCH  56  77
ATOM     77  C   UNL     1      -5.951   8.047  11.423  1.00  0.00     0.057 A 
ATOM     78  C   UNL     1      -6.942   8.739  12.129  1.00  0.00     0.134 A 
ATOM     79  C   UNL     1      -6.288   6.793  10.900  1.00  0.00     0.134 A 
ATOM     80  F   UNL     1      -6.675   9.938  12.668  1.00  0.00    -0.206 F 
ATOM     81  C   UNL     1      -8.212   8.196  12.329  1.00  0.00     0.040 A 
ATOM     82  C   UNL     1      -7.563   6.250  11.069  1.00  0.00     0.040 A 
ATOM     83  F   UNL     1      -5.387   6.083  10.205  1.00  0.00    -0.206 F 
ATOM     84  C   UNL     1      -8.526   6.948  11.794  1.00  0.00     0.006 A 
ENDBRANCH  56  77
BRANCH  68  85
ATOM     85  C   UNL     1      -0.766   9.487  15.842  1.00  0.00     0.057 A 
ATOM     86  C   UNL     1      -0.658   8.240  16.471  1.00  0.00     0.134 A 
ATOM     87  C   UNL     1      -0.721  10.627  16.655  1.00  0.00     0.134 A 
ATOM     88  F   UNL     1      -0.707   7.109  15.751  1.00  0.00    -0.206 F 
ATOM     89  C   UNL     1      -0.536   8.131  17.857  1.00  0.00     0.040 A 
ATOM     90  C   UNL     1      -0.569  10.532  18.039  1.00  0.00     0.040 A 
ATOM     91  F   UNL     1      -0.810  11.853  16.116  1.00  0.00    -0.206 F 
ATOM     92  C   UNL     1      -0.485   9.280  18.644  1.00  0.00     0.006 A 
ENDBRANCH  68  85
ENDBRANCH  42  43
ENDBRANCH  34  37
ENDBRANCH  32  33
ENDBRANCH  31  32
ENDBRANCH  30  31
ENDBRANCH  29  30
ENDBRANCH   1  29
TORSDOF 17
