REMARK SMILES O=C(Cc1cccc(-c2ccn(C(F)F)c(=O)c2)c1)NCCCCCCNC(=O)c1ccc(-c2c3nc(c(-c4c(F)cccc4F)c4ccc([nH]4)c(-c4c(F)cccc4F)c4nc(c(-c5c(F)cccc5F)c5ccc2[nH]5)C=C4)C=C3)cc1
REMARK SMILES IDX 23 1 22 2 21 3 20 4 1 5 2 6 3 8 4 9 5 10 19 11 6 12 8 13
REMARK SMILES IDX 7 14 9 15 10 16 18 17 11 18 16 19 12 20 17 21 13 22 14 23
REMARK SMILES IDX 15 24 24 25 25 26 26 27 27 28 28 29 29 31 30 32 31 33 83 34
REMARK SMILES IDX 32 35 82 36 33 37 34 38 35 39 76 40 36 41 81 42 75 43 77 44
REMARK SMILES IDX 37 45 80 46 74 47 73 48 38 50 64 51 47 52 63 53 48 54 51 55
REMARK SMILES IDX 62 56 78 57 49 58 50 59 61 61 79 62 52 63 39 64 40 65 45 66
REMARK SMILES IDX 41 67 42 68 44 69 46 70 43 71 65 72 66 73 71 74 67 75 68 76
REMARK SMILES IDX 70 77 72 78 69 79 53 80 54 81 59 82 55 83 56 84 58 85 60 86
REMARK SMILES IDX 57 87
REMARK H PARENT 20 7 27 30 77 49 51 60
REMARK Flexibility Score: inf
ROOT
ATOM      1  C   UNL     1       4.121  -3.409   1.491  1.00  0.00     0.002 C 
ENDROOT
BRANCH   1   2
ATOM      2  C   UNL     1       2.612  -3.256   1.239  1.00  0.00     0.021 C 
BRANCH   2   3
ATOM      3  C   UNL     1       2.063  -1.847   1.459  1.00  0.00     0.116 C 
BRANCH   3   4
ATOM      4  N   UNL     1       2.775  -0.892   0.643  1.00  0.00    -0.356 N 
ATOM      5  O   UNL     1       0.988   0.411   0.017  1.00  0.00    -0.275 OA
ATOM      6  C   UNL     1       2.190   0.171  -0.005  1.00  0.00     0.224 C 
ATOM      7  H   UNL     1       3.747  -1.010   0.543  1.00  0.00     0.163 HD
BRANCH   6   8
ATOM      8  C   UNL     1       3.195   1.020  -0.767  1.00  0.00     0.135 C 
BRANCH   8   9
ATOM      9  C   UNL     1       3.922   2.002   0.121  1.00  0.00    -0.038 A 
ATOM     10  C   UNL     1       4.903   1.585   1.033  1.00  0.00     0.004 A 
ATOM     11  C   UNL     1       3.610   3.365   0.047  1.00  0.00     0.013 A 
ATOM     12  C   UNL     1       5.526   2.502   1.879  1.00  0.00     0.001 A 
ATOM     13  C   UNL     1       4.254   4.299   0.872  1.00  0.00    -0.018 A 
ATOM     14  C   UNL     1       5.200   3.855   1.802  1.00  0.00     0.009 A 
BRANCH  13  15
ATOM     15  C   UNL     1       3.935   5.730   0.724  1.00  0.00    -0.011 A 
ATOM     16  C   UNL     1       2.589   6.251   0.859  1.00  0.00     0.027 A 
ATOM     17  C   UNL     1       4.929   6.567   0.381  1.00  0.00     0.080 A 
ATOM     18  C   UNL     1       2.333   7.541   0.615  1.00  0.00     0.095 A 
ATOM     19  C   UNL     1       4.664   8.008   0.127  1.00  0.00     0.255 A 
ATOM     20  N   UNL     1       3.344   8.410   0.248  1.00  0.00    -0.258 N 
ATOM     21  O   UNL     1       5.607   8.731  -0.178  1.00  0.00    -0.269 OA
BRANCH  20  22
ATOM     22  C   UNL     1       3.053   9.787  -0.048  1.00  0.00     0.451 C 
ATOM     23  F   UNL     1       3.751  10.622   0.759  1.00  0.00    -0.185 F 
ATOM     24  F   UNL     1       3.368  10.083  -1.333  1.00  0.00    -0.185 F 
ENDBRANCH  20  22
ENDBRANCH  13  15
ENDBRANCH   8   9
ENDBRANCH   6   8
ENDBRANCH   3   4
ENDBRANCH   2   3
ENDBRANCH   1   2
BRANCH   1  25
ATOM     25  C   UNL     1       4.590  -3.048   2.903  1.00  0.00     0.002 C 
BRANCH  25  26
ATOM     26  C   UNL     1       3.945  -3.865   4.023  1.00  0.00     0.021 C 
BRANCH  26  27
ATOM     27  C   UNL     1       4.092  -5.375   3.880  1.00  0.00     0.116 C 
BRANCH  27  28
ATOM     28  N   UNL     1       5.478  -5.812   3.941  1.00  0.00    -0.352 N 
ATOM     29  C   UNL     1       6.019  -6.864   4.636  1.00  0.00     0.251 C 
ATOM     30  H   UNL     1       6.115  -5.281   3.412  1.00  0.00     0.163 HD
ATOM     31  O   UNL     1       7.240  -7.001   4.698  1.00  0.00    -0.269 OA
BRANCH  29  32
ATOM     32  C   UNL     1       5.135  -7.822   5.335  1.00  0.00     0.039 A 
ATOM     33  C   UNL     1       5.466  -8.226   6.630  1.00  0.00     0.014 A 
ATOM     34  C   UNL     1       3.989  -8.328   4.714  1.00  0.00     0.014 A 
ATOM     35  C   UNL     1       4.624  -9.101   7.321  1.00  0.00     0.010 A 
ATOM     36  C   UNL     1       3.112  -9.139   5.430  1.00  0.00     0.010 A 
ATOM     37  C   UNL     1       3.427  -9.546   6.736  1.00  0.00    -0.014 A 
BRANCH  37  38
ATOM     38  C   UNL     1       2.513 -10.468   7.458  1.00  0.00     0.031 A 
ATOM     39  C   UNL     1       2.264 -11.851   6.918  1.00  0.00     0.074 A 
ATOM     40  C   UNL     1       1.874 -10.052   8.569  1.00  0.00     0.049 A 
ATOM     41  N   UNL     1       1.447 -12.776   7.355  1.00  0.00    -0.248 NA
ATOM     42  C   UNL     1       3.014 -12.237   5.711  1.00  0.00     0.031 C 
ATOM     43  C   UNL     1       1.998  -8.724   9.173  1.00  0.00     0.029 A 
ATOM     44  N   UNL     1       0.983 -10.705   9.385  1.00  0.00    -0.354 N 
ATOM     45  C   UNL     1       1.583 -13.845   6.478  1.00  0.00     0.074 A 
ATOM     46  C   UNL     1       2.510 -13.432   5.447  1.00  0.00     0.031 C 
ATOM     47  C   UNL     1       1.224  -8.666  10.270  1.00  0.00     0.029 A 
ATOM     48  C   UNL     1       0.524  -9.937  10.428  1.00  0.00     0.049 A 
ATOM     49  H   UNL     1       0.700 -11.636   9.236  1.00  0.00     0.167 HD
ATOM     50  C   UNL     1       1.015 -15.073   6.542  1.00  0.00     0.037 A 
ATOM     51  C   UNL     1      -0.368 -10.223  11.395  1.00  0.00     0.037 A 
ATOM     52  C   UNL     1       0.107 -15.492   7.577  1.00  0.00     0.049 A 
ATOM     53  C   UNL     1      -0.993 -11.592  11.436  1.00  0.00     0.074 A 
ATOM     54  C   UNL     1      -0.512 -16.719   7.736  1.00  0.00     0.029 A 
ATOM     55  N   UNL     1      -0.302 -14.696   8.635  1.00  0.00    -0.354 N 
ATOM     56  N   UNL     1      -0.821 -12.606  10.623  1.00  0.00    -0.248 NA
ATOM     57  C   UNL     1      -1.927 -11.861  12.539  1.00  0.00     0.031 C 
ATOM     58  C   UNL     1      -1.321 -16.657   8.876  1.00  0.00     0.029 A 
ATOM     59  C   UNL     1      -1.166 -15.407   9.452  1.00  0.00     0.049 A 
ATOM     60  H   UNL     1      -0.021 -13.764   8.784  1.00  0.00     0.167 HD
ATOM     61  C   UNL     1      -1.589 -13.643  11.139  1.00  0.00     0.074 A 
ATOM     62  C   UNL     1      -2.218 -13.138  12.341  1.00  0.00     0.031 C 
ATOM     63  C   UNL     1      -1.759 -14.900  10.662  1.00  0.00     0.037 A 
BRANCH  50  64
ATOM     64  C   UNL     1       1.379 -16.061   5.473  1.00  0.00     0.057 A 
ATOM     65  C   UNL     1       2.656 -16.637   5.412  1.00  0.00     0.134 A 
ATOM     66  C   UNL     1       0.437 -16.480   4.525  1.00  0.00     0.134 A 
ATOM     67  F   UNL     1       3.609 -16.270   6.282  1.00  0.00    -0.206 F 
ATOM     68  C   UNL     1       2.988 -17.578   4.436  1.00  0.00     0.040 A 
ATOM     69  C   UNL     1       0.749 -17.440   3.561  1.00  0.00     0.040 A 
ATOM     70  F   UNL     1      -0.805 -15.973   4.529  1.00  0.00    -0.206 F 
ATOM     71  C   UNL     1       2.029 -17.988   3.512  1.00  0.00     0.006 A 
ENDBRANCH  50  64
BRANCH  51  72
ATOM     72  C   UNL     1      -0.722  -9.206  12.419  1.00  0.00     0.057 A 
ATOM     73  C   UNL     1      -0.365  -9.373  13.763  1.00  0.00     0.134 A 
ATOM     74  C   UNL     1      -1.466  -8.067  12.088  1.00  0.00     0.134 A 
ATOM     75  F   UNL     1       0.333 -10.452  14.146  1.00  0.00    -0.206 F 
ATOM     76  C   UNL     1      -0.768  -8.467  14.746  1.00  0.00     0.040 A 
ATOM     77  C   UNL     1      -1.850  -7.137  13.056  1.00  0.00     0.040 A 
ATOM     78  F   UNL     1      -1.831  -7.841  10.818  1.00  0.00    -0.206 F 
ATOM     79  C   UNL     1      -1.512  -7.344  14.392  1.00  0.00     0.006 A 
ENDBRANCH  51  72
BRANCH  63  80
ATOM     80  C   UNL     1      -2.601 -15.838  11.477  1.00  0.00     0.057 A 
ATOM     81  C   UNL     1      -3.991 -15.700  11.573  1.00  0.00     0.134 A 
ATOM     82  C   UNL     1      -2.009 -16.915  12.150  1.00  0.00     0.134 A 
ATOM     83  F   UNL     1      -4.618 -14.683  10.962  1.00  0.00    -0.206 F 
ATOM     84  C   UNL     1      -4.759 -16.581  12.336  1.00  0.00     0.040 A 
ATOM     85  C   UNL     1      -2.770 -17.820  12.890  1.00  0.00     0.040 A 
ATOM     86  F   UNL     1      -0.683 -17.111  12.089  1.00  0.00    -0.206 F 
ATOM     87  C   UNL     1      -4.149 -17.649  12.992  1.00  0.00     0.006 A 
ENDBRANCH  63  80
ENDBRANCH  37  38
ENDBRANCH  29  32
ENDBRANCH  27  28
ENDBRANCH  26  27
ENDBRANCH  25  26
ENDBRANCH   1  25
TORSDOF 16
