REMARK SMILES CC(C)=C1[C@H]2CC[C@@H]1[C@H](C(=O)NNC(=O)c1ccoc1C)[C@H]2C(=O)NCCCCCCNC(=O)c1ccc(-c2c3nc(c(-c4c(F)cccc4F)c4ccc([nH]4)c(-c4c(F)cccc4F)c4nc(c(-c5c(F)cccc5F)c5ccc2[nH]5)C=C4)C=C3)cc1
REMARK SMILES IDX 28 1 27 2 26 3 25 4 23 5 24 6 22 8 1 9 2 10 3 11 4 12 5 13
REMARK SMILES IDX 8 14 6 15 7 16 9 17 10 18 11 19 12 20 13 22 14 23 15 25
REMARK SMILES IDX 16 26 17 27 20 28 18 29 19 30 21 31 29 32 30 33 31 34 32 35
REMARK SMILES IDX 33 36 34 38 35 39 36 40 88 41 37 42 87 43 38 44 39 45 40 46
REMARK SMILES IDX 81 47 41 48 86 49 80 50 82 51 42 52 85 53 79 54 78 55 43 57
REMARK SMILES IDX 69 58 52 59 68 60 53 61 56 62 67 63 83 64 54 65 55 66 66 68
REMARK SMILES IDX 84 69 57 70 44 71 45 72 50 73 46 74 47 75 49 76 51 77 48 78
REMARK SMILES IDX 70 79 71 80 76 81 72 82 73 83 75 84 77 85 74 86 58 87 59 88
REMARK SMILES IDX 64 89 60 90 61 91 63 92 65 93 62 94
REMARK H PARENT 25 7 12 21 13 24 32 37 82 56 56 67
REMARK Flexibility Score: inf
ROOT
ATOM      1  C   UNL     1       2.496  -2.915  -2.563  1.00  0.00     0.002 C 
ENDROOT
BRANCH   1   2
ATOM      2  C   UNL     1       1.817  -1.551  -2.417  1.00  0.00     0.021 C 
BRANCH   2   3
ATOM      3  C   UNL     1       2.678  -0.358  -2.833  1.00  0.00     0.116 C 
BRANCH   3   4
ATOM      4  N   UNL     1       2.433   0.022  -4.213  1.00  0.00    -0.356 N 
ATOM      5  C   UNL     1       1.867   1.099  -4.805  1.00  0.00     0.224 C 
ATOM      6  O   UNL     1       1.787   1.048  -6.039  1.00  0.00    -0.275 OA
ATOM      7  H   UNL     1       2.748  -0.651  -4.859  1.00  0.00     0.163 HD
BRANCH   5   8
ATOM      8  C   UNL     1       1.362   2.354  -4.101  1.00  0.00     0.098 C 
ATOM      9  C   UNL     1       0.385   0.983   0.322  1.00  0.00     0.039 C 
ATOM     10  C   UNL     1      -0.077   1.030  -1.108  1.00  0.00    -0.077 C 
ATOM     11  C   UNL     1      -1.151   0.029  -1.452  1.00  0.00     0.039 C 
ATOM     12  C   UNL     1       0.383   1.932  -1.993  1.00  0.00    -0.064 C 
ATOM     13  C   UNL     1      -0.009   2.175  -3.423  1.00  0.00     0.028 C 
ATOM     14  C   UNL     1       1.278   3.141  -1.822  1.00  0.00     0.028 C 
ATOM     15  C   UNL     1      -0.653   3.561  -3.234  1.00  0.00     0.009 C 
ATOM     16  C   UNL     1       0.168   4.182  -2.087  1.00  0.00     0.009 C 
ATOM     17  C   UNL     1       2.264   2.983  -3.016  1.00  0.00     0.100 C 
BRANCH  17  18
ATOM     18  C   UNL     1       2.879   4.308  -3.464  1.00  0.00     0.242 C 
ATOM     19  O   UNL     1       2.770   5.350  -2.818  1.00  0.00    -0.273 OA
ATOM     20  N   UNL     1       3.616   4.347  -4.619  1.00  0.00    -0.267 N 
ATOM     21  H   UNL     1       3.630   5.190  -5.128  1.00  0.00     0.191 HD
BRANCH  20  22
ATOM     22  N   UNL     1       4.348   3.273  -5.120  1.00  0.00    -0.263 N 
ATOM     23  C   UNL     1       5.372   3.375  -6.047  1.00  0.00     0.273 C 
ATOM     24  H   UNL     1       4.121   2.373  -4.790  1.00  0.00     0.191 HD
ATOM     25  O   UNL     1       5.883   2.347  -6.486  1.00  0.00    -0.267 OA
BRANCH  23  26
ATOM     26  C   UNL     1       5.777   4.685  -6.533  1.00  0.00     0.082 A 
ATOM     27  C   UNL     1       5.971   5.040  -7.903  1.00  0.00     0.056 A 
ATOM     28  C   UNL     1       6.135   5.815  -5.811  1.00  0.00     0.113 A 
ATOM     29  C   UNL     1       6.353   6.358  -7.923  1.00  0.00     0.196 A 
ATOM     30  O   UNL     1       6.450   6.836  -6.659  1.00  0.00    -0.469 OA
ATOM     31  C   UNL     1       6.264   6.142  -4.373  1.00  0.00     0.088 C 
ENDBRANCH  23  26
ENDBRANCH  20  22
ENDBRANCH  17  18
ENDBRANCH   5   8
ENDBRANCH   3   4
ENDBRANCH   2   3
ENDBRANCH   1   2
BRANCH   1  32
ATOM     32  C   UNL     1       3.695  -3.158  -1.637  1.00  0.00     0.002 C 
BRANCH  32  33
ATOM     33  C   UNL     1       3.467  -2.894  -0.144  1.00  0.00     0.021 C 
BRANCH  33  34
ATOM     34  C   UNL     1       2.288  -3.629   0.494  1.00  0.00     0.116 C 
BRANCH  34  35
ATOM     35  N   UNL     1       2.414  -5.072   0.396  1.00  0.00    -0.352 N 
ATOM     36  C   UNL     1       2.469  -6.036   1.369  1.00  0.00     0.251 C 
ATOM     37  H   UNL     1       2.469  -5.417  -0.525  1.00  0.00     0.163 HD
ATOM     38  O   UNL     1       2.747  -7.191   1.056  1.00  0.00    -0.269 OA
BRANCH  36  39
ATOM     39  C   UNL     1       2.215  -5.715   2.794  1.00  0.00     0.039 A 
ATOM     40  C   UNL     1       3.017  -6.330   3.763  1.00  0.00     0.014 A 
ATOM     41  C   UNL     1       1.159  -4.891   3.192  1.00  0.00     0.014 A 
ATOM     42  C   UNL     1       2.790  -6.087   5.120  1.00  0.00     0.010 A 
ATOM     43  C   UNL     1       0.965  -4.607   4.546  1.00  0.00     0.010 A 
ATOM     44  C   UNL     1       1.773  -5.208   5.523  1.00  0.00    -0.014 A 
BRANCH  44  45
ATOM     45  C   UNL     1       1.542  -4.926   6.963  1.00  0.00     0.031 A 
ATOM     46  C   UNL     1       0.292  -5.410   7.645  1.00  0.00     0.074 A 
ATOM     47  C   UNL     1       2.443  -4.202   7.654  1.00  0.00     0.049 A 
ATOM     48  N   UNL     1      -0.094  -5.234   8.884  1.00  0.00    -0.248 NA
ATOM     49  C   UNL     1      -0.657  -6.176   6.822  1.00  0.00     0.031 C 
ATOM     50  C   UNL     1       3.678  -3.641   7.104  1.00  0.00     0.029 A 
ATOM     51  N   UNL     1       2.456  -3.811   8.969  1.00  0.00    -0.354 N 
ATOM     52  C   UNL     1      -1.335  -5.851   8.985  1.00  0.00     0.074 A 
ATOM     53  C   UNL     1      -1.653  -6.375   7.674  1.00  0.00     0.031 C 
ATOM     54  C   UNL     1       4.338  -2.994   8.078  1.00  0.00     0.029 A 
ATOM     55  C   UNL     1       3.563  -3.075   9.313  1.00  0.00     0.049 A 
ATOM     56  H   UNL     1       1.740  -4.037   9.606  1.00  0.00     0.167 HD
ATOM     57  C   UNL     1      -2.129  -5.984  10.074  1.00  0.00     0.037 A 
ATOM     58  C   UNL     1       3.917  -2.530  10.492  1.00  0.00     0.037 A 
ATOM     59  C   UNL     1      -1.804  -5.495  11.388  1.00  0.00     0.049 A 
ATOM     60  C   UNL     1       3.031  -2.713  11.691  1.00  0.00     0.074 A 
ATOM     61  C   UNL     1      -2.522  -5.632  12.564  1.00  0.00     0.029 A 
ATOM     62  N   UNL     1      -0.660  -4.777  11.701  1.00  0.00    -0.354 N 
ATOM     63  N   UNL     1       1.886  -3.344  11.782  1.00  0.00    -0.248 NA
ATOM     64  C   UNL     1       3.492  -2.116  12.953  1.00  0.00     0.031 C 
ATOM     65  C   UNL     1      -1.824  -4.975  13.584  1.00  0.00     0.029 A 
ATOM     66  C   UNL     1      -0.657  -4.455  13.048  1.00  0.00     0.049 A 
ATOM     67  H   UNL     1       0.046  -4.532  11.060  1.00  0.00     0.167 HD
ATOM     68  C   UNL     1       1.500  -3.239  13.112  1.00  0.00     0.074 A 
ATOM     69  C   UNL     1       2.538  -2.494  13.793  1.00  0.00     0.031 C 
ATOM     70  C   UNL     1       0.385  -3.719  13.713  1.00  0.00     0.037 A 
BRANCH  57  71
ATOM     71  C   UNL     1      -3.435  -6.697   9.889  1.00  0.00     0.057 A 
ATOM     72  C   UNL     1      -3.497  -8.087   9.730  1.00  0.00     0.134 A 
ATOM     73  C   UNL     1      -4.644  -5.992   9.903  1.00  0.00     0.134 A 
ATOM     74  F   UNL     1      -2.373  -8.818   9.696  1.00  0.00    -0.206 F 
ATOM     75  C   UNL     1      -4.715  -8.749   9.569  1.00  0.00     0.040 A 
ATOM     76  C   UNL     1      -5.870  -6.644   9.763  1.00  0.00     0.040 A 
ATOM     77  F   UNL     1      -4.654  -4.659  10.056  1.00  0.00    -0.206 F 
ATOM     78  C   UNL     1      -5.907  -8.027   9.590  1.00  0.00     0.006 A 
ENDBRANCH  57  71
BRANCH  58  79
ATOM     79  C   UNL     1       5.192  -1.783  10.605  1.00  0.00     0.057 A 
ATOM     80  C   UNL     1       6.294  -2.339  11.264  1.00  0.00     0.134 A 
ATOM     81  C   UNL     1       5.339  -0.502  10.062  1.00  0.00     0.134 A 
ATOM     82  F   UNL     1       6.204  -3.556  11.821  1.00  0.00    -0.206 F 
ATOM     83  C   UNL     1       7.497  -1.643  11.390  1.00  0.00     0.040 A 
ATOM     84  C   UNL     1       6.542   0.199  10.164  1.00  0.00     0.040 A 
ATOM     85  F   UNL     1       4.319   0.080   9.415  1.00  0.00    -0.206 F 
ATOM     86  C   UNL     1       7.623  -0.371  10.834  1.00  0.00     0.006 A 
ENDBRANCH  58  79
BRANCH  70  87
ATOM     87  C   UNL     1       0.245  -3.474  15.185  1.00  0.00     0.057 A 
ATOM     88  C   UNL     1      -0.115  -2.219  15.690  1.00  0.00     0.134 A 
ATOM     89  C   UNL     1       0.447  -4.511  16.103  1.00  0.00     0.134 A 
ATOM     90  F   UNL     1      -0.307  -1.182  14.861  1.00  0.00    -0.206 F 
ATOM     91  C   UNL     1      -0.252  -1.999  17.062  1.00  0.00     0.040 A 
ATOM     92  C   UNL     1       0.294  -4.309  17.475  1.00  0.00     0.040 A 
ATOM     93  F   UNL     1       0.789  -5.738  15.681  1.00  0.00    -0.206 F 
ATOM     94  C   UNL     1      -0.052  -3.048  17.958  1.00  0.00     0.006 A 
ENDBRANCH  70  87
ENDBRANCH  44  45
ENDBRANCH  36  39
ENDBRANCH  34  35
ENDBRANCH  33  34
ENDBRANCH  32  33
ENDBRANCH   1  32
TORSDOF 16
