REMARK SMILES Cc1cccc(OCC(=O)Nc2cc(C(=O)NCCCCCCNC(=O)c3ccc(-c4c5nc(c(-c6c(F)cccc6F)c6ccc([nH]6)c(-c6c(F)cccc6F)c6nc(c(-c7c(F)cccc7F)c7ccc4[nH]7)C=C6)C=C5)cc3)c(Cl)cc2Cl)c1
REMARK SMILES IDX 19 1 18 2 17 3 15 4 16 5 14 7 12 8 13 9 84 10 83 11 85 12
REMARK SMILES IDX 81 13 82 14 11 15 9 16 10 17 8 19 7 20 6 21 1 22 2 23 3 24
REMARK SMILES IDX 86 25 4 26 5 27 20 28 21 29 22 30 23 31 24 32 25 33 26 35
REMARK SMILES IDX 27 36 28 37 80 38 29 39 79 40 30 41 31 42 32 43 73 44 33 45
REMARK SMILES IDX 78 46 72 47 74 48 34 49 77 50 71 51 70 52 35 54 61 55 44 56
REMARK SMILES IDX 60 57 45 58 48 59 59 60 75 61 46 62 47 63 58 65 76 66 49 67
REMARK SMILES IDX 36 68 37 69 42 70 38 71 39 72 41 73 43 74 40 75 62 76 63 77
REMARK SMILES IDX 68 78 64 79 65 80 67 81 69 82 66 83 50 84 51 85 56 86 52 87
REMARK SMILES IDX 53 88 55 89 57 90 54 91
REMARK H PARENT 17 6 11 18 24 34 74 53 48 64
REMARK Flexibility Score: inf
ROOT
ATOM      1  C   UNL     1      -3.840  -1.242   0.267  1.00  0.00     0.021 C 
ENDROOT
BRANCH   1   2
ATOM      2  C   UNL     1      -3.862   0.289   0.315  1.00  0.00     0.116 C 
BRANCH   2   3
ATOM      3  N   UNL     1      -5.164   0.907   0.392  1.00  0.00    -0.352 N 
ATOM      4  C   UNL     1      -5.550   2.074   1.021  1.00  0.00     0.252 C 
ATOM      5  O   UNL     1      -6.673   2.511   0.779  1.00  0.00    -0.269 OA
ATOM      6  H   UNL     1      -5.885   0.424  -0.073  1.00  0.00     0.163 HD
BRANCH   4   7
ATOM      7  C   UNL     1      -4.671   2.822   1.975  1.00  0.00     0.060 A 
ATOM      8  C   UNL     1      -2.522   3.867   2.544  1.00  0.00     0.061 A 
ATOM      9  C   UNL     1      -3.333   3.155   1.647  1.00  0.00     0.043 A 
ATOM     10  C   UNL     1      -3.101   4.314   3.752  1.00  0.00     0.066 A 
ATOM     11  C   UNL     1      -4.429   4.043   4.067  1.00  0.00     0.044 A 
ATOM     12  Cl  UNL     1      -2.183   5.239   4.898  1.00  0.00    -0.082 Cl
ATOM     13  C   UNL     1      -5.209   3.283   3.193  1.00  0.00     0.055 A 
ATOM     14  Cl  UNL     1      -6.812   2.920   3.736  1.00  0.00    -0.083 Cl
BRANCH   8  15
ATOM     15  N   UNL     1      -1.147   4.142   2.377  1.00  0.00    -0.322 N 
ATOM     16  C   UNL     1      -0.220   4.035   1.390  1.00  0.00     0.262 C 
ATOM     17  O   UNL     1       0.949   4.316   1.689  1.00  0.00    -0.271 OA
ATOM     18  H   UNL     1      -0.754   4.513   3.200  1.00  0.00     0.170 HD
BRANCH  16  19
ATOM     19  C   UNL     1      -0.566   3.680  -0.052  1.00  0.00     0.329 C 
BRANCH  19  20
ATOM     20  O   UNL     1      -0.834   2.323  -0.354  1.00  0.00    -0.484 OA
BRANCH  20  21
ATOM     21  C   UNL     1       0.122   1.408  -0.014  1.00  0.00     0.120 A 
ATOM     22  C   UNL     1       3.840   0.690   0.308  1.00  0.00     0.044 C 
ATOM     23  C   UNL     1       2.349   0.554   0.383  1.00  0.00    -0.047 A 
ATOM     24  C   UNL     1       1.806  -0.668   0.801  1.00  0.00     0.003 A 
ATOM     25  C   UNL     1       1.498   1.598  -0.024  1.00  0.00     0.049 A 
ATOM     26  C   UNL     1       0.438  -0.877   0.755  1.00  0.00     0.004 A 
ATOM     27  C   UNL     1      -0.380   0.158   0.332  1.00  0.00     0.046 A 
ENDBRANCH  20  21
ENDBRANCH  19  20
ENDBRANCH  16  19
ENDBRANCH   8  15
ENDBRANCH   4   7
ENDBRANCH   2   3
ENDBRANCH   1   2
BRANCH   1  28
ATOM     28  C   UNL     1      -3.850  -2.019  -1.068  1.00  0.00     0.002 C 
BRANCH  28  29
ATOM     29  C   UNL     1      -3.602  -1.348  -2.427  1.00  0.00     0.002 C 
BRANCH  29  30
ATOM     30  C   UNL     1      -2.189  -0.879  -2.793  1.00  0.00     0.021 C 
BRANCH  30  31
ATOM     31  C   UNL     1      -1.070  -1.929  -2.822  1.00  0.00     0.116 C 
BRANCH  31  32
ATOM     32  N   UNL     1      -0.731  -2.439  -4.153  1.00  0.00    -0.352 N 
ATOM     33  C   UNL     1       0.294  -3.299  -4.547  1.00  0.00     0.251 C 
ATOM     34  H   UNL     1      -1.317  -2.127  -4.881  1.00  0.00     0.163 HD
ATOM     35  O   UNL     1       0.389  -3.666  -5.696  1.00  0.00    -0.269 OA
BRANCH  33  36
ATOM     36  C   UNL     1       1.198  -3.866  -3.511  1.00  0.00     0.039 A 
ATOM     37  C   UNL     1       1.363  -5.257  -3.468  1.00  0.00     0.014 A 
ATOM     38  C   UNL     1       1.699  -3.075  -2.488  1.00  0.00     0.014 A 
ATOM     39  C   UNL     1       1.738  -5.863  -2.269  1.00  0.00     0.010 A 
ATOM     40  C   UNL     1       1.998  -3.676  -1.282  1.00  0.00     0.010 A 
ATOM     41  C   UNL     1       1.909  -5.063  -1.144  1.00  0.00    -0.014 A 
BRANCH  41  42
ATOM     42  C   UNL     1       1.766  -5.559   0.224  1.00  0.00     0.031 A 
ATOM     43  C   UNL     1       2.918  -5.685   1.135  1.00  0.00     0.074 A 
ATOM     44  C   UNL     1       0.518  -5.787   0.694  1.00  0.00     0.049 A 
ATOM     45  N   UNL     1       2.933  -6.434   2.186  1.00  0.00    -0.248 NA
ATOM     46  C   UNL     1       4.177  -4.997   0.901  1.00  0.00     0.031 C 
ATOM     47  C   UNL     1       0.103  -5.975   2.082  1.00  0.00     0.029 A 
ATOM     48  N   UNL     1      -0.619  -6.117  -0.056  1.00  0.00    -0.354 N 
ATOM     49  C   UNL     1       4.066  -6.133   2.908  1.00  0.00     0.074 A 
ATOM     50  C   UNL     1       4.842  -5.294   2.022  1.00  0.00     0.031 C 
ATOM     51  C   UNL     1      -1.061  -6.644   2.098  1.00  0.00     0.029 A 
ATOM     52  C   UNL     1      -1.345  -7.036   0.729  1.00  0.00     0.049 A 
ATOM     53  H   UNL     1      -0.860  -5.777  -0.948  1.00  0.00     0.167 HD
ATOM     54  C   UNL     1       4.144  -6.524   4.216  1.00  0.00     0.037 A 
ATOM     55  C   UNL     1      -1.554  -8.318   0.313  1.00  0.00     0.037 A 
ATOM     56  C   UNL     1       2.991  -7.348   4.590  1.00  0.00     0.049 A 
ATOM     57  C   UNL     1      -1.042  -9.369   1.267  1.00  0.00     0.074 A 
ATOM     58  C   UNL     1       1.821  -7.071   5.279  1.00  0.00     0.029 A 
ATOM     59  N   UNL     1       2.817  -8.600   4.010  1.00  0.00    -0.354 N 
ATOM     60  N   UNL     1      -0.133  -9.151   2.176  1.00  0.00    -0.248 NA
ATOM     61  C   UNL     1      -1.494 -10.757   1.249  1.00  0.00     0.031 C 
ATOM     62  C   UNL     1       0.927  -8.153   5.085  1.00  0.00     0.029 A 
ATOM     63  C   UNL     1       1.556  -9.092   4.286  1.00  0.00     0.049 A 
ATOM     64  H   UNL     1       3.498  -9.070   3.476  1.00  0.00     0.167 HD
ATOM     65  C   UNL     1       0.154 -10.326   2.827  1.00  0.00     0.074 A 
ATOM     66  C   UNL     1      -0.749 -11.292   2.232  1.00  0.00     0.031 C 
ATOM     67  C   UNL     1       1.128 -10.392   3.784  1.00  0.00     0.037 A 
BRANCH  54  68
ATOM     68  C   UNL     1       5.097  -5.933   5.245  1.00  0.00     0.057 A 
ATOM     69  C   UNL     1       4.780  -5.955   6.622  1.00  0.00     0.134 A 
ATOM     70  C   UNL     1       6.303  -5.271   4.959  1.00  0.00     0.134 A 
ATOM     71  F   UNL     1       3.740  -6.651   7.098  1.00  0.00    -0.206 F 
ATOM     72  C   UNL     1       5.520  -5.267   7.596  1.00  0.00     0.040 A 
ATOM     73  C   UNL     1       7.029  -4.539   5.913  1.00  0.00     0.040 A 
ATOM     74  F   UNL     1       6.887  -5.354   3.760  1.00  0.00    -0.206 F 
ATOM     75  C   UNL     1       6.627  -4.519   7.237  1.00  0.00     0.006 A 
ENDBRANCH  54  68
BRANCH  55  76
ATOM     76  C   UNL     1      -1.580  -8.468  -1.165  1.00  0.00     0.057 A 
ATOM     77  C   UNL     1      -2.594  -7.822  -1.895  1.00  0.00     0.134 A 
ATOM     78  C   UNL     1      -0.462  -8.909  -1.879  1.00  0.00     0.134 A 
ATOM     79  F   UNL     1      -3.691  -7.368  -1.268  1.00  0.00    -0.206 F 
ATOM     80  C   UNL     1      -2.453  -7.531  -3.254  1.00  0.00     0.040 A 
ATOM     81  C   UNL     1      -0.318  -8.636  -3.245  1.00  0.00     0.040 A 
ATOM     82  F   UNL     1       0.559  -9.507  -1.249  1.00  0.00    -0.206 F 
ATOM     83  C   UNL     1      -1.297  -7.914  -3.926  1.00  0.00     0.006 A 
ENDBRANCH  55  76
BRANCH  67  84
ATOM     84  C   UNL     1       1.711 -11.645   4.407  1.00  0.00     0.057 A 
ATOM     85  C   UNL     1       1.679 -12.921   3.825  1.00  0.00     0.134 A 
ATOM     86  C   UNL     1       2.469 -11.566   5.601  1.00  0.00     0.134 A 
ATOM     87  F   UNL     1       1.113 -13.140   2.632  1.00  0.00    -0.206 F 
ATOM     88  C   UNL     1       2.290 -14.040   4.414  1.00  0.00     0.040 A 
ATOM     89  C   UNL     1       3.129 -12.662   6.167  1.00  0.00     0.040 A 
ATOM     90  F   UNL     1       2.627 -10.410   6.264  1.00  0.00    -0.206 F 
ATOM     91  C   UNL     1       3.027 -13.912   5.582  1.00  0.00     0.006 A 
ENDBRANCH  67  84
ENDBRANCH  41  42
ENDBRANCH  33  36
ENDBRANCH  31  32
ENDBRANCH  30  31
ENDBRANCH  29  30
ENDBRANCH  28  29
ENDBRANCH   1  28
TORSDOF 17
