REMARK SMILES Cc1c(Br)c(C(=O)NCCCCCCNC(=O)c2ccc(-c3c4nc(c(-c5c(F)cccc5F)c5ccc([nH]5)c(-c5c(F)cccc5F)c5nc(c(-c6c(F)cccc6F)c6ccc3[nH]6)C=C5)C=C4)cc2)nn1-c1ccccc1
REMARK SMILES IDX 12 1 11 2 10 3 9 4 8 5 6 6 7 7 5 9 1 10 2 11 3 12 73 13 4 14
REMARK SMILES IDX 72 15 74 16 75 17 79 18 76 19 78 20 77 21 13 22 14 23 15 24
REMARK SMILES IDX 16 25 17 27 18 28 19 29 71 30 20 31 70 32 21 33 22 34 23 35
REMARK SMILES IDX 64 36 24 37 69 38 63 39 65 40 25 41 68 42 62 43 61 44 26 46
REMARK SMILES IDX 52 47 35 48 51 49 36 50 39 51 50 52 66 53 37 54 38 55 49 57
REMARK SMILES IDX 67 58 40 59 27 60 28 61 33 62 29 63 30 64 32 65 34 66 31 67
REMARK SMILES IDX 53 68 54 69 59 70 55 71 56 72 58 73 60 74 57 75 41 76 42 77
REMARK SMILES IDX 47 78 43 79 44 80 46 81 48 82 45 83
REMARK H PARENT 8 8 15 26 65 45 39 56
REMARK Flexibility Score: inf
ROOT
ATOM      1  C   UNL     1      -1.522  -3.982   8.436  1.00  0.00     0.002 C 
ENDROOT
BRANCH   1   2
ATOM      2  C   UNL     1      -2.394  -4.184   7.188  1.00  0.00     0.002 C 
BRANCH   2   3
ATOM      3  C   UNL     1      -2.341  -3.086   6.125  1.00  0.00     0.021 C 
BRANCH   3   4
ATOM      4  C   UNL     1      -0.950  -2.720   5.611  1.00  0.00     0.116 C 
BRANCH   4   5
ATOM      5  N   UNL     1      -0.339  -3.785   4.834  1.00  0.00    -0.351 N 
ATOM      6  C   UNL     1       0.288  -3.757   3.602  1.00  0.00     0.272 C 
ATOM      7  O   UNL     1       0.685  -4.837   3.160  1.00  0.00    -0.267 OA
ATOM      8  H   UNL     1      -0.379  -4.675   5.254  1.00  0.00     0.163 HD
BRANCH   6   9
ATOM      9  C   UNL     1       0.433  -2.495   2.852  1.00  0.00     0.165 A 
ATOM     10  C   UNL     1       0.970  -0.184   0.002  1.00  0.00     0.068 C 
ATOM     11  C   UNL     1       0.633  -0.951   1.228  1.00  0.00     0.056 A 
ATOM     12  C   UNL     1       0.682  -2.308   1.470  1.00  0.00     0.072 A 
ATOM     13  N   UNL     1       0.281  -0.395   2.444  1.00  0.00    -0.236 N 
ATOM     14  Br  UNL     1       1.034  -3.644   0.200  1.00  0.00    -0.046 Br
ATOM     15  N   UNL     1       0.414  -1.289   3.449  1.00  0.00    -0.161 NA
BRANCH  13  16
ATOM     16  C   UNL     1      -0.237   0.890   2.751  1.00  0.00     0.065 A 
ATOM     17  C   UNL     1       0.043   1.451   4.005  1.00  0.00     0.028 A 
ATOM     18  C   UNL     1      -1.101   1.550   1.869  1.00  0.00     0.028 A 
ATOM     19  C   UNL     1      -0.497   2.688   4.355  1.00  0.00     0.002 A 
ATOM     20  C   UNL     1      -1.663   2.775   2.239  1.00  0.00     0.002 A 
ATOM     21  C   UNL     1      -1.353   3.347   3.473  1.00  0.00     0.000 A 
ENDBRANCH  13  16
ENDBRANCH   6   9
ENDBRANCH   4   5
ENDBRANCH   3   4
ENDBRANCH   2   3
ENDBRANCH   1   2
BRANCH   1  22
ATOM     22  C   UNL     1      -1.635  -2.639   9.172  1.00  0.00     0.021 C 
BRANCH  22  23
ATOM     23  C   UNL     1      -3.023  -2.319   9.705  1.00  0.00     0.116 C 
BRANCH  23  24
ATOM     24  N   UNL     1      -3.469  -3.232  10.759  1.00  0.00    -0.352 N 
ATOM     25  C   UNL     1      -4.692  -3.263  11.413  1.00  0.00     0.251 C 
ATOM     26  H   UNL     1      -2.816  -3.913  11.041  1.00  0.00     0.163 HD
ATOM     27  O   UNL     1      -4.816  -3.806  12.497  1.00  0.00    -0.269 OA
BRANCH  25  28
ATOM     28  C   UNL     1      -5.853  -2.623  10.763  1.00  0.00     0.039 A 
ATOM     29  C   UNL     1      -6.832  -1.939  11.491  1.00  0.00     0.014 A 
ATOM     30  C   UNL     1      -5.935  -2.705   9.379  1.00  0.00     0.014 A 
ATOM     31  C   UNL     1      -7.843  -1.280  10.792  1.00  0.00     0.010 A 
ATOM     32  C   UNL     1      -6.781  -1.880   8.695  1.00  0.00     0.010 A 
ATOM     33  C   UNL     1      -7.796  -1.243   9.388  1.00  0.00    -0.014 A 
BRANCH  33  34
ATOM     34  C   UNL     1      -8.780  -0.510   8.608  1.00  0.00     0.031 A 
ATOM     35  C   UNL     1      -8.930   0.919   8.972  1.00  0.00     0.074 A 
ATOM     36  C   UNL     1      -9.379  -1.018   7.509  1.00  0.00     0.049 A 
ATOM     37  N   UNL     1      -9.918   1.461   9.599  1.00  0.00    -0.248 NA
ATOM     38  C   UNL     1      -7.800   1.829   8.735  1.00  0.00     0.031 C 
ATOM     39  C   UNL     1      -9.117  -2.280   6.804  1.00  0.00     0.029 A 
ATOM     40  N   UNL     1     -10.327  -0.438   6.728  1.00  0.00    -0.354 N 
ATOM     41  C   UNL     1      -9.635   2.821   9.664  1.00  0.00     0.074 A 
ATOM     42  C   UNL     1      -8.254   2.962   9.278  1.00  0.00     0.031 C 
ATOM     43  C   UNL     1      -9.716  -2.258   5.593  1.00  0.00     0.029 A 
ATOM     44  C   UNL     1     -10.551  -1.075   5.515  1.00  0.00     0.049 A 
ATOM     45  H   UNL     1     -10.817   0.371   7.001  1.00  0.00     0.167 HD
ATOM     46  C   UNL     1     -10.633   3.735   9.816  1.00  0.00     0.037 A 
ATOM     47  C   UNL     1     -11.358  -0.639   4.518  1.00  0.00     0.037 A 
ATOM     48  C   UNL     1     -11.870   3.095  10.196  1.00  0.00     0.049 A 
ATOM     49  C   UNL     1     -12.313   0.326   5.121  1.00  0.00     0.074 A 
ATOM     50  C   UNL     1     -12.273   2.316  11.263  1.00  0.00     0.029 A 
ATOM     51  N   UNL     1     -12.804   2.886   9.209  1.00  0.00    -0.354 N 
ATOM     52  N   UNL     1     -13.247  -0.012   5.966  1.00  0.00    -0.248 NA
ATOM     53  C   UNL     1     -11.930   1.729   5.141  1.00  0.00     0.031 C 
ATOM     54  C   UNL     1     -13.118   1.319  10.690  1.00  0.00     0.029 A 
ATOM     55  C   UNL     1     -13.239   1.591   9.326  1.00  0.00     0.049 A 
ATOM     56  H   UNL     1     -13.105   3.545   8.542  1.00  0.00     0.167 HD
ATOM     57  C   UNL     1     -13.252   1.005   6.910  1.00  0.00     0.074 A 
ATOM     58  C   UNL     1     -12.486   2.091   6.301  1.00  0.00     0.031 C 
ATOM     59  C   UNL     1     -13.623   0.767   8.203  1.00  0.00     0.037 A 
BRANCH  46  60
ATOM     60  C   UNL     1     -10.610   5.140   9.274  1.00  0.00     0.057 A 
ATOM     61  C   UNL     1     -11.631   6.033   9.648  1.00  0.00     0.134 A 
ATOM     62  C   UNL     1      -9.815   5.558   8.189  1.00  0.00     0.134 A 
ATOM     63  F   UNL     1     -12.460   5.745  10.663  1.00  0.00    -0.206 F 
ATOM     64  C   UNL     1     -11.893   7.212   8.940  1.00  0.00     0.040 A 
ATOM     65  C   UNL     1     -10.036   6.758   7.508  1.00  0.00     0.040 A 
ATOM     66  F   UNL     1      -8.856   4.786   7.663  1.00  0.00    -0.206 F 
ATOM     67  C   UNL     1     -11.100   7.573   7.860  1.00  0.00     0.006 A 
ENDBRANCH  46  60
BRANCH  47  68
ATOM     68  C   UNL     1     -11.170  -0.752   3.055  1.00  0.00     0.057 A 
ATOM     69  C   UNL     1     -12.224  -0.474   2.172  1.00  0.00     0.134 A 
ATOM     70  C   UNL     1      -9.889  -0.835   2.482  1.00  0.00     0.134 A 
ATOM     71  F   UNL     1     -13.478  -0.345   2.629  1.00  0.00    -0.206 F 
ATOM     72  C   UNL     1     -12.011  -0.245   0.806  1.00  0.00     0.040 A 
ATOM     73  C   UNL     1      -9.664  -0.614   1.119  1.00  0.00     0.040 A 
ATOM     74  F   UNL     1      -8.802  -1.039   3.240  1.00  0.00    -0.206 F 
ATOM     75  C   UNL     1     -10.725  -0.298   0.279  1.00  0.00     0.006 A 
ENDBRANCH  47  68
BRANCH  59  76
ATOM     76  C   UNL     1     -14.271  -0.553   8.521  1.00  0.00     0.057 A 
ATOM     77  C   UNL     1     -13.643  -1.801   8.377  1.00  0.00     0.134 A 
ATOM     78  C   UNL     1     -15.527  -0.549   9.136  1.00  0.00     0.134 A 
ATOM     79  F   UNL     1     -12.401  -1.903   7.890  1.00  0.00    -0.206 F 
ATOM     80  C   UNL     1     -14.258  -2.989   8.786  1.00  0.00     0.040 A 
ATOM     81  C   UNL     1     -16.137  -1.724   9.580  1.00  0.00     0.040 A 
ATOM     82  F   UNL     1     -16.166   0.611   9.358  1.00  0.00    -0.206 F 
ATOM     83  C   UNL     1     -15.508  -2.951   9.396  1.00  0.00     0.006 A 
ENDBRANCH  59  76
ENDBRANCH  33  34
ENDBRANCH  25  28
ENDBRANCH  23  24
ENDBRANCH  22  23
ENDBRANCH   1  22
TORSDOF 14
