REMARK SMILES C[C@H](C(=O)NCCCCCCNC(=O)c1ccc(-c2c3nc(c(-c4c(F)cccc4F)c4ccc([nH]4)c(-c4c(F)cccc4F)c4nc(c(-c5c(F)cccc5F)c5ccc2[nH]5)C=C4)C=C3)cc1)c1ccc(-c2ccccc2)c(F)c1
REMARK SMILES IDX 8 1 7 2 6 3 5 4 3 5 4 6 2 8 1 9 69 10 70 11 81 12 71 13
REMARK SMILES IDX 79 14 72 15 80 16 73 17 74 18 78 19 75 20 77 21 76 22 9 23
REMARK SMILES IDX 10 24 11 25 12 26 13 27 14 29 15 30 16 31 68 32 17 33 67 34
REMARK SMILES IDX 18 35 19 36 20 37 61 38 21 39 66 40 60 41 62 42 22 43 65 44
REMARK SMILES IDX 59 45 58 46 23 48 49 49 32 50 48 51 33 52 36 53 47 54 63 55
REMARK SMILES IDX 34 56 35 57 46 59 64 60 37 61 24 62 25 63 30 64 26 65 27 66
REMARK SMILES IDX 29 67 31 68 28 69 50 70 51 71 56 72 52 73 53 74 55 75 57 76
REMARK SMILES IDX 54 77 38 78 39 79 44 80 40 81 41 82 43 83 45 84 42 85
REMARK H PARENT 5 7 12 28 62 47 36 58
REMARK Flexibility Score: inf
ROOT
ATOM      1  C   UNL     1      -0.680  -3.518  -2.094  1.00  0.00     0.002 C 
ENDROOT
BRANCH   1   2
ATOM      2  C   UNL     1      -1.193  -2.080  -2.228  1.00  0.00     0.021 C 
BRANCH   2   3
ATOM      3  C   UNL     1      -1.003  -1.163  -1.021  1.00  0.00     0.116 C 
BRANCH   3   4
ATOM      4  N   UNL     1       0.364  -1.061  -0.549  1.00  0.00    -0.356 N 
ATOM      5  C   UNL     1       0.948  -0.144   0.273  1.00  0.00     0.227 C 
ATOM      6  O   UNL     1       2.055  -0.453   0.733  1.00  0.00    -0.274 OA
ATOM      7  H   UNL     1       0.967  -1.768  -0.875  1.00  0.00     0.163 HD
BRANCH   5   8
ATOM      8  C   UNL     1       0.392   1.266   0.536  1.00  0.00     0.105 C 
ATOM      9  C   UNL     1       0.941   2.163  -0.586  1.00  0.00     0.023 C 
BRANCH   8  10
ATOM     10  C   UNL     1      -1.104   1.404   0.794  1.00  0.00    -0.033 A 
ATOM     11  C   UNL     1      -1.847   2.488   0.308  1.00  0.00     0.005 A 
ATOM     12  C   UNL     1      -1.793   0.450   1.550  1.00  0.00     0.044 A 
ATOM     13  C   UNL     1      -3.241   2.529   0.436  1.00  0.00     0.012 A 
ATOM     14  C   UNL     1      -3.192   0.467   1.624  1.00  0.00     0.131 A 
ATOM     15  C   UNL     1      -3.962   1.481   1.033  1.00  0.00     0.017 A 
ATOM     16  F   UNL     1      -3.778  -0.581   2.224  1.00  0.00    -0.206 F 
BRANCH  15  17
ATOM     17  C   UNL     1      -5.446   1.452   0.978  1.00  0.00    -0.015 A 
ATOM     18  C   UNL     1      -6.141   2.012  -0.116  1.00  0.00     0.009 A 
ATOM     19  C   UNL     1      -6.225   0.846   1.977  1.00  0.00     0.009 A 
ATOM     20  C   UNL     1      -7.537   1.977  -0.202  1.00  0.00     0.001 A 
ATOM     21  C   UNL     1      -7.622   0.793   1.887  1.00  0.00     0.001 A 
ATOM     22  C   UNL     1      -8.277   1.362   0.800  1.00  0.00     0.000 A 
ENDBRANCH  15  17
ENDBRANCH   8  10
ENDBRANCH   5   8
ENDBRANCH   3   4
ENDBRANCH   2   3
ENDBRANCH   1   2
BRANCH   1  23
ATOM     23  C   UNL     1      -1.147  -4.321  -0.878  1.00  0.00     0.002 C 
BRANCH  23  24
ATOM     24  C   UNL     1      -2.658  -4.470  -0.678  1.00  0.00     0.021 C 
BRANCH  24  25
ATOM     25  C   UNL     1      -3.469  -4.958  -1.877  1.00  0.00     0.116 C 
BRANCH  25  26
ATOM     26  N   UNL     1      -3.018  -6.230  -2.412  1.00  0.00    -0.352 N 
ATOM     27  C   UNL     1      -3.732  -7.316  -2.850  1.00  0.00     0.251 C 
ATOM     28  H   UNL     1      -2.040  -6.330  -2.470  1.00  0.00     0.163 HD
ATOM     29  O   UNL     1      -3.124  -8.325  -3.215  1.00  0.00    -0.269 OA
BRANCH  27  30
ATOM     30  C   UNL     1      -5.216  -7.326  -2.862  1.00  0.00     0.039 A 
ATOM     31  C   UNL     1      -5.868  -8.507  -2.487  1.00  0.00     0.014 A 
ATOM     32  C   UNL     1      -5.974  -6.224  -3.268  1.00  0.00     0.014 A 
ATOM     33  C   UNL     1      -7.264  -8.562  -2.458  1.00  0.00     0.010 A 
ATOM     34  C   UNL     1      -7.369  -6.260  -3.181  1.00  0.00     0.010 A 
ATOM     35  C   UNL     1      -8.029  -7.428  -2.771  1.00  0.00    -0.014 A 
BRANCH  35  36
ATOM     36  C   UNL     1      -9.510  -7.459  -2.644  1.00  0.00     0.031 A 
ATOM     37  C   UNL     1     -10.394  -7.349  -3.857  1.00  0.00     0.074 A 
ATOM     38  C   UNL     1     -10.066  -7.562  -1.421  1.00  0.00     0.049 A 
ATOM     39  N   UNL     1     -11.702  -7.360  -3.929  1.00  0.00    -0.248 NA
ATOM     40  C   UNL     1      -9.723  -7.187  -5.155  1.00  0.00     0.031 C 
ATOM     41  C   UNL     1      -9.326  -7.621  -0.159  1.00  0.00     0.029 A 
ATOM     42  N   UNL     1     -11.383  -7.633  -1.037  1.00  0.00    -0.354 N 
ATOM     43  C   UNL     1     -12.010  -7.211  -5.275  1.00  0.00     0.074 A 
ATOM     44  C   UNL     1     -10.754  -7.058  -5.979  1.00  0.00     0.031 C 
ATOM     45  C   UNL     1     -10.197  -7.740   0.856  1.00  0.00     0.029 A 
ATOM     46  C   UNL     1     -11.555  -7.742   0.322  1.00  0.00     0.049 A 
ATOM     47  H   UNL     1     -12.132  -7.608  -1.675  1.00  0.00     0.167 HD
ATOM     48  C   UNL     1     -13.226  -7.224  -5.874  1.00  0.00     0.037 A 
ATOM     49  C   UNL     1     -12.680  -7.835   1.056  1.00  0.00     0.037 A 
ATOM     50  C   UNL     1     -14.477  -7.387  -5.180  1.00  0.00     0.049 A 
ATOM     51  C   UNL     1     -14.014  -7.861   0.365  1.00  0.00     0.074 A 
ATOM     52  C   UNL     1     -15.756  -7.444  -5.709  1.00  0.00     0.029 A 
ATOM     53  N   UNL     1     -14.608  -7.521  -3.807  1.00  0.00    -0.354 N 
ATOM     54  N   UNL     1     -14.284  -7.777  -0.915  1.00  0.00    -0.248 NA
ATOM     55  C   UNL     1     -15.200  -8.009   1.221  1.00  0.00     0.031 C 
ATOM     56  C   UNL     1     -16.663  -7.584  -4.652  1.00  0.00     0.029 A 
ATOM     57  C   UNL     1     -15.946  -7.651  -3.469  1.00  0.00     0.049 A 
ATOM     58  H   UNL     1     -13.861  -7.523  -3.166  1.00  0.00     0.167 HD
ATOM     59  C   UNL     1     -15.664  -7.879  -1.019  1.00  0.00     0.074 A 
ATOM     60  C   UNL     1     -16.175  -8.055   0.324  1.00  0.00     0.031 C 
ATOM     61  C   UNL     1     -16.441  -7.825  -2.128  1.00  0.00     0.037 A 
BRANCH  48  62
ATOM     62  C   UNL     1     -13.261  -7.076  -7.367  1.00  0.00     0.057 A 
ATOM     63  C   UNL     1     -12.852  -8.114  -8.214  1.00  0.00     0.134 A 
ATOM     64  C   UNL     1     -13.755  -5.910  -7.965  1.00  0.00     0.134 A 
ATOM     65  F   UNL     1     -12.360  -9.253  -7.705  1.00  0.00    -0.206 F 
ATOM     66  C   UNL     1     -12.915  -7.991  -9.603  1.00  0.00     0.040 A 
ATOM     67  C   UNL     1     -13.845  -5.784  -9.353  1.00  0.00     0.040 A 
ATOM     68  F   UNL     1     -14.170  -4.881  -7.211  1.00  0.00    -0.206 F 
ATOM     69  C   UNL     1     -13.420  -6.825 -10.176  1.00  0.00     0.006 A 
ENDBRANCH  48  62
BRANCH  49  70
ATOM     70  C   UNL     1     -12.595  -7.933   2.534  1.00  0.00     0.057 A 
ATOM     71  C   UNL     1     -12.902  -9.125   3.200  1.00  0.00     0.134 A 
ATOM     72  C   UNL     1     -12.224  -6.833   3.316  1.00  0.00     0.134 A 
ATOM     73  F   UNL     1     -13.284 -10.207   2.506  1.00  0.00    -0.206 F 
ATOM     74  C   UNL     1     -12.864  -9.215   4.592  1.00  0.00     0.040 A 
ATOM     75  C   UNL     1     -12.158  -6.915   4.707  1.00  0.00     0.040 A 
ATOM     76  F   UNL     1     -11.913  -5.664   2.736  1.00  0.00    -0.206 F 
ATOM     77  C   UNL     1     -12.487  -8.107   5.350  1.00  0.00     0.006 A 
ENDBRANCH  49  70
BRANCH  61  78
ATOM     78  C   UNL     1     -17.920  -7.978  -1.932  1.00  0.00     0.057 A 
ATOM     79  C   UNL     1     -18.696  -6.958  -1.366  1.00  0.00     0.134 A 
ATOM     80  C   UNL     1     -18.576  -9.151  -2.323  1.00  0.00     0.134 A 
ATOM     81  F   UNL     1     -18.125  -5.816  -0.958  1.00  0.00    -0.206 F 
ATOM     82  C   UNL     1     -20.070  -7.112  -1.171  1.00  0.00     0.040 A 
ATOM     83  C   UNL     1     -19.953  -9.307  -2.155  1.00  0.00     0.040 A 
ATOM     84  F   UNL     1     -17.891 -10.163  -2.878  1.00  0.00    -0.206 F 
ATOM     85  C   UNL     1     -20.702  -8.288  -1.571  1.00  0.00     0.006 A 
ENDBRANCH  61  78
ENDBRANCH  35  36
ENDBRANCH  27  30
ENDBRANCH  25  26
ENDBRANCH  24  25
ENDBRANCH  23  24
ENDBRANCH   1  23
TORSDOF 15
