REMARK SMILES O=C(NCCCCCCNC(=O)c1cccc(S(=O)(=O)Nc2ccccc2N2CCOCC2)c1)c1ccc(-c2c3nc(c(-c4c(F)cccc4F)c4ccc([nH]4)c(-c4c(F)cccc4F)c4nc(c(-c5c(F)cccc5F)c5ccc2[nH]5)C=C4)C=C3)cc1
REMARK SMILES IDX 7 1 6 2 5 3 4 4 3 5 1 6 2 7 35 9 36 10 88 11 37 12 87 13
REMARK SMILES IDX 38 14 39 15 40 16 81 17 41 18 86 19 80 20 82 21 42 22 85 23
REMARK SMILES IDX 79 24 78 25 43 27 69 28 52 29 68 30 53 31 56 32 67 33 83 34
REMARK SMILES IDX 54 35 55 36 66 38 84 39 57 40 44 41 45 42 50 43 46 44 47 45
REMARK SMILES IDX 49 46 51 47 48 48 70 49 71 50 76 51 72 52 73 53 75 54 77 55
REMARK SMILES IDX 74 56 58 57 59 58 64 59 60 60 61 61 63 62 65 63 62 64 8 65
REMARK SMILES IDX 9 66 10 67 11 68 12 70 13 71 14 72 34 73 15 74 17 75 16 76
REMARK SMILES IDX 18 77 19 78 20 79 21 80 22 82 23 83 27 84 24 85 26 86 25 87
REMARK SMILES IDX 28 88 29 89 33 90 30 91 32 92 31 93
REMARK H PARENT 3 8 82 26 56 37 10 69 21 81
REMARK Flexibility Score: inf
ROOT
ATOM      1  C   UNL     1       4.342   0.646   4.173  1.00  0.00     0.002 C 
ENDROOT
BRANCH   1   2
ATOM      2  C   UNL     1       4.040   1.867   3.298  1.00  0.00     0.002 C 
BRANCH   2   3
ATOM      3  C   UNL     1       4.560   1.831   1.861  1.00  0.00     0.021 C 
BRANCH   3   4
ATOM      4  C   UNL     1       4.253   0.570   1.067  1.00  0.00     0.116 C 
BRANCH   4   5
ATOM      5  N   UNL     1       2.835   0.310   0.916  1.00  0.00    -0.352 N 
ATOM      6  O   UNL     1       0.936  -0.214  -0.185  1.00  0.00    -0.269 OA
ATOM      7  C   UNL     1       2.159  -0.119  -0.200  1.00  0.00     0.251 C 
ATOM      8  H   UNL     1       2.285   0.461   1.718  1.00  0.00     0.163 HD
BRANCH   7   9
ATOM      9  C   UNL     1       2.909  -0.432  -1.436  1.00  0.00     0.039 A 
ATOM     10  C   UNL     1       4.061  -1.224  -1.402  1.00  0.00     0.014 A 
ATOM     11  C   UNL     1       2.440   0.073  -2.652  1.00  0.00     0.014 A 
ATOM     12  C   UNL     1       4.803  -1.417  -2.563  1.00  0.00     0.010 A 
ATOM     13  C   UNL     1       3.145  -0.184  -3.829  1.00  0.00     0.010 A 
ATOM     14  C   UNL     1       4.341  -0.918  -3.792  1.00  0.00    -0.014 A 
BRANCH  14  15
ATOM     15  C   UNL     1       5.068  -1.252  -5.040  1.00  0.00     0.031 A 
ATOM     16  C   UNL     1       5.748  -0.191  -5.855  1.00  0.00     0.074 A 
ATOM     17  C   UNL     1       5.096  -2.538  -5.439  1.00  0.00     0.049 A 
ATOM     18  N   UNL     1       6.395  -0.312  -6.987  1.00  0.00    -0.248 NA
ATOM     19  C   UNL     1       5.691   1.185  -5.341  1.00  0.00     0.031 C 
ATOM     20  C   UNL     1       4.455  -3.651  -4.734  1.00  0.00     0.029 A 
ATOM     21  N   UNL     1       5.685  -3.129  -6.526  1.00  0.00    -0.354 N 
ATOM     22  C   UNL     1       6.805   0.969  -7.331  1.00  0.00     0.074 A 
ATOM     23  C   UNL     1       6.318   1.858  -6.297  1.00  0.00     0.031 C 
ATOM     24  C   UNL     1       4.710  -4.792  -5.389  1.00  0.00     0.029 A 
ATOM     25  C   UNL     1       5.479  -4.485  -6.589  1.00  0.00     0.049 A 
ATOM     26  H   UNL     1       6.206  -2.630  -7.196  1.00  0.00     0.167 HD
ATOM     27  C   UNL     1       7.526   1.362  -8.409  1.00  0.00     0.037 A 
ATOM     28  C   UNL     1       5.847  -5.382  -7.522  1.00  0.00     0.037 A 
ATOM     29  C   UNL     1       8.020   0.467  -9.425  1.00  0.00     0.049 A 
ATOM     30  C   UNL     1       6.622  -4.914  -8.717  1.00  0.00     0.074 A 
ATOM     31  C   UNL     1       8.802   0.763 -10.528  1.00  0.00     0.029 A 
ATOM     32  N   UNL     1       7.773  -0.897  -9.465  1.00  0.00    -0.354 N 
ATOM     33  N   UNL     1       7.036  -3.705  -9.008  1.00  0.00    -0.248 NA
ATOM     34  C   UNL     1       6.973  -5.930  -9.717  1.00  0.00     0.031 C 
ATOM     35  C   UNL     1       8.992  -0.415 -11.259  1.00  0.00     0.029 A 
ATOM     36  C   UNL     1       8.364  -1.452 -10.589  1.00  0.00     0.049 A 
ATOM     37  H   UNL     1       7.255  -1.397  -8.794  1.00  0.00     0.167 HD
ATOM     38  C   UNL     1       7.706  -3.815 -10.217  1.00  0.00     0.074 A 
ATOM     39  C   UNL     1       7.660  -5.214 -10.595  1.00  0.00     0.031 C 
ATOM     40  C   UNL     1       8.303  -2.845 -10.951  1.00  0.00     0.037 A 
BRANCH  27  41
ATOM     41  C   UNL     1       7.814   2.827  -8.560  1.00  0.00     0.057 A 
ATOM     42  C   UNL     1       8.752   3.485  -7.753  1.00  0.00     0.134 A 
ATOM     43  C   UNL     1       7.187   3.577  -9.563  1.00  0.00     0.134 A 
ATOM     44  F   UNL     1       9.381   2.827  -6.768  1.00  0.00    -0.206 F 
ATOM     45  C   UNL     1       9.043   4.839  -7.929  1.00  0.00     0.040 A 
ATOM     46  C   UNL     1       7.485   4.927  -9.762  1.00  0.00     0.040 A 
ATOM     47  F   UNL     1       6.284   3.008 -10.375  1.00  0.00    -0.206 F 
ATOM     48  C   UNL     1       8.414   5.562  -8.941  1.00  0.00     0.006 A 
ENDBRANCH  27  41
BRANCH  28  49
ATOM     49  C   UNL     1       5.470  -6.807  -7.359  1.00  0.00     0.057 A 
ATOM     50  C   UNL     1       6.430  -7.780  -7.066  1.00  0.00     0.134 A 
ATOM     51  C   UNL     1       4.138  -7.224  -7.471  1.00  0.00     0.134 A 
ATOM     52  F   UNL     1       7.724  -7.443  -6.962  1.00  0.00    -0.206 F 
ATOM     53  C   UNL     1       6.081  -9.121  -6.898  1.00  0.00     0.040 A 
ATOM     54  C   UNL     1       3.771  -8.556  -7.281  1.00  0.00     0.040 A 
ATOM     55  F   UNL     1       3.170  -6.335  -7.742  1.00  0.00    -0.206 F 
ATOM     56  C   UNL     1       4.746  -9.510  -6.999  1.00  0.00     0.006 A 
ENDBRANCH  28  49
BRANCH  40  57
ATOM     57  C   UNL     1       8.964  -3.271 -12.226  1.00  0.00     0.057 A 
ATOM     58  C   UNL     1       8.219  -3.608 -13.363  1.00  0.00     0.134 A 
ATOM     59  C   UNL     1      10.360  -3.318 -12.326  1.00  0.00     0.134 A 
ATOM     60  F   UNL     1       6.878  -3.598 -13.325  1.00  0.00    -0.206 F 
ATOM     61  C   UNL     1       8.840  -3.997 -14.551  1.00  0.00     0.040 A 
ATOM     62  C   UNL     1      10.993  -3.683 -13.515  1.00  0.00     0.040 A 
ATOM     63  F   UNL     1      11.130  -3.001 -11.274  1.00  0.00    -0.206 F 
ATOM     64  C   UNL     1      10.232  -4.028 -14.630  1.00  0.00     0.006 A 
ENDBRANCH  40  57
ENDBRANCH  14  15
ENDBRANCH   7   9
ENDBRANCH   4   5
ENDBRANCH   3   4
ENDBRANCH   2   3
ENDBRANCH   1   2
BRANCH   1  65
ATOM     65  C   UNL     1       5.789   0.146   4.190  1.00  0.00     0.021 C 
BRANCH  65  66
ATOM     66  C   UNL     1       6.843   1.188   4.529  1.00  0.00     0.116 C 
BRANCH  66  67
ATOM     67  N   UNL     1       6.778   1.623   5.911  1.00  0.00    -0.352 N 
ATOM     68  C   UNL     1       7.807   1.902   6.776  1.00  0.00     0.251 C 
ATOM     69  H   UNL     1       5.871   1.734   6.279  1.00  0.00     0.163 HD
ATOM     70  O   UNL     1       7.566   2.134   7.958  1.00  0.00    -0.269 OA
BRANCH  68  71
ATOM     71  C   UNL     1       9.212   1.966   6.300  1.00  0.00     0.041 A 
ATOM     72  C   UNL     1      10.247   1.534   7.133  1.00  0.00     0.014 A 
ATOM     73  C   UNL     1       9.523   2.573   5.085  1.00  0.00     0.036 A 
ATOM     74  C   UNL     1      11.579   1.692   6.733  1.00  0.00     0.002 A 
ATOM     75  C   UNL     1      10.847   2.785   4.708  1.00  0.00     0.088 A 
ATOM     76  C   UNL     1      11.885   2.324   5.521  1.00  0.00     0.022 A 
BRANCH  75  77
ATOM     77  S   UNL     1      11.165   3.526   3.127  1.00  0.00     0.261 S 
ATOM     78  O   UNL     1      12.596   3.651   2.975  1.00  0.00    -0.201 OA
ATOM     79  O   UNL     1      10.389   2.784   2.147  1.00  0.00    -0.201 OA
BRANCH  77  80
ATOM     80  N   UNL     1      10.573   5.117   3.172  1.00  0.00    -0.278 N 
ATOM     81  H   UNL     1      11.173   5.881   3.015  1.00  0.00     0.180 HD
BRANCH  80  82
ATOM     82  C   UNL     1       9.173   5.324   3.445  1.00  0.00     0.072 A 
ATOM     83  C   UNL     1       8.227   5.032   2.456  1.00  0.00     0.029 A 
ATOM     84  C   UNL     1       8.776   5.688   4.759  1.00  0.00     0.061 A 
ATOM     85  C   UNL     1       6.868   5.068   2.763  1.00  0.00     0.002 A 
ATOM     86  C   UNL     1       7.402   5.695   5.040  1.00  0.00     0.028 A 
ATOM     87  C   UNL     1       6.457   5.390   4.055  1.00  0.00     0.002 A 
BRANCH  84  88
ATOM     88  N   UNL     1       9.718   5.981   5.732  1.00  0.00    -0.365 N 
ATOM     89  C   UNL     1      10.618   7.123   5.505  1.00  0.00     0.145 C 
ATOM     90  C   UNL     1       9.536   5.646   7.150  1.00  0.00     0.145 C 
ATOM     91  C   UNL     1      11.959   6.845   6.197  1.00  0.00     0.181 C 
ATOM     92  C   UNL     1      10.922   5.447   7.794  1.00  0.00     0.181 C 
ATOM     93  O   UNL     1      11.775   6.591   7.602  1.00  0.00    -0.378 OA
ENDBRANCH  84  88
ENDBRANCH  80  82
ENDBRANCH  77  80
ENDBRANCH  75  77
ENDBRANCH  68  71
ENDBRANCH  66  67
ENDBRANCH  65  66
ENDBRANCH   1  65
TORSDOF 17
