REMARK SMILES Cc1nc(-c2ccc(C(F)(F)F)cc2)nc(SCC(=O)NCCCCCCNC(=O)c2ccc(-c3c4nc(c(-c5c(F)cccc5F)c5ccc([nH]5)c(-c5c(F)cccc5F)c5nc(c(-c6c(F)cccc6F)c6ccc3[nH]6)C=C5)C=C4)cc2)c1C
REMARK SMILES IDX 23 1 22 2 21 3 19 4 20 5 18 7 17 8 16 9 1 10 2 11 3 12 85 13
REMARK SMILES IDX 4 14 86 15 15 16 5 17 6 18 14 19 7 20 13 21 8 22 9 23 10 24
REMARK SMILES IDX 11 25 12 26 24 27 25 28 26 29 27 30 28 31 29 32 30 34 31 35
REMARK SMILES IDX 32 36 84 37 33 38 83 39 34 40 35 41 36 42 77 43 37 44 82 45
REMARK SMILES IDX 76 46 78 47 38 48 81 49 75 50 74 51 39 53 65 54 48 55 64 56
REMARK SMILES IDX 49 57 52 58 63 59 79 60 50 61 51 62 62 64 80 65 53 66 40 67
REMARK SMILES IDX 41 68 46 69 42 70 43 71 45 72 47 73 44 74 66 75 67 76 72 77
REMARK SMILES IDX 68 78 69 79 71 80 73 81 70 82 54 83 55 84 60 85 56 86 57 87
REMARK SMILES IDX 59 88 61 89 58 90
REMARK H PARENT 21 6 28 33 78 52 52 63
REMARK Flexibility Score: inf
ROOT
ATOM      1  C   UNL     1       2.276   2.217   6.256  1.00  0.00     0.021 C 
ENDROOT
BRANCH   1   2
ATOM      2  C   UNL     1       1.298   3.376   6.073  1.00  0.00     0.116 C 
BRANCH   2   3
ATOM      3  N   UNL     1       1.316   3.884   4.718  1.00  0.00    -0.355 N 
ATOM      4  C   UNL     1       0.345   3.878   3.769  1.00  0.00     0.230 C 
ATOM      5  O   UNL     1       0.563   4.532   2.744  1.00  0.00    -0.274 OA
ATOM      6  H   UNL     1       2.165   4.298   4.442  1.00  0.00     0.163 HD
BRANCH   4   7
ATOM      7  C   UNL     1      -1.000   3.218   3.985  1.00  0.00     0.176 C 
BRANCH   7   8
ATOM      8  S   UNL     1      -0.997   1.464   4.435  1.00  0.00    -0.096 SA
BRANCH   8   9
ATOM      9  C   UNL     1      -0.342   0.416   3.153  1.00  0.00     0.104 A 
ATOM     10  C   UNL     1       1.180  -0.319  -0.232  1.00  0.00     0.067 C 
ATOM     11  C   UNL     1       0.610  -0.419   1.156  1.00  0.00     0.045 A 
ATOM     12  N   UNL     1       0.688  -1.655   1.680  1.00  0.00    -0.233 NA
ATOM     13  C   UNL     1       0.087   0.680   1.854  1.00  0.00     0.003 A 
ATOM     14  C   UNL     1       0.204  -1.825   2.910  1.00  0.00     0.160 A 
ATOM     15  C   UNL     1       0.097   2.021   1.201  1.00  0.00     0.049 C 
ATOM     16  N   UNL     1      -0.310  -0.845   3.658  1.00  0.00    -0.221 NA
BRANCH  14  17
ATOM     17  C   UNL     1       0.260  -3.181   3.461  1.00  0.00     0.019 A 
ATOM     18  C   UNL     1       1.453  -3.921   3.411  1.00  0.00     0.012 A 
ATOM     19  C   UNL     1      -0.876  -3.800   4.009  1.00  0.00     0.012 A 
ATOM     20  C   UNL     1       1.510  -5.239   3.875  1.00  0.00     0.014 A 
ATOM     21  C   UNL     1      -0.828  -5.126   4.458  1.00  0.00     0.014 A 
ATOM     22  C   UNL     1       0.364  -5.861   4.389  1.00  0.00     0.056 A 
BRANCH  22  23
ATOM     23  C   UNL     1       0.434  -7.297   4.846  1.00  0.00     0.416 C 
ATOM     24  F   UNL     1       0.900  -8.131   3.875  1.00  0.00    -0.166 F 
ATOM     25  F   UNL     1       1.267  -7.465   5.911  1.00  0.00    -0.166 F 
ATOM     26  F   UNL     1      -0.769  -7.810   5.229  1.00  0.00    -0.166 F 
ENDBRANCH  22  23
ENDBRANCH  14  17
ENDBRANCH   8   9
ENDBRANCH   7   8
ENDBRANCH   4   7
ENDBRANCH   2   3
ENDBRANCH   1   2
BRANCH   1  27
ATOM     27  C   UNL     1       3.749   2.570   6.006  1.00  0.00     0.002 C 
BRANCH  27  28
ATOM     28  C   UNL     1       4.295   3.763   6.799  1.00  0.00     0.002 C 
BRANCH  28  29
ATOM     29  C   UNL     1       4.063   3.707   8.309  1.00  0.00     0.021 C 
BRANCH  29  30
ATOM     30  C   UNL     1       4.626   2.470   8.997  1.00  0.00     0.116 C 
BRANCH  30  31
ATOM     31  N   UNL     1       6.079   2.432   8.962  1.00  0.00    -0.352 N 
ATOM     32  C   UNL     1       6.971   2.370  10.006  1.00  0.00     0.251 C 
ATOM     33  H   UNL     1       6.481   2.453   8.063  1.00  0.00     0.163 HD
ATOM     34  O   UNL     1       8.168   2.521   9.811  1.00  0.00    -0.269 OA
BRANCH  32  35
ATOM     35  C   UNL     1       6.468   2.145  11.379  1.00  0.00     0.039 A 
ATOM     36  C   UNL     1       6.937   2.962  12.411  1.00  0.00     0.014 A 
ATOM     37  C   UNL     1       5.534   1.140  11.645  1.00  0.00     0.014 A 
ATOM     38  C   UNL     1       6.421   2.810  13.699  1.00  0.00     0.010 A 
ATOM     39  C   UNL     1       4.966   1.040  12.912  1.00  0.00     0.010 A 
ATOM     40  C   UNL     1       5.409   1.870  13.952  1.00  0.00    -0.014 A 
BRANCH  40  41
ATOM     41  C   UNL     1       4.814   1.734  15.305  1.00  0.00     0.031 A 
ATOM     42  C   UNL     1       5.010   0.468  16.090  1.00  0.00     0.074 A 
ATOM     43  C   UNL     1       4.069   2.736  15.812  1.00  0.00     0.049 A 
ATOM     44  N   UNL     1       4.550   0.150  17.273  1.00  0.00    -0.248 NA
ATOM     45  C   UNL     1       5.813  -0.590  15.455  1.00  0.00     0.031 C 
ATOM     46  C   UNL     1       3.777   3.999  15.133  1.00  0.00     0.029 A 
ATOM     47  N   UNL     1       3.423   2.850  17.018  1.00  0.00    -0.354 N 
ATOM     48  C   UNL     1       5.005  -1.138  17.521  1.00  0.00     0.074 A 
ATOM     49  C   UNL     1       5.724  -1.569  16.343  1.00  0.00     0.031 C 
ATOM     50  C   UNL     1       3.041   4.774  15.945  1.00  0.00     0.029 A 
ATOM     51  C   UNL     1       2.778   4.051  17.186  1.00  0.00     0.049 A 
ATOM     52  H   UNL     1       3.422   2.138  17.698  1.00  0.00     0.167 HD
ATOM     53  C   UNL     1       4.864  -1.882  18.643  1.00  0.00     0.037 A 
ATOM     54  C   UNL     1       2.057   4.517  18.224  1.00  0.00     0.037 A 
ATOM     55  C   UNL     1       4.166  -1.444  19.822  1.00  0.00     0.049 A 
ATOM     56  C   UNL     1       1.887   3.658  19.446  1.00  0.00     0.074 A 
ATOM     57  C   UNL     1       4.007  -2.109  21.024  1.00  0.00     0.029 A 
ATOM     58  N   UNL     1       3.511  -0.228  19.945  1.00  0.00    -0.354 N 
ATOM     59  N   UNL     1       2.371   2.464  19.689  1.00  0.00    -0.248 NA
ATOM     60  C   UNL     1       1.071   4.208  20.538  1.00  0.00     0.031 C 
ATOM     61  C   UNL     1       3.218  -1.315  21.860  1.00  0.00     0.029 A 
ATOM     62  C   UNL     1       2.926  -0.134  21.197  1.00  0.00     0.049 A 
ATOM     63  H   UNL     1       3.469   0.465  19.247  1.00  0.00     0.167 HD
ATOM     64  C   UNL     1       1.939   2.130  20.966  1.00  0.00     0.074 A 
ATOM     65  C   UNL     1       1.166   3.253  21.453  1.00  0.00     0.031 C 
ATOM     66  C   UNL     1       2.162   0.993  21.669  1.00  0.00     0.037 A 
BRANCH  53  67
ATOM     67  C   UNL     1       5.495  -3.243  18.658  1.00  0.00     0.057 A 
ATOM     68  C   UNL     1       6.886  -3.406  18.720  1.00  0.00     0.134 A 
ATOM     69  C   UNL     1       4.708  -4.401  18.668  1.00  0.00     0.134 A 
ATOM     70  F   UNL     1       7.697  -2.338  18.702  1.00  0.00    -0.206 F 
ATOM     71  C   UNL     1       7.471  -4.672  18.774  1.00  0.00     0.040 A 
ATOM     72  C   UNL     1       5.280  -5.671  18.748  1.00  0.00     0.040 A 
ATOM     73  F   UNL     1       3.370  -4.316  18.616  1.00  0.00    -0.206 F 
ATOM     74  C   UNL     1       6.666  -5.809  18.798  1.00  0.00     0.006 A 
ENDBRANCH  53  67
BRANCH  54  75
ATOM     75  C   UNL     1       1.475   5.882  18.166  1.00  0.00     0.057 A 
ATOM     76  C   UNL     1       1.983   6.915  18.963  1.00  0.00     0.134 A 
ATOM     77  C   UNL     1       0.413   6.193  17.308  1.00  0.00     0.134 A 
ATOM     78  F   UNL     1       2.988   6.674  19.818  1.00  0.00    -0.206 F 
ATOM     79  C   UNL     1       1.452   8.204  18.916  1.00  0.00     0.040 A 
ATOM     80  C   UNL     1      -0.112   7.484  17.233  1.00  0.00     0.040 A 
ATOM     81  F   UNL     1      -0.115   5.250  16.514  1.00  0.00    -0.206 F 
ATOM     82  C   UNL     1       0.405   8.494  18.043  1.00  0.00     0.006 A 
ENDBRANCH  54  75
BRANCH  66  83
ATOM     83  C   UNL     1       1.578   0.901  23.048  1.00  0.00     0.057 A 
ATOM     84  C   UNL     1       0.207   0.702  23.252  1.00  0.00     0.134 A 
ATOM     85  C   UNL     1       2.405   0.926  24.178  1.00  0.00     0.134 A 
ATOM     86  F   UNL     1      -0.639   0.679  22.212  1.00  0.00    -0.206 F 
ATOM     87  C   UNL     1      -0.321   0.539  24.534  1.00  0.00     0.040 A 
ATOM     88  C   UNL     1       1.892   0.739  25.462  1.00  0.00     0.040 A 
ATOM     89  F   UNL     1       3.729   1.103  24.049  1.00  0.00    -0.206 F 
ATOM     90  C   UNL     1       0.524   0.546  25.642  1.00  0.00     0.006 A 
ENDBRANCH  66  83
ENDBRANCH  40  41
ENDBRANCH  32  35
ENDBRANCH  30  31
ENDBRANCH  29  30
ENDBRANCH  28  29
ENDBRANCH  27  28
ENDBRANCH   1  27
TORSDOF 17
