REMARK SMILES C[C@H]1[C@@H](C(=O)NCCCCCCNC(=O)c2ccc(-c3c4nc(c(-c5c(F)cccc5F)c5ccc([nH]5)c(-c5c(F)cccc5F)c5nc(c(-c6c(F)cccc6F)c6ccc3[nH]6)C=C5)C=C4)cc2)CCN1C(=O)NCC(C1CC1)C1CC1
REMARK SMILES IDX 8 1 7 2 6 3 4 4 5 5 3 7 1 8 2 9 72 10 70 11 71 12 73 13
REMARK SMILES IDX 74 14 75 15 76 17 77 18 78 19 79 20 80 21 81 22 82 23 83 24
REMARK SMILES IDX 9 25 10 26 11 27 12 28 13 29 14 30 15 32 16 33 17 34 69 35
REMARK SMILES IDX 18 36 68 37 19 38 20 39 21 40 62 41 22 42 67 43 61 44 63 45
REMARK SMILES IDX 23 46 66 47 60 48 59 49 24 51 50 52 33 53 49 54 34 55 37 56
REMARK SMILES IDX 48 57 64 58 35 59 36 60 47 62 65 63 38 64 25 65 26 66 31 67
REMARK SMILES IDX 27 68 28 69 30 70 32 71 29 72 51 73 52 74 57 75 53 76 54 77
REMARK SMILES IDX 56 78 58 79 55 80 39 81 40 82 45 83 41 84 42 85 44 86 46 87
REMARK SMILES IDX 43 88
REMARK H PARENT 6 6 75 16 13 31 63 50 37 61
REMARK Flexibility Score: inf
ROOT
ATOM      1  C   UNL     1       3.496   0.920  -2.173  1.00  0.00     0.021 C 
ENDROOT
BRANCH   1   2
ATOM      2  C   UNL     1       2.700   1.930  -1.335  1.00  0.00     0.116 C 
BRANCH   2   3
ATOM      3  N   UNL     1       1.407   2.186  -1.948  1.00  0.00    -0.356 N 
ATOM      4  C   UNL     1       0.145   1.762  -1.646  1.00  0.00     0.225 C 
ATOM      5  O   UNL     1      -0.735   2.048  -2.462  1.00  0.00    -0.275 OA
ATOM      6  H   UNL     1       1.449   2.779  -2.733  1.00  0.00     0.163 HD
BRANCH   4   7
ATOM      7  C   UNL     1      -0.190   1.087  -0.317  1.00  0.00     0.102 C 
ATOM      8  C   UNL     1       1.223  -1.009  -1.008  1.00  0.00     0.032 C 
ATOM      9  C   UNL     1       0.552  -0.196   0.095  1.00  0.00     0.096 C 
ATOM     10  N   UNL     1      -0.438  -1.053   0.725  1.00  0.00    -0.321 N 
ATOM     11  C   UNL     1      -1.685   0.733  -0.151  1.00  0.00     0.037 C 
ATOM     12  C   UNL     1      -1.729  -0.758   0.138  1.00  0.00     0.122 C 
BRANCH  10  13
ATOM     13  C   UNL     1      -0.275  -2.155   1.510  1.00  0.00     0.317 C 
ATOM     14  O   UNL     1      -1.230  -2.881   1.800  1.00  0.00    -0.249 OA
ATOM     15  N   UNL     1       0.924  -2.541   1.998  1.00  0.00    -0.338 N 
ATOM     16  H   UNL     1       0.842  -3.351   2.550  1.00  0.00     0.165 HD
BRANCH  15  17
ATOM     17  C   UNL     1       2.311  -2.080   1.928  1.00  0.00     0.121 C 
BRANCH  17  18
ATOM     18  C   UNL     1       2.977  -1.970   3.317  1.00  0.00     0.014 C 
BRANCH  18  19
ATOM     19  C   UNL     1       3.598  -3.267   3.811  1.00  0.00    -0.006 C 
ATOM     20  C   UNL     1       3.426  -4.629   3.177  1.00  0.00     0.004 C 
ATOM     21  C   UNL     1       4.735  -3.902   3.044  1.00  0.00     0.004 C 
ENDBRANCH  18  19
BRANCH  18  22
ATOM     22  C   UNL     1       4.017  -0.860   3.453  1.00  0.00    -0.006 C 
ATOM     23  C   UNL     1       4.857  -0.364   2.300  1.00  0.00     0.004 C 
ATOM     24  C   UNL     1       3.824   0.540   2.918  1.00  0.00     0.004 C 
ENDBRANCH  18  22
ENDBRANCH  17  18
ENDBRANCH  15  17
ENDBRANCH  10  13
ENDBRANCH   4   7
ENDBRANCH   2   3
ENDBRANCH   1   2
BRANCH   1  25
ATOM     25  C   UNL     1       4.412   1.514  -3.240  1.00  0.00     0.002 C 
BRANCH  25  26
ATOM     26  C   UNL     1       5.716   2.113  -2.709  1.00  0.00     0.002 C 
BRANCH  26  27
ATOM     27  C   UNL     1       6.569   1.192  -1.827  1.00  0.00     0.021 C 
BRANCH  27  28
ATOM     28  C   UNL     1       6.873  -0.190  -2.408  1.00  0.00     0.116 C 
BRANCH  28  29
ATOM     29  N   UNL     1       7.607  -0.112  -3.660  1.00  0.00    -0.352 N 
ATOM     30  C   UNL     1       8.900  -0.462  -3.946  1.00  0.00     0.251 C 
ATOM     31  H   UNL     1       7.095   0.247  -4.421  1.00  0.00     0.163 HD
ATOM     32  O   UNL     1       9.409  -0.112  -5.013  1.00  0.00    -0.269 OA
BRANCH  30  33
ATOM     33  C   UNL     1       9.700  -1.245  -2.982  1.00  0.00     0.039 A 
ATOM     34  C   UNL     1      11.021  -0.862  -2.732  1.00  0.00     0.014 A 
ATOM     35  C   UNL     1       9.171  -2.381  -2.362  1.00  0.00     0.014 A 
ATOM     36  C   UNL     1      11.793  -1.584  -1.818  1.00  0.00     0.010 A 
ATOM     37  C   UNL     1       9.921  -3.062  -1.404  1.00  0.00     0.010 A 
ATOM     38  C   UNL     1      11.240  -2.673  -1.125  1.00  0.00    -0.014 A 
BRANCH  38  39
ATOM     39  C   UNL     1      12.028  -3.414  -0.107  1.00  0.00     0.031 A 
ATOM     40  C   UNL     1      12.396  -4.855  -0.331  1.00  0.00     0.074 A 
ATOM     41  C   UNL     1      12.364  -2.805   1.046  1.00  0.00     0.049 A 
ATOM     42  N   UNL     1      13.025  -5.681   0.467  1.00  0.00    -0.248 NA
ATOM     43  C   UNL     1      11.981  -5.453  -1.609  1.00  0.00     0.031 C 
ATOM     44  C   UNL     1      12.031  -1.424   1.401  1.00  0.00     0.029 A 
ATOM     45  N   UNL     1      13.051  -3.272   2.139  1.00  0.00    -0.354 N 
ATOM     46  C   UNL     1      13.071  -6.896  -0.206  1.00  0.00     0.074 A 
ATOM     47  C   UNL     1      12.361  -6.713  -1.454  1.00  0.00     0.031 C 
ATOM     48  C   UNL     1      12.533  -1.150   2.616  1.00  0.00     0.029 A 
ATOM     49  C   UNL     1      13.190  -2.343   3.141  1.00  0.00     0.049 A 
ATOM     50  H   UNL     1      13.411  -4.187   2.198  1.00  0.00     0.167 HD
ATOM     51  C   UNL     1      13.667  -8.052   0.171  1.00  0.00     0.037 A 
ATOM     52  C   UNL     1      13.774  -2.444   4.350  1.00  0.00     0.037 A 
ATOM     53  C   UNL     1      14.392  -8.226   1.403  1.00  0.00     0.049 A 
ATOM     54  C   UNL     1      14.419  -3.741   4.750  1.00  0.00     0.074 A 
ATOM     55  C   UNL     1      15.081  -9.340   1.849  1.00  0.00     0.029 A 
ATOM     56  N   UNL     1      14.516  -7.258   2.389  1.00  0.00    -0.354 N 
ATOM     57  N   UNL     1      14.510  -4.862   4.076  1.00  0.00    -0.248 NA
ATOM     58  C   UNL     1      15.046  -3.786   6.079  1.00  0.00     0.031 C 
ATOM     59  C   UNL     1      15.587  -9.062   3.123  1.00  0.00     0.029 A 
ATOM     60  C   UNL     1      15.252  -7.758   3.452  1.00  0.00     0.049 A 
ATOM     61  H   UNL     1      14.138  -6.351   2.341  1.00  0.00     0.167 HD
ATOM     62  C   UNL     1      15.225  -5.735   4.885  1.00  0.00     0.074 A 
ATOM     63  C   UNL     1      15.556  -5.010   6.094  1.00  0.00     0.031 C 
ATOM     64  C   UNL     1      15.575  -7.023   4.648  1.00  0.00     0.037 A 
BRANCH  51  65
ATOM     65  C   UNL     1      13.562  -9.222  -0.765  1.00  0.00     0.057 A 
ATOM     66  C   UNL     1      14.245  -9.252  -1.989  1.00  0.00     0.134 A 
ATOM     67  C   UNL     1      12.796 -10.344  -0.426  1.00  0.00     0.134 A 
ATOM     68  F   UNL     1      14.988  -8.205  -2.378  1.00  0.00    -0.206 F 
ATOM     69  C   UNL     1      14.145 -10.343  -2.854  1.00  0.00     0.040 A 
ATOM     70  C   UNL     1      12.710 -11.452  -1.271  1.00  0.00     0.040 A 
ATOM     71  F   UNL     1      12.122 -10.384   0.734  1.00  0.00    -0.206 F 
ATOM     72  C   UNL     1      13.380 -11.450  -2.493  1.00  0.00     0.006 A 
ENDBRANCH  51  65
BRANCH  52  73
ATOM     73  C   UNL     1      13.796  -1.273   5.263  1.00  0.00     0.057 A 
ATOM     74  C   UNL     1      14.989  -0.591   5.530  1.00  0.00     0.134 A 
ATOM     75  C   UNL     1      12.634  -0.811   5.890  1.00  0.00     0.134 A 
ATOM     76  F   UNL     1      16.139  -0.999   4.972  1.00  0.00    -0.206 F 
ATOM     77  C   UNL     1      15.029   0.498   6.402  1.00  0.00     0.040 A 
ATOM     78  C   UNL     1      12.655   0.292   6.746  1.00  0.00     0.040 A 
ATOM     79  F   UNL     1      11.457  -1.416   5.669  1.00  0.00    -0.206 F 
ATOM     80  C   UNL     1      13.857   0.945   7.009  1.00  0.00     0.006 A 
ENDBRANCH  52  73
BRANCH  64  81
ATOM     81  C   UNL     1      16.380  -7.721   5.705  1.00  0.00     0.057 A 
ATOM     82  C   UNL     1      15.811  -8.126   6.919  1.00  0.00     0.134 A 
ATOM     83  C   UNL     1      17.731  -8.022   5.490  1.00  0.00     0.134 A 
ATOM     84  F   UNL     1      14.526  -7.855   7.192  1.00  0.00    -0.206 F 
ATOM     85  C   UNL     1      16.564  -8.788   7.891  1.00  0.00     0.040 A 
ATOM     86  C   UNL     1      18.486  -8.706   6.443  1.00  0.00     0.040 A 
ATOM     87  F   UNL     1      18.334  -7.668   4.345  1.00  0.00    -0.206 F 
ATOM     88  C   UNL     1      17.904  -9.085   7.651  1.00  0.00     0.006 A 
ENDBRANCH  64  81
ENDBRANCH  38  39
ENDBRANCH  30  33
ENDBRANCH  28  29
ENDBRANCH  27  28
ENDBRANCH  26  27
ENDBRANCH  25  26
ENDBRANCH   1  25
TORSDOF 18
