REMARK SMILES Cc1c(Cl)cccc1NC(=O)C[C@](C)(C(=O)NCCCCCCNC(=O)c1ccc(-c2c3nc(c(-c4c(F)cccc4F)c4ccc([nH]4)c(-c4c(F)cccc4F)c4nc(c(-c5c(F)cccc5F)c5ccc2[nH]5)C=C4)C=C3)cc1)c1ccccc1
REMARK SMILES IDX 20 1 19 2 18 3 17 4 15 5 16 6 13 8 14 9 12 10 10 11 9 12
REMARK SMILES IDX 11 14 8 15 1 16 2 17 3 18 4 19 5 20 7 21 6 22 81 23 82 24
REMARK SMILES IDX 86 25 83 26 85 27 84 28 21 29 22 30 23 31 24 32 25 33 26 35
REMARK SMILES IDX 27 36 28 37 80 38 29 39 79 40 30 41 31 42 32 43 73 44 33 45
REMARK SMILES IDX 78 46 72 47 74 48 34 49 77 50 71 51 70 52 35 54 61 55 44 56
REMARK SMILES IDX 60 57 45 58 48 59 59 60 75 61 46 62 47 63 58 65 76 66 49 67
REMARK SMILES IDX 36 68 37 69 42 70 38 71 39 72 41 73 43 74 40 75 62 76 63 77
REMARK SMILES IDX 68 78 64 79 65 80 67 81 69 82 66 83 50 84 51 85 56 86 52 87
REMARK SMILES IDX 53 88 55 89 57 90 54 91
REMARK H PARENT 17 7 9 13 24 34 74 53 48 64
REMARK Flexibility Score: inf
ROOT
ATOM      1  C   UNL     1      -5.757  -3.543   3.508  1.00  0.00     0.002 C 
ENDROOT
BRANCH   1   2
ATOM      2  C   UNL     1      -5.201  -2.170   3.116  1.00  0.00     0.021 C 
BRANCH   2   3
ATOM      3  C   UNL     1      -4.521  -2.142   1.560  1.00  0.00     0.116 C 
BRANCH   3   4
ATOM      4  N   UNL     1      -5.224  -1.391  -0.260  1.00  0.00    -0.355 N 
ATOM      5  C   UNL     1      -5.188  -0.528  -1.391  1.00  0.00     0.230 C 
ATOM      6  O   UNL     1      -6.141  -0.825  -2.136  1.00  0.00    -0.274 OA
ATOM      7  H   UNL     1      -6.025  -1.938  -0.428  1.00  0.00     0.163 HD
BRANCH   5   8
ATOM      8  C   UNL     1      -4.223   0.711  -1.773  1.00  0.00     0.080 C 
ATOM      9  C   UNL     1      -4.550   1.890  -0.780  1.00  0.00     0.027 C 
BRANCH   8  10
ATOM     10  C   UNL     1      -2.685   0.403  -1.840  1.00  0.00     0.121 C 
BRANCH  10  11
ATOM     11  C   UNL     1      -2.208  -1.008  -2.123  1.00  0.00     0.225 C 
ATOM     12  N   UNL     1      -2.330  -1.988  -1.183  1.00  0.00    -0.326 N 
ATOM     13  H   UNL     1      -1.706  -2.749  -1.214  1.00  0.00     0.169 HD
ATOM     14  O   UNL     1      -1.654  -1.293  -3.187  1.00  0.00    -0.275 OA
BRANCH  12  15
ATOM     15  C   UNL     1      -3.296  -1.963  -0.181  1.00  0.00     0.045 A 
ATOM     16  C   UNL     1      -4.021  -4.700  -0.701  1.00  0.00     0.048 C 
ATOM     17  C   UNL     1      -4.484  -3.330  -0.289  1.00  0.00    -0.009 A 
ATOM     18  C   UNL     1      -6.104  -3.154   0.472  1.00  0.00     0.046 A 
ATOM     19  Cl  UNL     1      -7.257  -4.430   0.368  1.00  0.00    -0.084 Cl
ATOM     20  C   UNL     1      -6.599  -1.594   1.229  1.00  0.00     0.021 A 
ATOM     21  C   UNL     1      -3.728  -0.412   0.694  1.00  0.00     0.026 A 
ATOM     22  C   UNL     1      -5.402  -0.237   1.392  1.00  0.00     0.004 A 
ENDBRANCH  12  15
ENDBRANCH  10  11
ENDBRANCH   8  10
BRANCH   8  23
ATOM     23  C   UNL     1      -4.527   1.402  -3.165  1.00  0.00    -0.032 A 
ATOM     24  C   UNL     1      -4.051   2.727  -3.374  1.00  0.00     0.005 A 
ATOM     25  C   UNL     1      -5.258   0.828  -4.208  1.00  0.00     0.005 A 
ATOM     26  C   UNL     1      -4.417   3.485  -4.482  1.00  0.00     0.000 A 
ATOM     27  C   UNL     1      -5.618   1.587  -5.330  1.00  0.00     0.000 A 
ATOM     28  C   UNL     1      -5.223   2.918  -5.454  1.00  0.00     0.000 A 
ENDBRANCH   8  23
ENDBRANCH   5   8
ENDBRANCH   3   4
ENDBRANCH   2   3
ENDBRANCH   1   2
BRANCH   1  29
ATOM     29  C   UNL     1      -4.754  -4.695   3.322  1.00  0.00     0.002 C 
BRANCH  29  30
ATOM     30  C   UNL     1      -3.486  -4.500   4.154  1.00  0.00     0.021 C 
BRANCH  30  31
ATOM     31  C   UNL     1      -3.832  -4.267   5.613  1.00  0.00     0.116 C 
BRANCH  31  32
ATOM     32  N   UNL     1      -4.878  -5.200   6.045  1.00  0.00    -0.352 N 
ATOM     33  C   UNL     1      -4.967  -5.887   7.214  1.00  0.00     0.251 C 
ATOM     34  H   UNL     1      -5.612  -5.348   5.405  1.00  0.00     0.163 HD
ATOM     35  O   UNL     1      -5.740  -6.817   7.378  1.00  0.00    -0.269 OA
BRANCH  33  36
ATOM     36  C   UNL     1      -4.083  -5.410   8.265  1.00  0.00     0.039 A 
ATOM     37  C   UNL     1      -3.126  -6.272   8.783  1.00  0.00     0.014 A 
ATOM     38  C   UNL     1      -4.102  -4.037   8.535  1.00  0.00     0.014 A 
ATOM     39  C   UNL     1      -2.162  -5.734   9.615  1.00  0.00     0.010 A 
ATOM     40  C   UNL     1      -3.055  -3.490   9.236  1.00  0.00     0.010 A 
ATOM     41  C   UNL     1      -2.120  -4.344   9.831  1.00  0.00    -0.014 A 
BRANCH  41  42
ATOM     42  C   UNL     1      -1.153  -3.770  10.775  1.00  0.00     0.031 A 
ATOM     43  C   UNL     1      -1.673  -3.086  12.005  1.00  0.00     0.074 A 
ATOM     44  C   UNL     1       0.159  -3.871  10.511  1.00  0.00     0.049 A 
ATOM     45  N   UNL     1      -1.005  -2.531  12.979  1.00  0.00    -0.248 NA
ATOM     46  C   UNL     1      -3.138  -2.973  12.143  1.00  0.00     0.031 C 
ATOM     47  C   UNL     1       0.741  -4.475   9.309  1.00  0.00     0.029 A 
ATOM     48  N   UNL     1       1.240  -3.487  11.252  1.00  0.00    -0.354 N 
ATOM     49  C   UNL     1      -1.966  -2.005  13.831  1.00  0.00     0.074 A 
ATOM     50  C   UNL     1      -3.253  -2.209  13.215  1.00  0.00     0.031 C 
ATOM     51  C   UNL     1       2.078  -4.476   9.426  1.00  0.00     0.029 A 
ATOM     52  C   UNL     1       2.440  -3.833  10.684  1.00  0.00     0.049 A 
ATOM     53  H   UNL     1       1.166  -3.008  12.109  1.00  0.00     0.167 HD
ATOM     54  C   UNL     1      -1.790  -1.444  15.046  1.00  0.00     0.037 A 
ATOM     55  C   UNL     1       3.688  -3.652  11.146  1.00  0.00     0.037 A 
ATOM     56  C   UNL     1      -0.498  -1.271  15.647  1.00  0.00     0.049 A 
ATOM     57  C   UNL     1       3.860  -3.000  12.490  1.00  0.00     0.074 A 
ATOM     58  C   UNL     1      -0.187  -0.749  16.887  1.00  0.00     0.029 A 
ATOM     59  N   UNL     1       0.701  -1.617  15.038  1.00  0.00    -0.354 N 
ATOM     60  N   UNL     1       2.944  -2.564  13.324  1.00  0.00    -0.248 NA
ATOM     61  C   UNL     1       5.237  -2.823  12.961  1.00  0.00     0.031 C 
ATOM     62  C   UNL     1       1.206  -0.716  17.001  1.00  0.00     0.029 A 
ATOM     63  C   UNL     1       1.759  -1.291  15.866  1.00  0.00     0.049 A 
ATOM     64  H   UNL     1       0.785  -2.033  14.150  1.00  0.00     0.167 HD
ATOM     65  C   UNL     1       3.632  -2.093  14.434  1.00  0.00     0.074 A 
ATOM     66  C   UNL     1       5.040  -2.315  14.169  1.00  0.00     0.031 C 
ATOM     67  C   UNL     1       3.150  -1.530  15.570  1.00  0.00     0.037 A 
BRANCH  54  68
ATOM     68  C   UNL     1      -3.017  -0.981  15.775  1.00  0.00     0.057 A 
ATOM     69  C   UNL     1      -3.996  -1.876  16.235  1.00  0.00     0.134 A 
ATOM     70  C   UNL     1      -3.232   0.382  16.011  1.00  0.00     0.134 A 
ATOM     71  F   UNL     1      -3.868  -3.194  16.020  1.00  0.00    -0.206 F 
ATOM     72  C   UNL     1      -5.157  -1.429  16.867  1.00  0.00     0.040 A 
ATOM     73  C   UNL     1      -4.370   0.838  16.677  1.00  0.00     0.040 A 
ATOM     74  F   UNL     1      -2.341   1.294  15.594  1.00  0.00    -0.206 F 
ATOM     75  C   UNL     1      -5.342  -0.068  17.098  1.00  0.00     0.006 A 
ENDBRANCH  54  68
BRANCH  55  76
ATOM     76  C   UNL     1       4.852  -4.119  10.353  1.00  0.00     0.057 A 
ATOM     77  C   UNL     1       5.663  -5.167  10.803  1.00  0.00     0.134 A 
ATOM     78  C   UNL     1       5.182  -3.530   9.127  1.00  0.00     0.134 A 
ATOM     79  F   UNL     1       5.402  -5.769  11.973  1.00  0.00    -0.206 F 
ATOM     80  C   UNL     1       6.778  -5.592  10.079  1.00  0.00     0.040 A 
ATOM     81  C   UNL     1       6.275  -3.965   8.377  1.00  0.00     0.040 A 
ATOM     82  F   UNL     1       4.434  -2.534   8.630  1.00  0.00    -0.206 F 
ATOM     83  C   UNL     1       7.084  -4.992   8.859  1.00  0.00     0.006 A 
ENDBRANCH  55  76
BRANCH  67  84
ATOM     84  C   UNL     1       4.152  -1.163  16.626  1.00  0.00     0.057 A 
ATOM     85  C   UNL     1       5.068  -0.117  16.453  1.00  0.00     0.134 A 
ATOM     86  C   UNL     1       4.173  -1.848  17.848  1.00  0.00     0.134 A 
ATOM     87  F   UNL     1       5.105   0.573  15.303  1.00  0.00    -0.206 F 
ATOM     88  C   UNL     1       5.995   0.207  17.444  1.00  0.00     0.040 A 
ATOM     89  C   UNL     1       5.068  -1.506  18.860  1.00  0.00     0.040 A 
ATOM     90  F   UNL     1       3.312  -2.849  18.084  1.00  0.00    -0.206 F 
ATOM     91  C   UNL     1       5.991  -0.484  18.654  1.00  0.00     0.006 A 
ENDBRANCH  67  84
ENDBRANCH  41  42
ENDBRANCH  33  36
ENDBRANCH  31  32
ENDBRANCH  30  31
ENDBRANCH  29  30
ENDBRANCH   1  29
TORSDOF 17
