REMARK SMILES O=C(CCC(=O)Nc1ncc([N+](=O)[O-])s1)NCCCCCCNC(=O)c1ccc(-c2c3nc(c(-c4c(F)cccc4F)c4ccc([nH]4)c(-c4c(F)cccc4F)c4nc(c(-c5c(F)cccc5F)c5ccc2[nH]5)C=C4)C=C3)cc1
REMARK SMILES IDX 18 1 17 2 16 3 1 4 2 5 3 7 4 8 5 9 6 10 7 11 8 13 9 14 15 15
REMARK SMILES IDX 10 16 11 17 12 18 13 19 14 20 19 21 20 22 21 23 22 24 23 25
REMARK SMILES IDX 24 26 25 28 26 29 27 30 79 31 28 32 78 33 29 34 30 35 31 36
REMARK SMILES IDX 72 37 32 38 77 39 71 40 73 41 33 42 76 43 70 44 69 45 34 47
REMARK SMILES IDX 60 48 43 49 59 50 44 51 47 52 58 53 74 54 45 55 46 56 57 58
REMARK SMILES IDX 75 59 48 60 35 61 36 62 41 63 37 64 38 65 40 66 42 67 39 68
REMARK SMILES IDX 61 69 62 70 67 71 63 72 64 73 66 74 68 75 65 76 49 77 50 78
REMARK SMILES IDX 55 79 51 80 52 81 54 82 56 83 53 84
REMARK H PARENT 16 6 7 12 23 27 73 46 47 57
REMARK Flexibility Score: inf
ROOT
ATOM      1  C   UNL     1       3.077   1.215   3.667  1.00  0.00     0.021 C 
ENDROOT
BRANCH   1   2
ATOM      2  C   UNL     1       2.377   1.054   2.322  1.00  0.00     0.116 C 
BRANCH   2   3
ATOM      3  N   UNL     1       3.116   0.220   1.398  1.00  0.00    -0.356 N 
ATOM      4  O   UNL     1       1.287  -0.832   0.489  1.00  0.00    -0.275 OA
ATOM      5  C   UNL     1       2.494  -0.617   0.498  1.00  0.00     0.220 C 
ATOM      6  H   UNL     1       4.100   0.253   1.413  1.00  0.00     0.163 HD
BRANCH   5   7
ATOM      7  C   UNL     1       3.444  -1.246  -0.502  1.00  0.00     0.110 C 
BRANCH   7   8
ATOM      8  C   UNL     1       3.820  -0.327  -1.661  1.00  0.00     0.110 C 
BRANCH   8   9
ATOM      9  C   UNL     1       4.543   0.932  -1.220  1.00  0.00     0.226 C 
ATOM     10  O   UNL     1       5.727   0.865  -0.867  1.00  0.00    -0.275 OA
ATOM     11  N   UNL     1       3.928   2.142  -1.128  1.00  0.00    -0.302 N 
ATOM     12  H   UNL     1       4.509   2.931  -1.030  1.00  0.00     0.172 HD
BRANCH  11  13
ATOM     13  C   UNL     1       2.584   2.365  -1.159  1.00  0.00     0.195 A 
ATOM     14  N   UNL     1       1.624   1.523  -1.432  1.00  0.00    -0.221 NA
ATOM     15  S   UNL     1       2.104   3.909  -0.603  1.00  0.00    -0.024 S 
ATOM     16  C   UNL     1       0.419   2.046  -0.996  1.00  0.00     0.212 A 
ATOM     17  C   UNL     1       0.509   3.318  -0.486  1.00  0.00     0.345 A 
BRANCH  17  18
ATOM     18  N   UNL     1      -0.531   4.074   0.130  1.00  0.00     0.076 N 
ATOM     19  O   UNL     1      -0.309   5.263   0.390  1.00  0.00    -0.257 OA
ATOM     20  O   UNL     1      -1.580   3.466   0.376  1.00  0.00    -0.257 OA
ENDBRANCH  17  18
ENDBRANCH  11  13
ENDBRANCH   8   9
ENDBRANCH   7   8
ENDBRANCH   5   7
ENDBRANCH   2   3
ENDBRANCH   1   2
BRANCH   1  21
ATOM     21  C   UNL     1       4.513   1.749   3.599  1.00  0.00     0.002 C 
BRANCH  21  22
ATOM     22  C   UNL     1       4.690   3.114   2.928  1.00  0.00     0.002 C 
BRANCH  22  23
ATOM     23  C   UNL     1       3.937   4.278   3.576  1.00  0.00     0.021 C 
BRANCH  23  24
ATOM     24  C   UNL     1       4.133   4.436   5.082  1.00  0.00     0.116 C 
BRANCH  24  25
ATOM     25  N   UNL     1       5.527   4.568   5.471  1.00  0.00    -0.352 N 
ATOM     26  C   UNL     1       6.103   5.383   6.412  1.00  0.00     0.251 C 
ATOM     27  H   UNL     1       6.153   3.984   4.985  1.00  0.00     0.163 HD
ATOM     28  O   UNL     1       7.327   5.414   6.524  1.00  0.00    -0.269 OA
BRANCH  26  29
ATOM     29  C   UNL     1       5.269   6.257   7.267  1.00  0.00     0.039 A 
ATOM     30  C   UNL     1       5.696   7.569   7.492  1.00  0.00     0.014 A 
ATOM     31  C   UNL     1       4.084   5.801   7.852  1.00  0.00     0.014 A 
ATOM     32  C   UNL     1       4.904   8.439   8.243  1.00  0.00     0.010 A 
ATOM     33  C   UNL     1       3.259   6.690   8.540  1.00  0.00     0.010 A 
ATOM     34  C   UNL     1       3.659   8.019   8.740  1.00  0.00    -0.014 A 
BRANCH  34  35
ATOM     35  C   UNL     1       2.762   8.978   9.436  1.00  0.00     0.031 A 
ATOM     36  C   UNL     1       2.408   8.796  10.885  1.00  0.00     0.074 A 
ATOM     37  C   UNL     1       2.231  10.003   8.740  1.00  0.00     0.049 A 
ATOM     38  N   UNL     1       1.664   9.550  11.655  1.00  0.00    -0.248 NA
ATOM     39  C   UNL     1       2.939   7.598  11.553  1.00  0.00     0.031 C 
ATOM     40  C   UNL     1       2.446  10.256   7.314  1.00  0.00     0.029 A 
ATOM     41  N   UNL     1       1.407  11.025   9.138  1.00  0.00    -0.354 N 
ATOM     42  C   UNL     1       1.628   8.915  12.889  1.00  0.00     0.074 A 
ATOM     43  C   UNL     1       2.382   7.687  12.752  1.00  0.00     0.031 C 
ATOM     44  C   UNL     1       1.808  11.385   6.967  1.00  0.00     0.029 A 
ATOM     45  C   UNL     1       1.113  11.916   8.134  1.00  0.00     0.049 A 
ATOM     46  H   UNL     1       1.059  11.111  10.055  1.00  0.00     0.167 HD
ATOM     47  C   UNL     1       1.040   9.327  14.039  1.00  0.00     0.037 A 
ATOM     48  C   UNL     1       0.373  13.040   8.154  1.00  0.00     0.037 A 
ATOM     49  C   UNL     1       0.303  10.558  14.177  1.00  0.00     0.049 A 
ATOM     50  C   UNL     1      -0.267  13.476   9.441  1.00  0.00     0.074 A 
ATOM     51  C   UNL     1      -0.262  11.102  15.317  1.00  0.00     0.029 A 
ATOM     52  N   UNL     1       0.019  11.431  13.137  1.00  0.00    -0.354 N 
ATOM     53  N   UNL     1      -0.213  12.915  10.624  1.00  0.00    -0.248 NA
ATOM     54  C   UNL     1      -1.067  14.708   9.394  1.00  0.00     0.031 C 
ATOM     55  C   UNL     1      -0.934  12.276  14.957  1.00  0.00     0.029 A 
ATOM     56  C   UNL     1      -0.742  12.492  13.602  1.00  0.00     0.049 A 
ATOM     57  H   UNL     1       0.315  11.314  12.205  1.00  0.00     0.167 HD
ATOM     58  C   UNL     1      -0.952  13.736  11.467  1.00  0.00     0.074 A 
ATOM     59  C   UNL     1      -1.422  14.845  10.663  1.00  0.00     0.031 C 
ATOM     60  C   UNL     1      -1.217  13.584  12.789  1.00  0.00     0.037 A 
BRANCH  47  61
ATOM     61  C   UNL     1       1.165   8.431  15.239  1.00  0.00     0.057 A 
ATOM     62  C   UNL     1       2.388   8.234  15.895  1.00  0.00     0.134 A 
ATOM     63  C   UNL     1       0.042   7.774  15.759  1.00  0.00     0.134 A 
ATOM     64  F   UNL     1       3.504   8.825  15.444  1.00  0.00    -0.206 F 
ATOM     65  C   UNL     1       2.496   7.391  17.003  1.00  0.00     0.040 A 
ATOM     66  C   UNL     1       0.133   6.951  16.884  1.00  0.00     0.040 A 
ATOM     67  F   UNL     1      -1.162   7.923  15.187  1.00  0.00    -0.206 F 
ATOM     68  C   UNL     1       1.365   6.751  17.503  1.00  0.00     0.006 A 
ENDBRANCH  47  61
BRANCH  48  69
ATOM     69  C   UNL     1       0.235  13.858   6.922  1.00  0.00     0.057 A 
ATOM     70  C   UNL     1       0.852  15.110   6.819  1.00  0.00     0.134 A 
ATOM     71  C   UNL     1      -0.511  13.413   5.825  1.00  0.00     0.134 A 
ATOM     72  F   UNL     1       1.565  15.598   7.844  1.00  0.00    -0.206 F 
ATOM     73  C   UNL     1       0.719  15.899   5.675  1.00  0.00     0.040 A 
ATOM     74  C   UNL     1      -0.632  14.180   4.665  1.00  0.00     0.040 A 
ATOM     75  F   UNL     1      -1.120  12.219   5.860  1.00  0.00    -0.206 F 
ATOM     76  C   UNL     1      -0.021  15.430   4.591  1.00  0.00     0.006 A 
ENDBRANCH  48  69
BRANCH  60  77
ATOM     77  C   UNL     1      -2.040  14.655  13.444  1.00  0.00     0.057 A 
ATOM     78  C   UNL     1      -3.404  14.816  13.164  1.00  0.00     0.134 A 
ATOM     79  C   UNL     1      -1.464  15.536  14.368  1.00  0.00     0.134 A 
ATOM     80  F   UNL     1      -4.015  14.015  12.278  1.00  0.00    -0.206 F 
ATOM     81  C   UNL     1      -4.155  15.835  13.752  1.00  0.00     0.040 A 
ATOM     82  C   UNL     1      -2.212  16.540  14.985  1.00  0.00     0.040 A 
ATOM     83  F   UNL     1      -0.165  15.434  14.688  1.00  0.00    -0.206 F 
ATOM     84  C   UNL     1      -3.559  16.698  14.669  1.00  0.00     0.006 A 
ENDBRANCH  60  77
ENDBRANCH  34  35
ENDBRANCH  26  29
ENDBRANCH  24  25
ENDBRANCH  23  24
ENDBRANCH  22  23
ENDBRANCH  21  22
ENDBRANCH   1  21
TORSDOF 17
