REMARK SMILES CCC[N@H+](CC(=O)NCCCCCCNC(=O)c1ccc(-c2c3nc(c(-c4c(F)cccc4F)c4ccc([nH]4)c(-c4c(F)cccc4F)c4nc(c(-c5c(F)cccc5F)c5ccc2[nH]5)C=C4)C=C3)cc1)[C@H]1CCOC2(CCCCC2)C1
REMARK SMILES IDX 11 1 10 2 9 3 8 4 6 5 7 6 5 8 4 9 3 11 2 12 1 13 72 14 73 15
REMARK SMILES IDX 82 16 74 17 76 18 75 19 77 20 81 21 78 22 80 23 79 24 12 25
REMARK SMILES IDX 13 26 14 27 15 28 16 29 17 31 18 32 19 33 71 34 20 35 70 36
REMARK SMILES IDX 21 37 22 38 23 39 64 40 24 41 69 42 63 43 65 44 25 45 68 46
REMARK SMILES IDX 62 47 61 48 26 50 52 51 35 52 51 53 36 54 39 55 50 56 66 57
REMARK SMILES IDX 37 58 38 59 49 61 67 62 40 63 27 64 28 65 33 66 29 67 30 68
REMARK SMILES IDX 32 69 34 70 31 71 53 72 54 73 59 74 55 75 56 76 58 77 60 78
REMARK SMILES IDX 57 79 41 80 42 81 47 82 43 83 44 84 46 85 48 86 45 87
REMARK H PARENT 8 7 4 10 15 30 65 49 39 60
REMARK Flexibility Score: inf
ROOT
ATOM      1  C   UNL     1       2.895  -3.771   1.927  1.00  0.00     0.002 C 
ENDROOT
BRANCH   1   2
ATOM      2  C   UNL     1       2.692  -2.489   1.122  1.00  0.00     0.021 C 
BRANCH   2   3
ATOM      3  C   UNL     1       2.643  -2.707  -0.393  1.00  0.00     0.116 C 
BRANCH   3   4
ATOM      4  N   UNL     1       1.283  -2.967  -0.824  1.00  0.00    -0.351 N 
ATOM      5  C   UNL     1       0.407  -2.155  -1.494  1.00  0.00     0.275 C 
ATOM      6  O   UNL     1      -0.763  -2.533  -1.593  1.00  0.00    -0.269 OA
ATOM      7  H   UNL     1       0.937  -3.861  -0.601  1.00  0.00     0.163 HD
BRANCH   5   8
ATOM      8  C   UNL     1       0.898  -0.849  -2.141  1.00  0.00     0.363 C 
BRANCH   8   9
ATOM      9  N   UNL     1       0.592   0.378  -1.349  1.00  0.00    -0.325 N 
ATOM     10  H   UNL     1      -0.418   0.409  -1.211  1.00  0.00     0.348 HD
BRANCH   9  11
ATOM     11  C   UNL     1       1.208   0.313  -0.013  1.00  0.00     0.262 C 
BRANCH  11  12
ATOM     12  C   UNL     1       1.017   1.480   0.968  1.00  0.00     0.058 C 
ATOM     13  C   UNL     1      -0.372   1.514   1.582  1.00  0.00     0.010 C 
ENDBRANCH  11  12
ENDBRANCH   9  11
BRANCH   9  14
ATOM     14  C   UNL     1       0.926   1.628  -2.082  1.00  0.00     0.189 C 
ATOM     15  C   UNL     1       2.428   1.876  -2.309  1.00  0.00     0.093 C 
ATOM     16  C   UNL     1       0.197   1.768  -3.433  1.00  0.00     0.100 C 
ATOM     17  C   UNL     1       2.649   3.209  -3.009  1.00  0.00     0.167 C 
ATOM     18  C   UNL     1       0.492   3.126  -4.105  1.00  0.00     0.074 C 
ATOM     19  O   UNL     1       1.915   3.298  -4.224  1.00  0.00    -0.375 OA
ATOM     20  C   UNL     1      -0.164   4.302  -3.345  1.00  0.00     0.036 C 
ATOM     21  C   UNL     1      -0.058   3.098  -5.550  1.00  0.00     0.036 C 
ATOM     22  C   UNL     1       0.032   5.638  -4.061  1.00  0.00     0.003 C 
ATOM     23  C   UNL     1       0.123   4.434  -6.272  1.00  0.00     0.003 C 
ATOM     24  C   UNL     1      -0.495   5.586  -5.489  1.00  0.00     0.000 C 
ENDBRANCH   9  14
ENDBRANCH   8   9
ENDBRANCH   5   8
ENDBRANCH   3   4
ENDBRANCH   2   3
ENDBRANCH   1   2
BRANCH   1  25
ATOM     25  C   UNL     1       4.300  -4.367   1.829  1.00  0.00     0.002 C 
BRANCH  25  26
ATOM     26  C   UNL     1       5.444  -3.406   2.170  1.00  0.00     0.021 C 
BRANCH  26  27
ATOM     27  C   UNL     1       5.301  -2.676   3.503  1.00  0.00     0.116 C 
BRANCH  27  28
ATOM     28  N   UNL     1       5.238  -3.598   4.624  1.00  0.00    -0.352 N 
ATOM     29  C   UNL     1       6.095  -3.737   5.686  1.00  0.00     0.251 C 
ATOM     30  H   UNL     1       4.468  -4.212   4.621  1.00  0.00     0.163 HD
ATOM     31  O   UNL     1       6.011  -4.710   6.427  1.00  0.00    -0.269 OA
BRANCH  29  32
ATOM     32  C   UNL     1       7.130  -2.713   5.929  1.00  0.00     0.039 A 
ATOM     33  C   UNL     1       8.440  -3.125   6.187  1.00  0.00     0.014 A 
ATOM     34  C   UNL     1       6.803  -1.353   5.927  1.00  0.00     0.014 A 
ATOM     35  C   UNL     1       9.435  -2.169   6.395  1.00  0.00     0.010 A 
ATOM     36  C   UNL     1       7.807  -0.401   6.075  1.00  0.00     0.010 A 
ATOM     37  C   UNL     1       9.130  -0.800   6.318  1.00  0.00    -0.014 A 
BRANCH  37  38
ATOM     38  C   UNL     1      10.183   0.229   6.500  1.00  0.00     0.031 A 
ATOM     39  C   UNL     1      10.141   1.149   7.688  1.00  0.00     0.074 A 
ATOM     40  C   UNL     1      11.139   0.377   5.564  1.00  0.00     0.049 A 
ATOM     41  N   UNL     1      10.927   2.151   7.985  1.00  0.00    -0.248 NA
ATOM     42  C   UNL     1       9.054   0.930   8.655  1.00  0.00     0.031 C 
ATOM     43  C   UNL     1      11.257  -0.421   4.342  1.00  0.00     0.029 A 
ATOM     44  N   UNL     1      12.187   1.259   5.488  1.00  0.00    -0.354 N 
ATOM     45  C   UNL     1      10.421   2.693   9.159  1.00  0.00     0.074 A 
ATOM     46  C   UNL     1       9.235   1.936   9.498  1.00  0.00     0.031 C 
ATOM     47  C   UNL     1      12.326  -0.002   3.646  1.00  0.00     0.029 A 
ATOM     48  C   UNL     1      12.951   1.110   4.356  1.00  0.00     0.049 A 
ATOM     49  H   UNL     1      12.374   1.934   6.180  1.00  0.00     0.167 HD
ATOM     50  C   UNL     1      10.912   3.716   9.899  1.00  0.00     0.037 A 
ATOM     51  C   UNL     1      14.030   1.796   3.937  1.00  0.00     0.037 A 
ATOM     52  C   UNL     1      12.111   4.444   9.579  1.00  0.00     0.049 A 
ATOM     53  C   UNL     1      14.570   2.910   4.789  1.00  0.00     0.074 A 
ATOM     54  C   UNL     1      12.727   5.450  10.302  1.00  0.00     0.029 A 
ATOM     55  N   UNL     1      12.877   4.240   8.441  1.00  0.00    -0.354 N 
ATOM     56  N   UNL     1      14.118   3.370   5.930  1.00  0.00    -0.248 NA
ATOM     57  C   UNL     1      15.775   3.595   4.299  1.00  0.00     0.031 C 
ATOM     58  C   UNL     1      13.849   5.879   9.584  1.00  0.00     0.029 A 
ATOM     59  C   UNL     1      13.952   5.113   8.434  1.00  0.00     0.049 A 
ATOM     60  H   UNL     1      12.685   3.574   7.742  1.00  0.00     0.167 HD
ATOM     61  C   UNL     1      14.993   4.380   6.306  1.00  0.00     0.074 A 
ATOM     62  C   UNL     1      16.011   4.457   5.278  1.00  0.00     0.031 C 
ATOM     63  C   UNL     1      14.957   5.173   7.405  1.00  0.00     0.037 A 
BRANCH  50  64
ATOM     64  C   UNL     1      10.152   4.105  11.132  1.00  0.00     0.057 A 
ATOM     65  C   UNL     1      10.142   3.298  12.277  1.00  0.00     0.134 A 
ATOM     66  C   UNL     1       9.451   5.316  11.189  1.00  0.00     0.134 A 
ATOM     67  F   UNL     1      10.783   2.119  12.284  1.00  0.00    -0.206 F 
ATOM     68  C   UNL     1       9.444   3.671  13.427  1.00  0.00     0.040 A 
ATOM     69  C   UNL     1       8.770   5.712  12.341  1.00  0.00     0.040 A 
ATOM     70  F   UNL     1       9.424   6.138  10.129  1.00  0.00    -0.206 F 
ATOM     71  C   UNL     1       8.760   4.885  13.463  1.00  0.00     0.006 A 
ENDBRANCH  50  64
BRANCH  51  72
ATOM     72  C   UNL     1      14.688   1.429   2.659  1.00  0.00     0.057 A 
ATOM     73  C   UNL     1      15.930   0.785   2.647  1.00  0.00     0.134 A 
ATOM     74  C   UNL     1      14.091   1.707   1.424  1.00  0.00     0.134 A 
ATOM     75  F   UNL     1      16.557   0.508   3.800  1.00  0.00    -0.206 F 
ATOM     76  C   UNL     1      16.563   0.442   1.452  1.00  0.00     0.040 A 
ATOM     77  C   UNL     1      14.703   1.350   0.222  1.00  0.00     0.040 A 
ATOM     78  F   UNL     1      12.897   2.315   1.370  1.00  0.00    -0.206 F 
ATOM     79  C   UNL     1      15.946   0.721   0.234  1.00  0.00     0.006 A 
ENDBRANCH  51  72
BRANCH  63  80
ATOM     80  C   UNL     1      16.063   6.173   7.564  1.00  0.00     0.057 A 
ATOM     81  C   UNL     1      16.120   7.337   6.788  1.00  0.00     0.134 A 
ATOM     82  C   UNL     1      17.057   5.989   8.533  1.00  0.00     0.134 A 
ATOM     83  F   UNL     1      15.204   7.565   5.835  1.00  0.00    -0.206 F 
ATOM     84  C   UNL     1      17.140   8.275   6.957  1.00  0.00     0.040 A 
ATOM     85  C   UNL     1      18.068   6.930   8.727  1.00  0.00     0.040 A 
ATOM     86  F   UNL     1      17.053   4.898   9.313  1.00  0.00    -0.206 F 
ATOM     87  C   UNL     1      18.114   8.075   7.934  1.00  0.00     0.006 A 
ENDBRANCH  63  80
ENDBRANCH  37  38
ENDBRANCH  29  32
ENDBRANCH  27  28
ENDBRANCH  26  27
ENDBRANCH  25  26
ENDBRANCH   1  25
TORSDOF 17
