REMARK SMILES COc1cccc([C@@H]2CC(c3cccc(C)c3)=NN2C(=O)CCC(=O)NCCCCCCNC(=O)c2ccc(-c3c4nc(c(-c5c(F)cccc5F)c5ccc([nH]5)c(-c5c(F)cccc5F)c5nc(c(-c6c(F)cccc6F)c6ccc3[nH]6)C=C5)C=C4)cc2)c1
REMARK SMILES IDX 28 1 27 2 26 3 24 4 25 5 23 7 22 8 20 9 21 10 19 11 8 12
REMARK SMILES IDX 9 13 10 14 18 15 7 16 3 17 4 18 90 19 5 20 6 21 2 22 1 23
REMARK SMILES IDX 11 24 12 25 17 26 13 27 15 28 14 29 16 30 29 31 30 32 31 33
REMARK SMILES IDX 32 34 33 35 34 36 35 38 36 39 37 40 89 41 38 42 88 43 39 44
REMARK SMILES IDX 40 45 41 46 82 47 42 48 87 49 81 50 83 51 43 52 86 53 80 54
REMARK SMILES IDX 79 55 44 57 70 58 53 59 69 60 54 61 57 62 68 63 84 64 55 65
REMARK SMILES IDX 56 66 67 68 85 69 58 70 45 71 46 72 51 73 47 74 48 75 50 76
REMARK SMILES IDX 52 77 49 78 71 79 72 80 77 81 73 82 74 83 76 84 78 85 75 86
REMARK SMILES IDX 59 87 60 88 65 89 61 90 62 91 64 92 66 93 63 94
REMARK H PARENT 26 6 33 37 83 56 57 67
REMARK Flexibility Score: inf
ROOT
ATOM      1  C   UNL     1       5.369   0.197  -3.807  1.00  0.00     0.021 C 
ENDROOT
BRANCH   1   2
ATOM      2  C   UNL     1       3.224   0.146  -3.165  1.00  0.00     0.116 C 
BRANCH   2   3
ATOM      3  N   UNL     1       1.831  -0.096  -3.811  1.00  0.00    -0.356 N 
ATOM      4  C   UNL     1       1.136  -1.206  -4.215  1.00  0.00     0.220 C 
ATOM      5  O   UNL     1      -0.043  -0.999  -4.528  1.00  0.00    -0.275 OA
ATOM      6  H   UNL     1       1.334   0.740  -3.964  1.00  0.00     0.163 HD
BRANCH   4   7
ATOM      7  C   UNL     1       1.684  -2.637  -4.292  1.00  0.00     0.110 C 
BRANCH   7   8
ATOM      8  C   UNL     1       3.044  -2.923  -4.919  1.00  0.00     0.112 C 
BRANCH   8   9
ATOM      9  C   UNL     1       4.066  -2.633  -3.855  1.00  0.00     0.243 C 
ATOM     10  O   UNL     1       4.524  -3.481  -3.104  1.00  0.00    -0.273 OA
BRANCH   9  11
ATOM     11  N   UNL     1       4.271  -1.279  -3.797  1.00  0.00    -0.225 N 
ATOM     12  C   UNL     1       3.857   0.093  -5.115  1.00  0.00     0.147 C 
ATOM     13  C   UNL     1       4.015   1.770  -4.126  1.00  0.00     0.091 C 
ATOM     14  C   UNL     1       4.694   1.246  -2.349  1.00  0.00     0.071 C 
ATOM     15  N   UNL     1       4.683  -0.364  -2.151  1.00  0.00    -0.174 NA
BRANCH  12  16
ATOM     16  C   UNL     1       4.157   0.229  -6.607  1.00  0.00    -0.019 A 
ATOM     17  C   UNL     1       2.981   0.835  -8.714  1.00  0.00     0.119 A 
ATOM     18  C   UNL     1       4.211   1.050  -9.310  1.00  0.00     0.046 A 
ATOM     19  C   UNL     1       2.975   0.395  -7.402  1.00  0.00     0.052 A 
ATOM     20  C   UNL     1       5.395   0.877  -8.570  1.00  0.00     0.004 A 
ATOM     21  C   UNL     1       5.375   0.487  -7.217  1.00  0.00     0.006 A 
BRANCH  17  22
ATOM     22  O   UNL     1       1.851   1.065  -9.448  1.00  0.00    -0.497 OA
ATOM     23  C   UNL     1       0.686   1.447  -8.705  1.00  0.00     0.278 C 
ENDBRANCH  17  22
ENDBRANCH  12  16
BRANCH  14  24
ATOM     24  C   UNL     1       5.461   2.316  -1.645  1.00  0.00    -0.002 A 
ATOM     25  C   UNL     1       6.563   2.876  -2.337  1.00  0.00     0.010 A 
ATOM     26  C   UNL     1       5.253   2.644  -0.314  1.00  0.00     0.013 A 
ATOM     27  C   UNL     1       7.462   3.726  -1.706  1.00  0.00     0.001 A 
ATOM     28  C   UNL     1       6.160   3.512   0.325  1.00  0.00    -0.050 A 
ATOM     29  C   UNL     1       7.252   4.050  -0.377  1.00  0.00     0.003 A 
ATOM     30  C   UNL     1       6.077   3.752   1.802  1.00  0.00     0.044 C 
ENDBRANCH  14  24
ENDBRANCH   9  11
ENDBRANCH   8   9
ENDBRANCH   7   8
ENDBRANCH   4   7
ENDBRANCH   2   3
ENDBRANCH   1   2
BRANCH   1  31
ATOM     31  C   UNL     1       6.808  -0.417  -2.737  1.00  0.00     0.002 C 
BRANCH  31  32
ATOM     32  C   UNL     1       6.757  -0.462  -1.123  1.00  0.00     0.002 C 
BRANCH  32  33
ATOM     33  C   UNL     1       7.811  -1.116  -0.277  1.00  0.00     0.021 C 
BRANCH  33  34
ATOM     34  C   UNL     1       9.115  -0.384  -0.277  1.00  0.00     0.116 C 
BRANCH  34  35
ATOM     35  N   UNL     1       9.058   1.056  -0.000  1.00  0.00    -0.352 N 
ATOM     36  C   UNL     1      10.089   1.866   0.425  1.00  0.00     0.251 C 
ATOM     37  H   UNL     1       8.186   1.493  -0.134  1.00  0.00     0.163 HD
ATOM     38  O   UNL     1       9.985   3.073   0.586  1.00  0.00    -0.269 OA
BRANCH  36  39
ATOM     39  C   UNL     1      11.319   1.177   0.816  1.00  0.00     0.039 A 
ATOM     40  C   UNL     1      11.626   1.197   2.176  1.00  0.00     0.014 A 
ATOM     41  C   UNL     1      11.845   0.230  -0.062  1.00  0.00     0.014 A 
ATOM     42  C   UNL     1      12.381   0.162   2.688  1.00  0.00     0.010 A 
ATOM     43  C   UNL     1      12.410  -0.898   0.488  1.00  0.00     0.010 A 
ATOM     44  C   UNL     1      12.701  -0.922   1.859  1.00  0.00    -0.014 A 
BRANCH  44  45
ATOM     45  C   UNL     1      13.426  -2.071   2.409  1.00  0.00     0.031 A 
ATOM     46  C   UNL     1      14.793  -2.343   1.871  1.00  0.00     0.074 A 
ATOM     47  C   UNL     1      12.846  -2.808   3.374  1.00  0.00     0.049 A 
ATOM     48  N   UNL     1      15.643  -3.266   2.220  1.00  0.00    -0.248 NA
ATOM     49  C   UNL     1      15.261  -1.486   0.763  1.00  0.00     0.031 C 
ATOM     50  C   UNL     1      11.486  -2.615   3.893  1.00  0.00     0.029 A 
ATOM     51  N   UNL     1      13.335  -3.846   4.113  1.00  0.00    -0.354 N 
ATOM     52  C   UNL     1      16.728  -3.099   1.372  1.00  0.00     0.074 A 
ATOM     53  C   UNL     1      16.398  -2.064   0.427  1.00  0.00     0.031 C 
ATOM     54  C   UNL     1      11.280  -3.461   4.914  1.00  0.00     0.029 A 
ATOM     55  C   UNL     1      12.468  -4.285   5.085  1.00  0.00     0.049 A 
ATOM     56  H   UNL     1      14.224  -4.243   3.964  1.00  0.00     0.167 HD
ATOM     57  C   UNL     1      17.918  -3.729   1.419  1.00  0.00     0.037 A 
ATOM     58  C   UNL     1      12.641  -5.247   6.007  1.00  0.00     0.037 A 
ATOM     59  C   UNL     1      18.211  -4.738   2.395  1.00  0.00     0.049 A 
ATOM     60  C   UNL     1      13.972  -5.948   6.024  1.00  0.00     0.074 A 
ATOM     61  C   UNL     1      19.378  -5.448   2.579  1.00  0.00     0.029 A 
ATOM     62  N   UNL     1      17.306  -5.177   3.355  1.00  0.00    -0.354 N 
ATOM     63  N   UNL     1      15.022  -5.746   5.259  1.00  0.00    -0.248 NA
ATOM     64  C   UNL     1      14.150  -7.000   7.027  1.00  0.00     0.031 C 
ATOM     65  C   UNL     1      19.157  -6.366   3.610  1.00  0.00     0.029 A 
ATOM     66  C   UNL     1      17.878  -6.176   4.118  1.00  0.00     0.049 A 
ATOM     67  H   UNL     1      16.393  -4.829   3.474  1.00  0.00     0.167 HD
ATOM     68  C   UNL     1      15.992  -6.633   5.698  1.00  0.00     0.074 A 
ATOM     69  C   UNL     1      15.412  -7.347   6.822  1.00  0.00     0.031 C 
ATOM     70  C   UNL     1      17.244  -6.856   5.221  1.00  0.00     0.037 A 
BRANCH  57  71
ATOM     71  C   UNL     1      18.938  -3.350   0.388  1.00  0.00     0.057 A 
ATOM     72  C   UNL     1      19.527  -2.077   0.348  1.00  0.00     0.134 A 
ATOM     73  C   UNL     1      19.314  -4.263  -0.603  1.00  0.00     0.134 A 
ATOM     74  F   UNL     1      19.183  -1.138   1.244  1.00  0.00    -0.206 F 
ATOM     75  C   UNL     1      20.432  -1.720  -0.653  1.00  0.00     0.040 A 
ATOM     76  C   UNL     1      20.244  -3.929  -1.588  1.00  0.00     0.040 A 
ATOM     77  F   UNL     1      18.776  -5.491  -0.637  1.00  0.00    -0.206 F 
ATOM     78  C   UNL     1      20.800  -2.652  -1.620  1.00  0.00     0.006 A 
ENDBRANCH  57  71
BRANCH  58  79
ATOM     79  C   UNL     1      11.559  -5.585   6.969  1.00  0.00     0.057 A 
ATOM     80  C   UNL     1      11.707  -5.377   8.345  1.00  0.00     0.134 A 
ATOM     81  C   UNL     1      10.344  -6.132   6.534  1.00  0.00     0.134 A 
ATOM     82  F   UNL     1      12.846  -4.862   8.832  1.00  0.00    -0.206 F 
ATOM     83  C   UNL     1      10.705  -5.728   9.254  1.00  0.00     0.040 A 
ATOM     84  C   UNL     1       9.321  -6.457   7.428  1.00  0.00     0.040 A 
ATOM     85  F   UNL     1      10.126  -6.345   5.228  1.00  0.00    -0.206 F 
ATOM     86  C   UNL     1       9.505  -6.266   8.795  1.00  0.00     0.006 A 
ENDBRANCH  58  79
BRANCH  70  87
ATOM     87  C   UNL     1      18.053  -7.893   5.939  1.00  0.00     0.057 A 
ATOM     88  C   UNL     1      17.731  -9.254   5.877  1.00  0.00     0.134 A 
ATOM     89  C   UNL     1      19.181  -7.522   6.681  1.00  0.00     0.134 A 
ATOM     90  F   UNL     1      16.657  -9.670   5.188  1.00  0.00    -0.206 F 
ATOM     91  C   UNL     1      18.476 -10.206   6.570  1.00  0.00     0.040 A 
ATOM     92  C   UNL     1      19.958  -8.470   7.342  1.00  0.00     0.040 A 
ATOM     93  F   UNL     1      19.553  -6.235   6.762  1.00  0.00    -0.206 F 
ATOM     94  C   UNL     1      19.597  -9.815   7.300  1.00  0.00     0.006 A 
ENDBRANCH  70  87
ENDBRANCH  44  45
ENDBRANCH  36  39
ENDBRANCH  34  35
ENDBRANCH  33  34
ENDBRANCH  32  33
ENDBRANCH  31  32
ENDBRANCH   1  31
TORSDOF 19
