REMARK SMILES COc1cc(C(=O)NCCCCCCNC(=O)c2ccc(-c3c4nc(c(-c5c(F)cccc5F)c5ccc([nH]5)c(-c5c(F)cccc5F)c5nc(c(-c6c(F)cccc6F)c6ccc3[nH]6)C=C5)C=C4)cc2)ccc1OCC(=O)N[C@H]1CCCC[C@H]1C
REMARK SMILES IDX 10 1 9 2 8 3 6 4 7 5 5 7 3 8 4 9 74 10 73 11 72 12 2 13 1 14
REMARK SMILES IDX 75 15 76 16 77 17 78 18 79 19 80 21 81 22 85 23 82 24 84 25
REMARK SMILES IDX 86 26 83 27 11 28 12 29 13 30 14 31 15 32 16 33 17 35 18 36
REMARK SMILES IDX 19 37 71 38 20 39 70 40 21 41 22 42 23 43 64 44 24 45 69 46
REMARK SMILES IDX 63 47 65 48 25 49 68 50 62 51 61 52 26 54 52 55 35 56 51 57
REMARK SMILES IDX 36 58 39 59 50 60 66 61 37 62 38 63 49 65 67 66 40 67 27 68
REMARK SMILES IDX 28 69 33 70 29 71 30 72 32 73 34 74 31 75 53 76 54 77 59 78
REMARK SMILES IDX 55 79 56 80 58 81 60 82 57 83 41 84 42 85 47 86 43 87 44 88
REMARK SMILES IDX 46 89 48 90 45 91
REMARK H PARENT 8 6 79 20 15 34 65 53 39 64
REMARK Flexibility Score: inf
ROOT
ATOM      1  C   UNL     1       1.974  -3.645   7.676  1.00  0.00     0.021 C 
ENDROOT
BRANCH   1   2
ATOM      2  C   UNL     1       1.584  -4.089   6.271  1.00  0.00     0.116 C 
BRANCH   2   3
ATOM      3  N   UNL     1       0.203  -3.808   5.915  1.00  0.00    -0.352 N 
ATOM      4  C   UNL     1      -0.356  -3.137   4.849  1.00  0.00     0.251 C 
ATOM      5  O   UNL     1      -1.580  -3.022   4.801  1.00  0.00    -0.269 OA
ATOM      6  H   UNL     1      -0.456  -4.162   6.555  1.00  0.00     0.163 HD
BRANCH   4   7
ATOM      7  C   UNL     1       0.468  -2.514   3.778  1.00  0.00     0.043 A 
ATOM      8  C   UNL     1       0.818  -0.655   2.237  1.00  0.00     0.161 A 
ATOM      9  C   UNL     1       0.028  -1.315   3.192  1.00  0.00     0.064 A 
ATOM     10  C   UNL     1       2.075  -1.162   1.904  1.00  0.00     0.161 A 
ATOM     11  C   UNL     1       2.494  -2.363   2.480  1.00  0.00     0.051 A 
ATOM     12  C   UNL     1       1.661  -3.078   3.337  1.00  0.00     0.018 A 
BRANCH   8  13
ATOM     13  O   UNL     1       0.411   0.556   1.749  1.00  0.00    -0.493 OA
ATOM     14  C   UNL     1      -0.668   0.416   0.821  1.00  0.00     0.278 C 
ENDBRANCH   8  13
BRANCH  10  15
ATOM     15  O   UNL     1       3.015  -0.574   1.111  1.00  0.00    -0.480 OA
BRANCH  15  16
ATOM     16  C   UNL     1       2.617  -0.067  -0.147  1.00  0.00     0.329 C 
BRANCH  16  17
ATOM     17  C   UNL     1       1.827  -0.915  -1.160  1.00  0.00     0.258 C 
ATOM     18  O   UNL     1       0.792  -0.464  -1.669  1.00  0.00    -0.271 OA
ATOM     19  N   UNL     1       2.210  -2.140  -1.604  1.00  0.00    -0.350 N 
ATOM     20  H   UNL     1       1.488  -2.592  -2.098  1.00  0.00     0.163 HD
BRANCH  19  21
ATOM     21  C   UNL     1       3.423  -2.965  -1.536  1.00  0.00     0.085 C 
ATOM     22  C   UNL     1       4.616  -2.377  -0.788  1.00  0.00     0.025 C 
ATOM     23  C   UNL     1       3.085  -4.441  -1.169  1.00  0.00     0.008 C 
ATOM     24  C   UNL     1       5.822  -3.305  -0.776  1.00  0.00     0.002 C 
ATOM     25  C   UNL     1       4.349  -5.310  -1.030  1.00  0.00     0.005 C 
ATOM     26  C   UNL     1       2.171  -4.614   0.051  1.00  0.00     0.010 C 
ATOM     27  C   UNL     1       5.439  -4.654  -0.187  1.00  0.00     0.000 C 
ENDBRANCH  19  21
ENDBRANCH  16  17
ENDBRANCH  15  16
ENDBRANCH  10  15
ENDBRANCH   4   7
ENDBRANCH   2   3
ENDBRANCH   1   2
BRANCH   1  28
ATOM     28  C   UNL     1       1.259  -4.343   8.831  1.00  0.00     0.002 C 
BRANCH  28  29
ATOM     29  C   UNL     1       1.298  -5.873   8.828  1.00  0.00     0.002 C 
BRANCH  29  30
ATOM     30  C   UNL     1       2.681  -6.516   8.697  1.00  0.00     0.021 C 
BRANCH  30  31
ATOM     31  C   UNL     1       3.717  -6.069   9.722  1.00  0.00     0.116 C 
BRANCH  31  32
ATOM     32  N   UNL     1       3.328  -6.377  11.087  1.00  0.00    -0.352 N 
ATOM     33  C   UNL     1       4.010  -7.063  12.062  1.00  0.00     0.251 C 
ATOM     34  H   UNL     1       2.441  -6.043  11.354  1.00  0.00     0.163 HD
ATOM     35  O   UNL     1       3.450  -7.360  13.111  1.00  0.00    -0.269 OA
BRANCH  33  36
ATOM     36  C   UNL     1       5.416  -7.471  11.842  1.00  0.00     0.039 A 
ATOM     37  C   UNL     1       5.807  -8.759  12.215  1.00  0.00     0.014 A 
ATOM     38  C   UNL     1       6.348  -6.590  11.287  1.00  0.00     0.014 A 
ATOM     39  C   UNL     1       7.115  -9.185  11.974  1.00  0.00     0.010 A 
ATOM     40  C   UNL     1       7.629  -7.040  10.977  1.00  0.00     0.010 A 
ATOM     41  C   UNL     1       8.028  -8.341  11.320  1.00  0.00    -0.014 A 
BRANCH  41  42
ATOM     42  C   UNL     1       9.395  -8.809  10.978  1.00  0.00     0.031 A 
ATOM     43  C   UNL     1      10.602  -8.143  11.577  1.00  0.00     0.074 A 
ATOM     44  C   UNL     1       9.554  -9.788  10.066  1.00  0.00     0.049 A 
ATOM     45  N   UNL     1      11.871  -8.375  11.356  1.00  0.00    -0.248 NA
ATOM     46  C   UNL     1      10.348  -7.050  12.528  1.00  0.00     0.031 C 
ATOM     47  C   UNL     1       8.466 -10.472   9.365  1.00  0.00     0.029 A 
ATOM     48  N   UNL     1      10.691 -10.365   9.560  1.00  0.00    -0.354 N 
ATOM     49  C   UNL     1      12.565  -7.448  12.123  1.00  0.00     0.074 A 
ATOM     50  C   UNL     1      11.575  -6.615  12.771  1.00  0.00     0.031 C 
ATOM     51  C   UNL     1       8.987 -11.384   8.531  1.00  0.00     0.029 A 
ATOM     52  C   UNL     1      10.444 -11.324   8.609  1.00  0.00     0.049 A 
ATOM     53  H   UNL     1      11.598 -10.115   9.851  1.00  0.00     0.167 HD
ATOM     54  C   UNL     1      13.903  -7.314  12.287  1.00  0.00     0.037 A 
ATOM     55  C   UNL     1      11.292 -12.065   7.872  1.00  0.00     0.037 A 
ATOM     56  C   UNL     1      14.883  -8.156  11.650  1.00  0.00     0.049 A 
ATOM     57  C   UNL     1      12.773 -11.910   8.073  1.00  0.00     0.074 A 
ATOM     58  C   UNL     1      16.257  -8.158  11.816  1.00  0.00     0.029 A 
ATOM     59  N   UNL     1      14.593  -9.137  10.713  1.00  0.00    -0.354 N 
ATOM     60  N   UNL     1      13.415 -11.092   8.872  1.00  0.00    -0.248 NA
ATOM     61  C   UNL     1      13.646 -12.785   7.280  1.00  0.00     0.031 C 
ATOM     62  C   UNL     1      16.803  -9.096  10.933  1.00  0.00     0.029 A 
ATOM     63  C   UNL     1      15.765  -9.724  10.262  1.00  0.00     0.049 A 
ATOM     64  H   UNL     1      13.688  -9.381  10.412  1.00  0.00     0.167 HD
ATOM     65  C   UNL     1      14.765 -11.365   8.693  1.00  0.00     0.074 A 
ATOM     66  C   UNL     1      14.847 -12.437   7.721  1.00  0.00     0.031 C 
ATOM     67  C   UNL     1      15.837 -10.782   9.284  1.00  0.00     0.037 A 
BRANCH  54  68
ATOM     68  C   UNL     1      14.379  -6.201  13.179  1.00  0.00     0.057 A 
ATOM     69  C   UNL     1      14.146  -6.200  14.562  1.00  0.00     0.134 A 
ATOM     70  C   UNL     1      15.083  -5.113  12.646  1.00  0.00     0.134 A 
ATOM     71  F   UNL     1      13.471  -7.206  15.138  1.00  0.00    -0.206 F 
ATOM     72  C   UNL     1      14.553  -5.138  15.372  1.00  0.00     0.040 A 
ATOM     73  C   UNL     1      15.525  -4.062  13.451  1.00  0.00     0.040 A 
ATOM     74  F   UNL     1      15.351  -5.051  11.333  1.00  0.00    -0.206 F 
ATOM     75  C   UNL     1      15.248  -4.066  14.817  1.00  0.00     0.006 A 
ENDBRANCH  54  68
BRANCH  55  76
ATOM     76  C   UNL     1      10.746 -13.031   6.886  1.00  0.00     0.057 A 
ATOM     77  C   UNL     1      10.809 -14.411   7.109  1.00  0.00     0.134 A 
ATOM     78  C   UNL     1      10.111 -12.595   5.716  1.00  0.00     0.134 A 
ATOM     79  F   UNL     1      11.419 -14.890   8.203  1.00  0.00    -0.206 F 
ATOM     80  C   UNL     1      10.265 -15.323   6.204  1.00  0.00     0.040 A 
ATOM     81  C   UNL     1       9.541 -13.494   4.814  1.00  0.00     0.040 A 
ATOM     82  F   UNL     1      10.009 -11.284   5.450  1.00  0.00    -0.206 F 
ATOM     83  C   UNL     1       9.621 -14.864   5.056  1.00  0.00     0.006 A 
ENDBRANCH  55  76
BRANCH  67  84
ATOM     84  C   UNL     1      17.196 -11.301   8.909  1.00  0.00     0.057 A 
ATOM     85  C   UNL     1      17.761 -11.061   7.649  1.00  0.00     0.134 A 
ATOM     86  C   UNL     1      17.967 -12.016   9.835  1.00  0.00     0.134 A 
ATOM     87  F   UNL     1      17.071 -10.394   6.711  1.00  0.00    -0.206 F 
ATOM     88  C   UNL     1      19.032 -11.532   7.317  1.00  0.00     0.040 A 
ATOM     89  C   UNL     1      19.251 -12.467   9.525  1.00  0.00     0.040 A 
ATOM     90  F   UNL     1      17.491 -12.274  11.062  1.00  0.00    -0.206 F 
ATOM     91  C   UNL     1      19.784 -12.231   8.260  1.00  0.00     0.006 A 
ENDBRANCH  67  84
ENDBRANCH  41  42
ENDBRANCH  33  36
ENDBRANCH  31  32
ENDBRANCH  30  31
ENDBRANCH  29  30
ENDBRANCH  28  29
ENDBRANCH   1  28
TORSDOF 18
