REMARK SMILES C[C@@H](C(=O)NCCCCCCNC(=O)c1ccc(-c2c3nc(c(-c4c(F)cccc4F)c4ccc([nH]4)c(-c4c(F)cccc4F)c4nc(c(-c5c(F)cccc5F)c5ccc2[nH]5)C=C4)C=C3)cc1)c1ccc2c3cc(Cl)ccc3n(C(=O)c3cocn3)c2c1
REMARK SMILES IDX 8 1 7 2 6 3 5 4 3 5 4 6 2 8 1 9 69 10 70 11 89 12 71 13
REMARK SMILES IDX 88 14 72 15 80 16 73 17 79 18 74 19 78 20 75 21 77 22 76 23
REMARK SMILES IDX 81 24 82 25 83 26 84 27 87 28 85 29 86 30 9 31 10 32 11 33
REMARK SMILES IDX 12 34 13 35 14 37 15 38 16 39 68 40 17 41 67 42 18 43 19 44
REMARK SMILES IDX 20 45 61 46 21 47 66 48 60 49 62 50 22 51 65 52 59 53 58 54
REMARK SMILES IDX 23 56 49 57 32 58 48 59 33 60 36 61 47 62 63 63 34 64 35 65
REMARK SMILES IDX 46 67 64 68 37 69 24 70 25 71 30 72 26 73 27 74 29 75 31 76
REMARK SMILES IDX 28 77 50 78 51 79 56 80 52 81 53 82 55 83 57 84 54 85 38 86
REMARK SMILES IDX 39 87 44 88 40 89 41 90 43 91 45 92 42 93
REMARK H PARENT 5 7 12 36 62 55 36 66
REMARK Flexibility Score: inf
ROOT
ATOM      1  C   UNL     1       5.078   2.215  -1.696  1.00  0.00     0.002 C 
ENDROOT
BRANCH   1   2
ATOM      2  C   UNL     1       4.337   1.249  -0.764  1.00  0.00     0.021 C 
BRANCH   2   3
ATOM      3  C   UNL     1       3.496   1.944   0.312  1.00  0.00     0.116 C 
BRANCH   3   4
ATOM      4  N   UNL     1       2.433   2.702  -0.312  1.00  0.00    -0.356 N 
ATOM      5  C   UNL     1       1.140   2.324  -0.536  1.00  0.00     0.227 C 
ATOM      6  O   UNL     1       0.548   2.893  -1.454  1.00  0.00    -0.274 OA
ATOM      7  H   UNL     1       2.672   3.608  -0.615  1.00  0.00     0.163 HD
BRANCH   5   8
ATOM      8  C   UNL     1       0.506   1.247   0.364  1.00  0.00     0.105 C 
ATOM      9  C   UNL     1       0.923  -0.135  -0.167  1.00  0.00     0.023 C 
BRANCH   8  10
ATOM     10  C   UNL     1      -1.016   1.370   0.520  1.00  0.00    -0.034 A 
ATOM     11  C   UNL     1      -1.681   2.590   0.362  1.00  0.00     0.005 A 
ATOM     12  C   UNL     1      -1.780   0.242   0.867  1.00  0.00     0.032 A 
ATOM     13  C   UNL     1      -3.079   2.665   0.356  1.00  0.00     0.011 A 
ATOM     14  C   UNL     1      -3.185   0.325   0.908  1.00  0.00     0.058 A 
ATOM     15  C   UNL     1      -3.841   1.504   0.583  1.00  0.00     0.008 A 
ATOM     16  N   UNL     1      -4.143  -0.653   1.201  1.00  0.00    -0.274 N 
ATOM     17  C   UNL     1      -5.231   1.220   0.550  1.00  0.00     0.009 A 
ATOM     18  C   UNL     1      -5.414  -0.103   0.978  1.00  0.00     0.057 A 
ATOM     19  C   UNL     1      -6.350   2.010   0.209  1.00  0.00     0.031 A 
ATOM     20  C   UNL     1      -6.714  -0.609   1.181  1.00  0.00     0.029 A 
ATOM     21  C   UNL     1      -7.629   1.479   0.346  1.00  0.00     0.041 A 
ATOM     22  C   UNL     1      -7.811   0.196   0.843  1.00  0.00     0.023 A 
ATOM     23  Cl  UNL     1      -8.993   2.438  -0.079  1.00  0.00    -0.084 Cl
BRANCH  16  24
ATOM     24  C   UNL     1      -3.812  -1.950   1.674  1.00  0.00     0.284 C 
ATOM     25  O   UNL     1      -2.791  -2.016   2.370  1.00  0.00    -0.266 OA
BRANCH  24  26
ATOM     26  C   UNL     1      -4.536  -3.176   1.363  1.00  0.00     0.167 A 
ATOM     27  C   UNL     1      -5.379  -3.450   0.306  1.00  0.00     0.231 A 
ATOM     28  N   UNL     1      -4.339  -4.351   2.078  1.00  0.00    -0.211 NA
ATOM     29  O   UNL     1      -5.726  -4.769   0.360  1.00  0.00    -0.451 OA
ATOM     30  C   UNL     1      -5.051  -5.246   1.439  1.00  0.00     0.308 A 
ENDBRANCH  24  26
ENDBRANCH  16  24
ENDBRANCH   8  10
ENDBRANCH   5   8
ENDBRANCH   3   4
ENDBRANCH   2   3
ENDBRANCH   1   2
BRANCH   1  31
ATOM     31  C   UNL     1       6.031   3.178  -0.986  1.00  0.00     0.002 C 
BRANCH  31  32
ATOM     32  C   UNL     1       7.072   2.499  -0.093  1.00  0.00     0.021 C 
BRANCH  32  33
ATOM     33  C   UNL     1       7.946   1.474  -0.807  1.00  0.00     0.116 C 
BRANCH  33  34
ATOM     34  N   UNL     1       8.715   2.073  -1.884  1.00  0.00    -0.352 N 
ATOM     35  C   UNL     1      10.063   2.022  -2.128  1.00  0.00     0.251 C 
ATOM     36  H   UNL     1       8.190   2.592  -2.536  1.00  0.00     0.163 HD
ATOM     37  O   UNL     1      10.561   2.763  -2.969  1.00  0.00    -0.269 OA
BRANCH  35  38
ATOM     38  C   UNL     1      10.921   1.089  -1.367  1.00  0.00     0.039 A 
ATOM     39  C   UNL     1      12.160   1.546  -0.912  1.00  0.00     0.014 A 
ATOM     40  C   UNL     1      10.529  -0.232  -1.130  1.00  0.00     0.014 A 
ATOM     41  C   UNL     1      12.986   0.692  -0.181  1.00  0.00     0.010 A 
ATOM     42  C   UNL     1      11.324  -1.063  -0.343  1.00  0.00     0.010 A 
ATOM     43  C   UNL     1      12.563  -0.611   0.134  1.00  0.00    -0.014 A 
BRANCH  43  44
ATOM     44  C   UNL     1      13.414  -1.494   0.970  1.00  0.00     0.031 A 
ATOM     45  C   UNL     1      14.021  -2.743   0.394  1.00  0.00     0.074 A 
ATOM     46  C   UNL     1      13.620  -1.176   2.263  1.00  0.00     0.049 A 
ATOM     47  N   UNL     1      14.797  -3.624   0.973  1.00  0.00    -0.248 NA
ATOM     48  C   UNL     1      13.700  -3.054  -1.008  1.00  0.00     0.031 C 
ATOM     49  C   UNL     1      13.038  -0.023   2.953  1.00  0.00     0.029 A 
ATOM     50  N   UNL     1      14.377  -1.793   3.227  1.00  0.00    -0.354 N 
ATOM     51  C   UNL     1      15.062  -4.588   0.008  1.00  0.00     0.074 A 
ATOM     52  C   UNL     1      14.314  -4.217  -1.175  1.00  0.00     0.031 C 
ATOM     53  C   UNL     1      13.479  -0.002   4.221  1.00  0.00     0.029 A 
ATOM     54  C   UNL     1      14.351  -1.151   4.441  1.00  0.00     0.049 A 
ATOM     55  H   UNL     1      14.889  -2.618   3.064  1.00  0.00     0.167 HD
ATOM     56  C   UNL     1      15.875  -5.668   0.089  1.00  0.00     0.037 A 
ATOM     57  C   UNL     1      14.963  -1.453   5.600  1.00  0.00     0.037 A 
ATOM     58  C   UNL     1      16.627  -6.031   1.263  1.00  0.00     0.049 A 
ATOM     59  C   UNL     1      15.866  -2.654   5.661  1.00  0.00     0.074 A 
ATOM     60  C   UNL     1      17.503  -7.088   1.434  1.00  0.00     0.029 A 
ATOM     61  N   UNL     1      16.590  -5.344   2.467  1.00  0.00    -0.354 N 
ATOM     62  N   UNL     1      16.155  -3.519   4.720  1.00  0.00    -0.248 NA
ATOM     63  C   UNL     1      16.537  -2.912   6.942  1.00  0.00     0.031 C 
ATOM     64  C   UNL     1      17.972  -7.061   2.752  1.00  0.00     0.029 A 
ATOM     65  C   UNL     1      17.420  -5.962   3.389  1.00  0.00     0.049 A 
ATOM     66  H   UNL     1      16.055  -4.537   2.641  1.00  0.00     0.167 HD
ATOM     67  C   UNL     1      17.055  -4.411   5.288  1.00  0.00     0.074 A 
ATOM     68  C   UNL     1      17.285  -3.965   6.646  1.00  0.00     0.031 C 
ATOM     69  C   UNL     1      17.636  -5.505   4.737  1.00  0.00     0.037 A 
BRANCH  56  70
ATOM     70  C   UNL     1      16.012  -6.526  -1.134  1.00  0.00     0.057 A 
ATOM     71  C   UNL     1      16.714  -6.083  -2.264  1.00  0.00     0.134 A 
ATOM     72  C   UNL     1      15.487  -7.823  -1.168  1.00  0.00     0.134 A 
ATOM     73  F   UNL     1      17.232  -4.846  -2.300  1.00  0.00    -0.206 F 
ATOM     74  C   UNL     1      16.872  -6.893  -3.390  1.00  0.00     0.040 A 
ATOM     75  C   UNL     1      15.659  -8.651  -2.279  1.00  0.00     0.040 A 
ATOM     76  F   UNL     1      14.809  -8.312  -0.118  1.00  0.00    -0.206 F 
ATOM     77  C   UNL     1      16.351  -8.185  -3.395  1.00  0.00     0.006 A 
ENDBRANCH  56  70
BRANCH  57  78
ATOM     78  C   UNL     1      14.761  -0.597   6.796  1.00  0.00     0.057 A 
ATOM     79  C   UNL     1      15.796   0.196   7.305  1.00  0.00     0.134 A 
ATOM     80  C   UNL     1      13.534  -0.568   7.470  1.00  0.00     0.134 A 
ATOM     81  F   UNL     1      16.999   0.197   6.712  1.00  0.00    -0.206 F 
ATOM     82  C   UNL     1      15.628   0.966   8.457  1.00  0.00     0.040 A 
ATOM     83  C   UNL     1      13.345   0.217   8.608  1.00  0.00     0.040 A 
ATOM     84  F   UNL     1      12.500  -1.298   7.027  1.00  0.00    -0.206 F 
ATOM     85  C   UNL     1      14.397   0.979   9.110  1.00  0.00     0.006 A 
ENDBRANCH  57  78
BRANCH  69  86
ATOM     86  C   UNL     1      18.587  -6.277   5.604  1.00  0.00     0.057 A 
ATOM     87  C   UNL     1      18.139  -7.056   6.679  1.00  0.00     0.134 A 
ATOM     88  C   UNL     1      19.964  -6.251   5.353  1.00  0.00     0.134 A 
ATOM     89  F   UNL     1      16.833  -7.112   6.980  1.00  0.00    -0.206 F 
ATOM     90  C   UNL     1      19.031  -7.755   7.494  1.00  0.00     0.040 A 
ATOM     91  C   UNL     1      20.863  -6.967   6.144  1.00  0.00     0.040 A 
ATOM     92  F   UNL     1      20.458  -5.532   4.333  1.00  0.00    -0.206 F 
ATOM     93  C   UNL     1      20.398  -7.714   7.224  1.00  0.00     0.006 A 
ENDBRANCH  69  86
ENDBRANCH  43  44
ENDBRANCH  35  38
ENDBRANCH  33  34
ENDBRANCH  32  33
ENDBRANCH  31  32
ENDBRANCH   1  31
TORSDOF 16
