REMARK SMILES O=C1OC(c2ccc(Cl)cc2)=N/C1=C/Nc1ccc(O)c(C(=O)NCCCCCCNC(=O)c2ccc(-c3c4nc(c(-c5c(F)cccc5F)c5ccc([nH]5)c(-c5c(F)cccc5F)c5nc(c(-c6c(F)cccc6F)c6ccc3[nH]6)C=C5)C=C4)cc2)c1
REMARK SMILES IDX 27 1 26 2 25 3 24 4 22 5 23 6 21 8 16 9 17 10 88 11 18 12
REMARK SMILES IDX 19 13 15 14 14 16 1 17 2 18 3 19 13 20 4 21 12 22 5 23 6 24
REMARK SMILES IDX 11 25 7 26 10 27 8 28 9 29 20 30 28 32 29 33 30 34 31 35
REMARK SMILES IDX 32 36 33 38 34 39 35 40 87 41 36 42 86 43 37 44 38 45 39 46
REMARK SMILES IDX 80 47 40 48 85 49 79 50 81 51 41 52 84 53 78 54 77 55 42 57
REMARK SMILES IDX 68 58 51 59 67 60 52 61 55 62 66 63 82 64 53 65 54 66 65 68
REMARK SMILES IDX 83 69 56 70 43 71 44 72 49 73 45 74 46 75 48 76 50 77 47 78
REMARK SMILES IDX 69 79 70 80 75 81 71 82 72 83 74 84 76 85 73 86 57 87 58 88
REMARK SMILES IDX 63 89 59 90 60 91 62 92 64 93 61 94
REMARK H PARENT 24 7 15 15 20 31 31 37 81 56 55 67
REMARK Flexibility Score: inf
ROOT
ATOM      1  C   UNL     1      -3.838 -11.177  -0.902  1.00  0.00     0.002 C 
ENDROOT
BRANCH   1   2
ATOM      2  C   UNL     1      -2.881 -10.171  -0.254  1.00  0.00     0.021 C 
BRANCH   2   3
ATOM      3  C   UNL     1      -2.064  -9.382  -1.284  1.00  0.00     0.116 C 
BRANCH   3   4
ATOM      4  N   UNL     1      -2.836  -8.245  -1.724  1.00  0.00    -0.352 N 
ATOM      5  C   UNL     1      -2.902  -6.954  -1.275  1.00  0.00     0.255 C 
ATOM      6  O   UNL     1      -3.806  -6.264  -1.757  1.00  0.00    -0.269 OA
ATOM      7  H   UNL     1      -3.425  -8.433  -2.489  1.00  0.00     0.163 HD
BRANCH   5   8
ATOM      8  C   UNL     1      -1.911  -6.305  -0.363  1.00  0.00     0.083 A 
ATOM      9  C   UNL     1      -0.845  -4.138   0.112  1.00  0.00     0.039 A 
ATOM     10  C   UNL     1      -0.006  -4.765   1.031  1.00  0.00     0.030 A 
ATOM     11  C   UNL     1      -1.763  -4.921  -0.593  1.00  0.00     0.043 A 
ATOM     12  C   UNL     1      -0.170  -6.116   1.325  1.00  0.00     0.049 A 
ATOM     13  C   UNL     1      -1.145  -6.871   0.662  1.00  0.00     0.128 A 
BRANCH   9  14
ATOM     14  N   UNL     1      -0.763  -2.771  -0.171  1.00  0.00    -0.360 N 
ATOM     15  H   UNL     1      -1.600  -2.322  -0.429  1.00  0.00     0.166 HD
BRANCH  14  16
ATOM     16  C   UNL     1       0.362  -1.993  -0.125  1.00  0.00     0.119 C 
ATOM     17  O   UNL     1      -1.880   0.026  -0.006  1.00  0.00    -0.244 OA
ATOM     18  C   UNL     1      -0.692   0.269  -0.010  1.00  0.00     0.365 C 
ATOM     19  O   UNL     1      -0.087   1.489   0.081  1.00  0.00    -0.402 OA
ATOM     20  C   UNL     1       0.465  -0.662  -0.102  1.00  0.00     0.168 C 
ATOM     21  C   UNL     1       1.241   1.251  -0.007  1.00  0.00     0.231 C 
ATOM     22  N   UNL     1       1.644   0.029  -0.122  1.00  0.00    -0.204 NA
BRANCH  21  23
ATOM     23  C   UNL     1       2.085   2.437  -0.025  1.00  0.00     0.037 A 
ATOM     24  C   UNL     1       1.988   3.393   0.988  1.00  0.00     0.015 A 
ATOM     25  C   UNL     1       3.023   2.569  -1.054  1.00  0.00     0.015 A 
ATOM     26  C   UNL     1       2.848   4.493   0.970  1.00  0.00     0.021 A 
ATOM     27  C   UNL     1       3.865   3.680  -1.078  1.00  0.00     0.021 A 
ATOM     28  C   UNL     1       3.778   4.634  -0.063  1.00  0.00     0.041 A 
ATOM     29  Cl  UNL     1       4.834   5.991  -0.081  1.00  0.00    -0.084 Cl
ENDBRANCH  21  23
ENDBRANCH  14  16
ENDBRANCH   9  14
BRANCH  13  30
ATOM     30  O   UNL     1      -1.345  -8.141   1.118  1.00  0.00    -0.507 OA
ATOM     31  H   UNL     1      -0.808  -8.482   1.807  1.00  0.00     0.293 HD
ENDBRANCH  13  30
ENDBRANCH   5   8
ENDBRANCH   3   4
ENDBRANCH   2   3
ENDBRANCH   1   2
BRANCH   1  32
ATOM     32  C   UNL     1      -3.135 -12.305  -1.666  1.00  0.00     0.002 C 
BRANCH  32  33
ATOM     33  C   UNL     1      -2.126 -13.099  -0.833  1.00  0.00     0.021 C 
BRANCH  33  34
ATOM     34  C   UNL     1      -2.749 -13.816   0.358  1.00  0.00     0.116 C 
BRANCH  34  35
ATOM     35  N   UNL     1      -3.692 -14.837  -0.077  1.00  0.00    -0.352 N 
ATOM     36  C   UNL     1      -3.651 -16.192   0.131  1.00  0.00     0.251 C 
ATOM     37  H   UNL     1      -4.466 -14.510  -0.590  1.00  0.00     0.163 HD
ATOM     38  O   UNL     1      -4.358 -16.948  -0.526  1.00  0.00    -0.269 OA
BRANCH  36  39
ATOM     39  C   UNL     1      -2.737 -16.733   1.155  1.00  0.00     0.039 A 
ATOM     40  C   UNL     1      -1.962 -17.855   0.857  1.00  0.00     0.014 A 
ATOM     41  C   UNL     1      -2.646 -16.119   2.408  1.00  0.00     0.014 A 
ATOM     42  C   UNL     1      -1.050 -18.329   1.801  1.00  0.00     0.010 A 
ATOM     43  C   UNL     1      -1.681 -16.542   3.313  1.00  0.00     0.010 A 
ATOM     44  C   UNL     1      -0.878 -17.655   3.021  1.00  0.00    -0.014 A 
BRANCH  44  45
ATOM     45  C   UNL     1       0.129 -18.099   4.016  1.00  0.00     0.031 A 
ATOM     46  C   UNL     1      -0.314 -18.561   5.376  1.00  0.00     0.074 A 
ATOM     47  C   UNL     1       1.440 -18.017   3.719  1.00  0.00     0.049 A 
ATOM     48  N   UNL     1       0.412 -18.897   6.412  1.00  0.00    -0.248 NA
ATOM     49  C   UNL     1      -1.765 -18.629   5.613  1.00  0.00     0.031 C 
ATOM     50  C   UNL     1       1.994 -17.549   2.446  1.00  0.00     0.029 A 
ATOM     51  N   UNL     1       2.548 -18.314   4.472  1.00  0.00    -0.354 N 
ATOM     52  C   UNL     1      -0.491 -19.203   7.421  1.00  0.00     0.074 A 
ATOM     53  C   UNL     1      -1.815 -18.956   6.895  1.00  0.00     0.031 C 
ATOM     54  C   UNL     1       3.334 -17.612   2.500  1.00  0.00     0.029 A 
ATOM     55  C   UNL     1       3.736 -18.077   3.823  1.00  0.00     0.049 A 
ATOM     56  H   UNL     1       2.496 -18.664   5.391  1.00  0.00     0.167 HD
ATOM     57  C   UNL     1      -0.241 -19.673   8.666  1.00  0.00     0.037 A 
ATOM     58  C   UNL     1       5.005 -18.207   4.254  1.00  0.00     0.037 A 
ATOM     59  C   UNL     1       1.079 -19.933   9.178  1.00  0.00     0.049 A 
ATOM     60  C   UNL     1       5.256 -18.697   5.654  1.00  0.00     0.074 A 
ATOM     61  C   UNL     1       1.438 -20.453  10.409  1.00  0.00     0.029 A 
ATOM     62  N   UNL     1       2.257 -19.687   8.488  1.00  0.00    -0.354 N 
ATOM     63  N   UNL     1       4.392 -19.042   6.578  1.00  0.00    -0.248 NA
ATOM     64  C   UNL     1       6.660 -18.819   6.072  1.00  0.00     0.031 C 
ATOM     65  C   UNL     1       2.834 -20.469  10.485  1.00  0.00     0.029 A 
ATOM     66  C   UNL     1       3.344 -20.020   9.277  1.00  0.00     0.049 A 
ATOM     67  H   UNL     1       2.311 -19.329   7.572  1.00  0.00     0.167 HD
ATOM     68  C   UNL     1       5.145 -19.456   7.669  1.00  0.00     0.074 A 
ATOM     69  C   UNL     1       6.536 -19.330   7.288  1.00  0.00     0.031 C 
ATOM     70  C   UNL     1       4.723 -19.903   8.877  1.00  0.00     0.037 A 
BRANCH  57  71
ATOM     71  C   UNL     1      -1.418 -19.938   9.560  1.00  0.00     0.057 A 
ATOM     72  C   UNL     1      -2.317 -20.984   9.309  1.00  0.00     0.134 A 
ATOM     73  C   UNL     1      -1.632 -19.166  10.709  1.00  0.00     0.134 A 
ATOM     74  F   UNL     1      -2.177 -21.755   8.220  1.00  0.00    -0.206 F 
ATOM     75  C   UNL     1      -3.400 -21.235  10.153  1.00  0.00     0.040 A 
ATOM     76  C   UNL     1      -2.693 -19.427  11.577  1.00  0.00     0.040 A 
ATOM     77  F   UNL     1      -0.807 -18.153  11.014  1.00  0.00    -0.206 F 
ATOM     78  C   UNL     1      -3.585 -20.460  11.297  1.00  0.00     0.006 A 
ENDBRANCH  57  71
BRANCH  58  79
ATOM     79  C   UNL     1       6.139 -17.878   3.352  1.00  0.00     0.057 A 
ATOM     80  C   UNL     1       7.006 -18.875   2.888  1.00  0.00     0.134 A 
ATOM     81  C   UNL     1       6.400 -16.562   2.951  1.00  0.00     0.134 A 
ATOM     82  F   UNL     1       6.820 -20.153   3.250  1.00  0.00    -0.206 F 
ATOM     83  C   UNL     1       8.107 -18.574   2.085  1.00  0.00     0.040 A 
ATOM     84  C   UNL     1       7.480 -16.250   2.123  1.00  0.00     0.040 A 
ATOM     85  F   UNL     1       5.603 -15.560   3.351  1.00  0.00    -0.206 F 
ATOM     86  C   UNL     1       8.344 -17.257   1.697  1.00  0.00     0.006 A 
ENDBRANCH  58  79
BRANCH  70  87
ATOM     87  C   UNL     1       5.773 -20.337   9.859  1.00  0.00     0.057 A 
ATOM     88  C   UNL     1       6.615 -19.422  10.502  1.00  0.00     0.134 A 
ATOM     89  C   UNL     1       5.905 -21.689  10.204  1.00  0.00     0.134 A 
ATOM     90  F   UNL     1       6.550 -18.114  10.209  1.00  0.00    -0.206 F 
ATOM     91  C   UNL     1       7.566 -19.838  11.436  1.00  0.00     0.040 A 
ATOM     92  C   UNL     1       6.829 -22.113  11.159  1.00  0.00     0.040 A 
ATOM     93  F   UNL     1       5.122 -22.618   9.633  1.00  0.00    -0.206 F 
ATOM     94  C   UNL     1       7.668 -21.187  11.774  1.00  0.00     0.006 A 
ENDBRANCH  70  87
ENDBRANCH  44  45
ENDBRANCH  36  39
ENDBRANCH  34  35
ENDBRANCH  33  34
ENDBRANCH  32  33
ENDBRANCH   1  32
TORSDOF 17
