REMARK SMILES O=C(Cc1ccc(CBr)cc1)NCCCCCCNC(=O)c1ccc(-c2c3nc(c(-c4c(F)cccc4F)c4ccc([nH]4)c(-c4c(F)cccc4F)c4nc(c(-c5c(F)cccc5F)c5ccc2[nH]5)C=C4)C=C3)cc1
REMARK SMILES IDX 15 1 14 2 13 3 12 4 1 5 2 6 3 8 4 9 5 10 11 11 6 12 10 13
REMARK SMILES IDX 7 14 8 15 9 16 16 17 17 18 18 19 19 20 20 21 21 23 22 24
REMARK SMILES IDX 23 25 75 26 24 27 74 28 25 29 26 30 27 31 68 32 28 33 73 34
REMARK SMILES IDX 67 35 69 36 29 37 72 38 66 39 65 40 30 42 56 43 39 44 55 45
REMARK SMILES IDX 40 46 43 47 54 48 70 49 41 50 42 51 53 53 71 54 44 55 31 56
REMARK SMILES IDX 32 57 37 58 33 59 34 60 36 61 38 62 35 63 57 64 58 65 63 66
REMARK SMILES IDX 59 67 60 68 62 69 64 70 61 71 45 72 46 73 51 74 47 75 48 76
REMARK SMILES IDX 50 77 52 78 49 79
REMARK H PARENT 12 7 19 22 69 41 43 52
REMARK Flexibility Score: inf
ROOT
ATOM      1  C   UNL     1       4.109  -2.600   2.711  1.00  0.00     0.002 C 
ENDROOT
BRANCH   1   2
ATOM      2  C   UNL     1       2.601  -2.536   2.426  1.00  0.00     0.021 C 
BRANCH   2   3
ATOM      3  C   UNL     1       2.046  -1.130   2.192  1.00  0.00     0.116 C 
BRANCH   3   4
ATOM      4  N   UNL     1       2.736  -0.466   1.108  1.00  0.00    -0.356 N 
ATOM      5  O   UNL     1       0.935  -0.258  -0.300  1.00  0.00    -0.275 OA
ATOM      6  C   UNL     1       2.131  -0.094  -0.072  1.00  0.00     0.224 C 
ATOM      7  H   UNL     1       3.694  -0.268   1.220  1.00  0.00     0.163 HD
BRANCH   6   8
ATOM      8  C   UNL     1       3.087   0.443  -1.128  1.00  0.00     0.135 C 
BRANCH   8   9
ATOM      9  C   UNL     1       3.882   1.650  -0.689  1.00  0.00    -0.039 A 
ATOM     10  C   UNL     1       5.140   1.503  -0.089  1.00  0.00     0.004 A 
ATOM     11  C   UNL     1       3.357   2.938  -0.851  1.00  0.00     0.004 A 
ATOM     12  C   UNL     1       5.847   2.619   0.361  1.00  0.00     0.005 A 
ATOM     13  C   UNL     1       4.072   4.056  -0.414  1.00  0.00     0.005 A 
ATOM     14  C   UNL     1       5.321   3.908   0.203  1.00  0.00    -0.037 A 
BRANCH  14  15
ATOM     15  C   UNL     1       6.076   5.106   0.696  1.00  0.00     0.116 C 
ATOM     16  Br  UNL     1       5.870   5.259   2.624  1.00  0.00    -0.088 Br
ENDBRANCH  14  15
ENDBRANCH   8   9
ENDBRANCH   6   8
ENDBRANCH   3   4
ENDBRANCH   2   3
ENDBRANCH   1   2
BRANCH   1  17
ATOM     17  C   UNL     1       4.593  -1.781   3.911  1.00  0.00     0.002 C 
BRANCH  17  18
ATOM     18  C   UNL     1       3.933  -2.123   5.249  1.00  0.00     0.021 C 
BRANCH  18  19
ATOM     19  C   UNL     1       4.064  -3.579   5.686  1.00  0.00     0.116 C 
BRANCH  19  20
ATOM     20  N   UNL     1       5.443  -3.974   5.927  1.00  0.00    -0.352 N 
ATOM     21  C   UNL     1       5.979  -4.660   6.987  1.00  0.00     0.251 C 
ATOM     22  H   UNL     1       6.085  -3.711   5.228  1.00  0.00     0.163 HD
ATOM     23  O   UNL     1       7.201  -4.782   7.086  1.00  0.00    -0.269 OA
BRANCH  21  24
ATOM     24  C   UNL     1       5.102  -5.234   8.031  1.00  0.00     0.039 A 
ATOM     25  C   UNL     1       5.468  -5.090   9.373  1.00  0.00     0.014 A 
ATOM     26  C   UNL     1       3.935  -5.928   7.698  1.00  0.00     0.014 A 
ATOM     27  C   UNL     1       4.638  -5.591  10.379  1.00  0.00     0.010 A 
ATOM     28  C   UNL     1       3.074  -6.367   8.703  1.00  0.00     0.010 A 
ATOM     29  C   UNL     1       3.419  -6.209  10.053  1.00  0.00    -0.014 A 
BRANCH  29  30
ATOM     30  C   UNL     1       2.504  -6.708  11.113  1.00  0.00     0.031 A 
ATOM     31  C   UNL     1       2.219  -8.180  11.234  1.00  0.00     0.074 A 
ATOM     32  C   UNL     1       1.891  -5.835  11.936  1.00  0.00     0.049 A 
ATOM     33  N   UNL     1       1.406  -8.802  12.050  1.00  0.00    -0.248 NA
ATOM     34  C   UNL     1       2.925  -9.070  10.298  1.00  0.00     0.031 C 
ATOM     35  C   UNL     1       2.046  -4.380  11.895  1.00  0.00     0.029 A 
ATOM     36  N   UNL     1       1.005  -6.045  12.962  1.00  0.00    -0.354 N 
ATOM     37  C   UNL     1       1.498 -10.149  11.723  1.00  0.00     0.074 A 
ATOM     38  C   UNL     1       2.399 -10.249  10.596  1.00  0.00     0.031 C 
ATOM     39  C   UNL     1       1.294  -3.830  12.863  1.00  0.00     0.029 A 
ATOM     40  C   UNL     1       0.581  -4.889  13.571  1.00  0.00     0.049 A 
ATOM     41  H   UNL     1       0.701  -6.941  13.237  1.00  0.00     0.167 HD
ATOM     42  C   UNL     1       0.908 -11.211  12.323  1.00  0.00     0.037 A 
ATOM     43  C   UNL     1      -0.288  -4.702  14.582  1.00  0.00     0.037 A 
ATOM     44  C   UNL     1       0.022 -11.116  13.454  1.00  0.00     0.049 A 
ATOM     45  C   UNL     1      -0.933  -5.898  15.229  1.00  0.00     0.074 A 
ATOM     46  C   UNL     1      -0.607 -12.136  14.147  1.00  0.00     0.029 A 
ATOM     47  N   UNL     1      -0.355  -9.928  14.063  1.00  0.00    -0.354 N 
ATOM     48  N   UNL     1      -0.797  -7.169  14.941  1.00  0.00    -0.248 NA
ATOM     49  C   UNL     1      -1.842  -5.632  16.353  1.00  0.00     0.031 C 
ATOM     50  C   UNL     1      -1.388 -11.563  15.157  1.00  0.00     0.029 A 
ATOM     51  C   UNL     1      -1.211 -10.190  15.119  1.00  0.00     0.049 A 
ATOM     52  H   UNL     1      -0.058  -9.031  13.784  1.00  0.00     0.167 HD
ATOM     53  C   UNL     1      -1.574  -7.854  15.865  1.00  0.00     0.074 A 
ATOM     54  C   UNL     1      -2.168  -6.859  16.733  1.00  0.00     0.031 C 
ATOM     55  C   UNL     1      -1.779  -9.189  15.985  1.00  0.00     0.037 A 
BRANCH  42  56
ATOM     56  C   UNL     1       1.218 -12.573  11.773  1.00  0.00     0.057 A 
ATOM     57  C   UNL     1       2.479 -13.160  11.938  1.00  0.00     0.134 A 
ATOM     58  C   UNL     1       0.241 -13.318  11.102  1.00  0.00     0.134 A 
ATOM     59  F   UNL     1       3.463 -12.494  12.561  1.00  0.00    -0.206 F 
ATOM     60  C   UNL     1       2.766 -14.429  11.432  1.00  0.00     0.040 A 
ATOM     61  C   UNL     1       0.508 -14.600  10.615  1.00  0.00     0.040 A 
ATOM     62  F   UNL     1      -0.990 -12.819  10.915  1.00  0.00    -0.206 F 
ATOM     63  C   UNL     1       1.776 -15.156  10.774  1.00  0.00     0.006 A 
ENDBRANCH  42  56
BRANCH  43  64
ATOM     64  C   UNL     1      -0.589  -3.331  15.066  1.00  0.00     0.057 A 
ATOM     65  C   UNL     1      -0.157  -2.897  16.325  1.00  0.00     0.134 A 
ATOM     66  C   UNL     1      -1.339  -2.433  14.297  1.00  0.00     0.134 A 
ATOM     67  F   UNL     1       0.548  -3.719  17.116  1.00  0.00    -0.206 F 
ATOM     68  C   UNL     1      -0.482  -1.631  16.814  1.00  0.00     0.040 A 
ATOM     69  C   UNL     1      -1.649  -1.154  14.762  1.00  0.00     0.040 A 
ATOM     70  F   UNL     1      -1.776  -2.785  13.079  1.00  0.00    -0.206 F 
ATOM     71  C   UNL     1      -1.228  -0.754  16.029  1.00  0.00     0.006 A 
ENDBRANCH  43  64
BRANCH  55  72
ATOM     72  C   UNL     1      -2.639  -9.650  17.125  1.00  0.00     0.057 A 
ATOM     73  C   UNL     1      -4.027  -9.458  17.133  1.00  0.00     0.134 A 
ATOM     74  C   UNL     1      -2.072 -10.318  18.218  1.00  0.00     0.134 A 
ATOM     75  F   UNL     1      -4.630  -8.814  16.122  1.00  0.00    -0.206 F 
ATOM     76  C   UNL     1      -4.815  -9.889  18.201  1.00  0.00     0.040 A 
ATOM     77  C   UNL     1      -2.853 -10.777  19.279  1.00  0.00     0.040 A 
ATOM     78  F   UNL     1      -0.750 -10.541  18.268  1.00  0.00    -0.206 F 
ATOM     79  C   UNL     1      -4.229 -10.556  19.275  1.00  0.00     0.006 A 
ENDBRANCH  55  72
ENDBRANCH  29  30
ENDBRANCH  21  24
ENDBRANCH  19  20
ENDBRANCH  18  19
ENDBRANCH  17  18
ENDBRANCH   1  17
TORSDOF 15
