REMARK SMILES CC[C@@](C)([NH2+]CC(=O)Nc1ccc(Br)cc1F)C(=O)NCCCCCCNC(=O)c1ccc(-c2c3nc(c(-c4c(F)cccc4F)c4ccc([nH]4)c(-c4c(F)cccc4F)c4nc(c(-c5c(F)cccc5F)c5ccc2[nH]5)C=C4)C=C3)cc1
REMARK SMILES IDX 22 1 21 2 20 3 18 4 19 5 3 7 4 8 2 9 1 10 5 11 6 14 7 15
REMARK SMILES IDX 8 16 9 17 10 19 11 20 16 21 12 22 15 23 17 24 13 25 14 26
REMARK SMILES IDX 23 27 24 28 25 29 26 30 27 31 28 32 29 34 30 35 31 36 83 37
REMARK SMILES IDX 32 38 82 39 33 40 34 41 35 42 76 43 36 44 81 45 75 46 77 47
REMARK SMILES IDX 37 48 80 49 74 50 73 51 38 53 64 54 47 55 63 56 48 57 51 58
REMARK SMILES IDX 62 59 78 60 49 61 50 62 61 64 79 65 52 66 39 67 40 68 45 69
REMARK SMILES IDX 41 70 42 71 44 72 46 73 43 74 65 75 66 76 71 77 67 78 68 79
REMARK SMILES IDX 70 80 72 81 69 82 53 83 54 84 59 85 55 86 56 87 58 88 60 89
REMARK SMILES IDX 57 90
REMARK H PARENT 20 6 5 12 5 13 9 18 27 33 77 52 51 63
REMARK Flexibility Score: inf
ROOT
ATOM      1  C   UNL     1       3.851   5.737  -0.809  1.00  0.00     0.021 C 
ENDROOT
BRANCH   1   2
ATOM      2  C   UNL     1       3.420   4.300  -1.122  1.00  0.00     0.116 C 
BRANCH   2   3
ATOM      3  N   UNL     1       2.948   3.535   0.038  1.00  0.00    -0.351 N 
ATOM      4  C   UNL     1       2.038   2.514   0.225  1.00  0.00     0.281 C 
ATOM      5  O   UNL     1       2.588   1.532   0.751  1.00  0.00    -0.268 OA
ATOM      6  H   UNL     1       3.381   3.814   0.877  1.00  0.00     0.163 HD
BRANCH   4   7
ATOM      7  C   UNL     1       0.385   2.618   0.141  1.00  0.00     0.172 C 
ATOM      8  C   UNL     1      -0.730   2.061  -0.813  1.00  0.00     0.090 C 
BRANCH   7   9
ATOM      9  C   UNL     1      -0.034   1.929   1.510  1.00  0.00     0.075 C 
ATOM     10  C   UNL     1       0.097   0.374   1.504  1.00  0.00     0.011 C 
ENDBRANCH   7   9
BRANCH   7  11
ATOM     11  N   UNL     1       0.127   4.059   0.066  1.00  0.00    -0.326 N 
ATOM     12  H   UNL     1       0.752   4.526   0.723  1.00  0.00     0.347 HD
ATOM     13  H   UNL     1      -0.862   4.180   0.286  1.00  0.00     0.347 HD
BRANCH  11  14
ATOM     14  C   UNL     1       0.327   4.673  -1.274  1.00  0.00     0.363 C 
BRANCH  14  15
ATOM     15  C   UNL     1       0.273   3.920  -2.659  1.00  0.00     0.279 C 
ATOM     16  O   UNL     1      -0.558   4.377  -3.473  1.00  0.00    -0.268 OA
ATOM     17  N   UNL     1       1.077   2.961  -3.240  1.00  0.00    -0.319 N 
ATOM     18  H   UNL     1       0.867   2.891  -4.199  1.00  0.00     0.170 HD
BRANCH  17  19
ATOM     19  C   UNL     1       2.112   2.039  -2.909  1.00  0.00     0.077 A 
ATOM     20  C   UNL     1       3.337   2.209  -3.567  1.00  0.00     0.030 A 
ATOM     21  C   UNL     1       2.000   0.867  -2.138  1.00  0.00     0.147 A 
ATOM     22  C   UNL     1       4.456   1.419  -3.241  1.00  0.00     0.018 A 
ATOM     23  C   UNL     1       3.106   0.092  -1.781  1.00  0.00     0.057 A 
ATOM     24  F   UNL     1       0.827   0.374  -1.735  1.00  0.00    -0.205 F 
ATOM     25  C   UNL     1       4.347   0.405  -2.296  1.00  0.00     0.021 A 
ATOM     26  Br  UNL     1       5.868  -0.556  -1.729  1.00  0.00    -0.051 Br
ENDBRANCH  17  19
ENDBRANCH  14  15
ENDBRANCH  11  14
ENDBRANCH   7  11
ENDBRANCH   4   7
ENDBRANCH   2   3
ENDBRANCH   1   2
BRANCH   1  27
ATOM     27  C   UNL     1       5.212   6.108  -1.416  1.00  0.00     0.002 C 
BRANCH  27  28
ATOM     28  C   UNL     1       5.344   5.974  -2.940  1.00  0.00     0.002 C 
BRANCH  28  29
ATOM     29  C   UNL     1       4.442   6.878  -3.782  1.00  0.00     0.021 C 
BRANCH  29  30
ATOM     30  C   UNL     1       4.527   8.370  -3.466  1.00  0.00     0.116 C 
BRANCH  30  31
ATOM     31  N   UNL     1       5.889   8.879  -3.525  1.00  0.00    -0.352 N 
ATOM     32  C   UNL     1       6.418   9.925  -4.243  1.00  0.00     0.251 C 
ATOM     33  H   UNL     1       6.536   8.397  -2.960  1.00  0.00     0.163 HD
ATOM     34  O   UNL     1       7.627  10.089  -4.290  1.00  0.00    -0.269 OA
BRANCH  32  35
ATOM     35  C   UNL     1       5.520  10.842  -4.978  1.00  0.00     0.039 A 
ATOM     36  C   UNL     1       5.856  11.206  -6.285  1.00  0.00     0.014 A 
ATOM     37  C   UNL     1       4.362  11.344  -4.382  1.00  0.00     0.014 A 
ATOM     38  C   UNL     1       4.987  12.014  -7.021  1.00  0.00     0.010 A 
ATOM     39  C   UNL     1       3.462  12.088  -5.139  1.00  0.00     0.010 A 
ATOM     40  C   UNL     1       3.763  12.424  -6.468  1.00  0.00    -0.014 A 
BRANCH  40  41
ATOM     41  C   UNL     1       2.768  13.170  -7.277  1.00  0.00     0.031 A 
ATOM     42  C   UNL     1       2.374  14.568  -6.901  1.00  0.00     0.074 A 
ATOM     43  C   UNL     1       2.163  12.550  -8.308  1.00  0.00     0.049 A 
ATOM     44  N   UNL     1       1.473  15.347  -7.444  1.00  0.00    -0.248 NA
ATOM     45  C   UNL     1       3.064  15.160  -5.746  1.00  0.00     0.031 C 
ATOM     46  C   UNL     1       2.421  11.173  -8.733  1.00  0.00     0.029 A 
ATOM     47  N   UNL     1       1.192  12.989  -9.172  1.00  0.00    -0.354 N 
ATOM     48  C   UNL     1       1.485  16.517  -6.697  1.00  0.00     0.074 A 
ATOM     49  C   UNL     1       2.438  16.321  -5.624  1.00  0.00     0.031 C 
ATOM     50  C   UNL     1       1.637  10.884  -9.784  1.00  0.00     0.029 A 
ATOM     51  C   UNL     1       0.794  12.037 -10.079  1.00  0.00     0.049 A 
ATOM     52  H   UNL     1       0.818  13.899  -9.145  1.00  0.00     0.167 HD
ATOM     53  C   UNL     1       0.784  17.658  -6.899  1.00  0.00     0.037 A 
ATOM     54  C   UNL     1      -0.157  12.081 -11.030  1.00  0.00     0.037 A 
ATOM     55  C   UNL     1      -0.166  17.843  -7.966  1.00  0.00     0.049 A 
ATOM     56  C   UNL     1      -0.944  13.346 -11.222  1.00  0.00     0.074 A 
ATOM     57  C   UNL     1      -0.889  18.976  -8.292  1.00  0.00     0.029 A 
ATOM     58  N   UNL     1      -0.535  16.860  -8.874  1.00  0.00    -0.354 N 
ATOM     59  N   UNL     1      -0.866  14.474 -10.559  1.00  0.00    -0.248 NA
ATOM     60  C   UNL     1      -1.946  13.347 -12.296  1.00  0.00     0.031 C 
ATOM     61  C   UNL     1      -1.737  18.663  -9.360  1.00  0.00     0.029 A 
ATOM     62  C   UNL     1      -1.501  17.350  -9.738  1.00  0.00     0.049 A 
ATOM     63  H   UNL     1      -0.165  15.948  -8.900  1.00  0.00     0.167 HD
ATOM     64  C   UNL     1      -1.797  15.324 -11.141  1.00  0.00     0.074 A 
ATOM     65  C   UNL     1      -2.411  14.587 -12.227  1.00  0.00     0.031 C 
ATOM     66  C   UNL     1      -2.114  16.599 -10.806  1.00  0.00     0.037 A 
BRANCH  53  67
ATOM     67  C   UNL     1       1.019  18.789  -5.937  1.00  0.00     0.057 A 
ATOM     68  C   UNL     1       2.242  19.474  -5.886  1.00  0.00     0.134 A 
ATOM     69  C   UNL     1       0.013  19.203  -5.056  1.00  0.00     0.134 A 
ATOM     70  F   UNL     1       3.253  19.123  -6.695  1.00  0.00    -0.206 F 
ATOM     71  C   UNL     1       2.468  20.501  -4.967  1.00  0.00     0.040 A 
ATOM     72  C   UNL     1       0.216  20.250  -4.154  1.00  0.00     0.040 A 
ATOM     73  F   UNL     1      -1.185  18.599  -5.055  1.00  0.00    -0.206 F 
ATOM     74  C   UNL     1       1.451  20.894  -4.100  1.00  0.00     0.006 A 
ENDBRANCH  53  67
BRANCH  54  75
ATOM     75  C   UNL     1      -0.408  10.883 -11.871  1.00  0.00     0.057 A 
ATOM     76  C   UNL     1      -0.051  10.857 -13.223  1.00  0.00     0.134 A 
ATOM     77  C   UNL     1      -0.985   9.725 -11.333  1.00  0.00     0.134 A 
ATOM     78  F   UNL     1       0.490  11.940 -13.799  1.00  0.00    -0.206 F 
ATOM     79  C   UNL     1      -0.267   9.727 -14.014  1.00  0.00     0.040 A 
ATOM     80  C   UNL     1      -1.182   8.580 -12.105  1.00  0.00     0.040 A 
ATOM     81  F   UNL     1      -1.339   9.682 -10.040  1.00  0.00    -0.206 F 
ATOM     82  C   UNL     1      -0.827   8.581 -13.453  1.00  0.00     0.006 A 
ENDBRANCH  54  75
BRANCH  66  83
ATOM     83  C   UNL     1      -3.169  17.281 -11.629  1.00  0.00     0.057 A 
ATOM     84  C   UNL     1      -4.521  16.926 -11.537  1.00  0.00     0.134 A 
ATOM     85  C   UNL     1      -2.834  18.334 -12.491  1.00  0.00     0.134 A 
ATOM     86  F   UNL     1      -4.907  15.917 -10.742  1.00  0.00    -0.206 F 
ATOM     87  C   UNL     1      -5.499  17.579 -12.290  1.00  0.00     0.040 A 
ATOM     88  C   UNL     1      -3.807  19.013 -13.226  1.00  0.00     0.040 A 
ATOM     89  F   UNL     1      -1.559  18.730 -12.620  1.00  0.00    -0.206 F 
ATOM     90  C   UNL     1      -5.144  18.632 -13.130  1.00  0.00     0.006 A 
ENDBRANCH  66  83
ENDBRANCH  40  41
ENDBRANCH  32  35
ENDBRANCH  30  31
ENDBRANCH  29  30
ENDBRANCH  28  29
ENDBRANCH  27  28
ENDBRANCH   1  27
TORSDOF 18
