REMARK SMILES O=C(NCCCCCCNC(=O)[C@H]1[C@@H]2C[C@H]3C[C@@H](C2)C[C@]1(n1ncc(N2CCN(c4ccc(F)cc4)CC2)c(Cl)c1=O)C3)c1ccc(-c2c3nc(c(-c4c(F)cccc4F)c4ccc([nH]4)c(-c4c(F)cccc4F)c4nc(c(-c5c(F)cccc5F)c5ccc2[nH]5)C=C4)C=C3)cc1
REMARK SMILES IDX 7 1 6 2 5 3 4 4 3 5 1 6 2 7 44 9 45 10 97 11 46 12 96 13
REMARK SMILES IDX 47 14 48 15 49 16 90 17 50 18 95 19 89 20 91 21 51 22 94 23
REMARK SMILES IDX 88 24 87 25 52 27 78 28 61 29 77 30 62 31 65 32 76 33 92 34
REMARK SMILES IDX 63 35 64 36 75 38 93 39 66 40 53 41 54 42 59 43 55 44 56 45
REMARK SMILES IDX 58 46 60 47 57 48 79 49 80 50 85 51 81 52 82 53 84 54 86 55
REMARK SMILES IDX 83 56 67 57 68 58 73 59 69 60 70 61 72 62 74 63 71 64 8 65
REMARK SMILES IDX 9 66 10 67 11 68 12 70 13 71 14 72 21 73 19 74 15 75 43 76
REMARK SMILES IDX 20 77 18 78 16 79 17 80 22 81 23 82 41 83 24 84 39 85 42 86
REMARK SMILES IDX 25 87 40 88 26 89 27 90 38 91 28 92 37 93 29 94 30 95 31 96
REMARK SMILES IDX 36 97 32 98 35 99 33 100 34 101
REMARK H PARENT 3 8 91 26 65 37 10 69
REMARK Flexibility Score: inf
ROOT
ATOM      1  C   UNL     1       3.802  -2.333  -4.072  1.00  0.00     0.002 C 
ENDROOT
BRANCH   1   2
ATOM      2  C   UNL     1       3.552  -2.935  -2.684  1.00  0.00     0.002 C 
BRANCH   2   3
ATOM      3  C   UNL     1       4.290  -2.313  -1.494  1.00  0.00     0.021 C 
BRANCH   3   4
ATOM      4  C   UNL     1       4.192  -0.800  -1.326  1.00  0.00     0.116 C 
BRANCH   4   5
ATOM      5  N   UNL     1       2.821  -0.356  -1.162  1.00  0.00    -0.352 N 
ATOM      6  O   UNL     1       0.942   0.296  -0.138  1.00  0.00    -0.269 OA
ATOM      7  C   UNL     1       2.173   0.208  -0.097  1.00  0.00     0.251 C 
ATOM      8  H   UNL     1       2.256  -0.482  -1.958  1.00  0.00     0.163 HD
BRANCH   7   9
ATOM      9  C   UNL     1       2.887   0.728   1.095  1.00  0.00     0.039 A 
ATOM     10  C   UNL     1       2.230   0.673   2.331  1.00  0.00     0.014 A 
ATOM     11  C   UNL     1       4.119   1.384   1.009  1.00  0.00     0.014 A 
ATOM     12  C   UNL     1       2.789   1.279   3.460  1.00  0.00     0.010 A 
ATOM     13  C   UNL     1       4.715   1.921   2.154  1.00  0.00     0.010 A 
ATOM     14  C   UNL     1       4.034   1.919   3.380  1.00  0.00    -0.014 A 
BRANCH  14  15
ATOM     15  C   UNL     1       4.561   2.694   4.537  1.00  0.00     0.031 A 
ATOM     16  C   UNL     1       4.677   4.195   4.441  1.00  0.00     0.074 A 
ATOM     17  C   UNL     1       4.916   2.069   5.676  1.00  0.00     0.049 A 
ATOM     18  N   UNL     1       5.111   5.055   5.329  1.00  0.00    -0.248 NA
ATOM     19  C   UNL     1       4.273   4.808   3.165  1.00  0.00     0.031 C 
ATOM     20  C   UNL     1       4.882   0.623   5.897  1.00  0.00     0.029 A 
ATOM     21  N   UNL     1       5.372   2.578   6.867  1.00  0.00    -0.354 N 
ATOM     22  C   UNL     1       5.036   6.302   4.718  1.00  0.00     0.074 A 
ATOM     23  C   UNL     1       4.585   6.080   3.361  1.00  0.00     0.031 C 
ATOM     24  C   UNL     1       5.273   0.363   7.156  1.00  0.00     0.029 A 
ATOM     25  C   UNL     1       5.604   1.619   7.822  1.00  0.00     0.049 A 
ATOM     26  H   UNL     1       5.519   3.539   7.021  1.00  0.00     0.167 HD
ATOM     27  C   UNL     1       5.282   7.527   5.241  1.00  0.00     0.037 A 
ATOM     28  C   UNL     1       6.027   1.743   9.095  1.00  0.00     0.037 A 
ATOM     29  C   UNL     1       5.708   7.761   6.595  1.00  0.00     0.049 A 
ATOM     30  C   UNL     1       6.289   3.114   9.656  1.00  0.00     0.074 A 
ATOM     31  C   UNL     1       5.979   8.963   7.224  1.00  0.00     0.029 A 
ATOM     32  N   UNL     1       5.912   6.763   7.535  1.00  0.00    -0.354 N 
ATOM     33  N   UNL     1       6.186   4.283   9.073  1.00  0.00    -0.248 NA
ATOM     34  C   UNL     1       6.712   3.180  11.063  1.00  0.00     0.031 C 
ATOM     35  C   UNL     1       6.366   8.691   8.542  1.00  0.00     0.029 A 
ATOM     36  C   UNL     1       6.303   7.321   8.741  1.00  0.00     0.049 A 
ATOM     37  H   UNL     1       5.796   5.799   7.370  1.00  0.00     0.167 HD
ATOM     38  C   UNL     1       6.506   5.223  10.045  1.00  0.00     0.074 A 
ATOM     39  C   UNL     1       6.784   4.488  11.261  1.00  0.00     0.031 C 
ATOM     40  C   UNL     1       6.570   6.573   9.942  1.00  0.00     0.037 A 
BRANCH  27  41
ATOM     41  C   UNL     1       5.074   8.707   4.335  1.00  0.00     0.057 A 
ATOM     42  C   UNL     1       6.160   9.447   3.852  1.00  0.00     0.134 A 
ATOM     43  C   UNL     1       3.791   9.104   3.932  1.00  0.00     0.134 A 
ATOM     44  F   UNL     1       7.414   9.125   4.201  1.00  0.00    -0.206 F 
ATOM     45  C   UNL     1       5.977  10.533   2.993  1.00  0.00     0.040 A 
ATOM     46  C   UNL     1       3.598  10.171   3.052  1.00  0.00     0.040 A 
ATOM     47  F   UNL     1       2.709   8.427   4.346  1.00  0.00    -0.206 F 
ATOM     48  C   UNL     1       4.694  10.891   2.583  1.00  0.00     0.006 A 
ENDBRANCH  27  41
BRANCH  28  49
ATOM     49  C   UNL     1       6.203   0.539   9.946  1.00  0.00     0.057 A 
ATOM     50  C   UNL     1       7.260  -0.353   9.738  1.00  0.00     0.134 A 
ATOM     51  C   UNL     1       5.338   0.277  11.015  1.00  0.00     0.134 A 
ATOM     52  F   UNL     1       8.121  -0.160   8.728  1.00  0.00    -0.206 F 
ATOM     53  C   UNL     1       7.454  -1.461  10.565  1.00  0.00     0.040 A 
ATOM     54  C   UNL     1       5.534  -0.813  11.865  1.00  0.00     0.040 A 
ATOM     55  F   UNL     1       4.319   1.109  11.278  1.00  0.00    -0.206 F 
ATOM     56  C   UNL     1       6.595  -1.687  11.639  1.00  0.00     0.006 A 
ENDBRANCH  28  49
BRANCH  40  57
ATOM     57  C   UNL     1       6.921   7.331  11.188  1.00  0.00     0.057 A 
ATOM     58  C   UNL     1       5.950   8.078  11.866  1.00  0.00     0.134 A 
ATOM     59  C   UNL     1       8.217   7.319  11.719  1.00  0.00     0.134 A 
ATOM     60  F   UNL     1       4.691   8.138  11.405  1.00  0.00    -0.206 F 
ATOM     61  C   UNL     1       6.253   8.776  13.035  1.00  0.00     0.040 A 
ATOM     62  C   UNL     1       8.526   7.992  12.902  1.00  0.00     0.040 A 
ATOM     63  F   UNL     1       9.189   6.611  11.124  1.00  0.00    -0.206 F 
ATOM     64  C   UNL     1       7.542   8.726  13.562  1.00  0.00     0.006 A 
ENDBRANCH  40  57
ENDBRANCH  14  15
ENDBRANCH   7   9
ENDBRANCH   4   5
ENDBRANCH   3   4
ENDBRANCH   2   3
ENDBRANCH   1   2
BRANCH   1  65
ATOM     65  C   UNL     1       5.184  -2.568  -4.704  1.00  0.00     0.021 C 
BRANCH  65  66
ATOM     66  C   UNL     1       5.537  -4.045  -4.944  1.00  0.00     0.116 C 
BRANCH  66  67
ATOM     67  N   UNL     1       6.671  -4.265  -5.838  1.00  0.00    -0.356 N 
ATOM     68  C   UNL     1       8.003  -4.492  -5.727  1.00  0.00     0.225 C 
ATOM     69  H   UNL     1       6.391  -4.241  -6.782  1.00  0.00     0.163 HD
ATOM     70  O   UNL     1       8.525  -4.959  -6.755  1.00  0.00    -0.275 OA
BRANCH  68  71
ATOM     71  C   UNL     1       8.935  -4.116  -4.564  1.00  0.00     0.109 C 
ATOM     72  C   UNL     1       8.537  -2.895  -3.695  1.00  0.00     0.004 C 
ATOM     73  C   UNL     1       9.606  -5.216  -3.663  1.00  0.00     0.079 C 
ATOM     74  C   UNL     1       7.681  -3.280  -2.479  1.00  0.00     0.008 C 
ATOM     75  C   UNL     1       9.814  -2.254  -3.112  1.00  0.00     0.008 C 
ATOM     76  C   UNL     1      10.881  -4.505  -3.033  1.00  0.00     0.035 C 
ATOM     77  C   UNL     1       8.663  -5.563  -2.479  1.00  0.00     0.035 C 
ATOM     78  C   UNL     1       8.361  -4.333  -1.613  1.00  0.00    -0.008 C 
ATOM     79  C   UNL     1      10.536  -3.266  -2.212  1.00  0.00    -0.008 C 
ATOM     80  C   UNL     1       9.643  -3.720  -1.052  1.00  0.00     0.007 C 
BRANCH  73  81
ATOM     81  N   UNL     1      10.066  -6.494  -4.316  1.00  0.00    -0.222 N 
ATOM     82  N   UNL     1      11.410  -6.770  -4.142  1.00  0.00    -0.175 NA
ATOM     83  C   UNL     1       9.178  -7.458  -4.810  1.00  0.00     0.288 A 
ATOM     84  C   UNL     1      11.820  -7.979  -4.295  1.00  0.00     0.161 A 
ATOM     85  C   UNL     1       9.761  -8.823  -5.057  1.00  0.00     0.132 A 
ATOM     86  O   UNL     1       7.968  -7.269  -4.927  1.00  0.00    -0.266 OA
ATOM     87  C   UNL     1      11.009  -9.146  -4.685  1.00  0.00     0.082 A 
ATOM     88  Cl  UNL     1       8.677 -10.039  -5.653  1.00  0.00    -0.076 Cl
BRANCH  87  89
ATOM     89  N   UNL     1      11.637 -10.394  -4.679  1.00  0.00    -0.365 N 
ATOM     90  C   UNL     1      12.283 -10.929  -3.448  1.00  0.00     0.138 C 
ATOM     91  C   UNL     1      12.202 -10.954  -5.928  1.00  0.00     0.138 C 
ATOM     92  C   UNL     1      12.311 -12.480  -3.429  1.00  0.00     0.138 C 
ATOM     93  C   UNL     1      12.197 -12.493  -5.901  1.00  0.00     0.138 C 
ATOM     94  N   UNL     1      12.880 -12.974  -4.688  1.00  0.00    -0.368 N 
BRANCH  94  95
ATOM     95  C   UNL     1      13.656 -14.109  -4.766  1.00  0.00     0.037 A 
ATOM     96  C   UNL     1      14.759 -14.129  -5.636  1.00  0.00     0.029 A 
ATOM     97  C   UNL     1      13.401 -15.258  -4.007  1.00  0.00     0.029 A 
ATOM     98  C   UNL     1      15.576 -15.254  -5.756  1.00  0.00     0.041 A 
ATOM     99  C   UNL     1      14.206 -16.397  -4.134  1.00  0.00     0.041 A 
ATOM    100  C   UNL     1      15.286 -16.382  -5.007  1.00  0.00     0.123 A 
ATOM    101  F   UNL     1      16.058 -17.470  -5.127  1.00  0.00    -0.207 F 
ENDBRANCH  94  95
ENDBRANCH  87  89
ENDBRANCH  73  81
ENDBRANCH  68  71
ENDBRANCH  66  67
ENDBRANCH  65  66
ENDBRANCH   1  65
TORSDOF 16
