REMARK SMILES CC(C)Cc1ccc(-c2cc(Cl)cc3c2O[C@H](C(F)(F)F)C(C(=O)NCCCCCCNC(=O)c2ccc(-c4c5nc(c(-c6c(F)cccc6F)c6ccc([nH]6)c(-c6c(F)cccc6F)c6nc(c(-c7c(F)cccc7F)c7ccc4[nH]7)C=C6)C=C5)cc2)=C3)cc1
REMARK SMILES IDX 28 1 27 2 26 3 25 4 23 5 24 6 22 8 9 9 10 10 15 11 11 12
REMARK SMILES IDX 14 13 16 14 12 15 13 16 89 17 17 18 8 19 5 20 6 21 91 22
REMARK SMILES IDX 7 23 90 24 4 25 2 26 1 27 3 28 18 29 19 30 20 31 21 32 29 33
REMARK SMILES IDX 30 34 31 35 32 36 33 37 34 39 35 40 36 41 88 42 37 43 87 44
REMARK SMILES IDX 38 45 39 46 40 47 81 48 41 49 86 50 80 51 82 52 42 53 85 54
REMARK SMILES IDX 79 55 78 56 43 58 69 59 52 60 68 61 53 62 56 63 67 64 83 65
REMARK SMILES IDX 54 66 55 67 66 69 84 70 57 71 44 72 45 73 50 74 46 75 47 76
REMARK SMILES IDX 49 77 51 78 48 79 70 80 71 81 76 82 72 83 73 84 75 85 77 86
REMARK SMILES IDX 74 87 58 88 59 89 64 90 60 91 61 92 63 93 65 94 62 95
REMARK H PARENT 25 7 32 38 82 57 56 68
REMARK Flexibility Score: inf
ROOT
ATOM      1  C   UNL     1      -4.988   9.826  -9.438  1.00  0.00     0.002 C 
ENDROOT
BRANCH   1   2
ATOM      2  C   UNL     1      -5.923   9.143  -8.426  1.00  0.00     0.021 C 
BRANCH   2   3
ATOM      3  C   UNL     1      -6.010   7.614  -8.555  1.00  0.00     0.116 C 
BRANCH   3   4
ATOM      4  N   UNL     1      -4.697   7.026  -8.385  1.00  0.00    -0.352 N 
ATOM      5  C   UNL     1      -4.356   6.211  -7.353  1.00  0.00     0.251 C 
ATOM      6  O   UNL     1      -3.397   6.479  -6.642  1.00  0.00    -0.270 OA
ATOM      7  H   UNL     1      -4.009   7.228  -9.059  1.00  0.00     0.163 HD
BRANCH   5   8
ATOM      8  C   UNL     1      -5.103   4.921  -7.264  1.00  0.00     0.067 C 
ATOM      9  C   UNL     1      -2.818   3.018  -4.488  1.00  0.00     0.026 A 
ATOM     10  C   UNL     1      -1.472   3.302  -4.845  1.00  0.00     0.033 A 
ATOM     11  C   UNL     1      -3.793   3.326  -5.456  1.00  0.00     0.135 A 
ATOM     12  C   UNL     1      -1.095   3.650  -6.138  1.00  0.00     0.042 A 
ATOM     13  C   UNL     1      -3.379   3.562  -6.793  1.00  0.00     0.019 A 
ATOM     14  O   UNL     1      -5.146   3.494  -5.176  1.00  0.00    -0.475 OA
ATOM     15  Cl  UNL     1       0.555   3.972  -6.489  1.00  0.00    -0.084 Cl
ATOM     16  C   UNL     1      -2.039   3.699  -7.142  1.00  0.00     0.032 A 
ATOM     17  C   UNL     1      -4.419   3.888  -7.793  1.00  0.00     0.025 C 
ATOM     18  C   UNL     1      -5.761   4.644  -5.920  1.00  0.00     0.314 C 
BRANCH   9  19
ATOM     19  C   UNL     1      -2.929   2.163  -3.270  1.00  0.00    -0.015 A 
ATOM     20  C   UNL     1      -1.896   0.192  -1.452  1.00  0.00    -0.048 A 
ATOM     21  C   UNL     1      -1.772   1.559  -1.182  1.00  0.00     0.004 A 
ATOM     22  C   UNL     1      -2.667  -0.175  -2.564  1.00  0.00     0.004 A 
ATOM     23  C   UNL     1      -2.287   2.528  -2.069  1.00  0.00     0.009 A 
ATOM     24  C   UNL     1      -3.191   0.792  -3.447  1.00  0.00     0.009 A 
BRANCH  20  25
ATOM     25  C   UNL     1      -1.269  -0.863  -0.553  1.00  0.00     0.038 C 
BRANCH  25  26
ATOM     26  C   UNL     1       0.270  -1.080  -0.611  1.00  0.00    -0.013 C 
ATOM     27  C   UNL     1       1.090   0.131  -0.162  1.00  0.00     0.008 C 
ATOM     28  C   UNL     1       0.654  -2.273   0.285  1.00  0.00     0.008 C 
ENDBRANCH  25  26
ENDBRANCH  20  25
ENDBRANCH   9  19
BRANCH  18  29
ATOM     29  C   UNL     1      -7.274   4.454  -6.179  1.00  0.00     0.429 C 
ATOM     30  F   UNL     1      -7.690   3.186  -5.968  1.00  0.00    -0.167 F 
ATOM     31  F   UNL     1      -8.015   5.269  -5.390  1.00  0.00    -0.167 F 
ATOM     32  F   UNL     1      -7.624   4.763  -7.459  1.00  0.00    -0.167 F 
ENDBRANCH  18  29
ENDBRANCH   5   8
ENDBRANCH   3   4
ENDBRANCH   2   3
ENDBRANCH   1   2
BRANCH   1  33
ATOM     33  C   UNL     1      -5.283   9.509 -10.906  1.00  0.00     0.002 C 
BRANCH  33  34
ATOM     34  C   UNL     1      -6.691   9.886 -11.366  1.00  0.00     0.021 C 
BRANCH  34  35
ATOM     35  C   UNL     1      -7.058  11.347 -11.143  1.00  0.00     0.116 C 
BRANCH  35  36
ATOM     36  N   UNL     1      -6.191  12.258 -11.874  1.00  0.00    -0.352 N 
ATOM     37  C   UNL     1      -6.535  13.321 -12.670  1.00  0.00     0.251 C 
ATOM     38  H   UNL     1      -5.226  12.088 -11.786  1.00  0.00     0.163 HD
ATOM     39  O   UNL     1      -5.685  13.891 -13.351  1.00  0.00    -0.269 OA
BRANCH  37  40
ATOM     40  C   UNL     1      -7.943  13.762 -12.726  1.00  0.00     0.039 A 
ATOM     41  C   UNL     1      -8.524  14.011 -13.970  1.00  0.00     0.014 A 
ATOM     42  C   UNL     1      -8.691  13.907 -11.554  1.00  0.00     0.014 A 
ATOM     43  C   UNL     1      -9.876  14.350 -14.043  1.00  0.00     0.010 A 
ATOM     44  C   UNL     1     -10.055  14.164 -11.634  1.00  0.00     0.010 A 
ATOM     45  C   UNL     1     -10.660  14.394 -12.879  1.00  0.00    -0.014 A 
BRANCH  45  46
ATOM     46  C   UNL     1     -12.114  14.681 -12.945  1.00  0.00     0.031 A 
ATOM     47  C   UNL     1     -12.674  15.909 -12.283  1.00  0.00     0.074 A 
ATOM     48  C   UNL     1     -12.940  13.802 -13.544  1.00  0.00     0.049 A 
ATOM     49  N   UNL     1     -13.919  16.300 -12.183  1.00  0.00    -0.248 NA
ATOM     50  C   UNL     1     -11.709  16.799 -11.620  1.00  0.00     0.031 C 
ATOM     51  C   UNL     1     -12.526  12.545 -14.170  1.00  0.00     0.029 A 
ATOM     52  N   UNL     1     -14.302  13.824 -13.711  1.00  0.00    -0.354 N 
ATOM     53  C   UNL     1     -13.887  17.473 -11.441  1.00  0.00     0.074 A 
ATOM     54  C   UNL     1     -12.509  17.692 -11.058  1.00  0.00     0.031 C 
ATOM     55  C   UNL     1     -13.607  11.925 -14.666  1.00  0.00     0.029 A 
ATOM     56  C   UNL     1     -14.794  12.719 -14.360  1.00  0.00     0.049 A 
ATOM     57  H   UNL     1     -14.871  14.562 -13.395  1.00  0.00     0.167 HD
ATOM     58  C   UNL     1     -14.907  18.308 -11.129  1.00  0.00     0.037 A 
ATOM     59  C   UNL     1     -16.059  12.376 -14.665  1.00  0.00     0.037 A 
ATOM     60  C   UNL     1     -16.276  18.087 -11.516  1.00  0.00     0.049 A 
ATOM     61  C   UNL     1     -17.180  13.309 -14.302  1.00  0.00     0.074 A 
ATOM     62  C   UNL     1     -17.377  18.896 -11.296  1.00  0.00     0.029 A 
ATOM     63  N   UNL     1     -16.734  16.966 -12.194  1.00  0.00    -0.354 N 
ATOM     64  N   UNL     1     -17.128  14.456 -13.667  1.00  0.00    -0.248 NA
ATOM     65  C   UNL     1     -18.534  12.908 -14.706  1.00  0.00     0.031 C 
ATOM     66  C   UNL     1     -18.508  18.239 -11.793  1.00  0.00     0.029 A 
ATOM     67  C   UNL     1     -18.105  17.049 -12.377  1.00  0.00     0.049 A 
ATOM     68  H   UNL     1     -16.168  16.221 -12.501  1.00  0.00     0.167 HD
ATOM     69  C   UNL     1     -18.434  14.923 -13.614  1.00  0.00     0.074 A 
ATOM     70  C   UNL     1     -19.255  13.943 -14.296  1.00  0.00     0.031 C 
ATOM     71  C   UNL     1     -18.911  16.062 -13.052  1.00  0.00     0.037 A 
BRANCH  58  72
ATOM     72  C   UNL     1     -14.570  19.530 -10.322  1.00  0.00     0.057 A 
ATOM     73  C   UNL     1     -13.784  20.569 -10.842  1.00  0.00     0.134 A 
ATOM     74  C   UNL     1     -15.033  19.672  -9.007  1.00  0.00     0.134 A 
ATOM     75  F   UNL     1     -13.298  20.494 -12.090  1.00  0.00    -0.206 F 
ATOM     76  C   UNL     1     -13.434  21.679 -10.071  1.00  0.00     0.040 A 
ATOM     77  C   UNL     1     -14.718  20.794  -8.238  1.00  0.00     0.040 A 
ATOM     78  F   UNL     1     -15.797  18.723  -8.447  1.00  0.00    -0.206 F 
ATOM     79  C   UNL     1     -13.906  21.796  -8.766  1.00  0.00     0.006 A 
ENDBRANCH  58  72
BRANCH  59  80
ATOM     80  C   UNL     1     -16.323  11.093 -15.364  1.00  0.00     0.057 A 
ATOM     81  C   UNL     1     -16.735  11.065 -16.700  1.00  0.00     0.134 A 
ATOM     82  C   UNL     1     -16.141   9.863 -14.719  1.00  0.00     0.134 A 
ATOM     83  F   UNL     1     -16.942  12.210 -17.367  1.00  0.00    -0.206 F 
ATOM     84  C   UNL     1     -16.969   9.862 -17.368  1.00  0.00     0.040 A 
ATOM     85  C   UNL     1     -16.345   8.652 -15.382  1.00  0.00     0.040 A 
ATOM     86  F   UNL     1     -15.735   9.822 -13.441  1.00  0.00    -0.206 F 
ATOM     87  C   UNL     1     -16.766   8.650 -16.710  1.00  0.00     0.006 A 
ENDBRANCH  59  80
BRANCH  71  88
ATOM     88  C   UNL     1     -20.385  16.323 -13.173  1.00  0.00     0.057 A 
ATOM     89  C   UNL     1     -21.332  15.576 -12.461  1.00  0.00     0.134 A 
ATOM     90  C   UNL     1     -20.860  17.362 -13.984  1.00  0.00     0.134 A 
ATOM     91  F   UNL     1     -20.946  14.559 -11.676  1.00  0.00    -0.206 F 
ATOM     92  C   UNL     1     -22.700  15.839 -12.569  1.00  0.00     0.040 A 
ATOM     93  C   UNL     1     -22.222  17.653 -14.077  1.00  0.00     0.040 A 
ATOM     94  F   UNL     1     -20.007  18.122 -14.687  1.00  0.00    -0.206 F 
ATOM     95  C   UNL     1     -23.147  16.885 -13.373  1.00  0.00     0.006 A 
ENDBRANCH  71  88
ENDBRANCH  45  46
ENDBRANCH  37  40
ENDBRANCH  35  36
ENDBRANCH  34  35
ENDBRANCH  33  34
ENDBRANCH   1  33
TORSDOF 17
