REMARK SMILES Nc1ccc(-c2cc(Cl)cc3c2O[C@H](C(F)(F)F)C(C(=O)NCCCCCCNC(=O)c2ccc(-c4c5nc(c(-c6c(F)cccc6F)c6ccc([nH]6)c(-c6c(F)cccc6F)c6nc(c(-c7c(F)cccc7F)c7ccc4[nH]7)C=C6)C=C5)cc2)=C3)cc1
REMARK SMILES IDX 25 1 24 2 23 3 22 4 20 5 21 6 19 8 6 9 7 10 12 11 8 12 11 13
REMARK SMILES IDX 13 14 9 15 10 16 86 17 14 18 5 19 2 20 3 21 88 22 4 23 87 24
REMARK SMILES IDX 1 25 15 28 16 29 17 30 18 31 26 32 27 33 28 34 29 35 30 36
REMARK SMILES IDX 31 38 32 39 33 40 85 41 34 42 84 43 35 44 36 45 37 46 78 47
REMARK SMILES IDX 38 48 83 49 77 50 79 51 39 52 82 53 76 54 75 55 40 57 66 58
REMARK SMILES IDX 49 59 65 60 50 61 53 62 64 63 80 64 51 65 52 66 63 68 81 69
REMARK SMILES IDX 54 70 41 71 42 72 47 73 43 74 44 75 46 76 48 77 45 78 67 79
REMARK SMILES IDX 68 80 73 81 69 82 70 83 72 84 74 85 71 86 55 87 56 88 61 89
REMARK SMILES IDX 57 90 58 91 60 92 62 93 59 94
REMARK H PARENT 22 7 1 26 1 27 29 37 79 56 53 67
REMARK Flexibility Score: inf
ROOT
ATOM      1  C   UNL     1      -4.520  -3.308   8.207  1.00  0.00     0.002 C 
ENDROOT
BRANCH   1   2
ATOM      2  C   UNL     1      -4.004  -2.566   6.969  1.00  0.00     0.021 C 
BRANCH   2   3
ATOM      3  C   UNL     1      -4.332  -3.256   5.648  1.00  0.00     0.116 C 
BRANCH   3   4
ATOM      4  N   UNL     1      -5.658  -2.907   5.167  1.00  0.00    -0.352 N 
ATOM      5  C   UNL     1      -6.199  -2.299   4.085  1.00  0.00     0.251 C 
ATOM      6  O   UNL     1      -7.434  -2.244   4.078  1.00  0.00    -0.270 OA
ATOM      7  H   UNL     1      -6.355  -3.191   5.803  1.00  0.00     0.163 HD
BRANCH   5   8
ATOM      8  C   UNL     1      -5.433  -1.713   2.945  1.00  0.00     0.067 C 
ATOM      9  C   UNL     1      -3.373   0.131  -0.241  1.00  0.00     0.026 A 
ATOM     10  C   UNL     1      -4.114   0.693  -1.290  1.00  0.00     0.033 A 
ATOM     11  C   UNL     1      -4.080  -0.429   0.842  1.00  0.00     0.135 A 
ATOM     12  C   UNL     1      -5.511   0.684  -1.250  1.00  0.00     0.042 A 
ATOM     13  C   UNL     1      -5.478  -0.447   0.881  1.00  0.00     0.019 A 
ATOM     14  O   UNL     1      -3.338  -0.891   1.895  1.00  0.00    -0.475 OA
ATOM     15  Cl  UNL     1      -6.400   1.388  -2.545  1.00  0.00    -0.084 Cl
ATOM     16  C   UNL     1      -6.195   0.117  -0.174  1.00  0.00     0.032 A 
ATOM     17  C   UNL     1      -6.155  -1.023   2.040  1.00  0.00     0.025 C 
ATOM     18  C   UNL     1      -3.955  -1.877   2.754  1.00  0.00     0.314 C 
BRANCH   9  19
ATOM     19  C   UNL     1      -1.901   0.121  -0.269  1.00  0.00    -0.014 A 
ATOM     20  C   UNL     1       0.930   0.074  -0.134  1.00  0.00     0.031 A 
ATOM     21  C   UNL     1       0.202  -1.113  -0.190  1.00  0.00     0.026 A 
ATOM     22  C   UNL     1       0.233   1.284  -0.132  1.00  0.00     0.026 A 
ATOM     23  C   UNL     1      -1.194  -1.092  -0.273  1.00  0.00     0.011 A 
ATOM     24  C   UNL     1      -1.165   1.311  -0.210  1.00  0.00     0.011 A 
BRANCH  20  25
ATOM     25  N   UNL     1       2.302   0.049   0.043  1.00  0.00    -0.399 N 
ATOM     26  H   UNL     1       2.783  -0.810   0.040  1.00  0.00     0.156 HD
ATOM     27  H   UNL     1       2.797   0.890   0.173  1.00  0.00     0.156 HD
ENDBRANCH  20  25
ENDBRANCH   9  19
BRANCH  18  28
ATOM     28  C   UNL     1      -3.561  -3.285   2.274  1.00  0.00     0.429 C 
ATOM     29  F   UNL     1      -2.227  -3.485   2.419  1.00  0.00    -0.167 F 
ATOM     30  F   UNL     1      -4.170  -4.266   2.981  1.00  0.00    -0.167 F 
ATOM     31  F   UNL     1      -3.860  -3.494   0.972  1.00  0.00    -0.167 F 
ENDBRANCH  18  28
ENDBRANCH   5   8
ENDBRANCH   3   4
ENDBRANCH   2   3
ENDBRANCH   1   2
BRANCH   1  32
ATOM     32  C   UNL     1      -4.048  -4.761   8.354  1.00  0.00     0.002 C 
BRANCH  32  33
ATOM     33  C   UNL     1      -2.544  -4.991   8.187  1.00  0.00     0.021 C 
BRANCH  33  34
ATOM     34  C   UNL     1      -1.663  -4.208   9.154  1.00  0.00     0.116 C 
BRANCH  34  35
ATOM     35  N   UNL     1      -1.871  -4.597  10.540  1.00  0.00    -0.352 N 
ATOM     36  C   UNL     1      -0.945  -4.955  11.489  1.00  0.00     0.251 C 
ATOM     37  H   UNL     1      -2.808  -4.604  10.840  1.00  0.00     0.163 HD
ATOM     38  O   UNL     1      -1.307  -5.401  12.573  1.00  0.00    -0.269 OA
BRANCH  36  39
ATOM     39  C   UNL     1       0.497  -4.832  11.185  1.00  0.00     0.039 A 
ATOM     40  C   UNL     1       1.004  -3.673  10.594  1.00  0.00     0.014 A 
ATOM     41  C   UNL     1       1.346  -5.904  11.474  1.00  0.00     0.014 A 
ATOM     42  C   UNL     1       2.321  -3.648  10.147  1.00  0.00     0.010 A 
ATOM     43  C   UNL     1       2.690  -5.845  11.094  1.00  0.00     0.010 A 
ATOM     44  C   UNL     1       3.176  -4.736  10.383  1.00  0.00    -0.014 A 
BRANCH  44  45
ATOM     45  C   UNL     1       4.567  -4.700   9.863  1.00  0.00     0.031 A 
ATOM     46  C   UNL     1       5.013  -5.665   8.796  1.00  0.00     0.074 A 
ATOM     47  C   UNL     1       5.418  -3.761  10.321  1.00  0.00     0.049 A 
ATOM     48  N   UNL     1       6.183  -5.771   8.215  1.00  0.00    -0.248 NA
ATOM     49  C   UNL     1       4.021  -6.642   8.320  1.00  0.00     0.031 C 
ATOM     50  C   UNL     1       5.105  -2.765  11.348  1.00  0.00     0.029 A 
ATOM     51  N   UNL     1       6.713  -3.479   9.969  1.00  0.00    -0.354 N 
ATOM     52  C   UNL     1       6.076  -6.837   7.331  1.00  0.00     0.074 A 
ATOM     53  C   UNL     1       4.733  -7.360   7.463  1.00  0.00     0.031 C 
ATOM     54  C   UNL     1       6.161  -1.953  11.509  1.00  0.00     0.029 A 
ATOM     55  C   UNL     1       7.243  -2.405  10.642  1.00  0.00     0.049 A 
ATOM     56  H   UNL     1       7.215  -3.996   9.298  1.00  0.00     0.167 HD
ATOM     57  C   UNL     1       7.008  -7.330   6.480  1.00  0.00     0.037 A 
ATOM     58  C   UNL     1       8.470  -1.856  10.579  1.00  0.00     0.037 A 
ATOM     59  C   UNL     1       8.332  -6.786   6.321  1.00  0.00     0.049 A 
ATOM     60  C   UNL     1       9.492  -2.450   9.653  1.00  0.00     0.074 A 
ATOM     61  C   UNL     1       9.327  -7.182   5.443  1.00  0.00     0.029 A 
ATOM     62  N   UNL     1       8.845  -5.730   7.056  1.00  0.00    -0.354 N 
ATOM     63  N   UNL     1       9.362  -3.434   8.798  1.00  0.00    -0.248 NA
ATOM     64  C   UNL     1      10.838  -1.861   9.695  1.00  0.00     0.031 C 
ATOM     65  C   UNL     1      10.457  -6.392   5.677  1.00  0.00     0.029 A 
ATOM     66  C   UNL     1      10.153  -5.479   6.673  1.00  0.00     0.049 A 
ATOM     67  H   UNL     1       8.354  -5.233   7.749  1.00  0.00     0.167 HD
ATOM     68  C   UNL     1      10.601  -3.569   8.186  1.00  0.00     0.074 A 
ATOM     69  C   UNL     1      11.462  -2.552   8.752  1.00  0.00     0.031 C 
ATOM     70  C   UNL     1      10.993  -4.459   7.242  1.00  0.00     0.037 A 
BRANCH  57  71
ATOM     71  C   UNL     1       6.640  -8.532   5.661  1.00  0.00     0.057 A 
ATOM     72  C   UNL     1       7.205  -9.783   5.943  1.00  0.00     0.134 A 
ATOM     73  C   UNL     1       5.777  -8.446   4.562  1.00  0.00     0.134 A 
ATOM     74  F   UNL     1       8.045  -9.932   6.979  1.00  0.00    -0.206 F 
ATOM     75  C   UNL     1       6.929 -10.903   5.158  1.00  0.00     0.040 A 
ATOM     76  C   UNL     1       5.477  -9.564   3.781  1.00  0.00     0.040 A 
ATOM     77  F   UNL     1       5.194  -7.280   4.245  1.00  0.00    -0.206 F 
ATOM     78  C   UNL     1       6.060 -10.796   4.074  1.00  0.00     0.006 A 
ENDBRANCH  57  71
BRANCH  58  79
ATOM     79  C   UNL     1       8.816  -0.688  11.428  1.00  0.00     0.057 A 
ATOM     80  C   UNL     1       8.943  -0.808  12.817  1.00  0.00     0.134 A 
ATOM     81  C   UNL     1       9.072   0.565  10.861  1.00  0.00     0.134 A 
ATOM     82  F   UNL     1       8.710  -1.983  13.420  1.00  0.00    -0.206 F 
ATOM     83  C   UNL     1       9.312   0.277  13.613  1.00  0.00     0.040 A 
ATOM     84  C   UNL     1       9.467   1.652  11.642  1.00  0.00     0.040 A 
ATOM     85  F   UNL     1       8.987   0.736   9.534  1.00  0.00    -0.206 F 
ATOM     86  C   UNL     1       9.586   1.509  13.023  1.00  0.00     0.006 A 
ENDBRANCH  58  79
BRANCH  70  87
ATOM     87  C   UNL     1      12.404  -4.343   6.749  1.00  0.00     0.057 A 
ATOM     88  C   UNL     1      12.674  -3.837   5.472  1.00  0.00     0.134 A 
ATOM     89  C   UNL     1      13.493  -4.736   7.536  1.00  0.00     0.134 A 
ATOM     90  F   UNL     1      11.674  -3.448   4.667  1.00  0.00    -0.206 F 
ATOM     91  C   UNL     1      13.980  -3.722   4.996  1.00  0.00     0.040 A 
ATOM     92  C   UNL     1      14.806  -4.602   7.081  1.00  0.00     0.040 A 
ATOM     93  F   UNL     1      13.300  -5.212   8.775  1.00  0.00    -0.206 F 
ATOM     94  C   UNL     1      15.051  -4.098   5.805  1.00  0.00     0.006 A 
ENDBRANCH  70  87
ENDBRANCH  44  45
ENDBRANCH  36  39
ENDBRANCH  34  35
ENDBRANCH  33  34
ENDBRANCH  32  33
ENDBRANCH   1  32
TORSDOF 16
