REMARK SMILES Cc1ccc(C)c(-n2nc(C)c(/C=C(/C#N)C(=O)NCCCCCCNC(=O)c3ccc(-c4c5nc(c(-c6c(F)cccc6F)c6ccc([nH]6)c(-c6c(F)cccc6F)c6nc(c(-c7c(F)cccc7F)c7ccc4[nH]7)C=C6)C=C5)cc3)c2Cl)c1
REMARK SMILES IDX 22 1 21 2 20 3 19 4 17 5 18 6 14 8 13 9 12 10 8 11 9 12
REMARK SMILES IDX 83 13 10 14 84 15 11 16 7 17 1 18 2 19 3 20 85 21 4 22 5 23
REMARK SMILES IDX 6 24 15 25 16 26 23 27 24 28 25 29 26 30 27 31 28 33 29 34
REMARK SMILES IDX 30 35 82 36 31 37 81 38 32 39 33 40 34 41 75 42 35 43 80 44
REMARK SMILES IDX 74 45 76 46 36 47 79 48 73 49 72 50 37 52 63 53 46 54 62 55
REMARK SMILES IDX 47 56 50 57 61 58 77 59 48 60 49 61 60 63 78 64 51 65 38 66
REMARK SMILES IDX 39 67 44 68 40 69 41 70 43 71 45 72 42 73 64 74 65 75 70 76
REMARK SMILES IDX 66 77 67 78 69 79 71 80 68 81 52 82 53 83 58 84 54 85 55 86
REMARK SMILES IDX 57 87 59 88 56 89
REMARK H PARENT 19 7 26 32 76 51 50 62
REMARK Flexibility Score: inf
ROOT
ATOM      1  C   UNL     1      -7.200   9.691   0.110  1.00  0.00     0.002 C 
ENDROOT
BRANCH   1   2
ATOM      2  C   UNL     1      -6.248   9.382  -1.042  1.00  0.00     0.021 C 
BRANCH   2   3
ATOM      3  C   UNL     1      -4.817   9.290  -0.525  1.00  0.00     0.116 C 
BRANCH   3   4
ATOM      4  N   UNL     1      -4.599   7.973   0.060  1.00  0.00    -0.351 N 
ATOM      5  C   UNL     1      -4.274   6.828  -0.614  1.00  0.00     0.261 C 
ATOM      6  O   UNL     1      -4.987   5.827  -0.496  1.00  0.00    -0.268 OA
ATOM      7  H   UNL     1      -4.695   7.900   1.038  1.00  0.00     0.163 HD
BRANCH   5   8
ATOM      8  C   UNL     1      -3.024   6.816  -1.421  1.00  0.00     0.117 C 
ATOM      9  C   UNL     1      -2.108   5.838  -1.399  1.00  0.00     0.038 C 
BRANCH   9  10
ATOM     10  C   UNL     1      -2.030   4.639  -0.597  1.00  0.00     0.036 A 
ATOM     11  N   UNL     1      -1.417   2.557  -0.047  1.00  0.00    -0.221 N 
ATOM     12  N   UNL     1      -2.259   2.937   0.937  1.00  0.00    -0.171 NA
ATOM     13  C   UNL     1      -1.255   3.561  -0.973  1.00  0.00     0.140 A 
ATOM     14  C   UNL     1      -2.598   4.204   0.648  1.00  0.00     0.069 A 
ATOM     15  Cl  UNL     1      -0.327   3.300  -2.392  1.00  0.00    -0.061 Cl
ATOM     16  C   UNL     1      -3.460   4.877   1.659  1.00  0.00     0.069 C 
BRANCH  11  17
ATOM     17  C   UNL     1      -0.765   1.303   0.023  1.00  0.00     0.069 A 
ATOM     18  C   UNL     1       2.845   0.059   0.005  1.00  0.00     0.044 C 
ATOM     19  C   UNL     1       1.346   0.085   0.025  1.00  0.00    -0.049 A 
ATOM     20  C   UNL     1       0.627  -1.113   0.053  1.00  0.00     0.004 A 
ATOM     21  C   UNL     1       0.643   1.293   0.009  1.00  0.00     0.032 A 
ATOM     22  C   UNL     1      -0.770  -1.104   0.088  1.00  0.00     0.006 A 
ATOM     23  C   UNL     1      -1.493   0.101   0.083  1.00  0.00    -0.025 A 
ATOM     24  C   UNL     1      -2.993   0.002   0.045  1.00  0.00     0.047 C 
ENDBRANCH  11  17
ENDBRANCH   9  10
BRANCH   8  25
ATOM     25  C   UNL     1      -3.058   7.979  -2.401  1.00  0.00     0.105 C 
ATOM     26  N   UNL     1      -3.086   8.943  -3.213  1.00  0.00    -0.192 NA
ENDBRANCH   8  25
ENDBRANCH   5   8
ENDBRANCH   3   4
ENDBRANCH   2   3
ENDBRANCH   1   2
BRANCH   1  27
ATOM     27  C   UNL     1      -6.785  10.920   0.949  1.00  0.00     0.002 C 
BRANCH  27  28
ATOM     28  C   UNL     1      -6.444  12.196   0.156  1.00  0.00     0.021 C 
BRANCH  28  29
ATOM     29  C   UNL     1      -7.619  12.672  -0.664  1.00  0.00     0.116 C 
BRANCH  29  30
ATOM     30  N   UNL     1      -8.793  13.027   0.148  1.00  0.00    -0.352 N 
ATOM     31  C   UNL     1     -10.048  13.420  -0.271  1.00  0.00     0.251 C 
ATOM     32  H   UNL     1      -8.666  12.977   1.123  1.00  0.00     0.163 HD
ATOM     33  O   UNL     1     -10.785  14.082   0.489  1.00  0.00    -0.269 OA
BRANCH  31  34
ATOM     34  C   UNL     1     -10.556  12.934  -1.569  1.00  0.00     0.039 A 
ATOM     35  C   UNL     1     -11.892  12.929  -1.968  1.00  0.00     0.014 A 
ATOM     36  C   UNL     1      -9.777  11.991  -2.199  1.00  0.00     0.014 A 
ATOM     37  C   UNL     1     -12.297  11.889  -2.867  1.00  0.00     0.010 A 
ATOM     38  C   UNL     1     -10.098  11.643  -3.455  1.00  0.00     0.010 A 
ATOM     39  C   UNL     1     -11.317  11.031  -3.444  1.00  0.00    -0.014 A 
BRANCH  39  40
ATOM     40  C   UNL     1     -11.479  10.078  -4.580  1.00  0.00     0.031 A 
ATOM     41  C   UNL     1     -11.778  10.980  -5.758  1.00  0.00     0.074 A 
ATOM     42  C   UNL     1     -11.252   8.712  -4.630  1.00  0.00     0.049 A 
ATOM     43  N   UNL     1     -12.969  11.438  -5.999  1.00  0.00    -0.248 NA
ATOM     44  C   UNL     1     -10.739  11.846  -6.395  1.00  0.00     0.031 C 
ATOM     45  C   UNL     1     -10.779   7.747  -3.608  1.00  0.00     0.029 A 
ATOM     46  N   UNL     1     -11.458   7.821  -5.696  1.00  0.00    -0.354 N 
ATOM     47  C   UNL     1     -12.821  12.263  -7.104  1.00  0.00     0.074 A 
ATOM     48  C   UNL     1     -11.490  12.763  -7.020  1.00  0.00     0.031 C 
ATOM     49  C   UNL     1     -10.474   6.533  -4.164  1.00  0.00     0.029 A 
ATOM     50  C   UNL     1     -10.848   6.521  -5.568  1.00  0.00     0.049 A 
ATOM     51  H   UNL     1     -11.989   8.070  -6.487  1.00  0.00     0.167 HD
ATOM     52  C   UNL     1     -13.591  12.011  -8.200  1.00  0.00     0.037 A 
ATOM     53  C   UNL     1     -10.812   5.489  -6.499  1.00  0.00     0.037 A 
ATOM     54  C   UNL     1     -14.669  11.127  -7.801  1.00  0.00     0.049 A 
ATOM     55  C   UNL     1     -11.882   5.770  -7.492  1.00  0.00     0.074 A 
ATOM     56  C   UNL     1     -15.696  11.179  -6.879  1.00  0.00     0.029 A 
ATOM     57  N   UNL     1     -14.373   9.804  -7.989  1.00  0.00    -0.354 N 
ATOM     58  N   UNL     1     -13.146   5.744  -7.174  1.00  0.00    -0.248 NA
ATOM     59  C   UNL     1     -11.484   6.680  -8.555  1.00  0.00     0.031 C 
ATOM     60  C   UNL     1     -15.758   9.875  -6.300  1.00  0.00     0.029 A 
ATOM     61  C   UNL     1     -14.922   9.023  -7.018  1.00  0.00     0.049 A 
ATOM     62  H   UNL     1     -13.830   9.459  -8.735  1.00  0.00     0.167 HD
ATOM     63  C   UNL     1     -13.587   6.995  -7.563  1.00  0.00     0.074 A 
ATOM     64  C   UNL     1     -12.500   7.534  -8.402  1.00  0.00     0.031 C 
ATOM     65  C   UNL     1     -14.590   7.627  -6.882  1.00  0.00     0.037 A 
BRANCH  52  66
ATOM     66  C   UNL     1     -13.086  12.033  -9.637  1.00  0.00     0.057 A 
ATOM     67  C   UNL     1     -14.008  11.736 -10.659  1.00  0.00     0.134 A 
ATOM     68  C   UNL     1     -11.737  12.050 -10.057  1.00  0.00     0.134 A 
ATOM     69  F   UNL     1     -15.322  11.663 -10.396  1.00  0.00    -0.206 F 
ATOM     70  C   UNL     1     -13.618  11.427 -11.969  1.00  0.00     0.040 A 
ATOM     71  C   UNL     1     -11.340  11.784 -11.373  1.00  0.00     0.040 A 
ATOM     72  F   UNL     1     -10.710  12.235  -9.224  1.00  0.00    -0.206 F 
ATOM     73  C   UNL     1     -12.280  11.450 -12.331  1.00  0.00     0.006 A 
ENDBRANCH  52  66
BRANCH  53  74
ATOM     74  C   UNL     1      -9.741   4.487  -6.901  1.00  0.00     0.057 A 
ATOM     75  C   UNL     1      -9.920   3.435  -7.845  1.00  0.00     0.134 A 
ATOM     76  C   UNL     1      -8.402   4.782  -6.623  1.00  0.00     0.134 A 
ATOM     77  F   UNL     1     -11.147   3.075  -8.255  1.00  0.00    -0.206 F 
ATOM     78  C   UNL     1      -8.840   2.756  -8.465  1.00  0.00     0.040 A 
ATOM     79  C   UNL     1      -7.322   4.128  -7.244  1.00  0.00     0.040 A 
ATOM     80  F   UNL     1      -8.097   5.796  -5.804  1.00  0.00    -0.206 F 
ATOM     81  C   UNL     1      -7.531   3.119  -8.175  1.00  0.00     0.006 A 
ENDBRANCH  53  74
BRANCH  65  82
ATOM     82  C   UNL     1     -15.404   6.840  -5.890  1.00  0.00     0.057 A 
ATOM     83  C   UNL     1     -14.959   6.347  -4.652  1.00  0.00     0.134 A 
ATOM     84  C   UNL     1     -16.772   6.732  -6.156  1.00  0.00     0.134 A 
ATOM     85  F   UNL     1     -13.690   6.508  -4.254  1.00  0.00    -0.206 F 
ATOM     86  C   UNL     1     -15.840   5.729  -3.749  1.00  0.00     0.040 A 
ATOM     87  C   UNL     1     -17.662   6.153  -5.255  1.00  0.00     0.040 A 
ATOM     88  F   UNL     1     -17.277   7.253  -7.285  1.00  0.00    -0.206 F 
ATOM     89  C   UNL     1     -17.196   5.631  -4.054  1.00  0.00     0.006 A 
ENDBRANCH  65  82
ENDBRANCH  39  40
ENDBRANCH  31  34
ENDBRANCH  29  30
ENDBRANCH  28  29
ENDBRANCH  27  28
ENDBRANCH   1  27
TORSDOF 16
