REMARK SMILES CN1CC[N@H+](CC(=O)NCCCCCCNC(=O)c2ccc(-c3c4nc(c(-c5c(F)cccc5F)c5ccc([nH]5)c(-c5c(F)cccc5F)c5nc(c(-c6c(F)cccc6F)c6ccc3[nH]6)C=C5)C=C4)cc2)C(C)(C)C1=O
REMARK SMILES IDX 13 1 12 2 11 3 10 4 9 5 7 6 8 7 6 9 5 10 1 11 2 12 3 13
REMARK SMILES IDX 76 14 4 15 73 16 77 17 74 18 75 19 14 21 15 22 16 23 17 24
REMARK SMILES IDX 18 26 19 27 20 28 72 29 21 30 71 31 22 32 23 33 24 34 65 35
REMARK SMILES IDX 25 36 70 37 64 38 66 39 26 40 69 41 63 42 62 43 27 45 53 46
REMARK SMILES IDX 36 47 52 48 37 49 40 50 51 51 67 52 38 53 39 54 50 56 68 57
REMARK SMILES IDX 41 58 28 59 29 60 34 61 30 62 31 63 33 64 35 65 32 66 54 67
REMARK SMILES IDX 55 68 60 69 56 70 57 71 59 72 61 73 58 74 42 75 43 76 48 77
REMARK SMILES IDX 44 78 45 79 47 80 49 81 46 82
REMARK H PARENT 9 8 5 20 16 25 66 44 40 55
REMARK Flexibility Score: inf
ROOT
ATOM      1  C   UNL     1       4.070  -4.292   1.787  1.00  0.00     0.002 C 
ENDROOT
BRANCH   1   2
ATOM      2  C   UNL     1       3.026  -3.179   1.854  1.00  0.00     0.002 C 
BRANCH   2   3
ATOM      3  C   UNL     1       1.829  -3.521   2.750  1.00  0.00     0.021 C 
BRANCH   3   4
ATOM      4  C   UNL     1       1.802  -2.807   4.103  1.00  0.00     0.116 C 
BRANCH   4   5
ATOM      5  N   UNL     1       1.850  -1.357   3.998  1.00  0.00    -0.351 N 
ATOM      6  C   UNL     1       0.947  -0.360   4.205  1.00  0.00     0.275 C 
ATOM      7  O   UNL     1       1.392   0.793   4.166  1.00  0.00    -0.269 OA
ATOM      8  H   UNL     1       2.732  -1.022   3.715  1.00  0.00     0.163 HD
BRANCH   6   9
ATOM      9  C   UNL     1      -0.531  -0.611   4.525  1.00  0.00     0.364 C 
BRANCH   9  10
ATOM     10  N   UNL     1      -1.516  -0.413   3.422  1.00  0.00    -0.314 N 
ATOM     11  C   UNL     1       0.607   0.948  -0.102  1.00  0.00     0.147 C 
ATOM     12  N   UNL     1      -0.187   0.482   1.019  1.00  0.00    -0.335 N 
ATOM     13  C   UNL     1      -0.650   1.488   1.972  1.00  0.00     0.180 C 
ATOM     14  C   UNL     1      -0.259  -0.888   1.291  1.00  0.00     0.283 C 
ATOM     15  C   UNL     1      -1.668   0.988   3.005  1.00  0.00     0.285 C 
ATOM     16  C   UNL     1      -1.418  -1.321   2.249  1.00  0.00     0.172 C 
ATOM     17  O   UNL     1       0.414  -1.701   0.659  1.00  0.00    -0.268 OA
ATOM     18  C   UNL     1      -2.648  -1.251   1.299  1.00  0.00     0.090 C 
ATOM     19  C   UNL     1      -1.450  -2.786   2.724  1.00  0.00     0.090 C 
ATOM     20  H   UNL     1      -2.378  -0.703   3.883  1.00  0.00     0.349 HD
ENDBRANCH   9  10
ENDBRANCH   6   9
ENDBRANCH   4   5
ENDBRANCH   3   4
ENDBRANCH   2   3
ENDBRANCH   1   2
BRANCH   1  21
ATOM     21  C   UNL     1       3.554  -5.622   1.229  1.00  0.00     0.021 C 
BRANCH  21  22
ATOM     22  C   UNL     1       2.937  -5.523  -0.163  1.00  0.00     0.116 C 
BRANCH  22  23
ATOM     23  N   UNL     1       3.966  -5.303  -1.168  1.00  0.00    -0.352 N 
ATOM     24  C   UNL     1       4.445  -6.210  -2.077  1.00  0.00     0.251 C 
ATOM     25  H   UNL     1       4.363  -4.402  -1.198  1.00  0.00     0.163 HD
ATOM     26  O   UNL     1       5.529  -6.043  -2.639  1.00  0.00    -0.269 OA
BRANCH  24  27
ATOM     27  C   UNL     1       3.629  -7.400  -2.377  1.00  0.00     0.039 A 
ATOM     28  C   UNL     1       4.202  -8.671  -2.319  1.00  0.00     0.014 A 
ATOM     29  C   UNL     1       2.274  -7.240  -2.687  1.00  0.00     0.014 A 
ATOM     30  C   UNL     1       3.399  -9.792  -2.536  1.00  0.00     0.010 A 
ATOM     31  C   UNL     1       1.464  -8.360  -2.828  1.00  0.00     0.010 A 
ATOM     32  C   UNL     1       2.021  -9.646  -2.771  1.00  0.00    -0.014 A 
BRANCH  32  33
ATOM     33  C   UNL     1       1.147 -10.824  -2.998  1.00  0.00     0.031 A 
ATOM     34  C   UNL     1       0.466 -10.999  -4.329  1.00  0.00     0.074 A 
ATOM     35  C   UNL     1       0.925 -11.701  -2.001  1.00  0.00     0.049 A 
ATOM     36  N   UNL     1      -0.392 -11.912  -4.706  1.00  0.00    -0.248 NA
ATOM     37  C   UNL     1       0.770  -9.998  -5.366  1.00  0.00     0.031 C 
ATOM     38  C   UNL     1       1.494 -11.616  -0.654  1.00  0.00     0.029 A 
ATOM     39  N   UNL     1       0.150 -12.833  -1.962  1.00  0.00    -0.354 N 
ATOM     40  C   UNL     1      -0.733 -11.591  -6.014  1.00  0.00     0.074 A 
ATOM     41  C   UNL     1      -0.041 -10.366  -6.346  1.00  0.00     0.031 C 
ATOM     42  C   UNL     1       1.064 -12.661   0.072  1.00  0.00     0.029 A 
ATOM     43  C   UNL     1       0.159 -13.467  -0.742  1.00  0.00     0.049 A 
ATOM     44  H   UNL     1      -0.365 -13.160  -2.735  1.00  0.00     0.167 HD
ATOM     45  C   UNL     1      -1.528 -12.272  -6.872  1.00  0.00     0.037 A 
ATOM     46  C   UNL     1      -0.498 -14.566  -0.327  1.00  0.00     0.037 A 
ATOM     47  C   UNL     1      -2.198 -13.502  -6.545  1.00  0.00     0.049 A 
ATOM     48  C   UNL     1      -1.393 -15.292  -1.296  1.00  0.00     0.074 A 
ATOM     49  C   UNL     1      -2.995 -14.291  -7.356  1.00  0.00     0.029 A 
ATOM     50  N   UNL     1      -2.147 -14.123  -5.307  1.00  0.00    -0.354 N 
ATOM     51  N   UNL     1      -1.659 -15.011  -2.549  1.00  0.00    -0.248 NA
ATOM     52  C   UNL     1      -2.075 -16.495  -0.796  1.00  0.00     0.031 C 
ATOM     53  C   UNL     1      -3.463 -15.366  -6.595  1.00  0.00     0.029 A 
ATOM     54  C   UNL     1      -2.911 -15.277  -5.327  1.00  0.00     0.049 A 
ATOM     55  H   UNL     1      -1.642 -13.792  -4.529  1.00  0.00     0.167 HD
ATOM     56  C   UNL     1      -2.504 -16.019  -2.996  1.00  0.00     0.074 A 
ATOM     57  C   UNL     1      -2.696 -16.926  -1.885  1.00  0.00     0.031 C 
ATOM     58  C   UNL     1      -3.072 -16.180  -4.216  1.00  0.00     0.037 A 
BRANCH  45  59
ATOM     59  C   UNL     1      -1.703 -11.712  -8.254  1.00  0.00     0.057 A 
ATOM     60  C   UNL     1      -0.659 -11.716  -9.188  1.00  0.00     0.134 A 
ATOM     61  C   UNL     1      -2.942 -11.211  -8.674  1.00  0.00     0.134 A 
ATOM     62  F   UNL     1       0.557 -12.170  -8.847  1.00  0.00    -0.206 F 
ATOM     63  C   UNL     1      -0.834 -11.225 -10.483  1.00  0.00     0.040 A 
ATOM     64  C   UNL     1      -3.138 -10.744  -9.975  1.00  0.00     0.040 A 
ATOM     65  F   UNL     1      -3.987 -11.182  -7.832  1.00  0.00    -0.206 F 
ATOM     66  C   UNL     1      -2.080 -10.746 -10.882  1.00  0.00     0.006 A 
ENDBRANCH  45  59
BRANCH  46  67
ATOM     67  C   UNL     1      -0.338 -15.060   1.065  1.00  0.00     0.057 A 
ATOM     68  C   UNL     1       0.288 -16.285   1.333  1.00  0.00     0.134 A 
ATOM     69  C   UNL     1      -0.841 -14.344   2.158  1.00  0.00     0.134 A 
ATOM     70  F   UNL     1       0.775 -17.027   0.329  1.00  0.00    -0.206 F 
ATOM     71  C   UNL     1       0.375 -16.795   2.630  1.00  0.00     0.040 A 
ATOM     72  C   UNL     1      -0.733 -14.828   3.463  1.00  0.00     0.040 A 
ATOM     73  F   UNL     1      -1.443 -13.160   1.973  1.00  0.00    -0.206 F 
ATOM     74  C   UNL     1      -0.135 -16.064   3.700  1.00  0.00     0.006 A 
ENDBRANCH  46  67
BRANCH  58  75
ATOM     75  C   UNL     1      -3.908 -17.407  -4.431  1.00  0.00     0.057 A 
ATOM     76  C   UNL     1      -5.167 -17.564  -3.838  1.00  0.00     0.134 A 
ATOM     77  C   UNL     1      -3.463 -18.427  -5.284  1.00  0.00     0.134 A 
ATOM     78  F   UNL     1      -5.646 -16.630  -3.002  1.00  0.00    -0.206 F 
ATOM     79  C   UNL     1      -5.942 -18.702  -4.064  1.00  0.00     0.040 A 
ATOM     80  C   UNL     1      -4.242 -19.555  -5.542  1.00  0.00     0.040 A 
ATOM     81  F   UNL     1      -2.271 -18.334  -5.893  1.00  0.00    -0.206 F 
ATOM     82  C   UNL     1      -5.483 -19.697  -4.926  1.00  0.00     0.006 A 
ENDBRANCH  58  75
ENDBRANCH  32  33
ENDBRANCH  24  27
ENDBRANCH  22  23
ENDBRANCH  21  22
ENDBRANCH   1  21
TORSDOF 14
