REMARK SMILES O=C(CCCCCC(F)(F)c1ccccc1)NCCCCCCNC(=O)c1ccc(-c2c3nc(c(-c4c(F)cccc4F)c4ccc([nH]4)c(-c4c(F)cccc4F)c4nc(c(-c5c(F)cccc5F)c5ccc2[nH]5)C=C4)C=C3)cc1
REMARK SMILES IDX 18 1 17 2 1 3 2 4 3 6 4 7 5 8 6 9 7 10 8 11 9 12 10 13 11 14
REMARK SMILES IDX 12 15 16 16 13 17 15 18 14 19 19 20 20 21 21 22 22 23 23 24
REMARK SMILES IDX 24 25 25 26 26 28 27 29 28 30 80 31 29 32 79 33 30 34 31 35
REMARK SMILES IDX 32 36 73 37 33 38 78 39 72 40 74 41 34 42 77 43 71 44 70 45
REMARK SMILES IDX 35 47 61 48 44 49 60 50 45 51 48 52 59 53 75 54 46 55 47 56
REMARK SMILES IDX 58 58 76 59 49 60 36 61 37 62 42 63 38 64 39 65 41 66 43 67
REMARK SMILES IDX 40 68 62 69 63 70 68 71 64 72 65 73 67 74 69 75 66 76 50 77
REMARK SMILES IDX 51 78 56 79 52 80 53 81 55 82 57 83 54 84
REMARK H PARENT 17 5 24 27 74 46 48 57
REMARK Flexibility Score: inf
ROOT
ATOM      1  C   UNL     1       1.845   1.907  -1.500  1.00  0.00     0.116 C 
ENDROOT
BRANCH   1   2
ATOM      2  N   UNL     1       2.258   1.311  -0.250  1.00  0.00    -0.356 N 
ATOM      3  O   UNL     1       0.791  -0.454  -0.321  1.00  0.00    -0.275 OA
ATOM      4  C   UNL     1       1.774   0.093   0.166  1.00  0.00     0.219 C 
ATOM      5  H   UNL     1       2.903   1.789   0.319  1.00  0.00     0.163 HD
BRANCH   4   6
ATOM      6  C   UNL     1       2.662  -0.580   1.195  1.00  0.00     0.100 C 
BRANCH   6   7
ATOM      7  C   UNL     1       3.731  -1.413   0.479  1.00  0.00     0.010 C 
BRANCH   7   8
ATOM      8  C   UNL     1       4.842  -0.578  -0.171  1.00  0.00     0.001 C 
BRANCH   8   9
ATOM      9  C   UNL     1       6.024  -0.236   0.727  1.00  0.00     0.007 C 
BRANCH   9  10
ATOM     10  C   UNL     1       6.867  -1.401   1.264  1.00  0.00     0.082 C 
BRANCH  10  11
ATOM     11  C   UNL     1       7.652  -2.241   0.235  1.00  0.00     0.273 C 
ATOM     12  F   UNL     1       8.163  -1.394  -0.707  1.00  0.00    -0.201 F 
ATOM     13  F   UNL     1       8.753  -2.718   0.903  1.00  0.00    -0.201 F 
BRANCH  11  14
ATOM     14  C   UNL     1       6.872  -3.393  -0.370  1.00  0.00     0.021 A 
ATOM     15  C   UNL     1       6.223  -3.273  -1.608  1.00  0.00     0.010 A 
ATOM     16  C   UNL     1       6.798  -4.626   0.298  1.00  0.00     0.010 A 
ATOM     17  C   UNL     1       5.417  -4.300  -2.100  1.00  0.00     0.001 A 
ATOM     18  C   UNL     1       6.042  -5.678  -0.226  1.00  0.00     0.001 A 
ATOM     19  C   UNL     1       5.325  -5.503  -1.407  1.00  0.00     0.000 A 
ENDBRANCH  11  14
ENDBRANCH  10  11
ENDBRANCH   9  10
ENDBRANCH   8   9
ENDBRANCH   7   8
ENDBRANCH   6   7
ENDBRANCH   4   6
ENDBRANCH   1   2
BRANCH   1  20
ATOM     20  C   UNL     1       2.513   3.263  -1.717  1.00  0.00     0.021 C 
BRANCH  20  21
ATOM     21  C   UNL     1       4.033   3.202  -1.939  1.00  0.00     0.002 C 
BRANCH  21  22
ATOM     22  C   UNL     1       4.489   2.601  -3.274  1.00  0.00     0.002 C 
BRANCH  22  23
ATOM     23  C   UNL     1       3.911   3.265  -4.525  1.00  0.00     0.021 C 
BRANCH  23  24
ATOM     24  C   UNL     1       4.084   4.779  -4.598  1.00  0.00     0.116 C 
BRANCH  24  25
ATOM     25  N   UNL     1       5.474   5.187  -4.726  1.00  0.00    -0.352 N 
ATOM     26  C   UNL     1       6.041   6.056  -5.628  1.00  0.00     0.251 C 
ATOM     27  H   UNL     1       6.096   4.786  -4.077  1.00  0.00     0.163 HD
ATOM     28  O   UNL     1       7.261   6.184  -5.688  1.00  0.00    -0.269 OA
BRANCH  26  29
ATOM     29  C   UNL     1       5.176   6.813  -6.559  1.00  0.00     0.039 A 
ATOM     30  C   UNL     1       5.499   6.830  -7.919  1.00  0.00     0.014 A 
ATOM     31  C   UNL     1       4.035   7.477  -6.100  1.00  0.00     0.014 A 
ATOM     32  C   UNL     1       4.632   7.440  -8.828  1.00  0.00     0.010 A 
ATOM     33  C   UNL     1       3.136   8.020  -7.014  1.00  0.00     0.010 A 
ATOM     34  C   UNL     1       3.420   7.998  -8.389  1.00  0.00    -0.014 A 
BRANCH  34  35
ATOM     35  C   UNL     1       2.420   8.524  -9.354  1.00  0.00     0.031 A 
ATOM     36  C   UNL     1       2.033   9.975  -9.337  1.00  0.00     0.074 A 
ATOM     37  C   UNL     1       1.799   7.674 -10.195  1.00  0.00     0.049 A 
ATOM     38  N   UNL     1       1.125  10.598 -10.046  1.00  0.00    -0.248 NA
ATOM     39  C   UNL     1       2.741  10.836  -8.378  1.00  0.00     0.031 C 
ATOM     40  C   UNL     1       2.045   6.232 -10.272  1.00  0.00     0.029 A 
ATOM     41  N   UNL     1       0.820   7.894 -11.131  1.00  0.00    -0.354 N 
ATOM     42  C   UNL     1       1.149  11.918  -9.616  1.00  0.00     0.074 A 
ATOM     43  C   UNL     1       2.118  11.993  -8.543  1.00  0.00     0.031 C 
ATOM     44  C   UNL     1       1.247   5.700 -11.211  1.00  0.00     0.029 A 
ATOM     45  C   UNL     1       0.404   6.752 -11.771  1.00  0.00     0.049 A 
ATOM     46  H   UNL     1       0.451   8.786 -11.326  1.00  0.00     0.167 HD
ATOM     47  C   UNL     1       0.444  12.975 -10.085  1.00  0.00     0.037 A 
ATOM     48  C   UNL     1      -0.561   6.565 -12.692  1.00  0.00     0.037 A 
ATOM     49  C   UNL     1      -0.519  12.896 -11.154  1.00  0.00     0.049 A 
ATOM     50  C   UNL     1      -1.350   7.747 -13.181  1.00  0.00     0.074 A 
ATOM     51  C   UNL     1      -1.243  13.920 -11.739  1.00  0.00     0.029 A 
ATOM     52  N   UNL     1      -0.903  11.723 -11.788  1.00  0.00    -0.354 N 
ATOM     53  N   UNL     1      -1.262   9.005 -12.821  1.00  0.00    -0.248 NA
ATOM     54  C   UNL     1      -2.368   7.486 -14.208  1.00  0.00     0.031 C 
ATOM     55  C   UNL     1      -2.106  13.360 -12.687  1.00  0.00     0.029 A 
ATOM     56  C   UNL     1      -1.878  11.994 -12.735  1.00  0.00     0.049 A 
ATOM     57  H   UNL     1      -0.536  10.831 -11.594  1.00  0.00     0.167 HD
ATOM     58  C   UNL     1      -2.198   9.687 -13.588  1.00  0.00     0.074 A 
ATOM     59  C   UNL     1      -2.829   8.707 -14.447  1.00  0.00     0.031 C 
ATOM     60  C   UNL     1      -2.506  11.008 -13.580  1.00  0.00     0.037 A 
BRANCH  47  61
ATOM     61  C   UNL     1       0.688  14.308  -9.435  1.00  0.00     0.057 A 
ATOM     62  C   UNL     1       1.907  14.988  -9.574  1.00  0.00     0.134 A 
ATOM     63  C   UNL     1      -0.310  14.928  -8.673  1.00  0.00     0.134 A 
ATOM     64  F   UNL     1       2.910  14.448 -10.283  1.00  0.00    -0.206 F 
ATOM     65  C   UNL     1       2.136  16.214  -8.946  1.00  0.00     0.040 A 
ATOM     66  C   UNL     1      -0.103  16.169  -8.067  1.00  0.00     0.040 A 
ATOM     67  F   UNL     1      -1.504  14.340  -8.506  1.00  0.00    -0.206 F 
ATOM     68  C   UNL     1       1.127  16.810  -8.194  1.00  0.00     0.006 A 
ENDBRANCH  47  61
BRANCH  48  69
ATOM     69  C   UNL     1      -0.830   5.199 -13.208  1.00  0.00     0.057 A 
ATOM     70  C   UNL     1      -0.505   4.841 -14.521  1.00  0.00     0.134 A 
ATOM     71  C   UNL     1      -1.404   4.214 -12.395  1.00  0.00     0.134 A 
ATOM     72  F   UNL     1       0.030   5.746 -15.354  1.00  0.00    -0.206 F 
ATOM     73  C   UNL     1      -0.753   3.558 -15.012  1.00  0.00     0.040 A 
ATOM     74  C   UNL     1      -1.632   2.919 -12.864  1.00  0.00     0.040 A 
ATOM     75  F   UNL     1      -1.731   4.490 -11.124  1.00  0.00    -0.206 F 
ATOM     76  C   UNL     1      -1.311   2.590 -14.179  1.00  0.00     0.006 A 
ENDBRANCH  48  69
BRANCH  60  77
ATOM     77  C   UNL     1      -3.561  11.475 -14.541  1.00  0.00     0.057 A 
ATOM     78  C   UNL     1      -4.915  11.166 -14.361  1.00  0.00     0.134 A 
ATOM     79  C   UNL     1      -3.222  12.280 -15.636  1.00  0.00     0.134 A 
ATOM     80  F   UNL     1      -5.305  10.388 -13.340  1.00  0.00    -0.206 F 
ATOM     81  C   UNL     1      -5.892  11.625 -15.246  1.00  0.00     0.040 A 
ATOM     82  C   UNL     1      -4.193  12.769 -16.512  1.00  0.00     0.040 A 
ATOM     83  F   UNL     1      -1.945  12.620 -15.864  1.00  0.00    -0.206 F 
ATOM     84  C   UNL     1      -5.533  12.437 -16.321  1.00  0.00     0.006 A 
ENDBRANCH  60  77
ENDBRANCH  34  35
ENDBRANCH  26  29
ENDBRANCH  24  25
ENDBRANCH  23  24
ENDBRANCH  22  23
ENDBRANCH  21  22
ENDBRANCH  20  21
ENDBRANCH   1  20
TORSDOF 19
