REMARK SMILES CN(C)S(=O)(=O)c1ccc(-n2c(CCC(=O)NCCCCCCNC(=O)c3ccc(-c4c5nc(c(-c6c(F)cccc6F)c6ccc([nH]6)c(-c6c(F)cccc6F)c6nc(c(-c7c(F)cccc7F)c7ccc4[nH]7)C=C6)C=C5)cc3)ccc2-c2ccc(F)cc2)cc1
REMARK SMILES IDX 19 1 18 2 17 3 15 4 16 5 14 7 13 8 12 9 11 10 83 11 81 12
REMARK SMILES IDX 82 13 10 14 7 15 8 16 92 17 9 18 91 19 4 20 5 21 6 22 2 23
REMARK SMILES IDX 1 24 3 25 84 26 85 27 90 28 86 29 89 30 87 31 88 32 20 33
REMARK SMILES IDX 21 34 22 35 23 36 24 37 25 38 26 40 27 41 28 42 80 43 29 44
REMARK SMILES IDX 79 45 30 46 31 47 32 48 73 49 33 50 78 51 72 52 74 53 34 54
REMARK SMILES IDX 77 55 71 56 70 57 35 59 61 60 44 61 60 62 45 63 48 64 59 65
REMARK SMILES IDX 75 66 46 67 47 68 58 70 76 71 49 72 36 73 37 74 42 75 38 76
REMARK SMILES IDX 39 77 41 78 43 79 40 80 62 81 63 82 68 83 64 84 65 85 67 86
REMARK SMILES IDX 69 87 66 88 50 89 51 90 56 91 52 92 53 93 55 94 57 95 54 96
REMARK H PARENT 17 6 24 39 74 58 48 69
REMARK Flexibility Score: inf
ROOT
ATOM      1  C   UNL     1      -2.592   6.984   0.661  1.00  0.00     0.021 C 
ENDROOT
BRANCH   1   2
ATOM      2  C   UNL     1      -3.701   6.756   1.688  1.00  0.00     0.116 C 
BRANCH   2   3
ATOM      3  N   UNL     1      -3.344   5.772   2.700  1.00  0.00    -0.356 N 
ATOM      4  C   UNL     1      -2.897   5.934   3.979  1.00  0.00     0.220 C 
ATOM      5  O   UNL     1      -2.731   4.918   4.660  1.00  0.00    -0.275 OA
ATOM      6  H   UNL     1      -3.440   4.835   2.414  1.00  0.00     0.163 HD
BRANCH   4   7
ATOM      7  C   UNL     1      -2.563   7.303   4.549  1.00  0.00     0.106 C 
BRANCH   7   8
ATOM      8  C   UNL     1      -1.065   7.664   4.604  1.00  0.00     0.064 C 
BRANCH   8   9
ATOM      9  C   UNL     1      -0.519   8.285   3.336  1.00  0.00     0.024 A 
ATOM     10  N   UNL     1       0.391   7.733   2.400  1.00  0.00    -0.314 N 
ATOM     11  C   UNL     1       0.620   8.741   1.419  1.00  0.00     0.053 A 
ATOM     12  C   UNL     1      -0.806   9.585   2.948  1.00  0.00     0.024 A 
ATOM     13  C   UNL     1      -0.101   9.868   1.772  1.00  0.00     0.029 A 
BRANCH  10  14
ATOM     14  C   UNL     1       0.862   6.355   2.306  1.00  0.00     0.046 A 
ATOM     15  C   UNL     1       1.438   3.627   1.772  1.00  0.00     0.082 A 
ATOM     16  C   UNL     1       2.222   4.630   1.209  1.00  0.00     0.024 A 
ATOM     17  C   UNL     1       0.438   3.969   2.668  1.00  0.00     0.024 A 
ATOM     18  C   UNL     1       1.948   5.980   1.500  1.00  0.00     0.028 A 
ATOM     19  C   UNL     1       0.169   5.315   2.922  1.00  0.00     0.028 A 
BRANCH  15  20
ATOM     20  S   UNL     1       1.810   1.909   1.539  1.00  0.00     0.242 S 
ATOM     21  O   UNL     1       1.311   1.184   2.676  1.00  0.00    -0.207 OA
ATOM     22  O   UNL     1       3.216   1.823   1.161  1.00  0.00    -0.207 OA
BRANCH  20  23
ATOM     23  N   UNL     1       0.882   1.425   0.175  1.00  0.00    -0.204 NA
ATOM     24  C   UNL     1       1.206   0.024  -0.214  1.00  0.00     0.124 C 
ATOM     25  C   UNL     1      -0.584   1.595   0.302  1.00  0.00     0.124 C 
ENDBRANCH  20  23
ENDBRANCH  15  20
ENDBRANCH  10  14
BRANCH  11  26
ATOM     26  C   UNL     1       1.257   8.530   0.109  1.00  0.00    -0.001 A 
ATOM     27  C   UNL     1       2.476   9.105  -0.250  1.00  0.00     0.013 A 
ATOM     28  C   UNL     1       0.631   7.674  -0.803  1.00  0.00     0.013 A 
ATOM     29  C   UNL     1       3.081   8.743  -1.463  1.00  0.00     0.040 A 
ATOM     30  C   UNL     1       1.223   7.303  -2.005  1.00  0.00     0.040 A 
ATOM     31  C   UNL     1       2.459   7.832  -2.318  1.00  0.00     0.123 A 
ATOM     32  F   UNL     1       3.021   7.526  -3.493  1.00  0.00    -0.207 F 
ENDBRANCH  11  26
ENDBRANCH   8   9
ENDBRANCH   7   8
ENDBRANCH   4   7
ENDBRANCH   2   3
ENDBRANCH   1   2
BRANCH   1  33
ATOM     33  C   UNL     1      -2.495   5.968  -0.484  1.00  0.00     0.002 C 
BRANCH  33  34
ATOM     34  C   UNL     1      -2.802   6.414  -1.941  1.00  0.00     0.002 C 
BRANCH  34  35
ATOM     35  C   UNL     1      -3.099   7.883  -2.329  1.00  0.00     0.021 C 
BRANCH  35  36
ATOM     36  C   UNL     1      -1.964   8.801  -2.869  1.00  0.00     0.116 C 
BRANCH  36  37
ATOM     37  N   UNL     1      -1.402   8.350  -4.138  1.00  0.00    -0.352 N 
ATOM     38  C   UNL     1      -0.578   8.928  -5.083  1.00  0.00     0.251 C 
ATOM     39  H   UNL     1      -1.669   7.431  -4.371  1.00  0.00     0.163 HD
ATOM     40  O   UNL     1      -0.638   8.434  -6.214  1.00  0.00    -0.269 OA
BRANCH  38  41
ATOM     41  C   UNL     1       0.398  10.049  -4.878  1.00  0.00     0.039 A 
ATOM     42  C   UNL     1       0.852  10.739  -6.022  1.00  0.00     0.014 A 
ATOM     43  C   UNL     1       1.003  10.366  -3.665  1.00  0.00     0.014 A 
ATOM     44  C   UNL     1       1.861  11.720  -5.952  1.00  0.00     0.010 A 
ATOM     45  C   UNL     1       2.068  11.295  -3.596  1.00  0.00     0.010 A 
ATOM     46  C   UNL     1       2.475  12.018  -4.731  1.00  0.00    -0.014 A 
BRANCH  46  47
ATOM     47  C   UNL     1       3.189  13.335  -4.581  1.00  0.00     0.031 A 
ATOM     48  C   UNL     1       2.177  14.447  -4.146  1.00  0.00     0.074 A 
ATOM     49  C   UNL     1       4.538  13.441  -4.839  1.00  0.00     0.049 A 
ATOM     50  N   UNL     1       2.295  15.741  -4.133  1.00  0.00    -0.248 NA
ATOM     51  C   UNL     1       0.816  14.055  -3.667  1.00  0.00     0.031 C 
ATOM     52  C   UNL     1       5.427  12.311  -5.191  1.00  0.00     0.029 A 
ATOM     53  N   UNL     1       5.448  14.500  -4.862  1.00  0.00    -0.354 N 
ATOM     54  C   UNL     1       1.174  16.267  -3.441  1.00  0.00     0.074 A 
ATOM     55  C   UNL     1       0.259  15.192  -3.261  1.00  0.00     0.031 C 
ATOM     56  C   UNL     1       6.682  12.739  -5.476  1.00  0.00     0.029 A 
ATOM     57  C   UNL     1       6.769  14.181  -5.317  1.00  0.00     0.049 A 
ATOM     58  H   UNL     1       5.197  15.410  -4.583  1.00  0.00     0.167 HD
ATOM     59  C   UNL     1       1.124  17.533  -2.934  1.00  0.00     0.037 A 
ATOM     60  C   UNL     1       7.845  15.009  -5.566  1.00  0.00     0.037 A 
ATOM     61  C   UNL     1       2.246  18.272  -3.381  1.00  0.00     0.049 A 
ATOM     62  C   UNL     1       7.470  16.300  -4.988  1.00  0.00     0.074 A 
ATOM     63  C   UNL     1       2.590  18.749  -4.616  1.00  0.00     0.029 A 
ATOM     64  N   UNL     1       3.341  18.283  -2.558  1.00  0.00    -0.354 N 
ATOM     65  N   UNL     1       7.490  16.551  -3.716  1.00  0.00    -0.248 NA
ATOM     66  C   UNL     1       7.053  17.393  -5.873  1.00  0.00     0.031 C 
ATOM     67  C   UNL     1       3.983  18.572  -4.644  1.00  0.00     0.029 A 
ATOM     68  C   UNL     1       4.444  18.233  -3.365  1.00  0.00     0.049 A 
ATOM     69  H   UNL     1       3.336  18.319  -1.574  1.00  0.00     0.167 HD
ATOM     70  C   UNL     1       6.731  17.689  -3.648  1.00  0.00     0.074 A 
ATOM     71  C   UNL     1       6.812  18.320  -4.948  1.00  0.00     0.031 C 
ATOM     72  C   UNL     1       5.661  17.696  -2.814  1.00  0.00     0.037 A 
BRANCH  59  73
ATOM     73  C   UNL     1       0.281  18.154  -1.854  1.00  0.00     0.057 A 
ATOM     74  C   UNL     1       0.306  19.564  -1.717  1.00  0.00     0.134 A 
ATOM     75  C   UNL     1      -0.195  17.446  -0.746  1.00  0.00     0.134 A 
ATOM     76  F   UNL     1       0.691  20.352  -2.735  1.00  0.00    -0.206 F 
ATOM     77  C   UNL     1       0.037  20.208  -0.509  1.00  0.00     0.040 A 
ATOM     78  C   UNL     1      -0.518  18.090   0.457  1.00  0.00     0.040 A 
ATOM     79  F   UNL     1      -0.274  16.109  -0.748  1.00  0.00    -0.206 F 
ATOM     80  C   UNL     1      -0.353  19.465   0.594  1.00  0.00     0.006 A 
ENDBRANCH  59  73
BRANCH  60  81
ATOM     81  C   UNL     1       9.239  15.018  -6.196  1.00  0.00     0.057 A 
ATOM     82  C   UNL     1       9.907  13.928  -6.751  1.00  0.00     0.134 A 
ATOM     83  C   UNL     1       9.954  16.252  -6.362  1.00  0.00     0.134 A 
ATOM     84  F   UNL     1       9.447  12.682  -6.592  1.00  0.00    -0.206 F 
ATOM     85  C   UNL     1      11.103  14.069  -7.500  1.00  0.00     0.040 A 
ATOM     86  C   UNL     1      11.102  16.414  -7.146  1.00  0.00     0.040 A 
ATOM     87  F   UNL     1       9.572  17.388  -5.763  1.00  0.00    -0.206 F 
ATOM     88  C   UNL     1      11.676  15.315  -7.741  1.00  0.00     0.006 A 
ENDBRANCH  60  81
BRANCH  72  89
ATOM     89  C   UNL     1       5.796  16.752  -1.629  1.00  0.00     0.057 A 
ATOM     90  C   UNL     1       6.866  16.906  -0.735  1.00  0.00     0.134 A 
ATOM     91  C   UNL     1       5.001  15.614  -1.423  1.00  0.00     0.134 A 
ATOM     92  F   UNL     1       7.677  17.971  -0.832  1.00  0.00    -0.206 F 
ATOM     93  C   UNL     1       7.147  15.970   0.271  1.00  0.00     0.040 A 
ATOM     94  C   UNL     1       5.261  14.672  -0.417  1.00  0.00     0.040 A 
ATOM     95  F   UNL     1       3.943  15.367  -2.195  1.00  0.00    -0.206 F 
ATOM     96  C   UNL     1       6.348  14.843   0.428  1.00  0.00     0.006 A 
ENDBRANCH  72  89
ENDBRANCH  46  47
ENDBRANCH  38  41
ENDBRANCH  36  37
ENDBRANCH  35  36
ENDBRANCH  34  35
ENDBRANCH  33  34
ENDBRANCH   1  33
TORSDOF 19
