REMARK SMILES CC1(C)C[C@@H]1[NH2+]Cc1ccc(C(=O)NCCCCCCNC(=O)c2ccc(-c3c4nc(c(-c5c(F)cccc5F)c5ccc([nH]5)c(-c5c(F)cccc5F)c5nc(c(-c6c(F)cccc6F)c6ccc3[nH]6)C=C5)C=C4)cc2)cn1
REMARK SMILES IDX 17 1 16 2 15 3 14 4 12 5 13 6 11 8 8 9 9 10 79 11 10 12
REMARK SMILES IDX 78 13 7 14 6 15 5 18 1 19 2 20 3 21 4 22 18 23 19 24 20 25
REMARK SMILES IDX 21 26 22 27 23 29 24 30 25 31 77 32 26 33 76 34 27 35 28 36
REMARK SMILES IDX 29 37 70 38 30 39 75 40 69 41 71 42 31 43 74 44 68 45 67 46
REMARK SMILES IDX 32 48 58 49 41 50 57 51 42 52 45 53 56 54 72 55 43 56 44 57
REMARK SMILES IDX 55 59 73 60 46 61 33 62 34 63 39 64 35 65 36 66 38 67 40 68
REMARK SMILES IDX 37 69 59 70 60 71 65 72 61 73 62 74 64 75 66 76 63 77 47 78
REMARK SMILES IDX 48 79 53 80 49 81 50 82 52 83 54 84 51 85
REMARK H PARENT 14 7 6 16 6 17 21 28 71 47 45 58
REMARK Flexibility Score: inf
ROOT
ATOM      1  C   UNL     1      -1.718   8.746   6.675  1.00  0.00     0.002 C 
ENDROOT
BRANCH   1   2
ATOM      2  C   UNL     1      -1.343   7.535   5.808  1.00  0.00     0.021 C 
BRANCH   2   3
ATOM      3  C   UNL     1      -2.380   6.411   5.846  1.00  0.00     0.116 C 
BRANCH   3   4
ATOM      4  N   UNL     1      -3.556   6.788   5.086  1.00  0.00    -0.352 N 
ATOM      5  C   UNL     1      -4.046   6.377   3.875  1.00  0.00     0.252 C 
ATOM      6  O   UNL     1      -5.104   6.870   3.486  1.00  0.00    -0.269 OA
ATOM      7  H   UNL     1      -4.109   7.474   5.525  1.00  0.00     0.163 HD
BRANCH   5   8
ATOM      8  C   UNL     1      -3.396   5.339   3.047  1.00  0.00     0.058 A 
ATOM      9  C   UNL     1      -2.465   3.294   1.430  1.00  0.00     0.094 A 
ATOM     10  C   UNL     1      -1.552   4.083   2.132  1.00  0.00     0.030 A 
ATOM     11  N   UNL     1      -3.799   3.523   1.483  1.00  0.00    -0.255 NA
ATOM     12  C   UNL     1      -2.025   5.128   2.931  1.00  0.00     0.017 A 
ATOM     13  C   UNL     1      -4.229   4.533   2.279  1.00  0.00     0.125 A 
BRANCH   9  14
ATOM     14  C   UNL     1      -1.982   2.154   0.552  1.00  0.00     0.318 C 
BRANCH  14  15
ATOM     15  N   UNL     1      -1.452   1.030   1.326  1.00  0.00    -0.338 N 
ATOM     16  H   UNL     1      -0.659   1.375   1.867  1.00  0.00     0.346 HD
ATOM     17  H   UNL     1      -2.239   0.697   1.883  1.00  0.00     0.346 HD
BRANCH  15  18
ATOM     18  C   UNL     1      -0.997  -0.141   0.571  1.00  0.00     0.189 C 
ATOM     19  C   UNL     1       1.152  -1.491   0.015  1.00  0.00     0.017 C 
ATOM     20  C   UNL     1       0.390  -0.192  -0.062  1.00  0.00     0.022 C 
ATOM     21  C   UNL     1       1.272   1.035  -0.117  1.00  0.00     0.017 C 
ATOM     22  C   UNL     1      -0.857  -0.180  -0.920  1.00  0.00     0.078 C 
ENDBRANCH  15  18
ENDBRANCH  14  15
ENDBRANCH   9  14
ENDBRANCH   5   8
ENDBRANCH   3   4
ENDBRANCH   2   3
ENDBRANCH   1   2
BRANCH   1  23
ATOM     23  C   UNL     1      -1.803   8.465   8.180  1.00  0.00     0.002 C 
BRANCH  23  24
ATOM     24  C   UNL     1      -0.540   7.865   8.806  1.00  0.00     0.021 C 
BRANCH  24  25
ATOM     25  C   UNL     1       0.717   8.720   8.658  1.00  0.00     0.116 C 
BRANCH  25  26
ATOM     26  N   UNL     1       0.588   9.999   9.334  1.00  0.00    -0.352 N 
ATOM     27  C   UNL     1       1.424  10.604  10.232  1.00  0.00     0.251 C 
ATOM     28  H   UNL     1      -0.226  10.508   9.113  1.00  0.00     0.163 HD
ATOM     29  O   UNL     1       1.036  11.601  10.849  1.00  0.00    -0.269 OA
BRANCH  27  30
ATOM     30  C   UNL     1       2.782  10.078  10.485  1.00  0.00     0.039 A 
ATOM     31  C   UNL     1       3.261  10.072  11.797  1.00  0.00     0.014 A 
ATOM     32  C   UNL     1       3.607   9.650   9.439  1.00  0.00     0.014 A 
ATOM     33  C   UNL     1       4.551   9.610  12.066  1.00  0.00     0.010 A 
ATOM     34  C   UNL     1       4.874   9.133   9.715  1.00  0.00     0.010 A 
ATOM     35  C   UNL     1       5.362   9.121  11.029  1.00  0.00    -0.014 A 
BRANCH  35  36
ATOM     36  C   UNL     1       6.722   8.606  11.325  1.00  0.00     0.031 A 
ATOM     37  C   UNL     1       7.942   9.343  10.846  1.00  0.00     0.074 A 
ATOM     38  C   UNL     1       6.856   7.460  12.019  1.00  0.00     0.049 A 
ATOM     39  N   UNL     1       9.205   9.069  11.055  1.00  0.00    -0.248 NA
ATOM     40  C   UNL     1       7.715  10.528  10.005  1.00  0.00     0.031 C 
ATOM     41  C   UNL     1       5.751   6.621  12.485  1.00  0.00     0.029 A 
ATOM     42  N   UNL     1       7.980   6.808  12.459  1.00  0.00    -0.354 N 
ATOM     43  C   UNL     1       9.922  10.041  10.368  1.00  0.00     0.074 A 
ATOM     44  C   UNL     1       8.955  10.881   9.695  1.00  0.00     0.031 C 
ATOM     45  C   UNL     1       6.250   5.584  13.177  1.00  0.00     0.029 A 
ATOM     46  C   UNL     1       7.707   5.677  13.188  1.00  0.00     0.049 A 
ATOM     47  H   UNL     1       8.894   7.120  12.269  1.00  0.00     0.167 HD
ATOM     48  C   UNL     1      11.262  10.232  10.323  1.00  0.00     0.037 A 
ATOM     49  C   UNL     1       8.538   4.822  13.812  1.00  0.00     0.037 A 
ATOM     50  C   UNL     1      12.223   9.412  11.013  1.00  0.00     0.049 A 
ATOM     51  C   UNL     1      10.017   5.079  13.783  1.00  0.00     0.074 A 
ATOM     52  C   UNL     1      13.598   9.558  11.076  1.00  0.00     0.029 A 
ATOM     53  N   UNL     1      11.907   8.290  11.764  1.00  0.00    -0.354 N 
ATOM     54  N   UNL     1      10.676   6.046  13.193  1.00  0.00    -0.248 NA
ATOM     55  C   UNL     1      10.867   4.134  14.520  1.00  0.00     0.031 C 
ATOM     56  C   UNL     1      14.117   8.506  11.840  1.00  0.00     0.029 A 
ATOM     57  C   UNL     1      13.061   7.726  12.283  1.00  0.00     0.049 A 
ATOM     58  H   UNL     1      10.996   7.944  11.906  1.00  0.00     0.167 HD
ATOM     59  C   UNL     1      12.013   5.840  13.504  1.00  0.00     0.074 A 
ATOM     60  C   UNL     1      12.069   4.666  14.351  1.00  0.00     0.031 C 
ATOM     61  C   UNL     1      13.098   6.556  13.122  1.00  0.00     0.037 A 
BRANCH  48  62
ATOM     62  C   UNL     1      11.767  11.384   9.503  1.00  0.00     0.057 A 
ATOM     63  C   UNL     1      11.600  12.711   9.918  1.00  0.00     0.134 A 
ATOM     64  C   UNL     1      12.452  11.164   8.302  1.00  0.00     0.134 A 
ATOM     65  F   UNL     1      10.941  12.991  11.053  1.00  0.00    -0.206 F 
ATOM     66  C   UNL     1      12.074  13.780   9.156  1.00  0.00     0.040 A 
ATOM     67  C   UNL     1      12.952  12.224   7.543  1.00  0.00     0.040 A 
ATOM     68  F   UNL     1      12.651   9.917   7.849  1.00  0.00    -0.206 F 
ATOM     69  C   UNL     1      12.758  13.537   7.967  1.00  0.00     0.006 A 
ENDBRANCH  48  62
BRANCH  49  70
ATOM     70  C   UNL     1       7.983   3.672  14.566  1.00  0.00     0.057 A 
ATOM     71  C   UNL     1       7.989   3.658  15.966  1.00  0.00     0.134 A 
ATOM     72  C   UNL     1       7.433   2.565  13.911  1.00  0.00     0.134 A 
ATOM     73  F   UNL     1       8.518   4.685  16.648  1.00  0.00    -0.206 F 
ATOM     74  C   UNL     1       7.483   2.577  16.688  1.00  0.00     0.040 A 
ATOM     75  C   UNL     1       6.904   1.486  14.620  1.00  0.00     0.040 A 
ATOM     76  F   UNL     1       7.390   2.524  12.571  1.00  0.00    -0.206 F 
ATOM     77  C   UNL     1       6.934   1.488  16.014  1.00  0.00     0.006 A 
ENDBRANCH  49  70
BRANCH  61  78
ATOM     78  C   UNL     1      14.430   6.095  13.634  1.00  0.00     0.057 A 
ATOM     79  C   UNL     1      15.049   4.940  13.140  1.00  0.00     0.134 A 
ATOM     80  C   UNL     1      15.103   6.820  14.626  1.00  0.00     0.134 A 
ATOM     81  F   UNL     1      14.448   4.196  12.200  1.00  0.00    -0.206 F 
ATOM     82  C   UNL     1      16.279   4.506  13.636  1.00  0.00     0.040 A 
ATOM     83  C   UNL     1      16.344   6.408  15.112  1.00  0.00     0.040 A 
ATOM     84  F   UNL     1      14.566   7.939  15.136  1.00  0.00    -0.206 F 
ATOM     85  C   UNL     1      16.932   5.243  14.622  1.00  0.00     0.006 A 
ENDBRANCH  61  78
ENDBRANCH  35  36
ENDBRANCH  27  30
ENDBRANCH  25  26
ENDBRANCH  24  25
ENDBRANCH  23  24
ENDBRANCH   1  23
TORSDOF 16
