REMARK SMILES CC(=O)Nc1ccc(/C(=C\c2ccc(S(C)(=O)=O)cc2)C(=O)NCCCCCCNC(=O)c2ccc(-c3c4nc(c(-c5c(F)cccc5F)c5ccc([nH]5)c(-c5c(F)cccc5F)c5nc(c(-c6c(F)cccc6F)c6ccc3[nH]6)C=C5)C=C4)cc2)cc1
REMARK SMILES IDX 26 1 25 2 24 3 23 4 21 5 22 6 9 8 10 9 8 10 5 11 6 12 88 13
REMARK SMILES IDX 7 14 87 15 4 16 1 17 2 18 3 19 11 21 12 22 20 23 13 24 19 25
REMARK SMILES IDX 14 26 15 27 16 28 17 29 18 30 27 31 28 32 29 33 30 34 31 35
REMARK SMILES IDX 32 37 33 38 34 39 86 40 35 41 85 42 36 43 37 44 38 45 79 46
REMARK SMILES IDX 39 47 84 48 78 49 80 50 40 51 83 52 77 53 76 54 41 56 67 57
REMARK SMILES IDX 50 58 66 59 51 60 54 61 65 62 81 63 52 64 53 65 64 67 82 68
REMARK SMILES IDX 55 69 42 70 43 71 48 72 44 73 45 74 47 75 49 76 46 77 68 78
REMARK SMILES IDX 69 79 74 80 70 81 71 82 73 83 75 84 72 85 56 86 57 87 62 88
REMARK SMILES IDX 58 89 59 90 61 91 63 92 60 93
REMARK H PARENT 23 7 4 20 30 36 80 55 54 66
REMARK Flexibility Score: inf
ROOT
ATOM      1  C   UNL     1       7.138   8.648  -0.260  1.00  0.00     0.002 C 
ENDROOT
BRANCH   1   2
ATOM      2  C   UNL     1       5.996   8.375  -1.253  1.00  0.00     0.021 C 
BRANCH   2   3
ATOM      3  C   UNL     1       6.335   7.306  -2.296  1.00  0.00     0.116 C 
BRANCH   3   4
ATOM      4  N   UNL     1       6.313   5.994  -1.685  1.00  0.00    -0.352 N 
ATOM      5  C   UNL     1       5.456   4.943  -1.644  1.00  0.00     0.251 C 
ATOM      6  O   UNL     1       5.881   4.002  -0.967  1.00  0.00    -0.269 OA
ATOM      7  H   UNL     1       7.130   5.819  -1.165  1.00  0.00     0.163 HD
BRANCH   5   8
ATOM      8  C   UNL     1       4.128   4.849  -2.399  1.00  0.00     0.047 C 
ATOM      9  C   UNL     1       3.507   5.989  -2.786  1.00  0.00     0.022 C 
BRANCH   8  10
ATOM     10  C   UNL     1       3.448   3.503  -2.522  1.00  0.00    -0.013 A 
ATOM     11  C   UNL     1       1.813   1.160  -2.409  1.00  0.00     0.041 A 
ATOM     12  C   UNL     1       1.821   1.976  -3.542  1.00  0.00     0.027 A 
ATOM     13  C   UNL     1       2.740   1.426  -1.416  1.00  0.00     0.027 A 
ATOM     14  C   UNL     1       2.652   3.111  -3.609  1.00  0.00     0.011 A 
ATOM     15  C   UNL     1       3.507   2.594  -1.454  1.00  0.00     0.011 A 
BRANCH  11  16
ATOM     16  N   UNL     1       0.871   0.120  -2.344  1.00  0.00    -0.326 N 
ATOM     17  C   UNL     1       0.746  -0.268   0.131  1.00  0.00     0.114 C 
ATOM     18  C   UNL     1       0.391  -0.611  -1.292  1.00  0.00     0.221 C 
ATOM     19  O   UNL     1      -0.385  -1.542  -1.528  1.00  0.00    -0.275 OA
ATOM     20  H   UNL     1       0.484  -0.127  -3.215  1.00  0.00     0.169 HD
ENDBRANCH  11  16
ENDBRANCH   8  10
BRANCH   9  21
ATOM     21  C   UNL     1       2.351   6.165  -3.679  1.00  0.00    -0.025 A 
ATOM     22  C   UNL     1       2.608   6.520  -5.016  1.00  0.00     0.009 A 
ATOM     23  C   UNL     1       1.037   5.931  -3.268  1.00  0.00     0.009 A 
ATOM     24  C   UNL     1       1.569   6.585  -5.946  1.00  0.00     0.021 A 
ATOM     25  C   UNL     1      -0.008   5.993  -4.196  1.00  0.00     0.021 A 
ATOM     26  C   UNL     1       0.265   6.311  -5.531  1.00  0.00     0.067 A 
BRANCH  26  27
ATOM     27  S   UNL     1      -1.029   6.243  -6.750  1.00  0.00     0.175 S 
ATOM     28  C   UNL     1      -1.402   7.944  -7.077  1.00  0.00     0.163 C 
ATOM     29  O   UNL     1      -0.452   5.666  -7.949  1.00  0.00    -0.224 OA
ATOM     30  O   UNL     1      -2.191   5.643  -6.122  1.00  0.00    -0.224 OA
ENDBRANCH  26  27
ENDBRANCH   9  21
ENDBRANCH   5   8
ENDBRANCH   3   4
ENDBRANCH   2   3
ENDBRANCH   1   2
BRANCH   1  31
ATOM     31  C   UNL     1       8.450   9.128  -0.896  1.00  0.00     0.002 C 
BRANCH  31  32
ATOM     32  C   UNL     1       8.307  10.328  -1.834  1.00  0.00     0.021 C 
BRANCH  32  33
ATOM     33  C   UNL     1       7.761  11.583  -1.160  1.00  0.00     0.116 C 
BRANCH  33  34
ATOM     34  N   UNL     1       8.696  12.114  -0.178  1.00  0.00    -0.352 N 
ATOM     35  C   UNL     1       9.345  13.324  -0.166  1.00  0.00     0.251 C 
ATOM     36  H   UNL     1       8.890  11.523   0.584  1.00  0.00     0.163 HD
ATOM     37  O   UNL     1      10.278  13.525   0.602  1.00  0.00    -0.269 OA
BRANCH  35  38
ATOM     38  C   UNL     1       8.919  14.382  -1.104  1.00  0.00     0.039 A 
ATOM     39  C   UNL     1       9.883  15.051  -1.862  1.00  0.00     0.014 A 
ATOM     40  C   UNL     1       7.563  14.692  -1.247  1.00  0.00     0.014 A 
ATOM     41  C   UNL     1       9.479  15.975  -2.827  1.00  0.00     0.010 A 
ATOM     42  C   UNL     1       7.160  15.563  -2.253  1.00  0.00     0.010 A 
ATOM     43  C   UNL     1       8.113  16.201  -3.060  1.00  0.00    -0.014 A 
BRANCH  43  44
ATOM     44  C   UNL     1       7.649  17.063  -4.174  1.00  0.00     0.031 A 
ATOM     45  C   UNL     1       6.894  18.328  -3.891  1.00  0.00     0.074 A 
ATOM     46  C   UNL     1       7.828  16.651  -5.444  1.00  0.00     0.049 A 
ATOM     47  N   UNL     1       6.321  19.154  -4.728  1.00  0.00    -0.248 NA
ATOM     48  C   UNL     1       6.742  18.699  -2.476  1.00  0.00     0.031 C 
ATOM     49  C   UNL     1       8.521  15.425  -5.845  1.00  0.00     0.029 A 
ATOM     50  N   UNL     1       7.430  17.212  -6.630  1.00  0.00    -0.354 N 
ATOM     51  C   UNL     1       5.734  20.137  -3.944  1.00  0.00     0.074 A 
ATOM     52  C   UNL     1       5.973  19.774  -2.563  1.00  0.00     0.031 C 
ATOM     53  C   UNL     1       8.522  15.340  -7.184  1.00  0.00     0.029 A 
ATOM     54  C   UNL     1       7.788  16.476  -7.733  1.00  0.00     0.049 A 
ATOM     55  H   UNL     1       6.934  18.060  -6.686  1.00  0.00     0.167 HD
ATOM     56  C   UNL     1       5.071  21.250  -4.340  1.00  0.00     0.037 A 
ATOM     57  C   UNL     1       7.541  16.685  -9.040  1.00  0.00     0.037 A 
ATOM     58  C   UNL     1       4.838  21.605  -5.716  1.00  0.00     0.049 A 
ATOM     59  C   UNL     1       6.743  17.890  -9.452  1.00  0.00     0.074 A 
ATOM     60  C   UNL     1       4.236  22.742  -6.225  1.00  0.00     0.029 A 
ATOM     61  N   UNL     1       5.185  20.816  -6.804  1.00  0.00    -0.354 N 
ATOM     62  N   UNL     1       6.251  18.848  -8.706  1.00  0.00    -0.248 NA
ATOM     63  C   UNL     1       6.457  18.034 -10.886  1.00  0.00     0.031 C 
ATOM     64  C   UNL     1       4.165  22.613  -7.617  1.00  0.00     0.029 A 
ATOM     65  C   UNL     1       4.769  21.419  -7.980  1.00  0.00     0.049 A 
ATOM     66  H   UNL     1       5.658  19.954  -6.749  1.00  0.00     0.167 HD
ATOM     67  C   UNL     1       5.613  19.720  -9.579  1.00  0.00     0.074 A 
ATOM     68  C   UNL     1       5.793  19.181 -10.912  1.00  0.00     0.031 C 
ATOM     69  C   UNL     1       4.942  20.864  -9.299  1.00  0.00     0.037 A 
BRANCH  56  70
ATOM     70  C   UNL     1       4.537  22.150  -3.262  1.00  0.00     0.057 A 
ATOM     71  C   UNL     1       5.386  22.892  -2.428  1.00  0.00     0.134 A 
ATOM     72  C   UNL     1       3.158  22.276  -3.053  1.00  0.00     0.134 A 
ATOM     73  F   UNL     1       6.718  22.810  -2.568  1.00  0.00    -0.206 F 
ATOM     74  C   UNL     1       4.885  23.692  -1.400  1.00  0.00     0.040 A 
ATOM     75  C   UNL     1       2.644  23.097  -2.047  1.00  0.00     0.040 A 
ATOM     76  F   UNL     1       2.288  21.602  -3.819  1.00  0.00    -0.206 F 
ATOM     77  C   UNL     1       3.509  23.798  -1.209  1.00  0.00     0.006 A 
ENDBRANCH  56  70
BRANCH  57  78
ATOM     78  C   UNL     1       8.076  15.741 -10.051  1.00  0.00     0.057 A 
ATOM     79  C   UNL     1       9.126  16.120 -10.895  1.00  0.00     0.134 A 
ATOM     80  C   UNL     1       7.578  14.439 -10.184  1.00  0.00     0.134 A 
ATOM     81  F   UNL     1       9.632  17.360 -10.826  1.00  0.00    -0.206 F 
ATOM     82  C   UNL     1       9.659  15.241 -11.839  1.00  0.00     0.040 A 
ATOM     83  C   UNL     1       8.116  13.542 -11.108  1.00  0.00     0.040 A 
ATOM     84  F   UNL     1       6.577  14.014  -9.399  1.00  0.00    -0.206 F 
ATOM     85  C   UNL     1       9.158  13.944 -11.941  1.00  0.00     0.006 A 
ENDBRANCH  57  78
BRANCH  69  86
ATOM     86  C   UNL     1       4.354  21.615 -10.458  1.00  0.00     0.057 A 
ATOM     87  C   UNL     1       3.218  21.153 -11.133  1.00  0.00     0.134 A 
ATOM     88  C   UNL     1       4.899  22.838 -10.870  1.00  0.00     0.134 A 
ATOM     89  F   UNL     1       2.658  19.981 -10.799  1.00  0.00    -0.206 F 
ATOM     90  C   UNL     1       2.651  21.875 -12.185  1.00  0.00     0.040 A 
ATOM     91  C   UNL     1       4.327  23.581 -11.903  1.00  0.00     0.040 A 
ATOM     92  F   UNL     1       5.985  23.340 -10.261  1.00  0.00    -0.206 F 
ATOM     93  C   UNL     1       3.201  23.098 -12.566  1.00  0.00     0.006 A 
ENDBRANCH  69  86
ENDBRANCH  43  44
ENDBRANCH  35  38
ENDBRANCH  33  34
ENDBRANCH  32  33
ENDBRANCH  31  32
ENDBRANCH   1  31
TORSDOF 17
