REMARK SMILES C[C@H]1CCCCN1c1nc2nc(CC(=O)NCCCCCCNC(=O)c3ccc(-c4c5nc(c(-c6c(F)cccc6F)c6ccc([nH]6)c(-c6c(F)cccc6F)c6nc(c(-c7c(F)cccc7F)c7ccc4[nH]7)C=C6)C=C5)cc3)cc(O)n2n1
REMARK SMILES IDX 19 1 18 2 17 3 16 4 14 5 15 6 13 8 12 9 8 10 9 11 84 12
REMARK SMILES IDX 10 13 83 14 11 15 81 16 80 17 7 18 1 19 2 20 3 21 4 22 6 23
REMARK SMILES IDX 5 24 82 25 20 27 21 28 22 29 23 30 24 31 25 33 26 34 27 35
REMARK SMILES IDX 79 36 28 37 78 38 29 39 30 40 31 41 72 42 32 43 77 44 71 45
REMARK SMILES IDX 73 46 33 47 76 48 70 49 69 50 34 52 60 53 43 54 59 55 44 56
REMARK SMILES IDX 47 57 58 58 74 59 45 60 46 61 57 63 75 64 48 65 35 66 36 67
REMARK SMILES IDX 41 68 37 69 38 70 40 71 42 72 39 73 61 74 62 75 67 76 63 77
REMARK SMILES IDX 64 78 66 79 68 80 65 81 49 82 50 83 55 84 51 85 52 86 54 87
REMARK SMILES IDX 56 88 53 89
REMARK H PARENT 16 7 82 26 23 32 73 51 47 62
REMARK Flexibility Score: inf
ROOT
ATOM      1  C   UNL     1      -0.433  -8.696  -1.620  1.00  0.00     0.002 C 
ENDROOT
BRANCH   1   2
ATOM      2  C   UNL     1       0.769  -7.773  -1.856  1.00  0.00     0.021 C 
BRANCH   2   3
ATOM      3  C   UNL     1       1.609  -8.168  -3.070  1.00  0.00     0.116 C 
BRANCH   3   4
ATOM      4  N   UNL     1       0.903  -7.909  -4.307  1.00  0.00    -0.356 N 
ATOM      5  C   UNL     1       1.095  -6.926  -5.232  1.00  0.00     0.226 C 
ATOM      6  O   UNL     1       0.354  -6.897  -6.215  1.00  0.00    -0.275 OA
ATOM      7  H   UNL     1       0.174  -8.538  -4.511  1.00  0.00     0.163 HD
BRANCH   5   8
ATOM      8  C   UNL     1       2.271  -5.990  -5.104  1.00  0.00     0.156 C 
BRANCH   8   9
ATOM      9  C   UNL     1       2.267  -5.112  -3.872  1.00  0.00     0.059 A 
ATOM     10  C   UNL     1       0.987  -2.190  -0.957  1.00  0.00     0.247 A 
ATOM     11  N   UNL     1       0.402  -2.708  -2.076  1.00  0.00    -0.173 NA
ATOM     12  N   UNL     1       2.143  -2.753  -0.621  1.00  0.00    -0.123 NA
ATOM     13  C   UNL     1       1.284  -3.570  -2.525  1.00  0.00     0.257 A 
ATOM     14  N   UNL     1       2.352  -3.624  -1.629  1.00  0.00    -0.161 N 
ATOM     15  N   UNL     1       1.247  -4.335  -3.656  1.00  0.00    -0.215 NA
ATOM     16  C   UNL     1       3.440  -4.483  -1.852  1.00  0.00     0.217 A 
ATOM     17  C   UNL     1       3.469  -5.215  -2.975  1.00  0.00     0.092 A 
BRANCH  10  18
ATOM     18  N   UNL     1       0.366  -1.179  -0.319  1.00  0.00    -0.337 N 
ATOM     19  C   UNL     1       2.531   0.126  -0.088  1.00  0.00     0.031 C 
ATOM     20  C   UNL     1       1.054  -0.032   0.285  1.00  0.00     0.082 C 
ATOM     21  C   UNL     1       0.308   1.246  -0.156  1.00  0.00     0.025 C 
ATOM     22  C   UNL     1      -1.176   1.182   0.195  1.00  0.00     0.004 C 
ATOM     23  C   UNL     1      -1.048  -1.329   0.005  1.00  0.00     0.120 C 
ATOM     24  C   UNL     1      -1.821  -0.074  -0.383  1.00  0.00     0.022 C 
ENDBRANCH  10  18
BRANCH  16  25
ATOM     25  O   UNL     1       4.452  -4.550  -0.907  1.00  0.00    -0.493 OA
ATOM     26  H   UNL     1       5.183  -5.120  -1.044  1.00  0.00     0.295 HD
ENDBRANCH  16  25
ENDBRANCH   8   9
ENDBRANCH   5   8
ENDBRANCH   3   4
ENDBRANCH   2   3
ENDBRANCH   1   2
BRANCH   1  27
ATOM     27  C   UNL     1      -0.098 -10.192  -1.519  1.00  0.00     0.002 C 
BRANCH  27  28
ATOM     28  C   UNL     1       0.957 -10.566  -0.467  1.00  0.00     0.021 C 
BRANCH  28  29
ATOM     29  C   UNL     1       0.469 -10.352   0.955  1.00  0.00     0.116 C 
BRANCH  29  30
ATOM     30  N   UNL     1      -0.606 -11.279   1.297  1.00  0.00    -0.352 N 
ATOM     31  C   UNL     1      -1.202 -11.490   2.520  1.00  0.00     0.251 C 
ATOM     32  H   UNL     1      -0.950 -11.826   0.554  1.00  0.00     0.163 HD
ATOM     33  O   UNL     1      -1.826 -12.514   2.747  1.00  0.00    -0.269 OA
BRANCH  31  34
ATOM     34  C   UNL     1      -1.101 -10.440   3.546  1.00  0.00     0.039 A 
ATOM     35  C   UNL     1      -0.987 -10.770   4.902  1.00  0.00     0.014 A 
ATOM     36  C   UNL     1      -1.183  -9.110   3.135  1.00  0.00     0.014 A 
ATOM     37  C   UNL     1      -0.928  -9.746   5.840  1.00  0.00     0.010 A 
ATOM     38  C   UNL     1      -0.992  -8.104   4.038  1.00  0.00     0.010 A 
ATOM     39  C   UNL     1      -0.940  -8.421   5.391  1.00  0.00    -0.014 A 
BRANCH  39  40
ATOM     40  C   UNL     1      -0.822  -7.304   6.309  1.00  0.00     0.031 A 
ATOM     41  C   UNL     1       0.519  -7.175   6.935  1.00  0.00     0.074 A 
ATOM     42  C   UNL     1      -1.764  -6.336   6.324  1.00  0.00     0.049 A 
ATOM     43  N   UNL     1       0.818  -7.275   8.187  1.00  0.00    -0.248 NA
ATOM     44  C   UNL     1       1.696  -7.085   6.052  1.00  0.00     0.031 C 
ATOM     45  C   UNL     1      -2.971  -6.239   5.493  1.00  0.00     0.029 A 
ATOM     46  N   UNL     1      -1.765  -5.151   6.990  1.00  0.00    -0.354 N 
ATOM     47  C   UNL     1       2.185  -7.024   8.270  1.00  0.00     0.074 A 
ATOM     48  C   UNL     1       2.697  -7.146   6.933  1.00  0.00     0.031 C 
ATOM     49  C   UNL     1      -3.448  -4.976   5.533  1.00  0.00     0.029 A 
ATOM     50  C   UNL     1      -2.669  -4.214   6.489  1.00  0.00     0.049 A 
ATOM     51  H   UNL     1      -1.179  -4.970   7.761  1.00  0.00     0.167 HD
ATOM     52  C   UNL     1       2.724  -6.453   9.383  1.00  0.00     0.037 A 
ATOM     53  C   UNL     1      -2.693  -2.893   6.803  1.00  0.00     0.037 A 
ATOM     54  C   UNL     1       1.799  -6.518  10.490  1.00  0.00     0.049 A 
ATOM     55  C   UNL     1      -1.942  -2.739   8.080  1.00  0.00     0.074 A 
ATOM     56  C   UNL     1       1.153  -7.541  11.159  1.00  0.00     0.029 A 
ATOM     57  N   UNL     1       1.105  -5.373  10.804  1.00  0.00    -0.354 N 
ATOM     58  N   UNL     1      -2.358  -3.224   9.219  1.00  0.00    -0.248 NA
ATOM     59  C   UNL     1      -0.507  -2.510   7.987  1.00  0.00     0.031 C 
ATOM     60  C   UNL     1      -0.159  -7.042  11.412  1.00  0.00     0.029 A 
ATOM     61  C   UNL     1      -0.210  -5.720  10.968  1.00  0.00     0.049 A 
ATOM     62  H   UNL     1       1.485  -4.469  10.894  1.00  0.00     0.167 HD
ATOM     63  C   UNL     1      -1.224  -3.771   9.805  1.00  0.00     0.074 A 
ATOM     64  C   UNL     1      -0.102  -3.244   9.028  1.00  0.00     0.031 C 
ATOM     65  C   UNL     1      -1.310  -4.838  10.654  1.00  0.00     0.037 A 
BRANCH  52  66
ATOM     66  C   UNL     1       3.876  -5.472   9.374  1.00  0.00     0.057 A 
ATOM     67  C   UNL     1       4.290  -4.726   8.252  1.00  0.00     0.134 A 
ATOM     68  C   UNL     1       4.379  -5.016  10.608  1.00  0.00     0.134 A 
ATOM     69  F   UNL     1       3.877  -4.992   7.009  1.00  0.00    -0.206 F 
ATOM     70  C   UNL     1       5.087  -3.582   8.354  1.00  0.00     0.040 A 
ATOM     71  C   UNL     1       5.133  -3.844  10.725  1.00  0.00     0.040 A 
ATOM     72  F   UNL     1       4.071  -5.647  11.752  1.00  0.00    -0.206 F 
ATOM     73  C   UNL     1       5.476  -3.112   9.597  1.00  0.00     0.006 A 
ENDBRANCH  52  66
BRANCH  53  74
ATOM     74  C   UNL     1      -3.026  -1.745   5.923  1.00  0.00     0.057 A 
ATOM     75  C   UNL     1      -2.908  -1.822   4.523  1.00  0.00     0.134 A 
ATOM     76  C   UNL     1      -3.220  -0.457   6.445  1.00  0.00     0.134 A 
ATOM     77  F   UNL     1      -2.640  -2.982   3.908  1.00  0.00    -0.206 F 
ATOM     78  C   UNL     1      -2.971  -0.695   3.697  1.00  0.00     0.040 A 
ATOM     79  C   UNL     1      -3.270   0.684   5.628  1.00  0.00     0.040 A 
ATOM     80  F   UNL     1      -3.305  -0.265   7.769  1.00  0.00    -0.206 F 
ATOM     81  C   UNL     1      -3.135   0.568   4.249  1.00  0.00     0.006 A 
ENDBRANCH  53  74
BRANCH  65  82
ATOM     82  C   UNL     1      -2.677  -5.272  11.112  1.00  0.00     0.057 A 
ATOM     83  C   UNL     1      -2.930  -5.358  12.485  1.00  0.00     0.134 A 
ATOM     84  C   UNL     1      -3.683  -5.750  10.257  1.00  0.00     0.134 A 
ATOM     85  F   UNL     1      -1.991  -4.982  13.368  1.00  0.00    -0.206 F 
ATOM     86  C   UNL     1      -4.126  -5.876  12.985  1.00  0.00     0.040 A 
ATOM     87  C   UNL     1      -4.900  -6.239  10.743  1.00  0.00     0.040 A 
ATOM     88  F   UNL     1      -3.496  -5.816   8.935  1.00  0.00    -0.206 F 
ATOM     89  C   UNL     1      -5.122  -6.308  12.113  1.00  0.00     0.006 A 
ENDBRANCH  65  82
ENDBRANCH  39  40
ENDBRANCH  31  34
ENDBRANCH  29  30
ENDBRANCH  28  29
ENDBRANCH  27  28
ENDBRANCH   1  27
TORSDOF 16
