REMARK SMILES O=C(CCC(=O)N1CCC(c2nnc3ccccn23)CC1)NCCCCCCNC(=O)c1ccc(-c2c3nc(c(-c4c(F)cccc4F)c4ccc([nH]4)c(-c4c(F)cccc4F)c4nc(c(-c5c(F)cccc5F)c5ccc2[nH]5)C=C4)C=C3)cc1
REMARK SMILES IDX 25 1 24 2 23 3 22 4 1 5 2 6 3 8 4 9 5 10 6 11 7 12 8 13
REMARK SMILES IDX 21 14 9 15 20 16 10 17 11 18 12 19 19 20 13 21 14 22 18 23
REMARK SMILES IDX 15 24 17 25 16 26 26 27 27 28 28 29 29 30 30 31 31 33 32 34
REMARK SMILES IDX 33 35 85 36 34 37 84 38 35 39 36 40 37 41 78 42 38 43 83 44
REMARK SMILES IDX 77 45 79 46 39 47 82 48 76 49 75 50 40 52 66 53 49 54 65 55
REMARK SMILES IDX 50 56 53 57 64 58 80 59 51 60 52 61 63 63 81 64 54 65 41 66
REMARK SMILES IDX 42 67 47 68 43 69 44 70 46 71 48 72 45 73 67 74 68 75 73 76
REMARK SMILES IDX 69 77 70 78 72 79 74 80 71 81 55 82 56 83 61 84 57 85 58 86
REMARK SMILES IDX 60 87 62 88 59 89
REMARK H PARENT 22 7 29 32 79 51 53 62
REMARK Flexibility Score: inf
ROOT
ATOM      1  C   UNL     1       2.587   0.766   4.389  1.00  0.00     0.002 C 
ENDROOT
BRANCH   1   2
ATOM      2  C   UNL     1       1.209   0.466   3.781  1.00  0.00     0.021 C 
BRANCH   2   3
ATOM      3  C   UNL     1       0.992   0.740   2.282  1.00  0.00     0.116 C 
BRANCH   3   4
ATOM      4  N   UNL     1       1.693  -0.137   1.351  1.00  0.00    -0.356 N 
ATOM      5  O   UNL     1       0.827   0.908  -0.501  1.00  0.00    -0.275 OA
ATOM      6  C   UNL     1       1.645   0.129  -0.017  1.00  0.00     0.220 C 
ATOM      7  H   UNL     1       2.197  -0.914   1.687  1.00  0.00     0.163 HD
BRANCH   6   8
ATOM      8  C   UNL     1       2.760  -0.508  -0.868  1.00  0.00     0.110 C 
BRANCH   8   9
ATOM      9  C   UNL     1       3.471   0.540  -1.757  1.00  0.00     0.110 C 
BRANCH   9  10
ATOM     10  C   UNL     1       4.818   1.232  -1.399  1.00  0.00     0.223 C 
ATOM     11  O   UNL     1       5.687   1.322  -2.273  1.00  0.00    -0.275 OA
ATOM     12  N   UNL     1       4.982   1.888  -0.191  1.00  0.00    -0.343 N 
ATOM     13  C   UNL     1       6.012   2.916   0.031  1.00  0.00     0.120 C 
ATOM     14  C   UNL     1       4.332   1.461   1.006  1.00  0.00     0.120 C 
ATOM     15  C   UNL     1       6.975   2.583   1.200  1.00  0.00     0.033 C 
ATOM     16  C   UNL     1       5.356   0.878   1.935  1.00  0.00     0.033 C 
ATOM     17  C   UNL     1       6.218   2.029   2.414  1.00  0.00     0.062 C 
BRANCH  17  18
ATOM     18  C   UNL     1       7.052   1.550   3.551  1.00  0.00     0.140 A 
ATOM     19  N   UNL     1       7.255   0.286   3.879  1.00  0.00    -0.134 NA
ATOM     20  N   UNL     1       7.564   2.358   4.539  1.00  0.00    -0.286 N 
ATOM     21  N   UNL     1       7.935   0.247   5.068  1.00  0.00    -0.130 NA
ATOM     22  C   UNL     1       8.148   1.487   5.445  1.00  0.00     0.160 A 
ATOM     23  C   UNL     1       7.531   3.740   4.709  1.00  0.00     0.095 A 
ATOM     24  C   UNL     1       8.801   2.055   6.569  1.00  0.00     0.050 A 
ATOM     25  C   UNL     1       8.134   4.276   5.784  1.00  0.00     0.019 A 
ATOM     26  C   UNL     1       8.802   3.394   6.729  1.00  0.00     0.005 A 
ENDBRANCH  17  18
ENDBRANCH   9  10
ENDBRANCH   8   9
ENDBRANCH   6   8
ENDBRANCH   3   4
ENDBRANCH   2   3
ENDBRANCH   1   2
BRANCH   1  27
ATOM     27  C   UNL     1       3.092   2.213   4.326  1.00  0.00     0.002 C 
BRANCH  27  28
ATOM     28  C   UNL     1       2.721   3.134   5.482  1.00  0.00     0.021 C 
BRANCH  28  29
ATOM     29  C   UNL     1       3.190   2.699   6.865  1.00  0.00     0.116 C 
BRANCH  29  30
ATOM     30  N   UNL     1       4.620   2.451   7.023  1.00  0.00    -0.352 N 
ATOM     31  C   UNL     1       5.361   2.623   8.178  1.00  0.00     0.251 C 
ATOM     32  H   UNL     1       5.105   2.130   6.228  1.00  0.00     0.163 HD
ATOM     33  O   UNL     1       6.511   2.240   8.304  1.00  0.00    -0.269 OA
BRANCH  31  34
ATOM     34  C   UNL     1       4.728   3.298   9.311  1.00  0.00     0.039 A 
ATOM     35  C   UNL     1       5.248   4.508   9.777  1.00  0.00     0.014 A 
ATOM     36  C   UNL     1       3.560   2.746   9.833  1.00  0.00     0.014 A 
ATOM     37  C   UNL     1       4.538   5.213  10.741  1.00  0.00     0.010 A 
ATOM     38  C   UNL     1       2.800   3.502  10.697  1.00  0.00     0.010 A 
ATOM     39  C   UNL     1       3.293   4.728  11.170  1.00  0.00    -0.014 A 
BRANCH  39  40
ATOM     40  C   UNL     1       2.483   5.445  12.169  1.00  0.00     0.031 A 
ATOM     41  C   UNL     1       2.205   4.762  13.475  1.00  0.00     0.074 A 
ATOM     42  C   UNL     1       1.926   6.622  11.836  1.00  0.00     0.049 A 
ATOM     43  N   UNL     1       1.391   5.107  14.433  1.00  0.00    -0.248 NA
ATOM     44  C   UNL     1       2.894   3.478  13.703  1.00  0.00     0.031 C 
ATOM     45  C   UNL     1       2.108   7.316  10.557  1.00  0.00     0.029 A 
ATOM     46  N   UNL     1       1.086   7.439  12.540  1.00  0.00    -0.354 N 
ATOM     47  C   UNL     1       1.431   4.060  15.347  1.00  0.00     0.074 A 
ATOM     48  C   UNL     1       2.296   3.042  14.799  1.00  0.00     0.031 C 
ATOM     49  C   UNL     1       1.437   8.478  10.588  1.00  0.00     0.029 A 
ATOM     50  C   UNL     1       0.744   8.586  11.865  1.00  0.00     0.049 A 
ATOM     51  H   UNL     1       0.758   7.227  13.443  1.00  0.00     0.167 HD
ATOM     52  C   UNL     1       0.815   3.977  16.548  1.00  0.00     0.037 A 
ATOM     53  C   UNL     1      -0.041   9.605  12.255  1.00  0.00     0.037 A 
ATOM     54  C   UNL     1       0.002   5.039  17.075  1.00  0.00     0.049 A 
ATOM     55  C   UNL     1      -0.668   9.517  13.619  1.00  0.00     0.074 A 
ATOM     56  C   UNL     1      -0.622   5.129  18.303  1.00  0.00     0.029 A 
ATOM     57  N   UNL     1      -0.287   6.213  16.386  1.00  0.00    -0.354 N 
ATOM     58  N   UNL     1      -0.584   8.551  14.506  1.00  0.00    -0.248 NA
ATOM     59  C   UNL     1      -1.490  10.655  14.039  1.00  0.00     0.031 C 
ATOM     60  C   UNL     1      -1.323   6.340  18.341  1.00  0.00     0.029 A 
ATOM     61  C   UNL     1      -1.095   7.028  17.156  1.00  0.00     0.049 A 
ATOM     62  H   UNL     1       0.036   6.431  15.482  1.00  0.00     0.167 HD
ATOM     63  C   UNL     1      -1.324   8.972  15.600  1.00  0.00     0.074 A 
ATOM     64  C   UNL     1      -1.828  10.293  15.269  1.00  0.00     0.031 C 
ATOM     65  C   UNL     1      -1.574   8.334  16.772  1.00  0.00     0.037 A 
BRANCH  52  66
ATOM     66  C   UNL     1       0.996   2.705  17.331  1.00  0.00     0.057 A 
ATOM     67  C   UNL     1       2.243   2.305  17.835  1.00  0.00     0.134 A 
ATOM     68  C   UNL     1      -0.086   1.842  17.547  1.00  0.00     0.134 A 
ATOM     69  F   UNL     1       3.330   3.071  17.649  1.00  0.00    -0.206 F 
ATOM     70  C   UNL     1       2.417   1.077  18.478  1.00  0.00     0.040 A 
ATOM     71  C   UNL     1       0.068   0.628  18.220  1.00  0.00     0.040 A 
ATOM     72  F   UNL     1      -1.309   2.155  17.094  1.00  0.00    -0.206 F 
ATOM     73  C   UNL     1       1.325   0.235  18.675  1.00  0.00     0.006 A 
ENDBRANCH  52  66
BRANCH  53  74
ATOM     74  C   UNL     1      -0.210  10.796  11.385  1.00  0.00     0.057 A 
ATOM     75  C   UNL     1       0.365  12.024  11.735  1.00  0.00     0.134 A 
ATOM     76  C   UNL     1      -0.905  10.739  10.171  1.00  0.00     0.134 A 
ATOM     77  F   UNL     1       1.039  12.148  12.889  1.00  0.00    -0.206 F 
ATOM     78  C   UNL     1       0.245  13.152  10.921  1.00  0.00     0.040 A 
ATOM     79  C   UNL     1      -1.013  11.852   9.334  1.00  0.00     0.040 A 
ATOM     80  F   UNL     1      -1.466   9.590   9.765  1.00  0.00    -0.206 F 
ATOM     81  C   UNL     1      -0.440  13.066   9.711  1.00  0.00     0.006 A 
ENDBRANCH  53  74
BRANCH  65  82
ATOM     82  C   UNL     1      -2.409   9.080  17.767  1.00  0.00     0.057 A 
ATOM     83  C   UNL     1      -3.781   9.283  17.574  1.00  0.00     0.134 A 
ATOM     84  C   UNL     1      -1.833   9.586  18.939  1.00  0.00     0.134 A 
ATOM     85  F   UNL     1      -4.385   8.834  16.463  1.00  0.00    -0.206 F 
ATOM     86  C   UNL     1      -4.545   9.998  18.495  1.00  0.00     0.040 A 
ATOM     87  C   UNL     1      -2.593  10.273  19.883  1.00  0.00     0.040 A 
ATOM     88  F   UNL     1      -0.526   9.412  19.186  1.00  0.00    -0.206 F 
ATOM     89  C   UNL     1      -3.951  10.489  19.657  1.00  0.00     0.006 A 
ENDBRANCH  65  82
ENDBRANCH  39  40
ENDBRANCH  31  34
ENDBRANCH  29  30
ENDBRANCH  28  29
ENDBRANCH  27  28
ENDBRANCH   1  27
TORSDOF 16
