REMARK SMILES Cc1nn(C)c(C)c1C[C@@H](C)C(=O)N[C@@H](C(=O)NCCCCCCNC(=O)c1ccc(-c2c3nc(c(-c4c(F)cccc4F)c4ccc([nH]4)c(-c4c(F)cccc4F)c4nc(c(-c5c(F)cccc5F)c5ccc2[nH]5)C=C4)C=C3)cc1)c1ccccc1Cl
REMARK SMILES IDX 20 1 19 2 18 3 16 4 17 5 15 7 14 8 12 9 13 10 10 12 11 13
REMARK SMILES IDX 9 14 8 15 1 16 2 17 3 18 4 19 6 20 5 21 7 22 82 23 83 24
REMARK SMILES IDX 87 25 84 26 86 27 88 28 85 29 21 30 22 31 23 32 24 33 25 34
REMARK SMILES IDX 26 35 27 37 28 38 29 39 81 40 30 41 80 42 31 43 32 44 33 45
REMARK SMILES IDX 74 46 34 47 79 48 73 49 75 50 35 51 78 52 72 53 71 54 36 56
REMARK SMILES IDX 62 57 45 58 61 59 46 60 49 61 60 62 76 63 47 64 48 65 59 67
REMARK SMILES IDX 77 68 50 69 37 70 38 71 43 72 39 73 40 74 42 75 44 76 41 77
REMARK SMILES IDX 63 78 64 79 69 80 65 81 66 82 68 83 70 84 67 85 51 86 52 87
REMARK SMILES IDX 57 88 53 89 54 90 56 91 58 92 55 93
REMARK H PARENT 18 6 14 11 25 36 75 55 49 66
REMARK Flexibility Score: inf
ROOT
ATOM      1  C   UNL     1      -3.714   5.261  -1.294  1.00  0.00     0.021 C 
ENDROOT
BRANCH   1   2
ATOM      2  C   UNL     1      -2.317   4.663  -1.385  1.00  0.00     0.116 C 
BRANCH   2   3
ATOM      3  N   UNL     1      -1.412   5.400  -2.236  1.00  0.00    -0.354 N 
ATOM      4  C   UNL     1      -0.073   5.653  -2.112  1.00  0.00     0.247 C 
ATOM      5  O   UNL     1       0.498   5.997  -3.154  1.00  0.00    -0.272 OA
ATOM      6  H   UNL     1      -1.829   5.785  -3.041  1.00  0.00     0.163 HD
BRANCH   4   7
ATOM      7  C   UNL     1       0.741   5.352  -0.799  1.00  0.00     0.203 C 
BRANCH   7   8
ATOM      8  N   UNL     1       0.019   5.549   0.461  1.00  0.00    -0.340 N 
ATOM      9  C   UNL     1      -0.372   4.709   1.455  1.00  0.00     0.224 C 
ATOM     10  O   UNL     1      -1.105   5.185   2.328  1.00  0.00    -0.275 OA
ATOM     11  H   UNL     1      -0.236   6.486   0.621  1.00  0.00     0.164 HD
BRANCH   9  12
ATOM     12  C   UNL     1       0.040   3.237   1.534  1.00  0.00     0.080 C 
ATOM     13  C   UNL     1       1.526   3.159   1.855  1.00  0.00     0.018 C 
BRANCH  12  14
ATOM     14  C   UNL     1      -0.485   2.416   0.346  1.00  0.00     0.052 C 
BRANCH  14  15
ATOM     15  C   UNL     1      -0.179   0.953   0.311  1.00  0.00    -0.003 A 
ATOM     16  C   UNL     1      -2.595  -0.096   0.444  1.00  0.00     0.069 C 
ATOM     17  C   UNL     1      -1.111  -0.127   0.372  1.00  0.00     0.063 A 
ATOM     18  N   UNL     1      -0.503  -1.312   0.270  1.00  0.00    -0.178 NA
ATOM     19  N   UNL     1       0.793  -1.011   0.102  1.00  0.00    -0.272 N 
ATOM     20  C   UNL     1       1.030   0.336   0.018  1.00  0.00     0.038 A 
ATOM     21  C   UNL     1       1.736  -2.096  -0.034  1.00  0.00     0.174 C 
ATOM     22  C   UNL     1       2.355   0.893  -0.359  1.00  0.00     0.066 C 
ENDBRANCH  14  15
ENDBRANCH  12  14
ENDBRANCH   9  12
ENDBRANCH   7   8
BRANCH   7  23
ATOM     23  C   UNL     1       2.055   6.131  -0.772  1.00  0.00     0.002 A 
ATOM     24  C   UNL     1       3.269   5.417  -0.839  1.00  0.00     0.008 A 
ATOM     25  C   UNL     1       2.116   7.534  -0.718  1.00  0.00     0.046 A 
ATOM     26  C   UNL     1       4.498   6.078  -0.839  1.00  0.00     0.000 A 
ATOM     27  C   UNL     1       3.350   8.193  -0.727  1.00  0.00     0.021 A 
ATOM     28  Cl  UNL     1       0.693   8.511  -0.628  1.00  0.00    -0.084 Cl
ATOM     29  C   UNL     1       4.539   7.467  -0.785  1.00  0.00     0.002 A 
ENDBRANCH   7  23
ENDBRANCH   4   7
ENDBRANCH   2   3
ENDBRANCH   1   2
BRANCH   1  30
ATOM     30  C   UNL     1      -4.604   5.019  -2.512  1.00  0.00     0.002 C 
BRANCH  30  31
ATOM     31  C   UNL     1      -4.785   3.555  -2.930  1.00  0.00     0.002 C 
BRANCH  31  32
ATOM     32  C   UNL     1      -5.223   2.581  -1.831  1.00  0.00     0.021 C 
BRANCH  32  33
ATOM     33  C   UNL     1      -6.490   2.960  -1.069  1.00  0.00     0.116 C 
BRANCH  33  34
ATOM     34  N   UNL     1      -7.633   3.156  -1.941  1.00  0.00    -0.352 N 
ATOM     35  C   UNL     1      -8.920   2.704  -1.829  1.00  0.00     0.251 C 
ATOM     36  H   UNL     1      -7.454   3.701  -2.741  1.00  0.00     0.163 HD
ATOM     37  O   UNL     1      -9.704   2.886  -2.762  1.00  0.00    -0.269 OA
BRANCH  35  38
ATOM     38  C   UNL     1      -9.385   1.989  -0.619  1.00  0.00     0.039 A 
ATOM     39  C   UNL     1     -10.275   0.922  -0.784  1.00  0.00     0.014 A 
ATOM     40  C   UNL     1      -9.019   2.391   0.668  1.00  0.00     0.014 A 
ATOM     41  C   UNL     1     -10.776   0.248   0.331  1.00  0.00     0.010 A 
ATOM     42  C   UNL     1      -9.466   1.675   1.780  1.00  0.00     0.010 A 
ATOM     43  C   UNL     1     -10.367   0.612   1.623  1.00  0.00    -0.014 A 
BRANCH  43  44
ATOM     44  C   UNL     1     -10.920  -0.083   2.813  1.00  0.00     0.031 A 
ATOM     45  C   UNL     1     -11.819   0.653   3.770  1.00  0.00     0.074 A 
ATOM     46  C   UNL     1     -10.605  -1.372   3.042  1.00  0.00     0.049 A 
ATOM     47  N   UNL     1     -12.407   0.217   4.856  1.00  0.00    -0.248 NA
ATOM     48  C   UNL     1     -12.073   2.073   3.480  1.00  0.00     0.031 C 
ATOM     49  C   UNL     1      -9.714  -2.185   2.214  1.00  0.00     0.029 A 
ATOM     50  N   UNL     1     -11.006  -2.225   4.039  1.00  0.00    -0.354 N 
ATOM     51  C   UNL     1     -13.089   1.307   5.381  1.00  0.00     0.074 A 
ATOM     52  C   UNL     1     -12.797   2.438   4.528  1.00  0.00     0.031 C 
ATOM     53  C   UNL     1      -9.662  -3.429   2.717  1.00  0.00     0.029 A 
ATOM     54  C   UNL     1     -10.496  -3.495   3.913  1.00  0.00     0.049 A 
ATOM     55  H   UNL     1     -11.601  -1.954   4.774  1.00  0.00     0.167 HD
ATOM     56  C   UNL     1     -13.907   1.359   6.460  1.00  0.00     0.037 A 
ATOM     57  C   UNL     1     -10.692  -4.590   4.671  1.00  0.00     0.037 A 
ATOM     58  C   UNL     1     -14.218   0.229   7.295  1.00  0.00     0.049 A 
ATOM     59  C   UNL     1     -11.613  -4.512   5.856  1.00  0.00     0.074 A 
ATOM     60  C   UNL     1     -15.063   0.169   8.390  1.00  0.00     0.029 A 
ATOM     61  N   UNL     1     -13.695  -1.044   7.124  1.00  0.00    -0.354 N 
ATOM     62  N   UNL     1     -12.296  -3.488   6.307  1.00  0.00    -0.248 NA
ATOM     63  C   UNL     1     -11.802  -5.748   6.628  1.00  0.00     0.031 C 
ATOM     64  C   UNL     1     -15.030  -1.135   8.898  1.00  0.00     0.029 A 
ATOM     65  C   UNL     1     -14.194  -1.895   8.096  1.00  0.00     0.049 A 
ATOM     66  H   UNL     1     -13.063  -1.304   6.416  1.00  0.00     0.167 HD
ATOM     67  C   UNL     1     -13.021  -3.963   7.392  1.00  0.00     0.074 A 
ATOM     68  C   UNL     1     -12.701  -5.370   7.525  1.00  0.00     0.031 C 
ATOM     69  C   UNL     1     -13.877  -3.296   8.204  1.00  0.00     0.037 A 
BRANCH  56  70
ATOM     70  C   UNL     1     -14.527   2.686   6.787  1.00  0.00     0.057 A 
ATOM     71  C   UNL     1     -15.526   3.251   5.982  1.00  0.00     0.134 A 
ATOM     72  C   UNL     1     -14.132   3.404   7.923  1.00  0.00     0.134 A 
ATOM     73  F   UNL     1     -15.940   2.622   4.871  1.00  0.00    -0.206 F 
ATOM     74  C   UNL     1     -16.086   4.495   6.276  1.00  0.00     0.040 A 
ATOM     75  C   UNL     1     -14.704   4.636   8.243  1.00  0.00     0.040 A 
ATOM     76  F   UNL     1     -13.186   2.918   8.741  1.00  0.00    -0.206 F 
ATOM     77  C   UNL     1     -15.678   5.190   7.413  1.00  0.00     0.006 A 
ENDBRANCH  56  70
BRANCH  57  78
ATOM     78  C   UNL     1     -10.044  -5.873   4.301  1.00  0.00     0.057 A 
ATOM     79  C   UNL     1     -10.797  -6.933   3.782  1.00  0.00     0.134 A 
ATOM     80  C   UNL     1      -8.669  -6.074   4.461  1.00  0.00     0.134 A 
ATOM     81  F   UNL     1     -12.123  -6.805   3.623  1.00  0.00    -0.206 F 
ATOM     82  C   UNL     1     -10.209  -8.155   3.453  1.00  0.00     0.040 A 
ATOM     83  C   UNL     1      -8.064  -7.283   4.115  1.00  0.00     0.040 A 
ATOM     84  F   UNL     1      -7.894  -5.094   4.947  1.00  0.00    -0.206 F 
ATOM     85  C   UNL     1      -8.836  -8.330   3.616  1.00  0.00     0.006 A 
ENDBRANCH  57  78
BRANCH  69  86
ATOM     86  C   UNL     1     -14.563  -4.092   9.275  1.00  0.00     0.057 A 
ATOM     87  C   UNL     1     -13.883  -4.545  10.412  1.00  0.00     0.134 A 
ATOM     88  C   UNL     1     -15.927  -4.391   9.173  1.00  0.00     0.134 A 
ATOM     89  F   UNL     1     -12.572  -4.302  10.563  1.00  0.00    -0.206 F 
ATOM     90  C   UNL     1     -14.530  -5.292  11.398  1.00  0.00     0.040 A 
ATOM     91  C   UNL     1     -16.591  -5.116  10.163  1.00  0.00     0.040 A 
ATOM     92  F   UNL     1     -16.638  -3.980   8.112  1.00  0.00    -0.206 F 
ATOM     93  C   UNL     1     -15.890  -5.575  11.277  1.00  0.00     0.006 A 
ENDBRANCH  69  86
ENDBRANCH  43  44
ENDBRANCH  35  38
ENDBRANCH  33  34
ENDBRANCH  32  33
ENDBRANCH  31  32
ENDBRANCH  30  31
ENDBRANCH   1  30
TORSDOF 18
