REMARK SMILES Cc1cc(I)cc([C@H]([NH3+])C(=O)NCCCCCCNC(=O)c2ccc(-c3c4nc(c(-c5c(F)cccc5F)c5ccc([nH]5)c(-c5c(F)cccc5F)c5nc(c(-c6c(F)cccc6F)c6ccc3[nH]6)C=C5)C=C4)cc2)c1O
REMARK SMILES IDX 15 1 14 2 13 3 12 4 10 5 11 6 8 8 7 9 1 10 2 11 3 12 76 13
REMARK SMILES IDX 4 14 5 15 6 16 77 17 9 19 16 23 17 24 18 25 19 26 20 27
REMARK SMILES IDX 21 29 22 30 23 31 75 32 24 33 74 34 25 35 26 36 27 37 68 38
REMARK SMILES IDX 28 39 73 40 67 41 69 42 29 43 72 44 66 45 65 46 30 48 56 49
REMARK SMILES IDX 39 50 55 51 40 52 43 53 54 54 70 55 41 56 42 57 53 59 71 60
REMARK SMILES IDX 44 61 31 62 32 63 37 64 33 65 34 66 36 67 38 68 35 69 57 70
REMARK SMILES IDX 58 71 63 72 59 73 60 74 62 75 64 76 61 77 45 78 46 79 51 80
REMARK SMILES IDX 47 81 48 82 50 83 52 84 49 85
REMARK H PARENT 12 7 77 18 9 20 9 21 9 22 19 28 69 47 43 58
REMARK Flexibility Score: inf
ROOT
ATOM      1  C   UNL     1       1.347   0.811   7.754  1.00  0.00     0.002 C 
ENDROOT
BRANCH   1   2
ATOM      2  C   UNL     1       0.597   0.792   6.418  1.00  0.00     0.021 C 
BRANCH   2   3
ATOM      3  C   UNL     1       0.110   2.157   5.943  1.00  0.00     0.116 C 
BRANCH   3   4
ATOM      4  N   UNL     1       1.214   3.046   5.626  1.00  0.00    -0.351 N 
ATOM      5  C   UNL     1       1.404   3.800   4.498  1.00  0.00     0.283 C 
ATOM      6  O   UNL     1       2.402   4.525   4.448  1.00  0.00    -0.268 OA
ATOM      7  H   UNL     1       1.917   3.116   6.311  1.00  0.00     0.163 HD
BRANCH   5   8
ATOM      8  C   UNL     1       0.391   3.740   3.320  1.00  0.00     0.306 C 
BRANCH   8   9
ATOM      9  C   UNL     1      -1.011   4.255   3.665  1.00  0.00     0.062 A 
ATOM     10  C   UNL     1      -4.645   4.098   2.395  1.00  0.00     0.048 C 
ATOM     11  C   UNL     1      -3.426   4.420   3.213  1.00  0.00    -0.008 A 
ATOM     12  C   UNL     1      -3.586   5.172   4.386  1.00  0.00     0.022 A 
ATOM     13  C   UNL     1      -2.136   3.977   2.862  1.00  0.00     0.128 A 
ATOM     14  C   UNL     1      -2.481   5.509   5.159  1.00  0.00     0.014 A 
ATOM     15  I   UNL     1      -2.730   6.638   6.888  1.00  0.00    -0.044 I 
ATOM     16  C   UNL     1      -1.206   5.080   4.793  1.00  0.00     0.029 A 
BRANCH  13  17
ATOM     17  O   UNL     1      -1.936   3.264   1.707  1.00  0.00    -0.507 OA
ATOM     18  H   UNL     1      -2.661   3.061   1.150  1.00  0.00     0.293 HD
ENDBRANCH  13  17
ENDBRANCH   8   9
BRANCH   8  19
ATOM     19  N   UNL     1       0.415   2.354   2.791  1.00  0.00    -0.343 N 
ATOM     20  H   UNL     1       0.127   1.705   3.523  1.00  0.00     0.345 HD
ATOM     21  H   UNL     1       1.360   2.123   2.485  1.00  0.00     0.345 HD
ATOM     22  H   UNL     1      -0.226   2.281   2.001  1.00  0.00     0.345 HD
ENDBRANCH   8  19
ENDBRANCH   5   8
ENDBRANCH   3   4
ENDBRANCH   2   3
ENDBRANCH   1   2
BRANCH   1  23
ATOM     23  C   UNL     1       0.577   1.408   8.936  1.00  0.00     0.002 C 
BRANCH  23  24
ATOM     24  C   UNL     1      -0.800   0.798   9.201  1.00  0.00     0.021 C 
BRANCH  24  25
ATOM     25  C   UNL     1      -0.811  -0.713   9.401  1.00  0.00     0.116 C 
BRANCH  25  26
ATOM     26  N   UNL     1      -0.062  -1.139  10.574  1.00  0.00    -0.352 N 
ATOM     27  C   UNL     1      -0.420  -2.045  11.545  1.00  0.00     0.251 C 
ATOM     28  H   UNL     1       0.822  -0.721  10.688  1.00  0.00     0.163 HD
ATOM     29  O   UNL     1       0.280  -2.204  12.539  1.00  0.00    -0.269 OA
BRANCH  27  30
ATOM     30  C   UNL     1      -1.685  -2.798  11.402  1.00  0.00     0.039 A 
ATOM     31  C   UNL     1      -2.012  -3.414  10.192  1.00  0.00     0.014 A 
ATOM     32  C   UNL     1      -2.573  -2.844  12.479  1.00  0.00     0.014 A 
ATOM     33  C   UNL     1      -3.292  -3.925  10.006  1.00  0.00     0.010 A 
ATOM     34  C   UNL     1      -3.832  -3.429  12.314  1.00  0.00     0.010 A 
ATOM     35  C   UNL     1      -4.221  -3.925  11.059  1.00  0.00    -0.014 A 
BRANCH  35  36
ATOM     36  C   UNL     1      -5.601  -4.418  10.816  1.00  0.00     0.031 A 
ATOM     37  C   UNL     1      -6.775  -3.477  10.886  1.00  0.00     0.074 A 
ATOM     38  C   UNL     1      -5.793  -5.705  10.471  1.00  0.00     0.049 A 
ATOM     39  N   UNL     1      -8.046  -3.724  10.684  1.00  0.00    -0.248 NA
ATOM     40  C   UNL     1      -6.487  -2.075  11.229  1.00  0.00     0.031 C 
ATOM     41  C   UNL     1      -4.737  -6.713  10.354  1.00  0.00     0.029 A 
ATOM     42  N   UNL     1      -6.937  -6.380  10.133  1.00  0.00    -0.354 N 
ATOM     43  C   UNL     1      -8.707  -2.519  10.893  1.00  0.00     0.074 A 
ATOM     44  C   UNL     1      -7.702  -1.547  11.267  1.00  0.00     0.031 C 
ATOM     45  C   UNL     1      -5.276  -7.864   9.924  1.00  0.00     0.029 A 
ATOM     46  C   UNL     1      -6.718  -7.692   9.791  1.00  0.00     0.049 A 
ATOM     47  H   UNL     1      -7.830  -5.965  10.136  1.00  0.00     0.167 HD
ATOM     48  C   UNL     1     -10.028  -2.243  10.773  1.00  0.00     0.037 A 
ATOM     49  C   UNL     1      -7.585  -8.653   9.423  1.00  0.00     0.037 A 
ATOM     50  C   UNL     1     -11.028  -3.204  10.384  1.00  0.00     0.049 A 
ATOM     51  C   UNL     1      -9.049  -8.333   9.349  1.00  0.00     0.074 A 
ATOM     52  C   UNL     1     -12.389  -3.015  10.215  1.00  0.00     0.029 A 
ATOM     53  N   UNL     1     -10.774  -4.538  10.105  1.00  0.00    -0.354 N 
ATOM     54  N   UNL     1      -9.657  -7.187   9.540  1.00  0.00    -0.248 NA
ATOM     55  C   UNL     1      -9.950  -9.445   9.018  1.00  0.00     0.031 C 
ATOM     56  C   UNL     1     -12.963  -4.244   9.868  1.00  0.00     0.029 A 
ATOM     57  C   UNL     1     -11.954  -5.189   9.784  1.00  0.00     0.049 A 
ATOM     58  H   UNL     1      -9.885  -4.961  10.131  1.00  0.00     0.167 HD
ATOM     59  C   UNL     1     -11.007  -7.437   9.340  1.00  0.00     0.074 A 
ATOM     60  C   UNL     1     -11.127  -8.837   8.989  1.00  0.00     0.031 C 
ATOM     61  C   UNL     1     -12.056  -6.584   9.442  1.00  0.00     0.037 A 
BRANCH  48  62
ATOM     62  C   UNL     1     -10.471  -0.843  11.083  1.00  0.00     0.057 A 
ATOM     63  C   UNL     1     -11.200  -0.565  12.246  1.00  0.00     0.134 A 
ATOM     64  C   UNL     1     -10.199   0.228  10.221  1.00  0.00     0.134 A 
ATOM     65  F   UNL     1     -11.501  -1.545  13.112  1.00  0.00    -0.206 F 
ATOM     66  C   UNL     1     -11.641   0.727  12.541  1.00  0.00     0.040 A 
ATOM     67  C   UNL     1     -10.614   1.528  10.517  1.00  0.00     0.040 A 
ATOM     68  F   UNL     1      -9.493   0.032   9.096  1.00  0.00    -0.206 F 
ATOM     69  C   UNL     1     -11.342   1.779  11.678  1.00  0.00     0.006 A 
ENDBRANCH  48  62
BRANCH  49  70
ATOM     70  C   UNL     1      -7.092 -10.016   9.106  1.00  0.00     0.057 A 
ATOM     71  C   UNL     1      -6.585 -10.858  10.103  1.00  0.00     0.134 A 
ATOM     72  C   UNL     1      -7.130 -10.511   7.798  1.00  0.00     0.134 A 
ATOM     73  F   UNL     1      -6.519 -10.439  11.375  1.00  0.00    -0.206 F 
ATOM     74  C   UNL     1      -6.124 -12.141   9.809  1.00  0.00     0.040 A 
ATOM     75  C   UNL     1      -6.697 -11.802   7.494  1.00  0.00     0.040 A 
ATOM     76  F   UNL     1      -7.625  -9.757   6.805  1.00  0.00    -0.206 F 
ATOM     77  C   UNL     1      -6.187 -12.619   8.502  1.00  0.00     0.006 A 
ENDBRANCH  49  70
BRANCH  61  78
ATOM     78  C   UNL     1     -13.415  -7.147   9.149  1.00  0.00     0.057 A 
ATOM     79  C   UNL     1     -14.082  -6.822   7.962  1.00  0.00     0.134 A 
ATOM     80  C   UNL     1     -14.063  -8.007  10.044  1.00  0.00     0.134 A 
ATOM     81  F   UNL     1     -13.517  -6.000   7.065  1.00  0.00    -0.206 F 
ATOM     82  C   UNL     1     -15.347  -7.336   7.673  1.00  0.00     0.040 A 
ATOM     83  C   UNL     1     -15.318  -8.546   9.756  1.00  0.00     0.040 A 
ATOM     84  F   UNL     1     -13.468  -8.369  11.191  1.00  0.00    -0.206 F 
ATOM     85  C   UNL     1     -15.964  -8.207   8.569  1.00  0.00     0.006 A 
ENDBRANCH  61  78
ENDBRANCH  35  36
ENDBRANCH  27  30
ENDBRANCH  25  26
ENDBRANCH  24  25
ENDBRANCH  23  24
ENDBRANCH   1  23
TORSDOF 16
