REMARK SMILES C[N@@H+](Cc1ncccc1C(=O)NCCCCCCNC(=O)c1ccc(-c2c3nc(c(-c4c(F)cccc4F)c4ccc([nH]4)c(-c4c(F)cccc4F)c4nc(c(-c5c(F)cccc5F)c5ccc2[nH]5)C=C4)C=C3)cc1)C[C@@H]1CCN(c2ccccc2)C1
REMARK SMILES IDX 14 1 13 2 12 3 10 4 11 5 9 7 4 8 5 9 6 10 8 11 7 12 3 13
REMARK SMILES IDX 2 14 1 15 76 17 77 18 78 19 87 20 79 21 80 22 81 23 82 24
REMARK SMILES IDX 86 25 83 26 85 27 84 28 15 29 16 30 17 31 18 32 19 33 20 34
REMARK SMILES IDX 21 36 22 37 23 38 75 39 24 40 74 41 25 42 26 43 27 44 68 45
REMARK SMILES IDX 28 46 73 47 67 48 69 49 29 50 72 51 66 52 65 53 30 55 56 56
REMARK SMILES IDX 39 57 55 58 40 59 43 60 54 61 70 62 41 63 42 64 53 66 71 67
REMARK SMILES IDX 44 68 31 69 32 70 37 71 33 72 34 73 36 74 38 75 35 76 57 77
REMARK SMILES IDX 58 78 63 79 59 80 60 81 62 82 64 83 61 84 45 85 46 86 51 87
REMARK SMILES IDX 47 88 48 89 50 90 52 91 49 92
REMARK H PARENT 12 6 2 16 19 35 69 54 43 65
REMARK Flexibility Score: inf
ROOT
ATOM      1  C   UNL     1      -4.463   2.334  -3.176  1.00  0.00     0.021 C 
ENDROOT
BRANCH   1   2
ATOM      2  C   UNL     1      -3.091   1.695  -3.350  1.00  0.00     0.116 C 
BRANCH   2   3
ATOM      3  N   UNL     1      -2.273   1.798  -2.159  1.00  0.00    -0.352 N 
ATOM      4  C   UNL     1      -1.833   0.909  -1.211  1.00  0.00     0.253 C 
ATOM      5  O   UNL     1      -1.360   1.432  -0.205  1.00  0.00    -0.269 OA
ATOM      6  H   UNL     1      -1.961   2.717  -1.992  1.00  0.00     0.163 HD
BRANCH   4   7
ATOM      7  C   UNL     1      -1.968  -0.576  -1.323  1.00  0.00     0.067 A 
ATOM      8  C   UNL     1      -1.853  -1.420  -0.208  1.00  0.00     0.107 A 
ATOM      9  N   UNL     1      -2.298  -2.719  -0.241  1.00  0.00    -0.254 NA
ATOM     10  C   UNL     1      -2.705  -3.232  -1.419  1.00  0.00     0.111 A 
ATOM     11  C   UNL     1      -2.194  -1.214  -2.548  1.00  0.00     0.017 A 
ATOM     12  C   UNL     1      -2.595  -2.545  -2.605  1.00  0.00     0.021 A 
BRANCH   8  13
ATOM     13  C   UNL     1      -1.024  -1.085   1.032  1.00  0.00     0.320 C 
BRANCH  13  14
ATOM     14  N   UNL     1       0.457  -1.189   0.926  1.00  0.00    -0.332 N 
ATOM     15  C   UNL     1       1.099  -0.149   0.142  1.00  0.00     0.333 C 
ATOM     16  H   UNL     1       0.730  -0.991   1.889  1.00  0.00     0.348 HD
BRANCH  14  17
ATOM     17  C   UNL     1       1.014  -2.532   0.708  1.00  0.00     0.267 C 
BRANCH  17  18
ATOM     18  C   UNL     1       0.860  -3.140  -0.703  1.00  0.00     0.065 C 
ATOM     19  C   UNL     1       0.290  -4.565  -0.651  1.00  0.00     0.032 C 
ATOM     20  C   UNL     1       2.178  -3.299  -1.487  1.00  0.00     0.126 C 
ATOM     21  C   UNL     1       1.516  -5.456  -0.641  1.00  0.00     0.117 C 
ATOM     22  N   UNL     1       2.450  -4.741  -1.497  1.00  0.00    -0.371 N 
BRANCH  22  23
ATOM     23  C   UNL     1       2.964  -5.290  -2.658  1.00  0.00     0.037 A 
ATOM     24  C   UNL     1       4.270  -4.974  -3.053  1.00  0.00     0.026 A 
ATOM     25  C   UNL     1       2.225  -6.145  -3.488  1.00  0.00     0.026 A 
ATOM     26  C   UNL     1       4.834  -5.520  -4.210  1.00  0.00     0.002 A 
ATOM     27  C   UNL     1       2.777  -6.683  -4.656  1.00  0.00     0.002 A 
ATOM     28  C   UNL     1       4.086  -6.378  -5.012  1.00  0.00     0.000 A 
ENDBRANCH  22  23
ENDBRANCH  17  18
ENDBRANCH  14  17
ENDBRANCH  13  14
ENDBRANCH   8  13
ENDBRANCH   4   7
ENDBRANCH   2   3
ENDBRANCH   1   2
BRANCH   1  29
ATOM     29  C   UNL     1      -4.470   3.854  -3.010  1.00  0.00     0.002 C 
BRANCH  29  30
ATOM     30  C   UNL     1      -3.692   4.651  -4.062  1.00  0.00     0.002 C 
BRANCH  30  31
ATOM     31  C   UNL     1      -3.970   4.286  -5.522  1.00  0.00     0.021 C 
BRANCH  31  32
ATOM     32  C   UNL     1      -5.431   4.358  -5.941  1.00  0.00     0.116 C 
BRANCH  32  33
ATOM     33  N   UNL     1      -5.944   5.716  -5.927  1.00  0.00    -0.352 N 
ATOM     34  C   UNL     1      -6.558   6.412  -6.941  1.00  0.00     0.251 C 
ATOM     35  H   UNL     1      -5.838   6.203  -5.078  1.00  0.00     0.163 HD
ATOM     36  O   UNL     1      -6.783   7.609  -6.833  1.00  0.00    -0.269 OA
BRANCH  34  37
ATOM     37  C   UNL     1      -6.923   5.698  -8.183  1.00  0.00     0.039 A 
ATOM     38  C   UNL     1      -6.540   6.234  -9.415  1.00  0.00     0.014 A 
ATOM     39  C   UNL     1      -7.619   4.487  -8.123  1.00  0.00     0.014 A 
ATOM     40  C   UNL     1      -6.797   5.521 -10.588  1.00  0.00     0.010 A 
ATOM     41  C   UNL     1      -7.815   3.749  -9.284  1.00  0.00     0.010 A 
ATOM     42  C   UNL     1      -7.405   4.258 -10.528  1.00  0.00    -0.014 A 
BRANCH  42  43
ATOM     43  C   UNL     1      -7.640   3.440 -11.744  1.00  0.00     0.031 A 
ATOM     44  C   UNL     1      -9.047   3.114 -12.157  1.00  0.00     0.074 A 
ATOM     45  C   UNL     1      -6.596   2.910 -12.410  1.00  0.00     0.049 A 
ATOM     46  N   UNL     1      -9.469   2.282 -13.074  1.00  0.00    -0.248 NA
ATOM     47  C   UNL     1     -10.123   3.792 -11.417  1.00  0.00     0.031 C 
ATOM     48  C   UNL     1      -5.185   3.131 -12.092  1.00  0.00     0.029 A 
ATOM     49  N   UNL     1      -6.565   2.052 -13.482  1.00  0.00    -0.354 N 
ATOM     50  C   UNL     1     -10.856   2.316 -13.002  1.00  0.00     0.074 A 
ATOM     51  C   UNL     1     -11.203   3.219 -11.926  1.00  0.00     0.031 C 
ATOM     52  C   UNL     1      -4.426   2.432 -12.951  1.00  0.00     0.029 A 
ATOM     53  C   UNL     1      -5.295   1.679 -13.850  1.00  0.00     0.049 A 
ATOM     54  H   UNL     1      -7.375   1.735 -13.942  1.00  0.00     0.167 HD
ATOM     55  C   UNL     1     -11.757   1.664 -13.774  1.00  0.00     0.037 A 
ATOM     56  C   UNL     1      -4.880   0.810 -14.792  1.00  0.00     0.037 A 
ATOM     57  C   UNL     1     -11.406   0.793 -14.863  1.00  0.00     0.049 A 
ATOM     58  C   UNL     1      -5.900   0.089 -15.630  1.00  0.00     0.074 A 
ATOM     59  C   UNL     1     -12.245   0.129 -15.740  1.00  0.00     0.029 A 
ATOM     60  N   UNL     1     -10.108   0.469 -15.226  1.00  0.00    -0.354 N 
ATOM     61  N   UNL     1      -7.208   0.163 -15.581  1.00  0.00    -0.248 NA
ATOM     62  C   UNL     1      -5.389  -0.835 -16.653  1.00  0.00     0.031 C 
ATOM     63  C   UNL     1     -11.455  -0.628 -16.610  1.00  0.00     0.029 A 
ATOM     64  C   UNL     1     -10.123  -0.400 -16.304  1.00  0.00     0.049 A 
ATOM     65  H   UNL     1      -9.296   0.805 -14.783  1.00  0.00     0.167 HD
ATOM     66  C   UNL     1      -7.675  -0.673 -16.587  1.00  0.00     0.074 A 
ATOM     67  C   UNL     1      -6.510  -1.246 -17.230  1.00  0.00     0.031 C 
ATOM     68  C   UNL     1      -8.953  -0.939 -16.947  1.00  0.00     0.037 A 
BRANCH  55  69
ATOM     69  C   UNL     1     -13.211   1.870 -13.465  1.00  0.00     0.057 A 
ATOM     70  C   UNL     1     -13.857   3.084 -13.729  1.00  0.00     0.134 A 
ATOM     71  C   UNL     1     -13.981   0.831 -12.929  1.00  0.00     0.134 A 
ATOM     72  F   UNL     1     -13.174   4.124 -14.230  1.00  0.00    -0.206 F 
ATOM     73  C   UNL     1     -15.212   3.266 -13.446  1.00  0.00     0.040 A 
ATOM     74  C   UNL     1     -15.343   0.992 -12.668  1.00  0.00     0.040 A 
ATOM     75  F   UNL     1     -13.426  -0.360 -12.659  1.00  0.00    -0.206 F 
ATOM     76  C   UNL     1     -15.960   2.215 -12.920  1.00  0.00     0.006 A 
ENDBRANCH  55  69
BRANCH  56  77
ATOM     77  C   UNL     1      -3.428   0.581 -15.003  1.00  0.00     0.057 A 
ATOM     78  C   UNL     1      -2.786   1.049 -16.155  1.00  0.00     0.134 A 
ATOM     79  C   UNL     1      -2.650  -0.109 -14.066  1.00  0.00     0.134 A 
ATOM     80  F   UNL     1      -3.483   1.700 -17.098  1.00  0.00    -0.206 F 
ATOM     81  C   UNL     1      -1.426   0.825 -16.377  1.00  0.00     0.040 A 
ATOM     82  C   UNL     1      -1.284  -0.320 -14.264  1.00  0.00     0.040 A 
ATOM     83  F   UNL     1      -3.203  -0.576 -12.937  1.00  0.00    -0.206 F 
ATOM     84  C   UNL     1      -0.670   0.142 -15.427  1.00  0.00     0.006 A 
ENDBRANCH  56  77
BRANCH  68  85
ATOM     85  C   UNL     1      -9.169  -1.843 -18.123  1.00  0.00     0.057 A 
ATOM     86  C   UNL     1      -8.998  -3.229 -18.032  1.00  0.00     0.134 A 
ATOM     87  C   UNL     1      -9.630  -1.324 -19.339  1.00  0.00     0.134 A 
ATOM     88  F   UNL     1      -8.547  -3.786 -16.897  1.00  0.00    -0.206 F 
ATOM     89  C   UNL     1      -9.272  -4.068 -19.113  1.00  0.00     0.040 A 
ATOM     90  C   UNL     1      -9.930  -2.153 -20.420  1.00  0.00     0.040 A 
ATOM     91  F   UNL     1      -9.822  -0.004 -19.487  1.00  0.00    -0.206 F 
ATOM     92  C   UNL     1      -9.750  -3.530 -20.308  1.00  0.00     0.006 A 
ENDBRANCH  68  85
ENDBRANCH  42  43
ENDBRANCH  34  37
ENDBRANCH  32  33
ENDBRANCH  31  32
ENDBRANCH  30  31
ENDBRANCH  29  30
ENDBRANCH   1  29
TORSDOF 18
