REMARK SMILES Cc1noc(C)c1[C@H](C)NC(=O)NCC(=O)NCC(=O)NCCCCCCNC(=O)c1ccc(-c2c3nc(c(-c4c(F)cccc4F)c4ccc([nH]4)c(-c4c(F)cccc4F)c4nc(c(-c5c(F)cccc5F)c5ccc2[nH]5)C=C4)C=C3)cc1
REMARK SMILES IDX 23 1 22 2 21 3 19 4 20 5 18 7 17 8 15 9 16 10 14 12 13 13
REMARK SMILES IDX 10 14 11 15 12 17 8 19 9 20 7 21 1 22 2 23 3 24 4 25 5 26
REMARK SMILES IDX 6 27 24 28 25 29 26 30 27 31 28 32 29 33 30 35 31 36 32 37
REMARK SMILES IDX 84 38 33 39 83 40 34 41 35 42 36 43 77 44 37 45 82 46 76 47
REMARK SMILES IDX 78 48 38 49 81 50 75 51 74 52 39 54 65 55 48 56 64 57 49 58
REMARK SMILES IDX 52 59 63 60 79 61 50 62 51 63 62 65 80 66 53 67 40 68 41 69
REMARK SMILES IDX 46 70 42 71 43 72 45 73 47 74 44 75 66 76 67 77 72 78 68 79
REMARK SMILES IDX 69 80 71 81 73 82 70 83 54 84 55 85 60 86 56 87 57 88 59 89
REMARK SMILES IDX 61 90 58 91
REMARK H PARENT 21 6 17 11 10 16 13 18 28 34 78 53 52 64
REMARK Flexibility Score: inf
ROOT
ATOM      1  C   UNL     1       2.407   7.904   2.901  1.00  0.00     0.021 C 
ENDROOT
BRANCH   1   2
ATOM      2  C   UNL     1       1.235   6.941   2.816  1.00  0.00     0.116 C 
BRANCH   2   3
ATOM      3  N   UNL     1       0.106   7.570   2.196  1.00  0.00    -0.355 N 
ATOM      4  C   UNL     1      -0.227   7.544   0.882  1.00  0.00     0.239 C 
ATOM      5  O   UNL     1      -1.210   8.193   0.519  1.00  0.00    -0.273 OA
ATOM      6  H   UNL     1      -0.494   8.076   2.790  1.00  0.00     0.163 HD
BRANCH   4   7
ATOM      7  C   UNL     1       0.470   6.572  -0.077  1.00  0.00     0.216 C 
BRANCH   7   8
ATOM      8  N   UNL     1       1.917   6.412  -0.104  1.00  0.00    -0.346 N 
ATOM      9  C   UNL     1       2.737   5.347   0.082  1.00  0.00     0.239 C 
ATOM     10  O   UNL     1       3.890   5.484  -0.349  1.00  0.00    -0.273 OA
ATOM     11  H   UNL     1       2.399   7.248  -0.295  1.00  0.00     0.164 HD
BRANCH   9  12
ATOM     12  C   UNL     1       2.345   3.983   0.701  1.00  0.00     0.217 C 
BRANCH  12  13
ATOM     13  N   UNL     1       1.222   3.828   1.614  1.00  0.00    -0.329 N 
ATOM     14  N   UNL     1      -0.672   3.109   0.403  1.00  0.00    -0.331 N 
ATOM     15  C   UNL     1      -0.080   3.554   1.518  1.00  0.00     0.315 C 
ATOM     16  H   UNL     1      -1.631   3.318   0.333  1.00  0.00     0.165 HD
ATOM     17  O   UNL     1      -0.771   3.748   2.519  1.00  0.00    -0.249 OA
ATOM     18  H   UNL     1       1.496   3.962   2.550  1.00  0.00     0.165 HD
BRANCH  14  19
ATOM     19  C   UNL     1      -0.126   2.370  -0.721  1.00  0.00     0.116 C 
ATOM     20  C   UNL     1       0.217   0.954  -0.264  1.00  0.00     0.036 C 
BRANCH  19  21
ATOM     21  C   UNL     1      -1.071   2.474  -1.882  1.00  0.00     0.040 A 
ATOM     22  C   UNL     1      -0.660   4.962  -2.616  1.00  0.00     0.071 C 
ATOM     23  C   UNL     1      -1.280   3.628  -2.704  1.00  0.00     0.086 A 
ATOM     24  N   UNL     1      -2.174   3.401  -3.669  1.00  0.00    -0.085 NA
ATOM     25  O   UNL     1      -2.543   2.088  -3.531  1.00  0.00    -0.361 OA
ATOM     26  C   UNL     1      -1.878   1.528  -2.488  1.00  0.00     0.139 A 
ATOM     27  C   UNL     1      -2.150   0.093  -2.292  1.00  0.00     0.091 C 
ENDBRANCH  19  21
ENDBRANCH  14  19
ENDBRANCH  12  13
ENDBRANCH   9  12
ENDBRANCH   7   8
ENDBRANCH   4   7
ENDBRANCH   2   3
ENDBRANCH   1   2
BRANCH   1  28
ATOM     28  C   UNL     1       2.142   9.033   3.896  1.00  0.00     0.002 C 
BRANCH  28  29
ATOM     29  C   UNL     1       1.692   8.537   5.274  1.00  0.00     0.002 C 
BRANCH  29  30
ATOM     30  C   UNL     1       2.627   7.494   5.895  1.00  0.00     0.021 C 
BRANCH  30  31
ATOM     31  C   UNL     1       4.070   7.964   5.994  1.00  0.00     0.116 C 
BRANCH  31  32
ATOM     32  N   UNL     1       4.160   9.204   6.746  1.00  0.00    -0.352 N 
ATOM     33  C   UNL     1       4.864   9.454   7.889  1.00  0.00     0.251 C 
ATOM     34  H   UNL     1       3.646   9.963   6.385  1.00  0.00     0.163 HD
ATOM     35  O   UNL     1       4.612  10.438   8.581  1.00  0.00    -0.269 OA
BRANCH  33  36
ATOM     36  C   UNL     1       5.932   8.520   8.277  1.00  0.00     0.039 A 
ATOM     37  C   UNL     1       6.025   8.108   9.605  1.00  0.00     0.014 A 
ATOM     38  C   UNL     1       6.830   8.047   7.314  1.00  0.00     0.014 A 
ATOM     39  C   UNL     1       7.005   7.187   9.963  1.00  0.00     0.010 A 
ATOM     40  C   UNL     1       7.749   7.066   7.655  1.00  0.00     0.010 A 
ATOM     41  C   UNL     1       7.855   6.640   8.987  1.00  0.00    -0.014 A 
BRANCH  41  42
ATOM     42  C   UNL     1       8.870   5.625   9.347  1.00  0.00     0.031 A 
ATOM     43  C   UNL     1      10.332   5.930   9.182  1.00  0.00     0.074 A 
ATOM     44  C   UNL     1       8.466   4.414   9.776  1.00  0.00     0.049 A 
ATOM     45  N   UNL     1      11.365   5.163   9.415  1.00  0.00    -0.248 NA
ATOM     46  C   UNL     1      10.679   7.262   8.660  1.00  0.00     0.031 C 
ATOM     47  C   UNL     1       7.072   3.990   9.921  1.00  0.00     0.029 A 
ATOM     48  N   UNL     1       9.190   3.318  10.165  1.00  0.00    -0.354 N 
ATOM     49  C   UNL     1      12.478   5.913   9.060  1.00  0.00     0.074 A 
ATOM     50  C   UNL     1      11.994   7.172   8.539  1.00  0.00     0.031 C 
ATOM     51  C   UNL     1       7.043   2.735  10.395  1.00  0.00     0.029 A 
ATOM     52  C   UNL     1       8.411   2.253  10.548  1.00  0.00     0.049 A 
ATOM     53  H   UNL     1      10.174   3.295  10.169  1.00  0.00     0.167 HD
ATOM     54  C   UNL     1      13.787   5.590   9.182  1.00  0.00     0.037 A 
ATOM     55  C   UNL     1       8.764   1.025  10.969  1.00  0.00     0.037 A 
ATOM     56  C   UNL     1      14.258   4.341   9.720  1.00  0.00     0.049 A 
ATOM     57  C   UNL     1      10.225   0.690  11.089  1.00  0.00     0.074 A 
ATOM     58  C   UNL     1      15.562   3.939   9.948  1.00  0.00     0.029 A 
ATOM     59  N   UNL     1      13.441   3.290  10.108  1.00  0.00    -0.354 N 
ATOM     60  N   UNL     1      11.270   1.438  10.828  1.00  0.00    -0.248 NA
ATOM     61  C   UNL     1      10.556  -0.658  11.570  1.00  0.00     0.031 C 
ATOM     62  C   UNL     1      15.536   2.623  10.419  1.00  0.00     0.029 A 
ATOM     63  C   UNL     1      14.214   2.227  10.544  1.00  0.00     0.049 A 
ATOM     64  H   UNL     1      12.457   3.298  10.078  1.00  0.00     0.167 HD
ATOM     65  C   UNL     1      12.380   0.663  11.137  1.00  0.00     0.074 A 
ATOM     66  C   UNL     1      11.879  -0.606  11.625  1.00  0.00     0.031 C 
ATOM     67  C   UNL     1      13.696   0.971  11.026  1.00  0.00     0.037 A 
BRANCH  54  68
ATOM     68  C   UNL     1      14.799   6.601   8.725  1.00  0.00     0.057 A 
ATOM     69  C   UNL     1      15.001   7.809   9.406  1.00  0.00     0.134 A 
ATOM     70  C   UNL     1      15.610   6.346   7.612  1.00  0.00     0.134 A 
ATOM     71  F   UNL     1      14.250   8.123  10.473  1.00  0.00    -0.206 F 
ATOM     72  C   UNL     1      15.953   8.738   8.981  1.00  0.00     0.040 A 
ATOM     73  C   UNL     1      16.586   7.253   7.195  1.00  0.00     0.040 A 
ATOM     74  F   UNL     1      15.473   5.208   6.915  1.00  0.00    -0.206 F 
ATOM     75  C   UNL     1      16.755   8.457   7.877  1.00  0.00     0.006 A 
ENDBRANCH  54  68
BRANCH  55  76
ATOM     76  C   UNL     1       7.720   0.030  11.321  1.00  0.00     0.057 A 
ATOM     77  C   UNL     1       7.534  -0.389  12.643  1.00  0.00     0.134 A 
ATOM     78  C   UNL     1       6.889  -0.533  10.344  1.00  0.00     0.134 A 
ATOM     79  F   UNL     1       8.309   0.102  13.622  1.00  0.00    -0.206 F 
ATOM     80  C   UNL     1       6.579  -1.349  12.979  1.00  0.00     0.040 A 
ATOM     81  C   UNL     1       5.910  -1.472  10.670  1.00  0.00     0.040 A 
ATOM     82  F   UNL     1       7.008  -0.165   9.060  1.00  0.00    -0.206 F 
ATOM     83  C   UNL     1       5.760  -1.891  11.990  1.00  0.00     0.006 A 
ENDBRANCH  55  76
BRANCH  67  84
ATOM     84  C   UNL     1      14.682  -0.072  11.467  1.00  0.00     0.057 A 
ATOM     85  C   UNL     1      14.885  -1.254  10.744  1.00  0.00     0.134 A 
ATOM     86  C   UNL     1      15.461   0.126  12.615  1.00  0.00     0.134 A 
ATOM     87  F   UNL     1      14.163  -1.510   9.642  1.00  0.00    -0.206 F 
ATOM     88  C   UNL     1      15.805  -2.216  11.162  1.00  0.00     0.040 A 
ATOM     89  C   UNL     1      16.407  -0.814  13.025  1.00  0.00     0.040 A 
ATOM     90  F   UNL     1      15.325   1.241  13.348  1.00  0.00    -0.206 F 
ATOM     91  C   UNL     1      16.575  -1.993  12.303  1.00  0.00     0.006 A 
ENDBRANCH  67  84
ENDBRANCH  41  42
ENDBRANCH  33  36
ENDBRANCH  31  32
ENDBRANCH  30  31
ENDBRANCH  29  30
ENDBRANCH  28  29
ENDBRANCH   1  28
TORSDOF 18
