REMARK SMILES O=C(CCNC(=O)C1CCCCC1)NCCCCCCNC(=O)c1ccc(-c2c3nc(c(-c4c(F)cccc4F)c4ccc([nH]4)c(-c4c(F)cccc4F)c4nc(c(-c5c(F)cccc5F)c5ccc2[nH]5)C=C4)C=C3)cc1
REMARK SMILES IDX 17 1 16 2 15 3 14 4 1 5 2 6 3 8 4 9 5 10 6 11 7 13 8 14 9 15
REMARK SMILES IDX 13 16 10 17 12 18 11 19 18 20 19 21 20 22 21 23 22 24 23 26
REMARK SMILES IDX 24 27 25 28 77 29 26 30 76 31 27 32 28 33 29 34 70 35 30 36
REMARK SMILES IDX 75 37 69 38 71 39 31 40 74 41 68 42 67 43 32 45 58 46 41 47
REMARK SMILES IDX 57 48 42 49 45 50 56 51 72 52 43 53 44 54 55 56 73 57 46 58
REMARK SMILES IDX 33 59 34 60 39 61 35 62 36 63 38 64 40 65 37 66 59 67 60 68
REMARK SMILES IDX 65 69 61 70 62 71 64 72 66 73 63 74 47 75 48 76 53 77 49 78
REMARK SMILES IDX 50 79 52 80 54 81 51 82
REMARK H PARENT 14 7 5 12 21 25 71 44 45 55
REMARK Flexibility Score: inf
ROOT
ATOM      1  C   UNL     1       4.242  -3.448   1.324  1.00  0.00     0.002 C 
ENDROOT
BRANCH   1   2
ATOM      2  C   UNL     1       2.731  -3.295   1.094  1.00  0.00     0.021 C 
BRANCH   2   3
ATOM      3  C   UNL     1       2.186  -1.899   1.392  1.00  0.00     0.116 C 
BRANCH   3   4
ATOM      4  N   UNL     1       2.815  -0.917   0.537  1.00  0.00    -0.356 N 
ATOM      5  O   UNL     1       0.922   0.281   0.016  1.00  0.00    -0.275 OA
ATOM      6  C   UNL     1       2.125   0.083  -0.102  1.00  0.00     0.221 C 
ATOM      7  H   UNL     1       3.789  -0.969   0.406  1.00  0.00     0.163 HD
BRANCH   6   8
ATOM      8  C   UNL     1       3.009   0.937  -0.978  1.00  0.00     0.121 C 
BRANCH   8   9
ATOM      9  C   UNL     1       3.803   1.940  -0.154  1.00  0.00     0.125 C 
BRANCH   9  10
ATOM     10  N   UNL     1       4.868   1.323   0.631  1.00  0.00    -0.355 N 
ATOM     11  C   UNL     1       6.218   1.531   0.601  1.00  0.00     0.223 C 
ATOM     12  H   UNL     1       4.566   0.653   1.286  1.00  0.00     0.163 HD
ATOM     13  O   UNL     1       6.923   0.831   1.326  1.00  0.00    -0.275 OA
BRANCH  11  14
ATOM     14  C   UNL     1       6.783   2.611  -0.314  1.00  0.00     0.078 C 
ATOM     15  C   UNL     1       6.393   4.005   0.202  1.00  0.00     0.013 C 
ATOM     16  C   UNL     1       8.316   2.527  -0.421  1.00  0.00     0.013 C 
ATOM     17  C   UNL     1       6.898   5.090  -0.741  1.00  0.00     0.001 C 
ATOM     18  C   UNL     1       8.883   3.633  -1.313  1.00  0.00     0.001 C 
ATOM     19  C   UNL     1       8.414   5.022  -0.885  1.00  0.00     0.000 C 
ENDBRANCH  11  14
ENDBRANCH   9  10
ENDBRANCH   8   9
ENDBRANCH   6   8
ENDBRANCH   3   4
ENDBRANCH   2   3
ENDBRANCH   1   2
BRANCH   1  20
ATOM     20  C   UNL     1       4.716  -3.154   2.750  1.00  0.00     0.002 C 
BRANCH  20  21
ATOM     21  C   UNL     1       4.054  -4.004   3.835  1.00  0.00     0.021 C 
BRANCH  21  22
ATOM     22  C   UNL     1       4.185  -5.509   3.631  1.00  0.00     0.116 C 
BRANCH  22  23
ATOM     23  N   UNL     1       5.566  -5.960   3.682  1.00  0.00    -0.352 N 
ATOM     24  C   UNL     1       6.099  -7.029   4.356  1.00  0.00     0.251 C 
ATOM     25  H   UNL     1       6.208  -5.425   3.161  1.00  0.00     0.163 HD
ATOM     26  O   UNL     1       7.319  -7.177   4.420  1.00  0.00    -0.269 OA
BRANCH  24  27
ATOM     27  C   UNL     1       5.206  -7.996   5.029  1.00  0.00     0.039 A 
ATOM     28  C   UNL     1       5.529  -8.430   6.317  1.00  0.00     0.014 A 
ATOM     29  C   UNL     1       4.061  -8.483   4.390  1.00  0.00     0.014 A 
ATOM     30  C   UNL     1       4.680  -9.318   6.982  1.00  0.00     0.010 A 
ATOM     31  C   UNL     1       3.178  -9.306   5.083  1.00  0.00     0.010 A 
ATOM     32  C   UNL     1       3.485  -9.745   6.380  1.00  0.00    -0.014 A 
BRANCH  32  33
ATOM     33  C   UNL     1       2.566 -10.683   7.074  1.00  0.00     0.031 A 
ATOM     34  C   UNL     1       2.316 -12.051   6.498  1.00  0.00     0.074 A 
ATOM     35  C   UNL     1       1.927 -10.296   8.195  1.00  0.00     0.049 A 
ATOM     36  N   UNL     1       1.497 -12.986   6.908  1.00  0.00    -0.248 NA
ATOM     37  C   UNL     1       3.069 -12.406   5.283  1.00  0.00     0.031 C 
ATOM     38  C   UNL     1       2.052  -8.984   8.834  1.00  0.00     0.029 A 
ATOM     39  N   UNL     1       1.033 -10.967   8.992  1.00  0.00    -0.354 N 
ATOM     40  C   UNL     1       1.634 -14.032   6.004  1.00  0.00     0.074 A 
ATOM     41  C   UNL     1       2.563 -13.594   4.986  1.00  0.00     0.031 C 
ATOM     42  C   UNL     1       1.277  -8.953   9.931  1.00  0.00     0.029 A 
ATOM     43  C   UNL     1       0.573 -10.226  10.053  1.00  0.00     0.049 A 
ATOM     44  H   UNL     1       0.748 -11.893   8.818  1.00  0.00     0.167 HD
ATOM     45  C   UNL     1       1.065 -15.260   6.035  1.00  0.00     0.037 A 
ATOM     46  C   UNL     1      -0.322 -10.535  11.011  1.00  0.00     0.037 A 
ATOM     47  C   UNL     1       0.154 -15.704   7.056  1.00  0.00     0.049 A 
ATOM     48  C   UNL     1      -0.952 -11.903  11.012  1.00  0.00     0.074 A 
ATOM     49  C   UNL     1      -0.467 -16.935   7.184  1.00  0.00     0.029 A 
ATOM     50  N   UNL     1      -0.259 -14.934   8.133  1.00  0.00    -0.354 N 
ATOM     51  N   UNL     1      -0.779 -12.896  10.174  1.00  0.00    -0.248 NA
ATOM     52  C   UNL     1      -1.893 -12.198  12.103  1.00  0.00     0.031 C 
ATOM     53  C   UNL     1      -1.280 -16.899   8.320  1.00  0.00     0.029 A 
ATOM     54  C   UNL     1      -1.126 -15.664   8.928  1.00  0.00     0.049 A 
ATOM     55  H   UNL     1       0.023 -14.007   8.306  1.00  0.00     0.167 HD
ATOM     56  C   UNL     1      -1.552 -13.943  10.659  1.00  0.00     0.074 A 
ATOM     57  C   UNL     1      -2.186 -13.469  11.871  1.00  0.00     0.031 C 
ATOM     58  C   UNL     1      -1.723 -15.187  10.149  1.00  0.00     0.037 A 
BRANCH  45  59
ATOM     59  C   UNL     1       1.430 -16.222   4.942  1.00  0.00     0.057 A 
ATOM     60  C   UNL     1       2.707 -16.796   4.868  1.00  0.00     0.134 A 
ATOM     61  C   UNL     1       0.488 -16.618   3.984  1.00  0.00     0.134 A 
ATOM     62  F   UNL     1       3.660 -16.449   5.747  1.00  0.00    -0.206 F 
ATOM     63  C   UNL     1       3.039 -17.713   3.870  1.00  0.00     0.040 A 
ATOM     64  C   UNL     1       0.801 -17.556   2.998  1.00  0.00     0.040 A 
ATOM     65  F   UNL     1      -0.754 -16.112   3.999  1.00  0.00    -0.206 F 
ATOM     66  C   UNL     1       2.081 -18.103   2.937  1.00  0.00     0.006 A 
ENDBRANCH  45  59
BRANCH  46  67
ATOM     67  C   UNL     1      -0.678  -9.544  12.059  1.00  0.00     0.057 A 
ATOM     68  C   UNL     1      -0.333  -9.750  13.401  1.00  0.00     0.134 A 
ATOM     69  C   UNL     1      -1.413  -8.392  11.755  1.00  0.00     0.134 A 
ATOM     70  F   UNL     1       0.356 -10.843  13.760  1.00  0.00    -0.206 F 
ATOM     71  C   UNL     1      -0.740  -8.870  14.406  1.00  0.00     0.040 A 
ATOM     72  C   UNL     1      -1.800  -7.488  12.745  1.00  0.00     0.040 A 
ATOM     73  F   UNL     1      -1.767  -8.129  10.488  1.00  0.00    -0.206 F 
ATOM     74  C   UNL     1      -1.476  -7.734  14.078  1.00  0.00     0.006 A 
ENDBRANCH  46  67
BRANCH  58  75
ATOM     75  C   UNL     1      -2.572 -16.144  10.934  1.00  0.00     0.057 A 
ATOM     76  C   UNL     1      -3.961 -16.002  11.033  1.00  0.00     0.134 A 
ATOM     77  C   UNL     1      -1.986 -17.243  11.577  1.00  0.00     0.134 A 
ATOM     78  F   UNL     1      -4.583 -14.966  10.450  1.00  0.00    -0.206 F 
ATOM     79  C   UNL     1      -4.735 -16.902  11.768  1.00  0.00     0.040 A 
ATOM     80  C   UNL     1      -2.752 -18.166  12.290  1.00  0.00     0.040 A 
ATOM     81  F   UNL     1      -0.661 -17.444  11.514  1.00  0.00    -0.206 F 
ATOM     82  C   UNL     1      -4.131 -17.991  12.394  1.00  0.00     0.006 A 
ENDBRANCH  58  75
ENDBRANCH  32  33
ENDBRANCH  24  27
ENDBRANCH  22  23
ENDBRANCH  21  22
ENDBRANCH  20  21
ENDBRANCH   1  20
TORSDOF 16
