REMARK SMILES CCCc1noc(C)c1C(=O)NCCCCCCNC(=O)c1ccc(-c2c3nc(c(-c4c(F)cccc4F)c4ccc([nH]4)c(-c4c(F)cccc4F)c4nc(c(-c5c(F)cccc5F)c5ccc2[nH]5)C=C4)C=C3)cc1
REMARK SMILES IDX 15 1 14 2 13 3 12 4 10 5 11 6 9 8 4 9 5 10 6 11 7 12 8 13
REMARK SMILES IDX 3 14 2 15 1 16 16 17 17 18 18 19 19 20 20 21 21 23 22 24
REMARK SMILES IDX 23 25 75 26 24 27 74 28 25 29 26 30 27 31 68 32 28 33 73 34
REMARK SMILES IDX 67 35 69 36 29 37 72 38 66 39 65 40 30 42 56 43 39 44 55 45
REMARK SMILES IDX 40 46 43 47 54 48 70 49 41 50 42 51 53 53 71 54 44 55 31 56
REMARK SMILES IDX 32 57 37 58 33 59 34 60 36 61 38 62 35 63 57 64 58 65 63 66
REMARK SMILES IDX 59 67 60 68 62 69 64 70 61 71 45 72 46 73 51 74 47 75 48 76
REMARK SMILES IDX 50 77 52 78 49 79
REMARK H PARENT 12 7 19 22 69 41 43 52
REMARK Flexibility Score: inf
ROOT
ATOM      1  C   UNL     1       1.776   4.187   3.984  1.00  0.00     0.002 C 
ENDROOT
BRANCH   1   2
ATOM      2  C   UNL     1       1.233   2.825   4.437  1.00  0.00     0.021 C 
BRANCH   2   3
ATOM      3  C   UNL     1       0.333   2.178   3.381  1.00  0.00     0.116 C 
BRANCH   3   4
ATOM      4  N   UNL     1       1.192   1.569   2.392  1.00  0.00    -0.352 N 
ATOM      5  C   UNL     1       1.645   0.284   2.271  1.00  0.00     0.256 C 
ATOM      6  O   UNL     1       2.682   0.120   1.635  1.00  0.00    -0.269 OA
ATOM      7  H   UNL     1       1.503   2.182   1.687  1.00  0.00     0.163 HD
BRANCH   5   8
ATOM      8  C   UNL     1       0.837  -0.837   2.698  1.00  0.00     0.105 A 
ATOM      9  C   UNL     1       0.562  -1.978   1.881  1.00  0.00     0.097 A 
ATOM     10  N   UNL     1      -0.223  -2.857   2.514  1.00  0.00    -0.084 NA
ATOM     11  O   UNL     1      -0.414  -2.346   3.776  1.00  0.00    -0.361 OA
ATOM     12  C   UNL     1       0.249  -1.163   3.905  1.00  0.00     0.146 A 
ATOM     13  C   UNL     1       0.196  -0.607   5.271  1.00  0.00     0.092 C 
BRANCH   9  14
ATOM     14  C   UNL     1       1.064  -2.292   0.508  1.00  0.00     0.060 C 
BRANCH  14  15
ATOM     15  C   UNL     1       0.261  -1.665  -0.634  1.00  0.00     0.003 C 
ATOM     16  C   UNL     1       0.535  -0.183  -0.851  1.00  0.00     0.004 C 
ENDBRANCH  14  15
ENDBRANCH   9  14
ENDBRANCH   5   8
ENDBRANCH   3   4
ENDBRANCH   2   3
ENDBRANCH   1   2
BRANCH   1  17
ATOM     17  C   UNL     1       0.731   5.307   3.989  1.00  0.00     0.002 C 
BRANCH  17  18
ATOM     18  C   UNL     1       0.048   5.536   5.340  1.00  0.00     0.021 C 
BRANCH  18  19
ATOM     19  C   UNL     1       1.010   5.828   6.487  1.00  0.00     0.116 C 
BRANCH  19  20
ATOM     20  N   UNL     1       1.708   7.087   6.290  1.00  0.00    -0.352 N 
ATOM     21  C   UNL     1       1.778   8.169   7.129  1.00  0.00     0.251 C 
ATOM     22  H   UNL     1       2.196   7.175   5.440  1.00  0.00     0.163 HD
ATOM     23  O   UNL     1       2.205   9.245   6.723  1.00  0.00    -0.269 OA
BRANCH  21  24
ATOM     24  C   UNL     1       1.327   8.034   8.529  1.00  0.00     0.039 A 
ATOM     25  C   UNL     1       0.518   9.030   9.080  1.00  0.00     0.014 A 
ATOM     26  C   UNL     1       1.717   6.933   9.299  1.00  0.00     0.014 A 
ATOM     27  C   UNL     1       0.065   8.902  10.393  1.00  0.00     0.010 A 
ATOM     28  C   UNL     1       1.211   6.774  10.585  1.00  0.00     0.010 A 
ATOM     29  C   UNL     1       0.391   7.763  11.148  1.00  0.00    -0.014 A 
BRANCH  29  30
ATOM     30  C   UNL     1      -0.103   7.598  12.537  1.00  0.00     0.031 A 
ATOM     31  C   UNL     1       0.867   7.592  13.685  1.00  0.00     0.074 A 
ATOM     32  C   UNL     1      -1.416   7.400  12.758  1.00  0.00     0.049 A 
ATOM     33  N   UNL     1       0.638   7.407  14.960  1.00  0.00    -0.248 NA
ATOM     34  C   UNL     1       2.287   7.792  13.352  1.00  0.00     0.031 C 
ATOM     35  C   UNL     1      -2.450   7.338  11.722  1.00  0.00     0.029 A 
ATOM     36  N   UNL     1      -2.105   7.204  13.928  1.00  0.00    -0.354 N 
ATOM     37  C   UNL     1       1.882   7.453  15.577  1.00  0.00     0.074 A 
ATOM     38  C   UNL     1       2.867   7.632  14.533  1.00  0.00     0.031 C 
ATOM     39  C   UNL     1      -3.643   7.141  12.305  1.00  0.00     0.029 A 
ATOM     40  C   UNL     1      -3.456   7.032  13.748  1.00  0.00     0.049 A 
ATOM     41  H   UNL     1      -1.673   7.189  14.812  1.00  0.00     0.167 HD
ATOM     42  C   UNL     1       2.175   7.378  16.897  1.00  0.00     0.037 A 
ATOM     43  C   UNL     1      -4.432   6.809  14.648  1.00  0.00     0.037 A 
ATOM     44  C   UNL     1       1.190   7.229  17.936  1.00  0.00     0.049 A 
ATOM     45  C   UNL     1      -4.083   6.738  16.108  1.00  0.00     0.074 A 
ATOM     46  C   UNL     1       1.379   7.204  19.307  1.00  0.00     0.029 A 
ATOM     47  N   UNL     1      -0.171   7.082  17.716  1.00  0.00    -0.354 N 
ATOM     48  N   UNL     1      -2.910   6.850  16.684  1.00  0.00    -0.248 NA
ATOM     49  C   UNL     1      -5.194   6.517  17.045  1.00  0.00     0.031 C 
ATOM     50  C   UNL     1       0.135   7.003  19.915  1.00  0.00     0.029 A 
ATOM     51  C   UNL     1      -0.833   6.947  18.925  1.00  0.00     0.049 A 
ATOM     52  H   UNL     1      -0.603   7.074  16.831  1.00  0.00     0.167 HD
ATOM     53  C   UNL     1      -3.144   6.741  18.048  1.00  0.00     0.074 A 
ATOM     54  C   UNL     1      -4.572   6.567  18.215  1.00  0.00     0.031 C 
ATOM     55  C   UNL     1      -2.256   6.781  19.072  1.00  0.00     0.037 A 
BRANCH  42  56
ATOM     56  C   UNL     1       3.621   7.462  17.290  1.00  0.00     0.057 A 
ATOM     57  C   UNL     1       4.345   8.657  17.189  1.00  0.00     0.134 A 
ATOM     58  C   UNL     1       4.290   6.343  17.802  1.00  0.00     0.134 A 
ATOM     59  F   UNL     1       3.767   9.762  16.694  1.00  0.00    -0.206 F 
ATOM     60  C   UNL     1       5.689   8.730  17.557  1.00  0.00     0.040 A 
ATOM     61  C   UNL     1       5.627   6.410  18.198  1.00  0.00     0.040 A 
ATOM     62  F   UNL     1       3.655   5.168  17.930  1.00  0.00    -0.206 F 
ATOM     63  C   UNL     1       6.332   7.605  18.070  1.00  0.00     0.006 A 
ENDBRANCH  42  56
BRANCH  43  64
ATOM     64  C   UNL     1      -5.839   6.667  14.196  1.00  0.00     0.057 A 
ATOM     65  C   UNL     1      -6.783   7.666  14.458  1.00  0.00     0.134 A 
ATOM     66  C   UNL     1      -6.273   5.534  13.498  1.00  0.00     0.134 A 
ATOM     67  F   UNL     1      -6.430   8.767  15.138  1.00  0.00    -0.206 F 
ATOM     68  C   UNL     1      -8.114   7.537  14.059  1.00  0.00     0.040 A 
ATOM     69  C   UNL     1      -7.595   5.402  13.072  1.00  0.00     0.040 A 
ATOM     70  F   UNL     1      -5.414   4.546  13.209  1.00  0.00    -0.206 F 
ATOM     71  C   UNL     1      -8.522   6.403  13.359  1.00  0.00     0.006 A 
ENDBRANCH  43  64
BRANCH  55  72
ATOM     72  C   UNL     1      -2.809   6.668  20.461  1.00  0.00     0.057 A 
ATOM     73  C   UNL     1      -3.287   5.454  20.969  1.00  0.00     0.134 A 
ATOM     74  C   UNL     1      -2.829   7.780  21.312  1.00  0.00     0.134 A 
ATOM     75  F   UNL     1      -3.306   4.355  20.199  1.00  0.00    -0.206 F 
ATOM     76  C   UNL     1      -3.786   5.354  22.269  1.00  0.00     0.040 A 
ATOM     77  C   UNL     1      -3.303   7.688  22.621  1.00  0.00     0.040 A 
ATOM     78  F   UNL     1      -2.379   8.971  20.889  1.00  0.00    -0.206 F 
ATOM     79  C   UNL     1      -3.788   6.473  23.101  1.00  0.00     0.006 A 
ENDBRANCH  55  72
ENDBRANCH  29  30
ENDBRANCH  21  24
ENDBRANCH  19  20
ENDBRANCH  18  19
ENDBRANCH  17  18
ENDBRANCH   1  17
TORSDOF 15
