REMARK SMILES O=C(NCCCCCCNC(=O)[C@H]1Cc2[nH]cnc2CN1C(=O)c1ccncc1Cl)c1ccc(-c2c3nc(c(-c4c(F)cccc4F)c4ccc([nH]4)c(-c4c(F)cccc4F)c4nc(c(-c5c(F)cccc5F)c5ccc2[nH]5)C=C4)C=C3)cc1
REMARK SMILES IDX 6 1 5 2 4 3 3 4 1 5 2 6 31 8 32 9 84 10 33 11 83 12 34 13
REMARK SMILES IDX 35 14 36 15 77 16 37 17 82 18 76 19 78 20 38 21 81 22 75 23
REMARK SMILES IDX 74 24 39 26 65 27 48 28 64 29 49 30 52 31 63 32 79 33 50 34
REMARK SMILES IDX 51 35 62 37 80 38 53 39 40 40 41 41 46 42 42 43 43 44 45 45
REMARK SMILES IDX 47 46 44 47 66 48 67 49 72 50 68 51 69 52 71 53 73 54 70 55
REMARK SMILES IDX 54 56 55 57 60 58 56 59 57 60 59 61 61 62 58 63 7 64 8 65
REMARK SMILES IDX 9 66 10 67 11 68 12 70 13 71 14 72 21 73 15 74 20 75 16 76
REMARK SMILES IDX 19 77 17 78 18 80 22 81 23 82 24 83 25 84 29 85 26 86 28 87
REMARK SMILES IDX 30 88 27 89
REMARK H PARENT 3 7 78 25 52 36 10 69 16 79
REMARK Flexibility Score: inf
ROOT
ATOM      1  C   UNL     1       4.517  -1.080   2.519  1.00  0.00     0.002 C 
ENDROOT
BRANCH   1   2
ATOM      2  C   UNL     1       5.047  -0.202   1.385  1.00  0.00     0.021 C 
BRANCH   2   3
ATOM      3  C   UNL     1       4.670  -0.669  -0.020  1.00  0.00     0.116 C 
BRANCH   3   4
ATOM      4  N   UNL     1       3.250  -0.896  -0.209  1.00  0.00    -0.352 N 
ATOM      5  O   UNL     1       1.077  -0.697  -0.532  1.00  0.00    -0.269 OA
ATOM      6  C   UNL     1       2.149  -0.103  -0.371  1.00  0.00     0.251 C 
ATOM      7  H   UNL     1       3.025  -1.854  -0.225  1.00  0.00     0.163 HD
BRANCH   6   8
ATOM      8  C   UNL     1       2.137   1.387  -0.351  1.00  0.00     0.039 A 
ATOM      9  C   UNL     1       3.262   2.210  -0.375  1.00  0.00     0.014 A 
ATOM     10  C   UNL     1       0.867   2.000  -0.346  1.00  0.00     0.014 A 
ATOM     11  C   UNL     1       3.127   3.599  -0.374  1.00  0.00     0.010 A 
ATOM     12  C   UNL     1       0.726   3.388  -0.368  1.00  0.00     0.010 A 
ATOM     13  C   UNL     1       1.861   4.192  -0.381  1.00  0.00    -0.014 A 
BRANCH  13  14
ATOM     14  C   UNL     1       1.790   5.641  -0.584  1.00  0.00     0.031 A 
ATOM     15  C   UNL     1       2.315   6.141  -1.893  1.00  0.00     0.074 A 
ATOM     16  C   UNL     1       1.147   6.514   0.215  1.00  0.00     0.049 A 
ATOM     17  N   UNL     1       3.255   7.005  -2.111  1.00  0.00    -0.248 NA
ATOM     18  C   UNL     1       1.729   5.574  -3.117  1.00  0.00     0.031 C 
ATOM     19  C   UNL     1       0.268   6.226   1.348  1.00  0.00     0.029 A 
ATOM     20  N   UNL     1       1.076   7.874   0.097  1.00  0.00    -0.354 N 
ATOM     21  C   UNL     1       3.288   7.206  -3.491  1.00  0.00     0.074 A 
ATOM     22  C   UNL     1       2.390   6.237  -4.067  1.00  0.00     0.031 C 
ATOM     23  C   UNL     1      -0.402   7.352   1.683  1.00  0.00     0.029 A 
ATOM     24  C   UNL     1       0.090   8.459   0.875  1.00  0.00     0.049 A 
ATOM     25  H   UNL     1       1.673   8.393  -0.489  1.00  0.00     0.167 HD
ATOM     26  C   UNL     1       3.936   8.256  -4.068  1.00  0.00     0.037 A 
ATOM     27  C   UNL     1      -0.333   9.744   0.821  1.00  0.00     0.037 A 
ATOM     28  C   UNL     1       4.869   8.881  -3.174  1.00  0.00     0.049 A 
ATOM     29  C   UNL     1       0.705  10.553   0.139  1.00  0.00     0.074 A 
ATOM     30  C   UNL     1       5.997   8.473  -2.490  1.00  0.00     0.029 A 
ATOM     31  N   UNL     1       4.544  10.104  -2.647  1.00  0.00    -0.354 N 
ATOM     32  N   UNL     1       1.857  10.873   0.656  1.00  0.00    -0.248 NA
ATOM     33  C   UNL     1       0.590  10.754  -1.298  1.00  0.00     0.031 C 
ATOM     34  C   UNL     1       5.993   9.230  -1.282  1.00  0.00     0.029 A 
ATOM     35  C   UNL     1       4.868  10.054  -1.318  1.00  0.00     0.049 A 
ATOM     36  H   UNL     1       4.154  10.869  -3.130  1.00  0.00     0.167 HD
ATOM     37  C   UNL     1       2.728  10.914  -0.421  1.00  0.00     0.074 A 
ATOM     38  C   UNL     1       1.872  10.967  -1.600  1.00  0.00     0.031 C 
ATOM     39  C   UNL     1       4.051  10.618  -0.271  1.00  0.00     0.037 A 
BRANCH  26  40
ATOM     40  C   UNL     1       3.524   8.912  -5.361  1.00  0.00     0.057 A 
ATOM     41  C   UNL     1       4.402   9.802  -6.006  1.00  0.00     0.134 A 
ATOM     42  C   UNL     1       2.198   8.925  -5.834  1.00  0.00     0.134 A 
ATOM     43  F   UNL     1       5.685   9.902  -5.625  1.00  0.00    -0.206 F 
ATOM     44  C   UNL     1       3.978  10.680  -7.011  1.00  0.00     0.040 A 
ATOM     45  C   UNL     1       1.775   9.762  -6.872  1.00  0.00     0.040 A 
ATOM     46  F   UNL     1       1.231   8.205  -5.252  1.00  0.00    -0.206 F 
ATOM     47  C   UNL     1       2.659  10.664  -7.446  1.00  0.00     0.006 A 
ENDBRANCH  26  40
BRANCH  27  48
ATOM     48  C   UNL     1      -1.667  10.299   1.135  1.00  0.00     0.057 A 
ATOM     49  C   UNL     1      -1.847  11.666   1.388  1.00  0.00     0.134 A 
ATOM     50  C   UNL     1      -2.838   9.547   0.944  1.00  0.00     0.134 A 
ATOM     51  F   UNL     1      -0.791  12.478   1.539  1.00  0.00    -0.206 F 
ATOM     52  C   UNL     1      -3.118  12.254   1.433  1.00  0.00     0.040 A 
ATOM     53  C   UNL     1      -4.113  10.118   0.999  1.00  0.00     0.040 A 
ATOM     54  F   UNL     1      -2.782   8.249   0.613  1.00  0.00    -0.206 F 
ATOM     55  C   UNL     1      -4.256  11.480   1.231  1.00  0.00     0.006 A 
ENDBRANCH  27  48
BRANCH  39  56
ATOM     56  C   UNL     1       4.611  10.577   1.121  1.00  0.00     0.057 A 
ATOM     57  C   UNL     1       4.187   9.672   2.105  1.00  0.00     0.134 A 
ATOM     58  C   UNL     1       5.713  11.383   1.429  1.00  0.00     0.134 A 
ATOM     59  F   UNL     1       3.212   8.786   1.860  1.00  0.00    -0.206 F 
ATOM     60  C   UNL     1       4.800   9.613   3.359  1.00  0.00     0.040 A 
ATOM     61  C   UNL     1       6.357  11.307   2.666  1.00  0.00     0.040 A 
ATOM     62  F   UNL     1       6.213  12.227   0.512  1.00  0.00    -0.206 F 
ATOM     63  C   UNL     1       5.893  10.428   3.641  1.00  0.00     0.006 A 
ENDBRANCH  39  56
ENDBRANCH  13  14
ENDBRANCH   6   8
ENDBRANCH   3   4
ENDBRANCH   2   3
ENDBRANCH   1   2
BRANCH   1  64
ATOM     64  C   UNL     1       4.929  -2.552   2.503  1.00  0.00     0.002 C 
BRANCH  64  65
ATOM     65  C   UNL     1       6.436  -2.855   2.498  1.00  0.00     0.021 C 
BRANCH  65  66
ATOM     66  C   UNL     1       7.221  -2.483   3.761  1.00  0.00     0.116 C 
BRANCH  66  67
ATOM     67  N   UNL     1       6.693  -3.117   4.956  1.00  0.00    -0.354 N 
ATOM     68  C   UNL     1       7.218  -3.200   6.211  1.00  0.00     0.243 C 
ATOM     69  H   UNL     1       5.820  -3.557   4.841  1.00  0.00     0.163 HD
ATOM     70  O   UNL     1       6.590  -3.864   7.042  1.00  0.00    -0.273 OA
BRANCH  68  71
ATOM     71  C   UNL     1       8.627  -2.670   6.556  1.00  0.00     0.181 C 
ATOM     72  C   UNL     1       9.566  -3.850   6.144  1.00  0.00     0.091 C 
ATOM     73  N   UNL     1       8.954  -1.282   6.069  1.00  0.00    -0.320 N 
ATOM     74  C   UNL     1      10.863  -3.374   5.652  1.00  0.00     0.042 A 
ATOM     75  C   UNL     1      10.351  -0.906   5.739  1.00  0.00     0.178 C 
ATOM     76  N   UNL     1      11.944  -4.120   5.287  1.00  0.00    -0.348 N 
ATOM     77  C   UNL     1      11.211  -2.070   5.441  1.00  0.00     0.081 A 
ATOM     78  C   UNL     1      12.903  -3.239   4.865  1.00  0.00     0.197 A 
ATOM     79  H   UNL     1      12.021  -5.101   5.321  1.00  0.00     0.167 HD
ATOM     80  N   UNL     1      12.488  -1.993   4.948  1.00  0.00    -0.240 NA
BRANCH  73  81
ATOM     81  C   UNL     1       8.174  -0.150   6.390  1.00  0.00     0.256 C 
ATOM     82  O   UNL     1       8.535   1.003   6.162  1.00  0.00    -0.269 OA
BRANCH  81  83
ATOM     83  C   UNL     1       6.806  -0.305   6.905  1.00  0.00     0.061 A 
ATOM     84  C   UNL     1       5.776  -0.088   5.989  1.00  0.00     0.035 A 
ATOM     85  C   UNL     1       6.506  -0.609   8.226  1.00  0.00     0.072 A 
ATOM     86  C   UNL     1       4.476  -0.325   6.391  1.00  0.00     0.112 A 
ATOM     87  C   UNL     1       5.169  -0.814   8.534  1.00  0.00     0.132 A 
ATOM     88  Cl  UNL     1       7.690  -0.696   9.469  1.00  0.00    -0.082 Cl
ATOM     89  N   UNL     1       4.152  -0.703   7.642  1.00  0.00    -0.263 NA
ENDBRANCH  81  83
ENDBRANCH  73  81
ENDBRANCH  68  71
ENDBRANCH  66  67
ENDBRANCH  65  66
ENDBRANCH  64  65
ENDBRANCH   1  64
TORSDOF 15
