REMARK SMILES CCc1cc(S(F)(F)(F)(F)F)cc2c1O[C@@H](C(F)(F)F)C(C(=O)NCCCCCCNC(=O)c1ccc(-c3c4nc(c(-c5c(F)cccc5F)c5ccc([nH]5)c(-c5c(F)cccc5F)c5nc(c(-c6c(F)cccc6F)c6ccc3[nH]6)C=C5)C=C4)cc1)=C2
REMARK SMILES IDX 28 1 27 2 26 3 25 4 24 5 22 6 23 7 21 9 3 10 4 11 14 12 5 13
REMARK SMILES IDX 13 14 15 15 12 16 88 17 16 18 2 19 1 20 6 21 7 22 8 23 9 24
REMARK SMILES IDX 10 25 11 26 17 27 18 28 19 29 20 30 29 31 30 32 31 33 32 34
REMARK SMILES IDX 33 36 34 37 35 38 87 39 36 40 86 41 37 42 38 43 39 44 80 45
REMARK SMILES IDX 40 46 85 47 79 48 81 49 41 50 84 51 78 52 77 53 42 55 68 56
REMARK SMILES IDX 51 57 67 58 52 59 55 60 66 61 82 62 53 63 54 64 65 66 83 67
REMARK SMILES IDX 56 68 43 69 44 70 49 71 45 72 46 73 48 74 50 75 47 76 69 77
REMARK SMILES IDX 70 78 75 79 71 80 72 81 74 82 76 83 73 84 57 85 58 86 63 87
REMARK SMILES IDX 59 88 60 89 62 90 64 91 61 92
REMARK H PARENT 24 8 31 35 81 54 55 65
REMARK Flexibility Score: inf
ROOT
ATOM      1  C   UNL     1      -0.922   9.890   3.886  1.00  0.00     0.002 C 
ENDROOT
BRANCH   1   2
ATOM      2  C   UNL     1       0.125   9.639   2.813  1.00  0.00     0.002 C 
BRANCH   2   3
ATOM      3  C   UNL     1       0.697   8.241   2.980  1.00  0.00     0.021 C 
BRANCH   3   4
ATOM      4  C   UNL     1      -0.419   7.218   2.847  1.00  0.00     0.116 C 
BRANCH   4   5
ATOM      5  N   UNL     1      -1.039   7.339   1.520  1.00  0.00    -0.352 N 
ATOM      6  C   UNL     1      -1.031   6.194   0.598  1.00  0.00     0.251 C 
ATOM      7  O   UNL     1      -1.567   6.298  -0.550  1.00  0.00    -0.270 OA
ATOM      8  H   UNL     1      -1.460   8.186   1.248  1.00  0.00     0.163 HD
BRANCH   6   9
ATOM      9  C   UNL     1      -0.381   4.885   1.017  1.00  0.00     0.067 C 
ATOM     10  C   UNL     1       0.931   1.125   2.279  1.00  0.00    -0.004 A 
ATOM     11  C   UNL     1       1.691   1.010   3.428  1.00  0.00     0.032 A 
ATOM     12  C   UNL     1       0.468   2.367   1.916  1.00  0.00     0.131 A 
ATOM     13  C   UNL     1       1.977   2.107   4.197  1.00  0.00     0.108 A 
ATOM     14  C   UNL     1       0.751   3.499   2.658  1.00  0.00     0.019 A 
ATOM     15  O   UNL     1      -0.378   2.449   0.837  1.00  0.00    -0.475 OA
ATOM     16  C   UNL     1       1.514   3.348   3.810  1.00  0.00     0.036 A 
ATOM     17  C   UNL     1       0.183   4.760   2.212  1.00  0.00     0.025 C 
ATOM     18  C   UNL     1      -0.363   3.689   0.075  1.00  0.00     0.314 C 
BRANCH  10  19
ATOM     19  C   UNL     1       0.424  -0.053   1.464  1.00  0.00     0.036 C 
ATOM     20  C   UNL     1       0.931   0.063   0.035  1.00  0.00     0.009 C 
ENDBRANCH  10  19
BRANCH  13  21
ATOM     21  S   UNL     1       2.953   1.930   5.711  1.00  0.00     0.310 S 
ATOM     22  F   UNL     1       1.655   2.015   6.619  1.00  0.00    -0.094 F 
ATOM     23  F   UNL     1       3.038   3.501   5.807  1.00  0.00    -0.094 F 
ATOM     24  F   UNL     1       3.783   1.778   7.018  1.00  0.00    -0.094 F 
ATOM     25  F   UNL     1       2.738   0.366   5.675  1.00  0.00    -0.094 F 
ATOM     26  F   UNL     1       2.015   2.074   4.447  1.00  0.00    -0.094 F 
ENDBRANCH  13  21
BRANCH  18  27
ATOM     27  C   UNL     1      -1.595   3.739  -0.815  1.00  0.00     0.429 C 
ATOM     28  F   UNL     1      -1.587   4.867  -1.518  1.00  0.00    -0.167 F 
ATOM     29  F   UNL     1      -1.585   2.699  -1.644  1.00  0.00    -0.167 F 
ATOM     30  F   UNL     1      -2.689   3.694  -0.060  1.00  0.00    -0.167 F 
ENDBRANCH  18  27
ENDBRANCH   6   9
ENDBRANCH   4   5
ENDBRANCH   3   4
ENDBRANCH   2   3
ENDBRANCH   1   2
BRANCH   1  31
ATOM     31  C   UNL     1      -0.281   9.765   5.258  1.00  0.00     0.021 C 
BRANCH  31  32
ATOM     32  C   UNL     1       0.835  10.788   5.391  1.00  0.00     0.116 C 
BRANCH  32  33
ATOM     33  N   UNL     1       0.282  12.141   5.230  1.00  0.00    -0.352 N 
ATOM     34  C   UNL     1       0.406  13.120   6.319  1.00  0.00     0.251 C 
ATOM     35  H   UNL     1      -0.171  12.390   4.393  1.00  0.00     0.163 HD
ATOM     36  O   UNL     1      -0.072  14.289   6.180  1.00  0.00    -0.269 OA
BRANCH  34  37
ATOM     37  C   UNL     1       1.105  12.734   7.612  1.00  0.00     0.039 A 
ATOM     38  C   UNL     1       0.554  13.138   8.817  1.00  0.00     0.014 A 
ATOM     39  C   UNL     1       2.257  12.074   7.568  1.00  0.00     0.014 A 
ATOM     40  C   UNL     1       1.445  13.050   9.913  1.00  0.00     0.010 A 
ATOM     41  C   UNL     1       3.011  11.907   8.704  1.00  0.00     0.010 A 
ATOM     42  C   UNL     1       2.555  12.334   9.920  1.00  0.00    -0.014 A 
BRANCH  42  43
ATOM     43  C   UNL     1       3.286  12.003  11.211  1.00  0.00     0.031 A 
ATOM     44  C   UNL     1       4.604  12.439  11.361  1.00  0.00     0.074 A 
ATOM     45  C   UNL     1       2.580  11.322  12.188  1.00  0.00     0.049 A 
ATOM     46  N   UNL     1       5.384  12.318  12.436  1.00  0.00    -0.248 NA
ATOM     47  C   UNL     1       5.367  13.133  10.312  1.00  0.00     0.031 C 
ATOM     48  C   UNL     1       1.248  10.887  12.048  1.00  0.00     0.029 A 
ATOM     49  N   UNL     1       3.017  10.947  13.440  1.00  0.00    -0.354 N 
ATOM     50  C   UNL     1       6.575  12.875  12.207  1.00  0.00     0.074 A 
ATOM     51  C   UNL     1       6.583  13.401  10.835  1.00  0.00     0.031 C 
ATOM     52  C   UNL     1       0.891  10.249  13.194  1.00  0.00     0.029 A 
ATOM     53  C   UNL     1       1.992  10.275  14.069  1.00  0.00     0.049 A 
ATOM     54  H   UNL     1       3.907  11.129  13.819  1.00  0.00     0.167 HD
ATOM     55  C   UNL     1       7.653  12.966  13.088  1.00  0.00     0.037 A 
ATOM     56  C   UNL     1       2.000   9.708  15.334  1.00  0.00     0.037 A 
ATOM     57  C   UNL     1       7.646  12.437  14.369  1.00  0.00     0.049 A 
ATOM     58  C   UNL     1       3.100   9.748  16.195  1.00  0.00     0.074 A 
ATOM     59  C   UNL     1       8.722  12.527  15.273  1.00  0.00     0.029 A 
ATOM     60  N   UNL     1       6.630  11.743  14.989  1.00  0.00    -0.354 N 
ATOM     61  N   UNL     1       4.276  10.340  15.980  1.00  0.00    -0.248 NA
ATOM     62  C   UNL     1       3.131   9.124  17.523  1.00  0.00     0.031 C 
ATOM     63  C   UNL     1       8.364  11.888  16.419  1.00  0.00     0.029 A 
ATOM     64  C   UNL     1       7.058  11.388  16.249  1.00  0.00     0.049 A 
ATOM     65  H   UNL     1       5.750  11.537  14.600  1.00  0.00     0.167 HD
ATOM     66  C   UNL     1       5.071  10.182  17.040  1.00  0.00     0.074 A 
ATOM     67  C   UNL     1       4.348   9.391  18.046  1.00  0.00     0.031 C 
ATOM     68  C   UNL     1       6.367  10.668  17.212  1.00  0.00     0.037 A 
BRANCH  55  69
ATOM     69  C   UNL     1       8.906  13.686  12.617  1.00  0.00     0.057 A 
ATOM     70  C   UNL     1       8.849  15.021  12.254  1.00  0.00     0.134 A 
ATOM     71  C   UNL     1      10.048  13.009  12.578  1.00  0.00     0.134 A 
ATOM     72  F   UNL     1       7.803  15.800  12.513  1.00  0.00    -0.206 F 
ATOM     73  C   UNL     1      10.006  15.482  11.582  1.00  0.00     0.040 A 
ATOM     74  C   UNL     1      11.175  13.571  12.030  1.00  0.00     0.040 A 
ATOM     75  F   UNL     1      10.100  11.776  13.074  1.00  0.00    -0.206 F 
ATOM     76  C   UNL     1      11.175  14.868  11.595  1.00  0.00     0.006 A 
ENDBRANCH  55  69
BRANCH  56  77
ATOM     77  C   UNL     1       0.741   9.003  15.811  1.00  0.00     0.057 A 
ATOM     78  C   UNL     1       0.096   9.430  16.959  1.00  0.00     0.134 A 
ATOM     79  C   UNL     1       0.292   7.966  15.113  1.00  0.00     0.134 A 
ATOM     80  F   UNL     1       0.351  10.598  17.543  1.00  0.00    -0.206 F 
ATOM     81  C   UNL     1      -0.860   8.512  17.455  1.00  0.00     0.040 A 
ATOM     82  C   UNL     1      -0.737   7.193  15.594  1.00  0.00     0.040 A 
ATOM     83  F   UNL     1       0.843   7.675  13.938  1.00  0.00    -0.206 F 
ATOM     84  C   UNL     1      -1.382   7.523  16.753  1.00  0.00     0.006 A 
ENDBRANCH  56  77
BRANCH  68  85
ATOM     85  C   UNL     1       7.065  10.392  18.534  1.00  0.00     0.057 A 
ATOM     86  C   UNL     1       7.239   9.081  18.944  1.00  0.00     0.134 A 
ATOM     87  C   UNL     1       7.463  11.409  19.289  1.00  0.00     0.134 A 
ATOM     88  F   UNL     1       7.093   8.040  18.129  1.00  0.00    -0.206 F 
ATOM     89  C   UNL     1       7.587   8.949  20.309  1.00  0.00     0.040 A 
ATOM     90  C   UNL     1       7.920  11.194  20.567  1.00  0.00     0.040 A 
ATOM     91  F   UNL     1       7.420  12.647  18.804  1.00  0.00    -0.206 F 
ATOM     92  C   UNL     1       8.061   9.926  21.059  1.00  0.00     0.006 A 
ENDBRANCH  68  85
ENDBRANCH  42  43
ENDBRANCH  34  37
ENDBRANCH  32  33
ENDBRANCH  31  32
ENDBRANCH   1  31
TORSDOF 16
