REMARK SMILES C[N@@H+]1CCC[C@@H](C(=O)N[C@H](C(=O)NCCCCCCNC(=O)c2ccc(-c3c4nc(c(-c5c(F)cccc5F)c5ccc([nH]5)c(-c5c(F)cccc5F)c5nc(c(-c6c(F)cccc6F)c6ccc3[nH]6)C=C5)C=C4)cc2)c2ccccc2)C1
REMARK SMILES IDX 16 1 15 2 14 3 13 4 11 5 12 6 10 8 9 9 7 10 8 11 6 13 1 14
REMARK SMILES IDX 2 15 3 16 83 17 4 19 5 20 77 21 78 22 82 23 79 24 81 25
REMARK SMILES IDX 80 26 17 27 18 28 19 29 20 30 21 31 22 33 23 34 24 35 76 36
REMARK SMILES IDX 25 37 75 38 26 39 27 40 28 41 69 42 29 43 74 44 68 45 70 46
REMARK SMILES IDX 30 47 73 48 67 49 66 50 31 52 57 53 40 54 56 55 41 56 44 57
REMARK SMILES IDX 55 58 71 59 42 60 43 61 54 63 72 64 45 65 32 66 33 67 38 68
REMARK SMILES IDX 34 69 35 70 37 71 39 72 36 73 58 74 59 75 64 76 60 77 61 78
REMARK SMILES IDX 63 79 65 80 62 81 46 82 47 83 52 84 48 85 49 86 51 87 53 88
REMARK SMILES IDX 50 89
REMARK H PARENT 13 7 9 12 2 18 20 32 70 51 44 62
REMARK Flexibility Score: inf
ROOT
ATOM      1  C   UNL     1       4.859  -0.203   3.706  1.00  0.00     0.002 C 
ENDROOT
BRANCH   1   2
ATOM      2  C   UNL     1       3.960   0.934   3.215  1.00  0.00     0.021 C 
BRANCH   2   3
ATOM      3  C   UNL     1       2.851   0.498   2.253  1.00  0.00     0.116 C 
BRANCH   3   4
ATOM      4  N   UNL     1       1.826  -0.277   2.942  1.00  0.00    -0.354 N 
ATOM      5  C   UNL     1       0.509   0.038   3.189  1.00  0.00     0.247 C 
ATOM      6  O   UNL     1      -0.132  -0.713   3.929  1.00  0.00    -0.272 OA
ATOM      7  H   UNL     1       2.118  -1.154   3.280  1.00  0.00     0.163 HD
BRANCH   5   8
ATOM      8  C   UNL     1      -0.117   1.295   2.529  1.00  0.00     0.202 C 
BRANCH   8   9
ATOM      9  N   UNL     1      -1.565   1.161   2.416  1.00  0.00    -0.340 N 
ATOM     10  C   UNL     1      -2.403   1.077   1.357  1.00  0.00     0.229 C 
ATOM     11  O   UNL     1      -3.605   0.951   1.635  1.00  0.00    -0.275 OA
ATOM     12  H   UNL     1      -2.025   1.124   3.285  1.00  0.00     0.164 HD
BRANCH  10  13
ATOM     13  C   UNL     1      -2.003   1.084  -0.132  1.00  0.00     0.133 C 
ATOM     14  C   UNL     1       1.000   3.277  -0.934  1.00  0.00     0.332 C 
ATOM     15  N   UNL     1       0.251   2.098  -0.515  1.00  0.00    -0.337 N 
ATOM     16  C   UNL     1       0.742   0.876  -1.156  1.00  0.00     0.262 C 
ATOM     17  C   UNL     1      -1.195   2.268  -0.671  1.00  0.00     0.275 C 
ATOM     18  H   UNL     1       0.418   1.991   0.486  1.00  0.00     0.347 HD
ATOM     19  C   UNL     1       0.036  -0.375  -0.623  1.00  0.00     0.062 C 
ATOM     20  C   UNL     1      -1.482  -0.258  -0.649  1.00  0.00     0.025 C 
ENDBRANCH  10  13
ENDBRANCH   8   9
BRANCH   8  21
ATOM     21  C   UNL     1       0.293   2.639   3.125  1.00  0.00    -0.016 A 
ATOM     22  C   UNL     1       1.213   2.764   4.172  1.00  0.00     0.006 A 
ATOM     23  C   UNL     1      -0.116   3.819   2.482  1.00  0.00     0.006 A 
ATOM     24  C   UNL     1       1.846   3.985   4.427  1.00  0.00     0.000 A 
ATOM     25  C   UNL     1       0.495   5.044   2.747  1.00  0.00     0.000 A 
ATOM     26  C   UNL     1       1.510   5.117   3.690  1.00  0.00     0.000 A 
ENDBRANCH   8  21
ENDBRANCH   5   8
ENDBRANCH   3   4
ENDBRANCH   2   3
ENDBRANCH   1   2
BRANCH   1  27
ATOM     27  C   UNL     1       5.823  -0.757   2.656  1.00  0.00     0.002 C 
BRANCH  27  28
ATOM     28  C   UNL     1       6.756   0.275   2.018  1.00  0.00     0.021 C 
BRANCH  28  29
ATOM     29  C   UNL     1       7.539   1.142   3.002  1.00  0.00     0.116 C 
BRANCH  29  30
ATOM     30  N   UNL     1       8.431   0.359   3.843  1.00  0.00    -0.352 N 
ATOM     31  C   UNL     1       9.797   0.432   3.976  1.00  0.00     0.251 C 
ATOM     32  H   UNL     1       7.991  -0.324   4.399  1.00  0.00     0.163 HD
ATOM     33  O   UNL     1      10.407  -0.431   4.594  1.00  0.00    -0.269 OA
BRANCH  31  34
ATOM     34  C   UNL     1      10.534   1.545   3.341  1.00  0.00     0.039 A 
ATOM     35  C   UNL     1      11.662   1.253   2.570  1.00  0.00     0.014 A 
ATOM     36  C   UNL     1      10.103   2.866   3.489  1.00  0.00     0.014 A 
ATOM     37  C   UNL     1      12.305   2.277   1.873  1.00  0.00     0.010 A 
ATOM     38  C   UNL     1      10.704   3.876   2.741  1.00  0.00     0.010 A 
ATOM     39  C   UNL     1      11.799   3.587   1.911  1.00  0.00    -0.014 A 
BRANCH  39  40
ATOM     40  C   UNL     1      12.356   4.652   1.038  1.00  0.00     0.031 A 
ATOM     41  C   UNL     1      13.024   5.859   1.631  1.00  0.00     0.074 A 
ATOM     42  C   UNL     1      12.183   4.563  -0.295  1.00  0.00     0.049 A 
ATOM     43  N   UNL     1      13.502   6.917   1.026  1.00  0.00    -0.248 NA
ATOM     44  C   UNL     1      13.152   5.893   3.095  1.00  0.00     0.031 C 
ATOM     45  C   UNL     1      11.517   3.458  -0.989  1.00  0.00     0.029 A 
ATOM     46  N   UNL     1      12.540   5.420  -1.306  1.00  0.00    -0.354 N 
ATOM     47  C   UNL     1      13.975   7.747   2.034  1.00  0.00     0.074 A 
ATOM     48  C   UNL     1      13.687   7.089   3.291  1.00  0.00     0.031 C 
ATOM     49  C   UNL     1      11.539   3.691  -2.310  1.00  0.00     0.029 A 
ATOM     50  C   UNL     1      12.173   4.982  -2.555  1.00  0.00     0.049 A 
ATOM     51  H   UNL     1      13.015   6.269  -1.150  1.00  0.00     0.167 HD
ATOM     52  C   UNL     1      14.603   8.942   1.919  1.00  0.00     0.037 A 
ATOM     53  C   UNL     1      12.316   5.561  -3.762  1.00  0.00     0.037 A 
ATOM     54  C   UNL     1      14.897   9.585   0.663  1.00  0.00     0.049 A 
ATOM     55  C   UNL     1      12.975   6.909  -3.857  1.00  0.00     0.074 A 
ATOM     56  C   UNL     1      15.602  10.755   0.440  1.00  0.00     0.029 A 
ATOM     57  N   UNL     1      14.488   9.123  -0.579  1.00  0.00    -0.354 N 
ATOM     58  N   UNL     1      13.494   7.643  -2.903  1.00  0.00    -0.248 NA
ATOM     59  C   UNL     1      13.061   7.511  -5.195  1.00  0.00     0.031 C 
ATOM     60  C   UNL     1      15.561  11.036  -0.930  1.00  0.00     0.029 A 
ATOM     61  C   UNL     1      14.882  10.011  -1.568  1.00  0.00     0.049 A 
ATOM     62  H   UNL     1      13.991   8.287  -0.735  1.00  0.00     0.167 HD
ATOM     63  C   UNL     1      13.986   8.783  -3.526  1.00  0.00     0.074 A 
ATOM     64  C   UNL     1      13.720   8.633  -4.942  1.00  0.00     0.031 C 
ATOM     65  C   UNL     1      14.602   9.856  -2.974  1.00  0.00     0.037 A 
BRANCH  52  66
ATOM     66  C   UNL     1      15.001   9.644   3.186  1.00  0.00     0.057 A 
ATOM     67  C   UNL     1      16.022   9.162   4.015  1.00  0.00     0.134 A 
ATOM     68  C   UNL     1      14.377  10.842   3.561  1.00  0.00     0.134 A 
ATOM     69  F   UNL     1      16.655   8.017   3.719  1.00  0.00    -0.206 F 
ATOM     70  C   UNL     1      16.389   9.829   5.186  1.00  0.00     0.040 A 
ATOM     71  C   UNL     1      14.755  11.533   4.714  1.00  0.00     0.040 A 
ATOM     72  F   UNL     1      13.398  11.366   2.809  1.00  0.00    -0.206 F 
ATOM     73  C   UNL     1      15.758  11.022   5.535  1.00  0.00     0.006 A 
ENDBRANCH  52  66
BRANCH  53  74
ATOM     74  C   UNL     1      11.838   4.863  -4.982  1.00  0.00     0.057 A 
ATOM     75  C   UNL     1      12.743   4.367  -5.927  1.00  0.00     0.134 A 
ATOM     76  C   UNL     1      10.473   4.673  -5.235  1.00  0.00     0.134 A 
ATOM     77  F   UNL     1      14.062   4.535  -5.750  1.00  0.00    -0.206 F 
ATOM     78  C   UNL     1      12.311   3.719  -7.085  1.00  0.00     0.040 A 
ATOM     79  C   UNL     1      10.028   4.004  -6.376  1.00  0.00     0.040 A 
ATOM     80  F   UNL     1       9.554   5.120  -4.366  1.00  0.00    -0.206 F 
ATOM     81  C   UNL     1      10.948   3.530  -7.308  1.00  0.00     0.006 A 
ENDBRANCH  53  74
BRANCH  65  82
ATOM     82  C   UNL     1      15.041  10.951  -3.903  1.00  0.00     0.057 A 
ATOM     83  C   UNL     1      14.120  11.807  -4.520  1.00  0.00     0.134 A 
ATOM     84  C   UNL     1      16.401  11.180  -4.148  1.00  0.00     0.134 A 
ATOM     85  F   UNL     1      12.802  11.633  -4.339  1.00  0.00    -0.206 F 
ATOM     86  C   UNL     1      14.536  12.841  -5.362  1.00  0.00     0.040 A 
ATOM     87  C   UNL     1      16.830  12.227  -4.965  1.00  0.00     0.040 A 
ATOM     88  F   UNL     1      17.337  10.401  -3.584  1.00  0.00    -0.206 F 
ATOM     89  C   UNL     1      15.895  13.058  -5.579  1.00  0.00     0.006 A 
ENDBRANCH  65  82
ENDBRANCH  39  40
ENDBRANCH  31  34
ENDBRANCH  29  30
ENDBRANCH  28  29
ENDBRANCH  27  28
ENDBRANCH   1  27
TORSDOF 16
