REMARK SMILES C[C@H](Oc1ccnc2c(F)cc(F)cc12)C(=O)NCCCCCCNC(=O)c1ccc(-c2c3nc(c(-c4c(F)cccc4F)c4ccc([nH]4)c(-c4c(F)cccc4F)c4nc(c(-c5c(F)cccc5F)c5ccc2[nH]5)C=C4)C=C3)cc1
REMARK SMILES IDX 21 1 20 2 19 3 18 4 16 5 17 6 2 8 1 9 3 10 4 11 5 12 15 13
REMARK SMILES IDX 6 14 8 15 14 16 7 17 9 18 12 19 10 20 11 21 13 22 22 23
REMARK SMILES IDX 23 24 24 25 25 26 26 27 27 29 28 30 29 31 81 32 30 33 80 34
REMARK SMILES IDX 31 35 32 36 33 37 74 38 34 39 79 40 73 41 75 42 35 43 78 44
REMARK SMILES IDX 72 45 71 46 36 48 62 49 45 50 61 51 46 52 49 53 60 54 76 55
REMARK SMILES IDX 47 56 48 57 59 59 77 60 50 61 37 62 38 63 43 64 39 65 40 66
REMARK SMILES IDX 42 67 44 68 41 69 63 70 64 71 69 72 65 73 66 74 68 75 70 76
REMARK SMILES IDX 67 77 51 78 52 79 57 80 53 81 54 82 56 83 58 84 55 85
REMARK H PARENT 18 7 25 28 75 47 49 58
REMARK Flexibility Score: inf
ROOT
ATOM      1  C   UNL     1      -3.199   0.122   2.712  1.00  0.00     0.002 C 
ENDROOT
BRANCH   1   2
ATOM      2  C   UNL     1      -1.694   0.228   2.441  1.00  0.00     0.021 C 
BRANCH   2   3
ATOM      3  C   UNL     1      -1.038  -1.048   1.916  1.00  0.00     0.116 C 
BRANCH   3   4
ATOM      4  N   UNL     1      -1.616  -1.479   0.659  1.00  0.00    -0.353 N 
ATOM      5  C   UNL     1      -1.037  -1.623  -0.565  1.00  0.00     0.260 C 
ATOM      6  O   UNL     1      -1.751  -1.985  -1.505  1.00  0.00    -0.271 OA
ATOM      7  H   UNL     1      -2.574  -1.702   0.695  1.00  0.00     0.163 HD
BRANCH   5   8
ATOM      8  C   UNL     1       0.470  -1.374  -0.776  1.00  0.00     0.258 C 
ATOM      9  C   UNL     1       1.268  -2.503  -0.121  1.00  0.00     0.064 C 
BRANCH   8  10
ATOM     10  O   UNL     1       0.975  -0.133  -0.295  1.00  0.00    -0.480 OA
BRANCH  10  11
ATOM     11  C   UNL     1       0.501   1.034  -0.846  1.00  0.00     0.131 A 
ATOM     12  C   UNL     1      -0.258   1.102  -2.009  1.00  0.00     0.067 A 
ATOM     13  C   UNL     1       0.830   2.226  -0.157  1.00  0.00     0.048 A 
ATOM     14  C   UNL     1      -0.683   2.342  -2.437  1.00  0.00     0.115 A 
ATOM     15  C   UNL     1       0.346   3.447  -0.679  1.00  0.00     0.110 A 
ATOM     16  C   UNL     1       1.607   2.241   1.024  1.00  0.00     0.053 A 
ATOM     17  N   UNL     1      -0.401   3.495  -1.800  1.00  0.00    -0.253 NA
ATOM     18  C   UNL     1       0.663   4.623   0.007  1.00  0.00     0.152 A 
ATOM     19  C   UNL     1       1.894   3.436   1.669  1.00  0.00     0.127 A 
ATOM     20  F   UNL     1       0.220   5.805  -0.455  1.00  0.00    -0.204 F 
ATOM     21  C   UNL     1       1.427   4.636   1.170  1.00  0.00     0.080 A 
ATOM     22  F   UNL     1       2.627   3.424   2.789  1.00  0.00    -0.207 F 
ENDBRANCH  10  11
ENDBRANCH   8  10
ENDBRANCH   5   8
ENDBRANCH   3   4
ENDBRANCH   2   3
ENDBRANCH   1   2
BRANCH   1  23
ATOM     23  C   UNL     1      -3.632  -1.026   3.630  1.00  0.00     0.002 C 
BRANCH  23  24
ATOM     24  C   UNL     1      -2.915  -1.096   4.978  1.00  0.00     0.021 C 
BRANCH  24  25
ATOM     25  C   UNL     1      -2.998   0.175   5.815  1.00  0.00     0.116 C 
BRANCH  25  26
ATOM     26  N   UNL     1      -4.355   0.465   6.244  1.00  0.00    -0.352 N 
ATOM     27  C   UNL     1      -4.836   0.621   7.520  1.00  0.00     0.251 C 
ATOM     28  H   UNL     1      -5.019   0.563   5.523  1.00  0.00     0.163 HD
ATOM     29  O   UNL     1      -6.041   0.701   7.733  1.00  0.00    -0.269 OA
BRANCH  27  30
ATOM     30  C   UNL     1      -3.882   0.671   8.645  1.00  0.00     0.039 A 
ATOM     31  C   UNL     1      -4.074  -0.181   9.735  1.00  0.00     0.014 A 
ATOM     32  C   UNL     1      -2.797   1.553   8.612  1.00  0.00     0.014 A 
ATOM     33  C   UNL     1      -3.144  -0.186  10.776  1.00  0.00     0.010 A 
ATOM     34  C   UNL     1      -1.843   1.509   9.624  1.00  0.00     0.010 A 
ATOM     35  C   UNL     1      -2.015   0.646  10.718  1.00  0.00    -0.014 A 
BRANCH  35  36
ATOM     36  C   UNL     1      -1.028   0.668  11.822  1.00  0.00     0.031 A 
ATOM     37  C   UNL     1      -0.948   1.870  12.719  1.00  0.00     0.074 A 
ATOM     38  C   UNL     1      -0.183  -0.365  11.992  1.00  0.00     0.049 A 
ATOM     39  N   UNL     1      -0.139   2.104  13.720  1.00  0.00    -0.248 NA
ATOM     40  C   UNL     1      -1.894   2.962  12.439  1.00  0.00     0.031 C 
ATOM     41  C   UNL     1      -0.148  -1.577  11.172  1.00  0.00     0.029 A 
ATOM     42  N   UNL     1       0.815  -0.556  12.913  1.00  0.00    -0.354 N 
ATOM     43  C   UNL     1      -0.482   3.364  14.192  1.00  0.00     0.074 A 
ATOM     44  C   UNL     1      -1.527   3.870  13.329  1.00  0.00     0.031 C 
ATOM     45  C   UNL     1       0.812  -2.393  11.638  1.00  0.00     0.029 A 
ATOM     46  C   UNL     1       1.475  -1.752  12.770  1.00  0.00     0.049 A 
ATOM     47  H   UNL     1       1.038   0.102  13.610  1.00  0.00     0.167 HD
ATOM     48  C   UNL     1       0.009   4.029  15.264  1.00  0.00     0.037 A 
ATOM     49  C   UNL     1       2.498  -2.267  13.476  1.00  0.00     0.037 A 
ATOM     50  C   UNL     1       1.049   3.526  16.121  1.00  0.00     0.049 A 
ATOM     51  C   UNL     1       3.068  -1.481  14.626  1.00  0.00     0.074 A 
ATOM     52  C   UNL     1       1.594   4.106  17.253  1.00  0.00     0.029 A 
ATOM     53  N   UNL     1       1.708   2.320  15.932  1.00  0.00    -0.354 N 
ATOM     54  N   UNL     1       2.693  -0.318  15.102  1.00  0.00    -0.248 NA
ATOM     55  C   UNL     1       4.203  -2.084  15.338  1.00  0.00     0.031 C 
ATOM     56  C   UNL     1       2.610   3.267  17.727  1.00  0.00     0.029 A 
ATOM     57  C   UNL     1       2.671   2.148  16.912  1.00  0.00     0.049 A 
ATOM     58  H   UNL     1       1.519   1.681  15.207  1.00  0.00     0.167 HD
ATOM     59  C   UNL     1       3.523  -0.066  16.187  1.00  0.00     0.074 A 
ATOM     60  C   UNL     1       4.414  -1.202  16.304  1.00  0.00     0.031 C 
ATOM     61  C   UNL     1       3.544   1.007  17.014  1.00  0.00     0.037 A 
BRANCH  48  62
ATOM     62  C   UNL     1      -0.585   5.374  15.558  1.00  0.00     0.057 A 
ATOM     63  C   UNL     1       0.147   6.547  15.341  1.00  0.00     0.134 A 
ATOM     64  C   UNL     1      -1.892   5.508  16.047  1.00  0.00     0.134 A 
ATOM     65  F   UNL     1       1.404   6.490  14.876  1.00  0.00    -0.206 F 
ATOM     66  C   UNL     1      -0.403   7.806  15.591  1.00  0.00     0.040 A 
ATOM     67  C   UNL     1      -2.462   6.761  16.276  1.00  0.00     0.040 A 
ATOM     68  F   UNL     1      -2.652   4.423  16.260  1.00  0.00    -0.206 F 
ATOM     69  C   UNL     1      -1.714   7.915  16.051  1.00  0.00     0.006 A 
ENDBRANCH  48  62
BRANCH  49  70
ATOM     70  C   UNL     1       3.042  -3.606  13.143  1.00  0.00     0.057 A 
ATOM     71  C   UNL     1       3.806  -3.823  11.990  1.00  0.00     0.134 A 
ATOM     72  C   UNL     1       2.838  -4.696  13.997  1.00  0.00     0.134 A 
ATOM     73  F   UNL     1       4.035  -2.820  11.130  1.00  0.00    -0.206 F 
ATOM     74  C   UNL     1       4.350  -5.076  11.701  1.00  0.00     0.040 A 
ATOM     75  C   UNL     1       3.392  -5.948  13.731  1.00  0.00     0.040 A 
ATOM     76  F   UNL     1       2.132  -4.543  15.127  1.00  0.00    -0.206 F 
ATOM     77  C   UNL     1       4.150  -6.141  12.578  1.00  0.00     0.006 A 
ENDBRANCH  49  70
BRANCH  61  78
ATOM     78  C   UNL     1       4.541   0.981  18.135  1.00  0.00     0.057 A 
ATOM     79  C   UNL     1       4.121   0.785  19.457  1.00  0.00     0.134 A 
ATOM     80  C   UNL     1       5.910   1.168  17.910  1.00  0.00     0.134 A 
ATOM     81  F   UNL     1       2.822   0.606  19.740  1.00  0.00    -0.206 F 
ATOM     82  C   UNL     1       5.030   0.775  20.516  1.00  0.00     0.040 A 
ATOM     83  C   UNL     1       6.831   1.135  18.958  1.00  0.00     0.040 A 
ATOM     84  F   UNL     1       6.377   1.344  16.665  1.00  0.00    -0.206 F 
ATOM     85  C   UNL     1       6.390   0.944  20.267  1.00  0.00     0.006 A 
ENDBRANCH  61  78
ENDBRANCH  35  36
ENDBRANCH  27  30
ENDBRANCH  25  26
ENDBRANCH  24  25
ENDBRANCH  23  24
ENDBRANCH   1  23
TORSDOF 15
