REMARK SMILES CCc1cc(OC(F)(F)F)cc2c1O[C@@H](C(F)(F)F)C(C(=O)NCCCCCCNC(=O)c1ccc(-c3c4nc(c(-c5c(F)cccc5F)c5ccc([nH]5)c(-c5c(F)cccc5F)c5nc(c(-c6c(F)cccc6F)c6ccc3[nH]6)C=C5)C=C4)cc1)=C2
REMARK SMILES IDX 26 1 25 2 24 3 23 4 21 5 22 6 20 8 3 9 4 10 13 11 5 12 12 13
REMARK SMILES IDX 14 14 11 15 87 16 15 17 2 18 1 19 6 20 7 21 8 22 9 23 10 24
REMARK SMILES IDX 16 25 17 26 18 27 19 28 27 29 28 30 29 31 30 32 31 33 32 35
REMARK SMILES IDX 33 36 34 37 86 38 35 39 85 40 36 41 37 42 38 43 79 44 39 45
REMARK SMILES IDX 84 46 78 47 80 48 40 49 83 50 77 51 76 52 41 54 67 55 50 56
REMARK SMILES IDX 66 57 51 58 54 59 65 60 81 61 52 62 53 63 64 65 82 66 55 67
REMARK SMILES IDX 42 68 43 69 48 70 44 71 45 72 47 73 49 74 46 75 68 76 69 77
REMARK SMILES IDX 74 78 70 79 71 80 73 81 75 82 72 83 56 84 57 85 62 86 58 87
REMARK SMILES IDX 59 88 61 89 63 90 60 91
REMARK H PARENT 23 7 30 34 80 53 54 64
REMARK Flexibility Score: inf
ROOT
ATOM      1  C   UNL     1      -1.251  10.274   0.641  1.00  0.00     0.002 C 
ENDROOT
BRANCH   1   2
ATOM      2  C   UNL     1      -0.538   8.954   0.965  1.00  0.00     0.021 C 
BRANCH   2   3
ATOM      3  C   UNL     1      -1.448   7.940   1.670  1.00  0.00     0.116 C 
BRANCH   3   4
ATOM      4  N   UNL     1      -2.311   7.309   0.687  1.00  0.00    -0.352 N 
ATOM      5  C   UNL     1      -2.190   6.177  -0.052  1.00  0.00     0.251 C 
ATOM      6  O   UNL     1      -2.958   6.022  -0.998  1.00  0.00    -0.270 OA
ATOM      7  H   UNL     1      -3.150   7.800   0.524  1.00  0.00     0.163 HD
BRANCH   5   8
ATOM      8  C   UNL     1      -1.241   5.087   0.294  1.00  0.00     0.067 C 
ATOM      9  C   UNL     1       1.068   1.803   1.546  1.00  0.00    -0.002 A 
ATOM     10  C   UNL     1       2.331   2.036   2.122  1.00  0.00     0.054 A 
ATOM     11  C   UNL     1       0.307   2.892   1.091  1.00  0.00     0.131 A 
ATOM     12  C   UNL     1       2.828   3.333   2.247  1.00  0.00     0.130 A 
ATOM     13  C   UNL     1       0.807   4.187   1.192  1.00  0.00     0.021 A 
ATOM     14  O   UNL     1      -0.941   2.623   0.613  1.00  0.00    -0.475 OA
ATOM     15  C   UNL     1       2.062   4.402   1.772  1.00  0.00     0.058 A 
ATOM     16  C   UNL     1      -0.011   5.315   0.774  1.00  0.00     0.025 C 
ATOM     17  C   UNL     1      -1.686   3.672  -0.067  1.00  0.00     0.314 C 
BRANCH   9  18
ATOM     18  C   UNL     1       0.583   0.382   1.376  1.00  0.00     0.036 C 
ATOM     19  C   UNL     1       0.981  -0.168   0.014  1.00  0.00     0.009 C 
ENDBRANCH   9  18
BRANCH  12  20
ATOM     20  O   UNL     1       4.017   3.699   2.808  1.00  0.00    -0.406 OA
BRANCH  20  21
ATOM     21  C   UNL     1       4.875   2.671   3.274  1.00  0.00     0.573 C 
ATOM     22  F   UNL     1       4.289   1.954   4.257  1.00  0.00    -0.132 F 
ATOM     23  F   UNL     1       5.236   1.848   2.268  1.00  0.00    -0.132 F 
ATOM     24  F   UNL     1       5.994   3.237   3.778  1.00  0.00    -0.132 F 
ENDBRANCH  20  21
ENDBRANCH  12  20
BRANCH  17  25
ATOM     25  C   UNL     1      -3.188   3.346   0.110  1.00  0.00     0.429 C 
ATOM     26  F   UNL     1      -3.935   3.714  -0.954  1.00  0.00    -0.167 F 
ATOM     27  F   UNL     1      -3.381   2.004   0.236  1.00  0.00    -0.167 F 
ATOM     28  F   UNL     1      -3.714   3.918   1.217  1.00  0.00    -0.167 F 
ENDBRANCH  17  25
ENDBRANCH   5   8
ENDBRANCH   3   4
ENDBRANCH   2   3
ENDBRANCH   1   2
BRANCH   1  29
ATOM     29  C   UNL     1      -1.693  11.078   1.870  1.00  0.00     0.002 C 
BRANCH  29  30
ATOM     30  C   UNL     1      -0.573  11.404   2.860  1.00  0.00     0.021 C 
BRANCH  30  31
ATOM     31  C   UNL     1       0.551  12.253   2.275  1.00  0.00     0.116 C 
BRANCH  31  32
ATOM     32  N   UNL     1       0.083  13.583   1.916  1.00  0.00    -0.352 N 
ATOM     33  C   UNL     1       0.539  14.805   2.341  1.00  0.00     0.251 C 
ATOM     34  H   UNL     1      -0.666  13.610   1.278  1.00  0.00     0.163 HD
ATOM     35  O   UNL     1      -0.119  15.818   2.131  1.00  0.00    -0.269 OA
BRANCH  33  36
ATOM     36  C   UNL     1       1.825  14.897   3.063  1.00  0.00     0.039 A 
ATOM     37  C   UNL     1       1.907  15.703   4.201  1.00  0.00     0.014 A 
ATOM     38  C   UNL     1       2.951  14.205   2.606  1.00  0.00     0.014 A 
ATOM     39  C   UNL     1       3.107  15.776   4.910  1.00  0.00     0.010 A 
ATOM     40  C   UNL     1       4.126  14.226   3.351  1.00  0.00     0.010 A 
ATOM     41  C   UNL     1       4.218  15.016   4.506  1.00  0.00    -0.014 A 
BRANCH  41  42
ATOM     42  C   UNL     1       5.486  15.040   5.278  1.00  0.00     0.031 A 
ATOM     43  C   UNL     1       6.741  15.585   4.652  1.00  0.00     0.074 A 
ATOM     44  C   UNL     1       5.521  14.510   6.516  1.00  0.00     0.049 A 
ATOM     45  N   UNL     1       7.957  15.620   5.136  1.00  0.00    -0.248 NA
ATOM     46  C   UNL     1       6.620  16.138   3.294  1.00  0.00     0.031 C 
ATOM     47  C   UNL     1       4.383  13.905   7.212  1.00  0.00     0.029 A 
ATOM     48  N   UNL     1       6.559  14.380   7.405  1.00  0.00    -0.354 N 
ATOM     49  C   UNL     1       8.745  16.180   4.138  1.00  0.00     0.074 A 
ATOM     50  C   UNL     1       7.880  16.429   3.005  1.00  0.00     0.031 C 
ATOM     51  C   UNL     1       4.781  13.482   8.423  1.00  0.00     0.029 A 
ATOM     52  C   UNL     1       6.207  13.751   8.575  1.00  0.00     0.049 A 
ATOM     53  H   UNL     1       7.469  14.707   7.222  1.00  0.00     0.167 HD
ATOM     54  C   UNL     1      10.065  16.477   4.172  1.00  0.00     0.037 A 
ATOM     55  C   UNL     1       6.954  13.418   9.645  1.00  0.00     0.037 A 
ATOM     56  C   UNL     1      10.913  16.263   5.314  1.00  0.00     0.049 A 
ATOM     57  C   UNL     1       8.416  13.772   9.658  1.00  0.00     0.074 A 
ATOM     58  C   UNL     1      12.246  16.603   5.472  1.00  0.00     0.029 A 
ATOM     59  N   UNL     1      10.512  15.655   6.494  1.00  0.00    -0.354 N 
ATOM     60  N   UNL     1       9.129  14.373   8.737  1.00  0.00    -0.248 NA
ATOM     61  C   UNL     1       9.176  13.408  10.863  1.00  0.00     0.031 C 
ATOM     62  C   UNL     1      12.664  16.159   6.730  1.00  0.00     0.029 A 
ATOM     63  C   UNL     1      11.578  15.588   7.375  1.00  0.00     0.049 A 
ATOM     64  H   UNL     1       9.604  15.321   6.677  1.00  0.00     0.167 HD
ATOM     65  C   UNL     1      10.410  14.486   9.262  1.00  0.00     0.074 A 
ATOM     66  C   UNL     1      10.372  13.907  10.588  1.00  0.00     0.031 C 
ATOM     67  C   UNL     1      11.519  15.021   8.697  1.00  0.00     0.037 A 
BRANCH  54  68
ATOM     68  C   UNL     1      10.681  17.076   2.942  1.00  0.00     0.057 A 
ATOM     69  C   UNL     1      10.414  18.394   2.548  1.00  0.00     0.134 A 
ATOM     70  C   UNL     1      11.606  16.349   2.181  1.00  0.00     0.134 A 
ATOM     71  F   UNL     1       9.530  19.140   3.227  1.00  0.00    -0.206 F 
ATOM     72  C   UNL     1      11.034  18.962   1.435  1.00  0.00     0.040 A 
ATOM     73  C   UNL     1      12.251  16.915   1.081  1.00  0.00     0.040 A 
ATOM     74  F   UNL     1      11.911  15.084   2.506  1.00  0.00    -0.206 F 
ATOM     75  C   UNL     1      11.964  18.226   0.703  1.00  0.00     0.006 A 
ENDBRANCH  54  68
BRANCH  55  76
ATOM     76  C   UNL     1       6.338  12.716  10.800  1.00  0.00     0.057 A 
ATOM     77  C   UNL     1       6.194  13.349  12.041  1.00  0.00     0.134 A 
ATOM     78  C   UNL     1       5.909  11.387  10.702  1.00  0.00     0.134 A 
ATOM     79  F   UNL     1       6.603  14.616  12.203  1.00  0.00    -0.206 F 
ATOM     80  C   UNL     1       5.676  12.678  13.149  1.00  0.00     0.040 A 
ATOM     81  C   UNL     1       5.363  10.712  11.795  1.00  0.00     0.040 A 
ATOM     82  F   UNL     1       6.010  10.726   9.540  1.00  0.00    -0.206 F 
ATOM     83  C   UNL     1       5.256  11.355  13.027  1.00  0.00     0.006 A 
ENDBRANCH  55  76
BRANCH  67  84
ATOM     84  C   UNL     1      12.771  15.042   9.524  1.00  0.00     0.057 A 
ATOM     85  C   UNL     1      13.498  13.876   9.796  1.00  0.00     0.134 A 
ATOM     86  C   UNL     1      13.276  16.251  10.019  1.00  0.00     0.134 A 
ATOM     87  F   UNL     1      13.060  12.685   9.360  1.00  0.00    -0.206 F 
ATOM     88  C   UNL     1      14.671  13.909  10.552  1.00  0.00     0.040 A 
ATOM     89  C   UNL     1      14.462  16.300  10.752  1.00  0.00     0.040 A 
ATOM     90  F   UNL     1      12.633  17.405   9.786  1.00  0.00    -0.206 F 
ATOM     91  C   UNL     1      15.159  15.126  11.026  1.00  0.00     0.006 A 
ENDBRANCH  67  84
ENDBRANCH  41  42
ENDBRANCH  33  36
ENDBRANCH  31  32
ENDBRANCH  30  31
ENDBRANCH  29  30
ENDBRANCH   1  29
TORSDOF 17
