REMARK SMILES COc1ccccc1[C@H](C)NC(=O)[C@@H]1CC=CC[C@@H]1C(=O)NCCCCCCNC(=O)c1ccc(-c2c3nc(c(-c4c(F)cccc4F)c4ccc([nH]4)c(-c4c(F)cccc4F)c4nc(c(-c5c(F)cccc5F)c5ccc2[nH]5)C=C4)C=C3)cc1
REMARK SMILES IDX 24 1 23 2 22 3 20 4 21 5 19 7 14 8 15 9 16 10 18 11 17 12
REMARK SMILES IDX 12 13 11 14 13 16 9 17 10 18 8 19 3 20 4 21 5 22 7 23 6 24
REMARK SMILES IDX 2 25 1 26 25 27 26 28 27 29 28 30 29 31 30 32 31 34 32 35
REMARK SMILES IDX 33 36 85 37 34 38 84 39 35 40 36 41 37 42 78 43 38 44 83 45
REMARK SMILES IDX 77 46 79 47 39 48 82 49 76 50 75 51 40 53 66 54 49 55 65 56
REMARK SMILES IDX 50 57 53 58 64 59 80 60 51 61 52 62 63 64 81 65 54 66 41 67
REMARK SMILES IDX 42 68 47 69 43 70 44 71 46 72 48 73 45 74 67 75 68 76 73 77
REMARK SMILES IDX 69 78 70 79 72 80 74 81 71 82 55 83 56 84 61 85 57 86 58 87
REMARK SMILES IDX 60 88 62 89 59 90
REMARK H PARENT 22 6 11 15 29 33 79 52 53 63
REMARK Flexibility Score: inf
ROOT
ATOM      1  C   UNL     1      -1.223   3.472   4.117  1.00  0.00     0.021 C 
ENDROOT
BRANCH   1   2
ATOM      2  C   UNL     1       0.066   2.704   4.396  1.00  0.00     0.116 C 
BRANCH   2   3
ATOM      3  N   UNL     1       0.110   1.432   3.710  1.00  0.00    -0.356 N 
ATOM      4  C   UNL     1       0.933   0.853   2.807  1.00  0.00     0.224 C 
ATOM      5  O   UNL     1       0.689  -0.346   2.625  1.00  0.00    -0.275 OA
ATOM      6  H   UNL     1      -0.640   0.846   3.961  1.00  0.00     0.163 HD
BRANCH   4   7
ATOM      7  C   UNL     1       1.980   1.570   1.927  1.00  0.00     0.095 C 
ATOM      8  C   UNL     1       3.114   0.580   1.511  1.00  0.00     0.095 C 
ATOM      9  C   UNL     1       3.829   0.061   2.783  1.00  0.00     0.041 C 
ATOM     10  C   UNL     1       4.061   1.144   3.810  1.00  0.00    -0.030 C 
ATOM     11  C   UNL     1       2.723   2.780   2.509  1.00  0.00     0.041 C 
ATOM     12  C   UNL     1       3.577   2.390   3.682  1.00  0.00    -0.030 C 
BRANCH   8  13
ATOM     13  C   UNL     1       2.700  -0.565   0.597  1.00  0.00     0.224 C 
ATOM     14  N   UNL     1       2.291  -0.306  -0.674  1.00  0.00    -0.349 N 
ATOM     15  H   UNL     1       1.936  -1.095  -1.144  1.00  0.00     0.164 HD
ATOM     16  O   UNL     1       2.783  -1.745   0.940  1.00  0.00    -0.275 OA
BRANCH  14  17
ATOM     17  C   UNL     1       2.276   0.909  -1.477  1.00  0.00     0.113 C 
ATOM     18  C   UNL     1       3.461   0.846  -2.451  1.00  0.00     0.036 C 
BRANCH  17  19
ATOM     19  C   UNL     1       0.949   1.152  -2.200  1.00  0.00     0.016 A 
ATOM     20  C   UNL     1      -0.194   0.337  -2.087  1.00  0.00     0.124 A 
ATOM     21  C   UNL     1      -1.379   0.633  -2.773  1.00  0.00     0.047 A 
ATOM     22  C   UNL     1      -1.464   1.768  -3.570  1.00  0.00     0.004 A 
ATOM     23  C   UNL     1       0.827   2.302  -3.010  1.00  0.00     0.010 A 
ATOM     24  C   UNL     1      -0.359   2.602  -3.691  1.00  0.00     0.001 A 
BRANCH  20  25
ATOM     25  O   UNL     1      -0.173  -0.827  -1.363  1.00  0.00    -0.496 OA
ATOM     26  C   UNL     1      -0.827  -0.639  -0.104  1.00  0.00     0.278 C 
ENDBRANCH  20  25
ENDBRANCH  17  19
ENDBRANCH  14  17
ENDBRANCH   8  13
ENDBRANCH   4   7
ENDBRANCH   2   3
ENDBRANCH   1   2
BRANCH   1  27
ATOM     27  C   UNL     1      -2.474   2.893   4.790  1.00  0.00     0.002 C 
BRANCH  27  28
ATOM     28  C   UNL     1      -2.380   2.678   6.306  1.00  0.00     0.002 C 
BRANCH  28  29
ATOM     29  C   UNL     1      -1.869   3.870   7.119  1.00  0.00     0.021 C 
BRANCH  29  30
ATOM     30  C   UNL     1      -2.692   5.146   6.982  1.00  0.00     0.116 C 
BRANCH  30  31
ATOM     31  N   UNL     1      -4.030   5.001   7.533  1.00  0.00    -0.352 N 
ATOM     32  C   UNL     1      -4.675   5.781   8.455  1.00  0.00     0.251 C 
ATOM     33  H   UNL     1      -4.545   4.233   7.195  1.00  0.00     0.163 HD
ATOM     34  O   UNL     1      -5.743   5.406   8.942  1.00  0.00    -0.269 OA
BRANCH  32  35
ATOM     35  C   UNL     1      -4.087   7.066   8.888  1.00  0.00     0.039 A 
ATOM     36  C   UNL     1      -4.073   7.380  10.250  1.00  0.00     0.014 A 
ATOM     37  C   UNL     1      -3.567   7.970   7.955  1.00  0.00     0.014 A 
ATOM     38  C   UNL     1      -3.492   8.574  10.682  1.00  0.00     0.010 A 
ATOM     39  C   UNL     1      -2.932   9.130   8.393  1.00  0.00     0.010 A 
ATOM     40  C   UNL     1      -2.891   9.446   9.759  1.00  0.00    -0.014 A 
BRANCH  40  41
ATOM     41  C   UNL     1      -2.230  10.699  10.204  1.00  0.00     0.031 A 
ATOM     42  C   UNL     1      -2.794  12.034   9.800  1.00  0.00     0.074 A 
ATOM     43  C   UNL     1      -1.096  10.636  10.931  1.00  0.00     0.049 A 
ATOM     44  N   UNL     1      -2.317  13.233  10.017  1.00  0.00    -0.248 NA
ATOM     45  C   UNL     1      -4.049  12.017   9.031  1.00  0.00     0.031 C 
ATOM     46  C   UNL     1      -0.432   9.405  11.361  1.00  0.00     0.029 A 
ATOM     47  N   UNL     1      -0.296  11.635  11.427  1.00  0.00    -0.354 N 
ATOM     48  C   UNL     1      -3.209  14.110   9.412  1.00  0.00     0.074 A 
ATOM     49  C   UNL     1      -4.226  13.304   8.771  1.00  0.00     0.031 C 
ATOM     50  C   UNL     1       0.664   9.721  12.071  1.00  0.00     0.029 A 
ATOM     51  C   UNL     1       0.800  11.173  12.116  1.00  0.00     0.049 A 
ATOM     52  H   UNL     1      -0.489  12.592  11.302  1.00  0.00     0.167 HD
ATOM     53  C   UNL     1      -3.198  15.464   9.412  1.00  0.00     0.037 A 
ATOM     54  C   UNL     1       1.805  11.846  12.707  1.00  0.00     0.037 A 
ATOM     55  C   UNL     1      -2.199  16.267  10.066  1.00  0.00     0.049 A 
ATOM     56  C   UNL     1       1.804  13.351  12.671  1.00  0.00     0.074 A 
ATOM     57  C   UNL     1      -2.112  17.646  10.138  1.00  0.00     0.029 A 
ATOM     58  N   UNL     1      -1.117  15.760  10.768  1.00  0.00    -0.354 N 
ATOM     59  N   UNL     1       0.932  14.164  12.127  1.00  0.00    -0.248 NA
ATOM     60  C   UNL     1       2.925  14.030  13.337  1.00  0.00     0.031 C 
ATOM     61  C   UNL     1      -0.962  17.976  10.862  1.00  0.00     0.029 A 
ATOM     62  C   UNL     1      -0.354  16.800  11.273  1.00  0.00     0.049 A 
ATOM     63  H   UNL     1      -0.919  14.804  10.891  1.00  0.00     0.167 HD
ATOM     64  C   UNL     1       1.379  15.447  12.415  1.00  0.00     0.074 A 
ATOM     65  C   UNL     1       2.592  15.304  13.192  1.00  0.00     0.031 C 
ATOM     66  C   UNL     1       0.837  16.639  12.065  1.00  0.00     0.037 A 
BRANCH  53  67
ATOM     67  C   UNL     1      -4.316  16.167   8.701  1.00  0.00     0.057 A 
ATOM     68  C   UNL     1      -5.615  16.192   9.226  1.00  0.00     0.134 A 
ATOM     69  C   UNL     1      -4.085  16.872   7.513  1.00  0.00     0.134 A 
ATOM     70  F   UNL     1      -5.904  15.526  10.354  1.00  0.00    -0.206 F 
ATOM     71  C   UNL     1      -6.648  16.879   8.587  1.00  0.00     0.040 A 
ATOM     72  C   UNL     1      -5.105  17.583   6.878  1.00  0.00     0.040 A 
ATOM     73  F   UNL     1      -2.863  16.894   6.960  1.00  0.00    -0.206 F 
ATOM     74  C   UNL     1      -6.391  17.585   7.413  1.00  0.00     0.006 A 
ENDBRANCH  53  67
BRANCH  54  75
ATOM     75  C   UNL     1       2.897  11.115  13.398  1.00  0.00     0.057 A 
ATOM     76  C   UNL     1       3.040  11.179  14.790  1.00  0.00     0.134 A 
ATOM     77  C   UNL     1       3.849  10.377  12.686  1.00  0.00     0.134 A 
ATOM     78  F   UNL     1       2.171  11.888  15.525  1.00  0.00    -0.206 F 
ATOM     79  C   UNL     1       4.107  10.562  15.445  1.00  0.00     0.040 A 
ATOM     80  C   UNL     1       4.906   9.732  13.331  1.00  0.00     0.040 A 
ATOM     81  F   UNL     1       3.765  10.271  11.352  1.00  0.00    -0.206 F 
ATOM     82  C   UNL     1       5.044   9.834  14.714  1.00  0.00     0.006 A 
ENDBRANCH  54  75
BRANCH  66  83
ATOM     83  C   UNL     1       1.521  17.876  12.563  1.00  0.00     0.057 A 
ATOM     84  C   UNL     1       2.737  18.316  12.027  1.00  0.00     0.134 A 
ATOM     85  C   UNL     1       0.935  18.656  13.569  1.00  0.00     0.134 A 
ATOM     86  F   UNL     1       3.355  17.606  11.071  1.00  0.00    -0.206 F 
ATOM     87  C   UNL     1       3.360  19.476  12.491  1.00  0.00     0.040 A 
ATOM     88  C   UNL     1       1.536  19.830  14.023  1.00  0.00     0.040 A 
ATOM     89  F   UNL     1      -0.234  18.294  14.118  1.00  0.00    -0.206 F 
ATOM     90  C   UNL     1       2.755  20.240  13.488  1.00  0.00     0.006 A 
ENDBRANCH  66  83
ENDBRANCH  40  41
ENDBRANCH  32  35
ENDBRANCH  30  31
ENDBRANCH  29  30
ENDBRANCH  28  29
ENDBRANCH  27  28
ENDBRANCH   1  27
TORSDOF 17
