REMARK SMILES O=C(NCCCCCCNC(=O)[C@H]1C[C@](O)(c2ccc(F)cc2)[C@@H](c2ccc(F)cc2)O1)c1ccc(-c2c3nc(c(-c4c(F)cccc4F)c4ccc([nH]4)c(-c4c(F)cccc4F)c4nc(c(-c5c(F)cccc5F)c5ccc2[nH]5)C=C4)C=C3)cc1
REMARK SMILES IDX 6 1 5 2 4 3 3 4 1 5 2 6 33 8 34 9 86 10 35 11 85 12 36 13
REMARK SMILES IDX 37 14 38 15 79 16 39 17 84 18 78 19 80 20 40 21 83 22 77 23
REMARK SMILES IDX 76 24 41 26 67 27 50 28 66 29 51 30 54 31 65 32 81 33 52 34
REMARK SMILES IDX 53 35 64 37 82 38 55 39 42 40 43 41 48 42 44 43 45 44 47 45
REMARK SMILES IDX 49 46 46 47 68 48 69 49 74 50 70 51 71 52 73 53 75 54 72 55
REMARK SMILES IDX 56 56 57 57 62 58 58 59 59 60 61 61 63 62 60 63 7 64 8 65
REMARK SMILES IDX 9 66 10 67 11 68 12 70 13 71 14 72 32 73 15 74 24 75 17 76
REMARK SMILES IDX 18 77 23 78 19 79 22 80 20 81 21 82 16 83 25 85 26 86 31 87
REMARK SMILES IDX 27 88 30 89 28 90 29 91
REMARK H PARENT 3 7 80 25 54 36 10 69 16 84
REMARK Flexibility Score: inf
ROOT
ATOM      1  C   UNL     1      11.718   9.871  -7.776  1.00  0.00     0.002 C 
ENDROOT
BRANCH   1   2
ATOM      2  C   UNL     1      11.870  11.064  -6.833  1.00  0.00     0.021 C 
BRANCH   2   3
ATOM      3  C   UNL     1      13.236  11.179  -6.168  1.00  0.00     0.116 C 
BRANCH   3   4
ATOM      4  N   UNL     1      14.259  11.660  -7.082  1.00  0.00    -0.352 N 
ATOM      5  O   UNL     1      15.723  13.171  -7.921  1.00  0.00    -0.269 OA
ATOM      6  C   UNL     1      15.030  12.795  -6.981  1.00  0.00     0.251 C 
ATOM      7  H   UNL     1      14.421  11.101  -7.877  1.00  0.00     0.163 HD
BRANCH   6   8
ATOM      8  C   UNL     1      15.002  13.573  -5.724  1.00  0.00     0.039 A 
ATOM      9  C   UNL     1      15.130  12.920  -4.497  1.00  0.00     0.014 A 
ATOM     10  C   UNL     1      14.836  14.960  -5.771  1.00  0.00     0.014 A 
ATOM     11  C   UNL     1      14.954  13.633  -3.318  1.00  0.00     0.010 A 
ATOM     12  C   UNL     1      14.750  15.690  -4.581  1.00  0.00     0.010 A 
ATOM     13  C   UNL     1      14.787  15.029  -3.344  1.00  0.00    -0.014 A 
BRANCH  13  14
ATOM     14  C   UNL     1      14.754  15.762  -2.053  1.00  0.00     0.031 A 
ATOM     15  C   UNL     1      13.523  16.484  -1.583  1.00  0.00     0.074 A 
ATOM     16  C   UNL     1      15.848  15.706  -1.269  1.00  0.00     0.049 A 
ATOM     17  N   UNL     1      13.321  17.099  -0.445  1.00  0.00    -0.248 NA
ATOM     18  C   UNL     1      12.373  16.529  -2.499  1.00  0.00     0.031 C 
ATOM     19  C   UNL     1      17.105  15.044  -1.631  1.00  0.00     0.029 A 
ATOM     20  N   UNL     1      16.073  16.168   0.002  1.00  0.00    -0.354 N 
ATOM     21  C   UNL     1      12.032  17.613  -0.510  1.00  0.00     0.074 A 
ATOM     22  C   UNL     1      11.502  17.256  -1.809  1.00  0.00     0.031 C 
ATOM     23  C   UNL     1      17.936  15.071  -0.580  1.00  0.00     0.029 A 
ATOM     24  C   UNL     1      17.301  15.811   0.504  1.00  0.00     0.049 A 
ATOM     25  H   UNL     1      15.418  16.703   0.506  1.00  0.00     0.167 HD
ATOM     26  C   UNL     1      11.356  18.311   0.433  1.00  0.00     0.037 A 
ATOM     27  C   UNL     1      17.861  16.053   1.703  1.00  0.00     0.037 A 
ATOM     28  C   UNL     1      11.883  18.648   1.732  1.00  0.00     0.049 A 
ATOM     29  C   UNL     1      17.089  16.840   2.719  1.00  0.00     0.074 A 
ATOM     30  C   UNL     1      11.261  19.335   2.761  1.00  0.00     0.029 A 
ATOM     31  N   UNL     1      13.153  18.321   2.181  1.00  0.00    -0.354 N 
ATOM     32  N   UNL     1      15.867  17.307   2.644  1.00  0.00    -0.248 NA
ATOM     33  C   UNL     1      17.777  17.146   3.980  1.00  0.00     0.031 C 
ATOM     34  C   UNL     1      12.167  19.455   3.819  1.00  0.00     0.029 A 
ATOM     35  C   UNL     1      13.339  18.808   3.465  1.00  0.00     0.049 A 
ATOM     36  H   UNL     1      13.824  17.818   1.665  1.00  0.00     0.167 HD
ATOM     37  C   UNL     1      15.640  17.964   3.844  1.00  0.00     0.074 A 
ATOM     38  C   UNL     1      16.837  17.805   4.643  1.00  0.00     0.031 C 
ATOM     39  C   UNL     1      14.541  18.649   4.242  1.00  0.00     0.037 A 
BRANCH  26  40
ATOM     40  C   UNL     1       9.963  18.769   0.115  1.00  0.00     0.057 A 
ATOM     41  C   UNL     1       9.689  20.126  -0.102  1.00  0.00     0.134 A 
ATOM     42  C   UNL     1       8.877  17.885   0.136  1.00  0.00     0.134 A 
ATOM     43  F   UNL     1      10.684  21.025  -0.126  1.00  0.00    -0.206 F 
ATOM     44  C   UNL     1       8.383  20.590  -0.265  1.00  0.00     0.040 A 
ATOM     45  C   UNL     1       7.567  18.335  -0.043  1.00  0.00     0.040 A 
ATOM     46  F   UNL     1       9.073  16.572   0.332  1.00  0.00    -0.206 F 
ATOM     47  C   UNL     1       7.317  19.693  -0.232  1.00  0.00     0.006 A 
ENDBRANCH  26  40
BRANCH  27  48
ATOM     48  C   UNL     1      19.222  15.542   1.999  1.00  0.00     0.057 A 
ATOM     49  C   UNL     1      20.350  16.046   1.339  1.00  0.00     0.134 A 
ATOM     50  C   UNL     1      19.422  14.519   2.932  1.00  0.00     0.134 A 
ATOM     51  F   UNL     1      20.222  17.022   0.428  1.00  0.00    -0.206 F 
ATOM     52  C   UNL     1      21.626  15.538   1.582  1.00  0.00     0.040 A 
ATOM     53  C   UNL     1      20.697  14.020   3.205  1.00  0.00     0.040 A 
ATOM     54  F   UNL     1      18.382  14.008   3.607  1.00  0.00    -0.206 F 
ATOM     55  C   UNL     1      21.802  14.524   2.522  1.00  0.00     0.006 A 
ENDBRANCH  27  48
BRANCH  39  56
ATOM     56  C   UNL     1      14.589  19.279   5.601  1.00  0.00     0.057 A 
ATOM     57  C   UNL     1      13.839  18.755   6.661  1.00  0.00     0.134 A 
ATOM     58  C   UNL     1      15.351  20.427   5.848  1.00  0.00     0.134 A 
ATOM     59  F   UNL     1      13.083  17.662   6.487  1.00  0.00    -0.206 F 
ATOM     60  C   UNL     1      13.844  19.356   7.921  1.00  0.00     0.040 A 
ATOM     61  C   UNL     1      15.382  21.023   7.109  1.00  0.00     0.040 A 
ATOM     62  F   UNL     1      16.101  20.967   4.875  1.00  0.00    -0.206 F 
ATOM     63  C   UNL     1      14.622  20.490   8.148  1.00  0.00     0.006 A 
ENDBRANCH  39  56
ENDBRANCH  13  14
ENDBRANCH   6   8
ENDBRANCH   3   4
ENDBRANCH   2   3
ENDBRANCH   1   2
BRANCH   1  64
ATOM     64  C   UNL     1      12.049   8.510  -7.157  1.00  0.00     0.002 C 
BRANCH  64  65
ATOM     65  C   UNL     1      11.354   8.213  -5.822  1.00  0.00     0.021 C 
BRANCH  65  66
ATOM     66  C   UNL     1       9.847   7.984  -5.914  1.00  0.00     0.116 C 
BRANCH  66  67
ATOM     67  N   UNL     1       9.523   6.815  -6.706  1.00  0.00    -0.354 N 
ATOM     68  C   UNL     1       9.364   5.520  -6.309  1.00  0.00     0.249 C 
ATOM     69  H   UNL     1       9.399   6.979  -7.668  1.00  0.00     0.163 HD
ATOM     70  O   UNL     1       9.139   4.688  -7.191  1.00  0.00    -0.272 OA
BRANCH  68  71
ATOM     71  C   UNL     1       9.396   5.145  -4.800  1.00  0.00     0.211 C 
ATOM     72  C   UNL     1       9.458   3.627  -4.601  1.00  0.00     0.085 C 
ATOM     73  O   UNL     1      10.477   5.726  -4.065  1.00  0.00    -0.357 OA
ATOM     74  C   UNL     1      10.648   3.374  -3.682  1.00  0.00     0.123 C 
ATOM     75  C   UNL     1      11.442   4.704  -3.752  1.00  0.00     0.186 C 
BRANCH  74  76
ATOM     76  C   UNL     1      10.145   3.004  -2.273  1.00  0.00    -0.013 A 
ATOM     77  C   UNL     1       9.793   1.666  -1.990  1.00  0.00     0.010 A 
ATOM     78  C   UNL     1      10.008   3.944  -1.233  1.00  0.00     0.010 A 
ATOM     79  C   UNL     1       9.383   1.276  -0.713  1.00  0.00     0.039 A 
ATOM     80  C   UNL     1       9.614   3.551   0.050  1.00  0.00     0.039 A 
ATOM     81  C   UNL     1       9.314   2.220   0.300  1.00  0.00     0.123 A 
ATOM     82  F   UNL     1       8.948   1.845   1.533  1.00  0.00    -0.207 F 
ENDBRANCH  74  76
BRANCH  74  83
ATOM     83  O   UNL     1      11.383   2.244  -4.169  1.00  0.00    -0.382 OA
ATOM     84  H   UNL     1      11.720   2.437  -5.059  1.00  0.00     0.212 HD
ENDBRANCH  74  83
BRANCH  75  85
ATOM     85  C   UNL     1      12.616   4.878  -4.705  1.00  0.00    -0.016 A 
ATOM     86  C   UNL     1      12.581   4.482  -6.051  1.00  0.00     0.009 A 
ATOM     87  C   UNL     1      13.748   5.584  -4.243  1.00  0.00     0.009 A 
ATOM     88  C   UNL     1      13.629   4.813  -6.915  1.00  0.00     0.039 A 
ATOM     89  C   UNL     1      14.796   5.906  -5.106  1.00  0.00     0.039 A 
ATOM     90  C   UNL     1      14.721   5.527  -6.437  1.00  0.00     0.123 A 
ATOM     91  F   UNL     1      15.706   5.871  -7.276  1.00  0.00    -0.207 F 
ENDBRANCH  75  85
ENDBRANCH  68  71
ENDBRANCH  66  67
ENDBRANCH  65  66
ENDBRANCH  64  65
ENDBRANCH   1  64
TORSDOF 16
