REMARK SMILES CC1(C)CSC[C@@H]([N@H+]2CCC[C@H](CCC(=O)NCCCCCCNC(=O)c3ccc(-c4c5nc(c(-c6c(F)cccc6F)c6ccc([nH]6)c(-c6c(F)cccc6F)c6nc(c(-c7c(F)cccc7F)c7ccc4[nH]7)C=C6)C=C5)cc3)C2)C1
REMARK SMILES IDX 20 1 19 2 18 3 17 4 15 5 16 6 14 8 13 9 12 10 8 11 9 12
REMARK SMILES IDX 81 13 10 15 11 16 7 17 1 18 2 19 3 20 4 21 82 22 5 23 6 24
REMARK SMILES IDX 21 25 22 26 23 27 24 28 25 29 26 31 27 32 28 33 80 34 29 35
REMARK SMILES IDX 79 36 30 37 31 38 32 39 73 40 33 41 78 42 72 43 74 44 34 45
REMARK SMILES IDX 77 46 71 47 70 48 35 50 61 51 44 52 60 53 45 54 48 55 59 56
REMARK SMILES IDX 75 57 46 58 47 59 58 61 76 62 49 63 36 64 37 65 42 66 38 67
REMARK SMILES IDX 39 68 41 69 43 70 40 71 62 72 63 73 68 74 64 75 65 76 67 77
REMARK SMILES IDX 69 78 66 79 50 80 51 81 56 82 52 83 53 84 55 85 57 86 54 87
REMARK H PARENT 17 7 8 14 24 30 74 49 48 60
REMARK Flexibility Score: inf
ROOT
ATOM      1  C   UNL     1      -1.881  -1.460   2.598  1.00  0.00     0.002 C 
ENDROOT
BRANCH   1   2
ATOM      2  C   UNL     1      -0.591  -1.974   1.942  1.00  0.00     0.021 C 
BRANCH   2   3
ATOM      3  C   UNL     1       0.575  -2.396   2.886  1.00  0.00     0.116 C 
BRANCH   3   4
ATOM      4  N   UNL     1       1.048  -3.762   2.570  1.00  0.00    -0.356 N 
ATOM      5  C   UNL     1       2.113  -4.383   1.995  1.00  0.00     0.220 C 
ATOM      6  O   UNL     1       2.012  -5.615   1.902  1.00  0.00    -0.275 OA
ATOM      7  H   UNL     1       0.386  -4.428   2.866  1.00  0.00     0.163 HD
BRANCH   5   8
ATOM      8  C   UNL     1       3.409  -3.733   1.511  1.00  0.00     0.100 C 
BRANCH   8   9
ATOM      9  C   UNL     1       3.532  -3.473  -0.023  1.00  0.00     0.019 C 
BRANCH   9  10
ATOM     10  C   UNL     1       3.038  -2.101  -0.578  1.00  0.00     0.045 C 
ATOM     11  N   UNL     1       3.666   0.148  -1.598  1.00  0.00    -0.332 N 
ATOM     12  C   UNL     1       3.255   0.840  -0.385  1.00  0.00     0.262 C 
ATOM     13  C   UNL     1       4.074  -1.252  -1.339  1.00  0.00     0.265 C 
ATOM     14  H   UNL     1       4.537   0.586  -1.895  1.00  0.00     0.348 HD
ATOM     15  C   UNL     1       2.106   0.132   0.290  1.00  0.00     0.062 C 
ATOM     16  C   UNL     1       2.435  -1.304   0.550  1.00  0.00     0.015 C 
BRANCH  11  17
ATOM     17  C   UNL     1       2.882   0.446  -2.824  1.00  0.00     0.194 C 
ATOM     18  C   UNL     1      -0.127   1.654  -1.497  1.00  0.00     0.012 C 
ATOM     19  C   UNL     1       0.221   1.063  -2.876  1.00  0.00    -0.021 C 
ATOM     20  C   UNL     1      -1.062   0.312  -3.319  1.00  0.00     0.012 C 
ATOM     21  C   UNL     1       0.508   2.206  -3.855  1.00  0.00     0.076 C 
ATOM     22  C   UNL     1       1.386   0.023  -2.913  1.00  0.00     0.073 C 
ATOM     23  S   UNL     1       1.946   3.173  -3.320  1.00  0.00    -0.155 SA
ATOM     24  C   UNL     1       3.212   1.869  -3.361  1.00  0.00     0.134 C 
ENDBRANCH  11  17
ENDBRANCH   9  10
ENDBRANCH   8   9
ENDBRANCH   5   8
ENDBRANCH   3   4
ENDBRANCH   2   3
ENDBRANCH   1   2
BRANCH   1  25
ATOM     25  C   UNL     1      -1.893   0.012   3.034  1.00  0.00     0.002 C 
BRANCH  25  26
ATOM     26  C   UNL     1      -1.778   1.094   1.943  1.00  0.00     0.021 C 
BRANCH  26  27
ATOM     27  C   UNL     1      -2.813   1.098   0.806  1.00  0.00     0.116 C 
BRANCH  27  28
ATOM     28  N   UNL     1      -4.161   1.407   1.243  1.00  0.00    -0.352 N 
ATOM     29  C   UNL     1      -5.068   2.345   0.806  1.00  0.00     0.251 C 
ATOM     30  H   UNL     1      -4.484   0.846   1.984  1.00  0.00     0.163 HD
ATOM     31  O   UNL     1      -6.112   2.479   1.443  1.00  0.00    -0.269 OA
BRANCH  29  32
ATOM     32  C   UNL     1      -4.854   3.211  -0.390  1.00  0.00     0.039 A 
ATOM     33  C   UNL     1      -5.338   4.527  -0.330  1.00  0.00     0.014 A 
ATOM     34  C   UNL     1      -4.333   2.746  -1.601  1.00  0.00     0.014 A 
ATOM     35  C   UNL     1      -5.291   5.365  -1.454  1.00  0.00     0.010 A 
ATOM     36  C   UNL     1      -4.253   3.600  -2.720  1.00  0.00     0.010 A 
ATOM     37  C   UNL     1      -4.746   4.915  -2.666  1.00  0.00    -0.014 A 
BRANCH  37  38
ATOM     38  C   UNL     1      -4.727   5.820  -3.856  1.00  0.00     0.031 A 
ATOM     39  C   UNL     1      -5.620   5.568  -5.046  1.00  0.00     0.074 A 
ATOM     40  C   UNL     1      -3.923   6.902  -3.871  1.00  0.00     0.049 A 
ATOM     41  N   UNL     1      -5.780   6.289  -6.131  1.00  0.00    -0.248 NA
ATOM     42  C   UNL     1      -6.427   4.341  -5.021  1.00  0.00     0.031 C 
ATOM     43  C   UNL     1      -2.980   7.268  -2.814  1.00  0.00     0.029 A 
ATOM     44  N   UNL     1      -3.776   7.900  -4.808  1.00  0.00    -0.354 N 
ATOM     45  C   UNL     1      -6.701   5.605  -6.916  1.00  0.00     0.074 A 
ATOM     46  C   UNL     1      -7.031   4.389  -6.201  1.00  0.00     0.031 C 
ATOM     47  C   UNL     1      -2.371   8.418  -3.148  1.00  0.00     0.029 A 
ATOM     48  C   UNL     1      -2.866   8.865  -4.448  1.00  0.00     0.049 A 
ATOM     49  H   UNL     1      -4.275   7.920  -5.656  1.00  0.00     0.167 HD
ATOM     50  C   UNL     1      -7.239   5.958  -8.110  1.00  0.00     0.037 A 
ATOM     51  C   UNL     1      -2.477   9.989  -5.082  1.00  0.00     0.037 A 
ATOM     52  C   UNL     1      -6.939   7.172  -8.827  1.00  0.00     0.049 A 
ATOM     53  C   UNL     1      -3.094  10.365  -6.401  1.00  0.00     0.074 A 
ATOM     54  C   UNL     1      -7.482   7.628 -10.018  1.00  0.00     0.029 A 
ATOM     55  N   UNL     1      -6.013   8.122  -8.426  1.00  0.00    -0.354 N 
ATOM     56  N   UNL     1      -4.013   9.739  -7.093  1.00  0.00    -0.248 NA
ATOM     57  C   UNL     1      -2.626  11.615  -7.020  1.00  0.00     0.031 C 
ATOM     58  C   UNL     1      -6.860   8.836 -10.355  1.00  0.00     0.029 A 
ATOM     59  C   UNL     1      -5.957   9.152  -9.353  1.00  0.00     0.049 A 
ATOM     60  H   UNL     1      -5.475   8.073  -7.603  1.00  0.00     0.167 HD
ATOM     61  C   UNL     1      -4.249  10.527  -8.213  1.00  0.00     0.074 A 
ATOM     62  C   UNL     1      -3.390  11.686  -8.101  1.00  0.00     0.031 C 
ATOM     63  C   UNL     1      -5.103  10.305  -9.242  1.00  0.00     0.037 A 
BRANCH  50  64
ATOM     64  C   UNL     1      -8.227   5.010  -8.728  1.00  0.00     0.057 A 
ATOM     65  C   UNL     1      -9.524   4.864  -8.218  1.00  0.00     0.134 A 
ATOM     66  C   UNL     1      -7.896   4.272  -9.871  1.00  0.00     0.134 A 
ATOM     67  F   UNL     1      -9.903   5.539  -7.122  1.00  0.00    -0.206 F 
ATOM     68  C   UNL     1     -10.447   3.999  -8.808  1.00  0.00     0.040 A 
ATOM     69  C   UNL     1      -8.818   3.421 -10.484  1.00  0.00     0.040 A 
ATOM     70  F   UNL     1      -6.675   4.375 -10.418  1.00  0.00    -0.206 F 
ATOM     71  C   UNL     1     -10.096   3.278  -9.948  1.00  0.00     0.006 A 
ENDBRANCH  50  64
BRANCH  51  72
ATOM     72  C   UNL     1      -1.461  10.874  -4.460  1.00  0.00     0.057 A 
ATOM     73  C   UNL     1      -1.816  12.117  -3.923  1.00  0.00     0.134 A 
ATOM     74  C   UNL     1      -0.111  10.508  -4.406  1.00  0.00     0.134 A 
ATOM     75  F   UNL     1      -3.090  12.533  -3.970  1.00  0.00    -0.206 F 
ATOM     76  C   UNL     1      -0.863  12.972  -3.367  1.00  0.00     0.040 A 
ATOM     77  C   UNL     1       0.849  11.343  -3.833  1.00  0.00     0.040 A 
ATOM     78  F   UNL     1       0.291   9.331  -4.907  1.00  0.00    -0.206 F 
ATOM     79  C   UNL     1       0.474  12.582  -3.317  1.00  0.00     0.006 A 
ENDBRANCH  51  72
BRANCH  63  80
ATOM     80  C   UNL     1      -5.167  11.351 -10.318  1.00  0.00     0.057 A 
ATOM     81  C   UNL     1      -4.131  11.522 -11.245  1.00  0.00     0.134 A 
ATOM     82  C   UNL     1      -6.283  12.189 -10.436  1.00  0.00     0.134 A 
ATOM     83  F   UNL     1      -3.028  10.760 -11.180  1.00  0.00    -0.206 F 
ATOM     84  C   UNL     1      -4.189  12.507 -12.233  1.00  0.00     0.040 A 
ATOM     85  C   UNL     1      -6.363  13.163 -11.433  1.00  0.00     0.040 A 
ATOM     86  F   UNL     1      -7.314  12.075  -9.585  1.00  0.00    -0.206 F 
ATOM     87  C   UNL     1      -5.311  13.329 -12.331  1.00  0.00     0.006 A 
ENDBRANCH  63  80
ENDBRANCH  37  38
ENDBRANCH  29  32
ENDBRANCH  27  28
ENDBRANCH  26  27
ENDBRANCH  25  26
ENDBRANCH   1  25
TORSDOF 16
