REMARK SMILES CC(C)(C)C[N@H+]1[C@@H](C(=O)NCCCCCCNC(=O)c2ccc(-c3c4nc(c(-c5c(F)cccc5F)c5ccc([nH]5)c(-c5c(F)cccc5F)c5nc(c(-c6c(F)cccc6F)c6ccc3[nH]6)C=C5)C=C4)cc2)CC[C@H]2CCCC[C@@H]21
REMARK SMILES IDX 13 1 12 2 11 3 10 4 8 5 9 6 7 8 6 9 81 10 74 12 76 13 80 14
REMARK SMILES IDX 75 15 77 16 79 17 78 18 5 19 2 20 1 21 3 22 4 23 14 24 15 25
REMARK SMILES IDX 16 26 17 27 18 28 19 30 20 31 21 32 73 33 22 34 72 35 23 36
REMARK SMILES IDX 24 37 25 38 66 39 26 40 71 41 65 42 67 43 27 44 70 45 64 46
REMARK SMILES IDX 63 47 28 49 54 50 37 51 53 52 38 53 41 54 52 55 68 56 39 57
REMARK SMILES IDX 40 58 51 60 69 61 42 62 29 63 30 64 35 65 31 66 32 67 34 68
REMARK SMILES IDX 36 69 33 70 55 71 56 72 61 73 57 74 58 75 60 76 62 77 59 78
REMARK SMILES IDX 43 79 44 80 49 81 45 82 46 83 48 84 50 85 47 86
REMARK H PARENT 10 7 6 11 17 29 67 48 41 59
REMARK Flexibility Score: inf
ROOT
ATOM      1  C   UNL     1      -1.248   2.018   0.402  1.00  0.00     0.002 C 
ENDROOT
BRANCH   1   2
ATOM      2  C   UNL     1      -1.407   0.504   0.593  1.00  0.00     0.021 C 
BRANCH   2   3
ATOM      3  C   UNL     1      -1.056  -0.433  -0.577  1.00  0.00     0.116 C 
BRANCH   3   4
ATOM      4  N   UNL     1       0.316  -0.347  -1.032  1.00  0.00    -0.351 N 
ATOM      5  C   UNL     1       1.357  -1.232  -0.991  1.00  0.00     0.278 C 
ATOM      6  O   UNL     1       2.409  -0.825  -1.502  1.00  0.00    -0.268 OA
ATOM      7  H   UNL     1       0.542   0.514  -1.452  1.00  0.00     0.163 HD
BRANCH   5   8
ATOM      8  C   UNL     1       1.241  -2.686  -0.448  1.00  0.00     0.274 C 
ATOM      9  N   UNL     1       0.843  -2.806   0.995  1.00  0.00    -0.322 N 
ATOM     10  C   UNL     1       0.564  -4.257   1.293  1.00  0.00     0.187 C 
ATOM     11  H   UNL     1       0.019  -2.222   1.136  1.00  0.00     0.349 HD
ATOM     12  C   UNL     1       2.557  -3.472  -0.753  1.00  0.00     0.076 C 
ATOM     13  C   UNL     1       1.339  -5.277   0.414  1.00  0.00     0.048 C 
ATOM     14  C   UNL     1      -0.920  -4.665   1.195  1.00  0.00     0.065 C 
ATOM     15  C   UNL     1       2.720  -4.759   0.069  1.00  0.00     0.016 C 
ATOM     16  C   UNL     1       1.323  -6.636   1.114  1.00  0.00     0.010 C 
ATOM     17  C   UNL     1      -1.105  -6.090   1.760  1.00  0.00     0.006 C 
ATOM     18  C   UNL     1      -0.122  -7.136   1.207  1.00  0.00     0.001 C 
BRANCH   9  19
ATOM     19  C   UNL     1       1.908  -2.319   1.940  1.00  0.00     0.269 C 
BRANCH  19  20
ATOM     20  C   UNL     1       1.576  -1.055   2.790  1.00  0.00     0.011 C 
ATOM     21  C   UNL     1       1.912   0.222   2.002  1.00  0.00     0.017 C 
ATOM     22  C   UNL     1       2.486  -1.016   4.040  1.00  0.00     0.017 C 
ATOM     23  C   UNL     1       0.128  -1.088   3.308  1.00  0.00     0.017 C 
ENDBRANCH  19  20
ENDBRANCH   9  19
ENDBRANCH   5   8
ENDBRANCH   3   4
ENDBRANCH   2   3
ENDBRANCH   1   2
BRANCH   1  24
ATOM     24  C   UNL     1      -2.309   2.868   1.141  1.00  0.00     0.002 C 
BRANCH  24  25
ATOM     25  C   UNL     1      -2.700   2.476   2.578  1.00  0.00     0.021 C 
BRANCH  25  26
ATOM     26  C   UNL     1      -1.633   2.684   3.652  1.00  0.00     0.116 C 
BRANCH  26  27
ATOM     27  N   UNL     1      -1.504   4.080   4.037  1.00  0.00    -0.352 N 
ATOM     28  C   UNL     1      -2.080   4.796   5.060  1.00  0.00     0.251 C 
ATOM     29  H   UNL     1      -0.898   4.605   3.466  1.00  0.00     0.163 HD
ATOM     30  O   UNL     1      -1.995   6.023   5.046  1.00  0.00    -0.269 OA
BRANCH  28  31
ATOM     31  C   UNL     1      -2.809   4.148   6.180  1.00  0.00     0.039 A 
ATOM     32  C   UNL     1      -3.992   4.747   6.634  1.00  0.00     0.014 A 
ATOM     33  C   UNL     1      -2.288   3.055   6.879  1.00  0.00     0.014 A 
ATOM     34  C   UNL     1      -4.665   4.237   7.752  1.00  0.00     0.010 A 
ATOM     35  C   UNL     1      -2.985   2.518   7.972  1.00  0.00     0.010 A 
ATOM     36  C   UNL     1      -4.176   3.107   8.427  1.00  0.00    -0.014 A 
BRANCH  36  37
ATOM     37  C   UNL     1      -4.907   2.549   9.601  1.00  0.00     0.031 A 
ATOM     38  C   UNL     1      -4.326   2.631  10.989  1.00  0.00     0.074 A 
ATOM     39  C   UNL     1      -6.096   1.941   9.421  1.00  0.00     0.049 A 
ATOM     40  N   UNL     1      -4.821   2.192  12.121  1.00  0.00    -0.248 NA
ATOM     41  C   UNL     1      -3.012   3.275  11.120  1.00  0.00     0.031 C 
ATOM     42  C   UNL     1      -6.763   1.758   8.132  1.00  0.00     0.029 A 
ATOM     43  N   UNL     1      -6.954   1.361  10.324  1.00  0.00    -0.354 N 
ATOM     44  C   UNL     1      -3.878   2.497  13.095  1.00  0.00     0.074 A 
ATOM     45  C   UNL     1      -2.764   3.124  12.414  1.00  0.00     0.031 C 
ATOM     46  C   UNL     1      -7.932   1.127   8.328  1.00  0.00     0.029 A 
ATOM     47  C   UNL     1      -8.088   0.839   9.752  1.00  0.00     0.049 A 
ATOM     48  H   UNL     1      -6.772   1.324  11.291  1.00  0.00     0.167 HD
ATOM     49  C   UNL     1      -3.937   2.292  14.434  1.00  0.00     0.037 A 
ATOM     50  C   UNL     1      -9.137   0.202  10.306  1.00  0.00     0.037 A 
ATOM     51  C   UNL     1      -5.050   1.689  15.124  1.00  0.00     0.049 A 
ATOM     52  C   UNL     1      -9.184  -0.005  11.794  1.00  0.00     0.074 A 
ATOM     53  C   UNL     1      -5.216   1.489  16.485  1.00  0.00     0.029 A 
ATOM     54  N   UNL     1      -6.186   1.189  14.508  1.00  0.00    -0.354 N 
ATOM     55  N   UNL     1      -8.310   0.343  12.705  1.00  0.00    -0.248 NA
ATOM     56  C   UNL     1     -10.373  -0.685  12.330  1.00  0.00     0.031 C 
ATOM     57  C   UNL     1      -6.438   0.838  16.689  1.00  0.00     0.029 A 
ATOM     58  C   UNL     1      -7.050   0.667  15.459  1.00  0.00     0.049 A 
ATOM     59  H   UNL     1      -6.355   1.202  13.538  1.00  0.00     0.167 HD
ATOM     60  C   UNL     1      -8.852  -0.052  13.922  1.00  0.00     0.074 A 
ATOM     61  C   UNL     1     -10.137  -0.653  13.634  1.00  0.00     0.031 C 
ATOM     62  C   UNL     1      -8.329   0.073  15.166  1.00  0.00     0.037 A 
BRANCH  49  63
ATOM     63  C   UNL     1      -2.756   2.728  15.253  1.00  0.00     0.057 A 
ATOM     64  C   UNL     1      -2.488   4.082  15.495  1.00  0.00     0.134 A 
ATOM     65  C   UNL     1      -1.904   1.785  15.841  1.00  0.00     0.134 A 
ATOM     66  F   UNL     1      -3.263   5.035  14.956  1.00  0.00    -0.206 F 
ATOM     67  C   UNL     1      -1.400   4.483  16.272  1.00  0.00     0.040 A 
ATOM     68  C   UNL     1      -0.826   2.173  16.640  1.00  0.00     0.040 A 
ATOM     69  F   UNL     1      -2.110   0.472  15.659  1.00  0.00    -0.206 F 
ATOM     70  C   UNL     1      -0.568   3.526  16.852  1.00  0.00     0.006 A 
ENDBRANCH  49  63
BRANCH  50  71
ATOM     71  C   UNL     1     -10.254  -0.265   9.448  1.00  0.00     0.057 A 
ATOM     72  C   UNL     1     -11.498   0.376   9.474  1.00  0.00     0.134 A 
ATOM     73  C   UNL     1     -10.109  -1.363   8.593  1.00  0.00     0.134 A 
ATOM     74  F   UNL     1     -11.703   1.419  10.291  1.00  0.00    -0.206 F 
ATOM     75  C   UNL     1     -12.565  -0.069   8.692  1.00  0.00     0.040 A 
ATOM     76  C   UNL     1     -11.161  -1.805   7.789  1.00  0.00     0.040 A 
ATOM     77  F   UNL     1      -8.940  -2.016   8.521  1.00  0.00    -0.206 F 
ATOM     78  C   UNL     1     -12.396  -1.160   7.842  1.00  0.00     0.006 A 
ENDBRANCH  50  71
BRANCH  62  79
ATOM     79  C   UNL     1      -9.161  -0.424  16.311  1.00  0.00     0.057 A 
ATOM     80  C   UNL     1      -9.337  -1.792  16.558  1.00  0.00     0.134 A 
ATOM     81  C   UNL     1      -9.783   0.476  17.186  1.00  0.00     0.134 A 
ATOM     82  F   UNL     1      -8.780  -2.705  15.748  1.00  0.00    -0.206 F 
ATOM     83  C   UNL     1     -10.122  -2.246  17.619  1.00  0.00     0.040 A 
ATOM     84  C   UNL     1     -10.551   0.034  18.264  1.00  0.00     0.040 A 
ATOM     85  F   UNL     1      -9.650   1.799  17.009  1.00  0.00    -0.206 F 
ATOM     86  C   UNL     1     -10.729  -1.332  18.478  1.00  0.00     0.006 A 
ENDBRANCH  62  79
ENDBRANCH  36  37
ENDBRANCH  28  31
ENDBRANCH  26  27
ENDBRANCH  25  26
ENDBRANCH  24  25
ENDBRANCH   1  24
TORSDOF 15
