REMARK SMILES COc1cc2cc(C(=O)NCCCCCCNC(=O)c3ccc(-c4c5nc(c(-c6c(F)cccc6F)c6ccc([nH]6)c(-c6c(F)cccc6F)c6nc(c(-c7c(F)cccc7F)c7ccc4[nH]7)C=C6)C=C5)cc3)n(Cc3ccccc3)c2c(OC)c1OC
REMARK SMILES IDX 13 1 12 2 11 3 10 4 8 5 9 6 7 8 3 9 4 10 86 11 5 12 83 13
REMARK SMILES IDX 6 14 82 15 74 16 2 17 1 18 87 19 88 20 84 21 85 22 75 23
REMARK SMILES IDX 76 24 77 25 81 26 78 27 80 28 79 29 14 30 15 31 16 32 17 33
REMARK SMILES IDX 18 34 19 36 20 37 21 38 73 39 22 40 72 41 23 42 24 43 25 44
REMARK SMILES IDX 66 45 26 46 71 47 65 48 67 49 27 50 70 51 64 52 63 53 28 55
REMARK SMILES IDX 54 56 37 57 53 58 38 59 41 60 52 61 68 62 39 63 40 64 51 66
REMARK SMILES IDX 69 67 42 68 29 69 30 70 35 71 31 72 32 73 34 74 36 75 33 76
REMARK SMILES IDX 55 77 56 78 61 79 57 80 58 81 60 82 62 83 59 84 43 85 44 86
REMARK SMILES IDX 49 87 45 88 46 89 48 90 50 91 47 92
REMARK H PARENT 10 7 17 35 67 54 41 65
REMARK Flexibility Score: inf
ROOT
ATOM      1  C   UNL     1       2.809   3.940 -10.830  1.00  0.00     0.002 C 
ENDROOT
BRANCH   1   2
ATOM      2  C   UNL     1       2.836   3.307  -9.437  1.00  0.00     0.021 C 
BRANCH   2   3
ATOM      3  C   UNL     1       1.982   4.005  -8.378  1.00  0.00     0.116 C 
BRANCH   3   4
ATOM      4  N   UNL     1       0.654   3.436  -8.377  1.00  0.00    -0.351 N 
ATOM      5  C   UNL     1      -0.014   2.548  -7.588  1.00  0.00     0.267 C 
ATOM      6  O   UNL     1      -1.167   2.314  -7.984  1.00  0.00    -0.268 OA
ATOM      7  H   UNL     1       0.102   3.766  -9.122  1.00  0.00     0.163 HD
BRANCH   5   8
ATOM      8  C   UNL     1       0.466   1.950  -6.348  1.00  0.00     0.108 A 
ATOM      9  C   UNL     1       0.809   0.176  -2.060  1.00  0.00     0.165 A 
ATOM     10  C   UNL     1      -0.152   0.438  -3.040  1.00  0.00     0.061 A 
ATOM     11  C   UNL     1       2.169   0.457  -2.272  1.00  0.00     0.205 A 
ATOM     12  C   UNL     1       0.257   0.995  -4.261  1.00  0.00     0.008 A 
ATOM     13  C   UNL     1       2.596   1.035  -3.492  1.00  0.00     0.189 A 
ATOM     14  C   UNL     1      -0.435   1.473  -5.392  1.00  0.00     0.042 A 
ATOM     15  C   UNL     1       1.607   1.218  -4.501  1.00  0.00     0.096 A 
ATOM     16  N   UNL     1       1.707   1.534  -5.871  1.00  0.00    -0.329 N 
BRANCH   9  17
ATOM     17  O   UNL     1       0.357  -0.397  -0.896  1.00  0.00    -0.493 OA
ATOM     18  C   UNL     1       0.149   0.600   0.104  1.00  0.00     0.278 C 
ENDBRANCH   9  17
BRANCH  11  19
ATOM     19  O   UNL     1       3.091   0.263  -1.269  1.00  0.00    -0.490 OA
ATOM     20  C   UNL     1       3.095  -1.054  -0.717  1.00  0.00     0.278 C 
ENDBRANCH  11  19
BRANCH  13  21
ATOM     21  O   UNL     1       3.852   1.484  -3.796  1.00  0.00    -0.491 OA
ATOM     22  C   UNL     1       4.950   1.102  -2.985  1.00  0.00     0.278 C 
ENDBRANCH  13  21
BRANCH  16  23
ATOM     23  C   UNL     1       2.962   1.304  -6.591  1.00  0.00     0.158 C 
BRANCH  23  24
ATOM     24  C   UNL     1       2.984   0.430  -7.826  1.00  0.00    -0.028 A 
ATOM     25  C   UNL     1       1.870  -0.100  -8.485  1.00  0.00     0.005 A 
ATOM     26  C   UNL     1       4.260   0.172  -8.377  1.00  0.00     0.005 A 
ATOM     27  C   UNL     1       2.019  -0.781  -9.698  1.00  0.00     0.000 A 
ATOM     28  C   UNL     1       4.410  -0.532  -9.570  1.00  0.00     0.000 A 
ATOM     29  C   UNL     1       3.284  -0.990 -10.243  1.00  0.00     0.000 A 
ENDBRANCH  23  24
ENDBRANCH  16  23
ENDBRANCH   5   8
ENDBRANCH   3   4
ENDBRANCH   2   3
ENDBRANCH   1   2
BRANCH   1  30
ATOM     30  C   UNL     1       3.681   5.183 -10.989  1.00  0.00     0.002 C 
BRANCH  30  31
ATOM     31  C   UNL     1       5.138   5.029 -10.542  1.00  0.00     0.021 C 
BRANCH  31  32
ATOM     32  C   UNL     1       5.881   3.813 -11.105  1.00  0.00     0.116 C 
BRANCH  32  33
ATOM     33  N   UNL     1       6.012   3.776 -12.549  1.00  0.00    -0.352 N 
ATOM     34  C   UNL     1       6.768   4.466 -13.456  1.00  0.00     0.251 C 
ATOM     35  H   UNL     1       5.426   3.106 -12.969  1.00  0.00     0.163 HD
ATOM     36  O   UNL     1       6.704   4.098 -14.633  1.00  0.00    -0.269 OA
BRANCH  34  37
ATOM     37  C   UNL     1       7.593   5.657 -13.126  1.00  0.00     0.039 A 
ATOM     38  C   UNL     1       8.041   5.988 -11.848  1.00  0.00     0.014 A 
ATOM     39  C   UNL     1       7.917   6.514 -14.191  1.00  0.00     0.014 A 
ATOM     40  C   UNL     1       8.659   7.211 -11.610  1.00  0.00     0.010 A 
ATOM     41  C   UNL     1       8.593   7.712 -13.968  1.00  0.00     0.010 A 
ATOM     42  C   UNL     1       8.911   8.091 -12.665  1.00  0.00    -0.014 A 
BRANCH  42  43
ATOM     43  C   UNL     1       9.553   9.365 -12.338  1.00  0.00     0.031 A 
ATOM     44  C   UNL     1      10.856   9.303 -11.608  1.00  0.00     0.074 A 
ATOM     45  C   UNL     1       9.089  10.566 -12.736  1.00  0.00     0.049 A 
ATOM     46  N   UNL     1      11.168   9.846 -10.473  1.00  0.00    -0.248 NA
ATOM     47  C   UNL     1      11.935   8.506 -12.207  1.00  0.00     0.031 C 
ATOM     48  C   UNL     1       7.998  10.855 -13.668  1.00  0.00     0.029 A 
ATOM     49  N   UNL     1       9.592  11.802 -12.448  1.00  0.00    -0.354 N 
ATOM     50  C   UNL     1      12.524   9.590 -10.277  1.00  0.00     0.074 A 
ATOM     51  C   UNL     1      12.926   8.695 -11.334  1.00  0.00     0.031 C 
ATOM     52  C   UNL     1       8.070  12.152 -14.039  1.00  0.00     0.029 A 
ATOM     53  C   UNL     1       9.124  12.804 -13.280  1.00  0.00     0.049 A 
ATOM     54  H   UNL     1      10.229  11.965 -11.716  1.00  0.00     0.167 HD
ATOM     55  C   UNL     1      13.270  10.245  -9.343  1.00  0.00     0.037 A 
ATOM     56  C   UNL     1       9.609  14.063 -13.391  1.00  0.00     0.037 A 
ATOM     57  C   UNL     1      12.462  10.883  -8.342  1.00  0.00     0.049 A 
ATOM     58  C   UNL     1      10.376  14.377 -12.162  1.00  0.00     0.074 A 
ATOM     59  C   UNL     1      11.530  10.454  -7.416  1.00  0.00     0.029 A 
ATOM     60  N   UNL     1      12.358  12.251  -8.351  1.00  0.00    -0.354 N 
ATOM     61  N   UNL     1       9.839  14.597 -10.995  1.00  0.00    -0.248 NA
ATOM     62  C   UNL     1      11.801  14.082 -12.145  1.00  0.00     0.031 C 
ATOM     63  C   UNL     1      10.596  11.526  -7.305  1.00  0.00     0.029 A 
ATOM     64  C   UNL     1      11.030  12.532  -8.166  1.00  0.00     0.049 A 
ATOM     65  H   UNL     1      13.090  12.899  -8.466  1.00  0.00     0.167 HD
ATOM     66  C   UNL     1      10.739  14.064 -10.085  1.00  0.00     0.074 A 
ATOM     67  C   UNL     1      11.974  13.873 -10.838  1.00  0.00     0.031 C 
ATOM     68  C   UNL     1      10.324  13.563  -8.884  1.00  0.00     0.037 A 
BRANCH  55  69
ATOM     69  C   UNL     1      14.739  10.549  -9.482  1.00  0.00     0.057 A 
ATOM     70  C   UNL     1      15.384  10.698 -10.726  1.00  0.00     0.134 A 
ATOM     71  C   UNL     1      15.472  10.998  -8.367  1.00  0.00     0.134 A 
ATOM     72  F   UNL     1      14.773  10.399 -11.880  1.00  0.00    -0.206 F 
ATOM     73  C   UNL     1      16.657  11.261 -10.853  1.00  0.00     0.040 A 
ATOM     74  C   UNL     1      16.726  11.609  -8.489  1.00  0.00     0.040 A 
ATOM     75  F   UNL     1      14.955  10.930  -7.131  1.00  0.00    -0.206 F 
ATOM     76  C   UNL     1      17.320  11.747  -9.736  1.00  0.00     0.006 A 
ENDBRANCH  55  69
BRANCH  56  77
ATOM     77  C   UNL     1       9.600  14.940 -14.580  1.00  0.00     0.057 A 
ATOM     78  C   UNL     1       9.623  14.411 -15.884  1.00  0.00     0.134 A 
ATOM     79  C   UNL     1       9.790  16.323 -14.475  1.00  0.00     0.134 A 
ATOM     80  F   UNL     1       9.556  13.090 -16.101  1.00  0.00    -0.206 F 
ATOM     81  C   UNL     1       9.800  15.211 -17.017  1.00  0.00     0.040 A 
ATOM     82  C   UNL     1       9.985  17.134 -15.600  1.00  0.00     0.040 A 
ATOM     83  F   UNL     1       9.843  16.915 -13.273  1.00  0.00    -0.206 F 
ATOM     84  C   UNL     1       9.990  16.578 -16.876  1.00  0.00     0.006 A 
ENDBRANCH  56  77
BRANCH  68  85
ATOM     85  C   UNL     1       8.916  13.849  -8.452  1.00  0.00     0.057 A 
ATOM     86  C   UNL     1       8.692  14.465  -7.216  1.00  0.00     0.134 A 
ATOM     87  C   UNL     1       7.788  13.399  -9.154  1.00  0.00     0.134 A 
ATOM     88  F   UNL     1       9.726  14.858  -6.456  1.00  0.00    -0.206 F 
ATOM     89  C   UNL     1       7.402  14.650  -6.710  1.00  0.00     0.040 A 
ATOM     90  C   UNL     1       6.493  13.608  -8.676  1.00  0.00     0.040 A 
ATOM     91  F   UNL     1       7.913  12.696 -10.287  1.00  0.00    -0.206 F 
ATOM     92  C   UNL     1       6.297  14.233  -7.448  1.00  0.00     0.006 A 
ENDBRANCH  68  85
ENDBRANCH  42  43
ENDBRANCH  34  37
ENDBRANCH  32  33
ENDBRANCH  31  32
ENDBRANCH  30  31
ENDBRANCH   1  30
TORSDOF 18
