REMARK SMILES C[C@@H](C(=O)NCCCCCCNC(=O)c1ccc(-c2c3nc(c(-c4c(F)cccc4F)c4ccc([nH]4)c(-c4c(F)cccc4F)c4nc(c(-c5c(F)cccc5F)c5ccc2[nH]5)C=C4)C=C3)cc1)c1ccc(C[C@H]2CCC[C@@H]2O)cc1F
REMARK SMILES IDX 7 1 6 2 5 3 3 4 4 5 2 7 1 8 69 9 70 10 81 11 71 12 80 13
REMARK SMILES IDX 82 14 72 15 73 16 74 17 75 18 78 19 76 20 77 21 79 22 8 24
REMARK SMILES IDX 9 25 10 26 11 27 12 28 13 29 14 31 15 32 16 33 68 34 17 35
REMARK SMILES IDX 67 36 18 37 19 38 20 39 61 40 21 41 66 42 60 43 62 44 22 45
REMARK SMILES IDX 65 46 59 47 58 48 23 50 49 51 32 52 48 53 33 54 36 55 47 56
REMARK SMILES IDX 63 57 34 58 35 59 46 61 64 62 37 63 24 64 25 65 30 66 26 67
REMARK SMILES IDX 27 68 29 69 31 70 28 71 50 72 51 73 56 74 52 75 53 76 55 77
REMARK SMILES IDX 57 78 54 79 38 80 39 81 44 82 40 83 41 84 43 85 45 86 42 87
REMARK H PARENT 5 6 79 23 12 30 62 49 36 60
REMARK Flexibility Score: inf
ROOT
ATOM      1  C   UNL     1       4.347  -1.213   1.002  1.00  0.00     0.021 C 
ENDROOT
BRANCH   1   2
ATOM      2  C   UNL     1       3.472  -2.041   0.054  1.00  0.00     0.116 C 
BRANCH   2   3
ATOM      3  N   UNL     1       2.336  -2.575   0.777  1.00  0.00    -0.356 N 
ATOM      4  C   UNL     1       1.065  -2.078   0.857  1.00  0.00     0.227 C 
ATOM      5  O   UNL     1       0.401  -2.386   1.848  1.00  0.00    -0.274 OA
ATOM      6  H   UNL     1       2.501  -3.407   1.277  1.00  0.00     0.163 HD
BRANCH   4   7
ATOM      7  C   UNL     1       0.542  -1.160  -0.266  1.00  0.00     0.108 C 
ATOM      8  C   UNL     1       1.028   0.267   0.041  1.00  0.00     0.023 C 
BRANCH   7   9
ATOM      9  C   UNL     1      -0.975  -1.243  -0.440  1.00  0.00    -0.000 A 
ATOM     10  C   UNL     1      -1.757  -0.112  -0.717  1.00  0.00     0.008 A 
ATOM     11  C   UNL     1      -1.646  -2.468  -0.319  1.00  0.00     0.127 A 
ATOM     12  C   UNL     1      -3.150  -0.181  -0.702  1.00  0.00     0.004 A 
ATOM     13  C   UNL     1      -3.037  -2.535  -0.251  1.00  0.00     0.043 A 
ATOM     14  F   UNL     1      -0.953  -3.612  -0.230  1.00  0.00    -0.207 F 
ATOM     15  C   UNL     1      -3.800  -1.371  -0.369  1.00  0.00    -0.045 A 
BRANCH  15  16
ATOM     16  C   UNL     1      -5.282  -1.373  -0.083  1.00  0.00     0.041 C 
BRANCH  16  17
ATOM     17  C   UNL     1      -5.686  -0.807   1.294  1.00  0.00     0.022 C 
ATOM     18  C   UNL     1      -5.119  -1.545   2.519  1.00  0.00     0.007 C 
ATOM     19  C   UNL     1      -5.334   0.660   1.559  1.00  0.00     0.117 C 
ATOM     20  C   UNL     1      -4.932  -0.479   3.607  1.00  0.00     0.003 C 
ATOM     21  C   UNL     1      -5.563   0.791   3.057  1.00  0.00     0.032 C 
BRANCH  19  22
ATOM     22  O   UNL     1      -6.162   1.533   0.816  1.00  0.00    -0.393 OA
ATOM     23  H   UNL     1      -7.092   1.356   1.030  1.00  0.00     0.210 HD
ENDBRANCH  19  22
ENDBRANCH  16  17
ENDBRANCH  15  16
ENDBRANCH   7   9
ENDBRANCH   4   7
ENDBRANCH   2   3
ENDBRANCH   1   2
BRANCH   1  24
ATOM     24  C   UNL     1       5.070  -2.046   2.070  1.00  0.00     0.002 C 
BRANCH  24  25
ATOM     25  C   UNL     1       6.033  -3.102   1.521  1.00  0.00     0.002 C 
BRANCH  25  26
ATOM     26  C   UNL     1       7.085  -2.566   0.549  1.00  0.00     0.021 C 
BRANCH  26  27
ATOM     27  C   UNL     1       7.985  -1.484   1.134  1.00  0.00     0.116 C 
BRANCH  27  28
ATOM     28  N   UNL     1       8.850  -2.001   2.184  1.00  0.00    -0.352 N 
ATOM     29  C   UNL     1      10.212  -1.881   2.304  1.00  0.00     0.251 C 
ATOM     30  H   UNL     1       8.399  -2.502   2.902  1.00  0.00     0.163 HD
ATOM     31  O   UNL     1      10.831  -2.522   3.147  1.00  0.00    -0.269 OA
BRANCH  29  32
ATOM     32  C   UNL     1      10.931  -0.976   1.387  1.00  0.00     0.039 A 
ATOM     33  C   UNL     1      12.044  -1.451   0.688  1.00  0.00     0.014 A 
ATOM     34  C   UNL     1      10.477   0.332   1.199  1.00  0.00     0.014 A 
ATOM     35  C   UNL     1      12.670  -0.628  -0.251  1.00  0.00     0.010 A 
ATOM     36  C   UNL     1      11.060   1.125   0.219  1.00  0.00     0.010 A 
ATOM     37  C   UNL     1      12.163   0.654  -0.513  1.00  0.00    -0.014 A 
BRANCH  37  38
ATOM     38  C   UNL     1      12.768   1.548  -1.530  1.00  0.00     0.031 A 
ATOM     39  C   UNL     1      13.379   2.849  -1.096  1.00  0.00     0.074 A 
ATOM     40  C   UNL     1      12.658   1.253  -2.838  1.00  0.00     0.049 A 
ATOM     41  N   UNL     1      13.781   3.859  -1.821  1.00  0.00    -0.248 NA
ATOM     42  C   UNL     1      13.516   3.053   0.355  1.00  0.00     0.031 C 
ATOM     43  C   UNL     1      12.052   0.039  -3.386  1.00  0.00     0.029 A 
ATOM     44  N   UNL     1      13.022   1.975  -3.947  1.00  0.00    -0.354 N 
ATOM     45  C   UNL     1      14.182   4.833  -0.916  1.00  0.00     0.074 A 
ATOM     46  C   UNL     1      13.938   4.306   0.409  1.00  0.00     0.031 C 
ATOM     47  C   UNL     1      12.080   0.103  -4.727  1.00  0.00     0.029 A 
ATOM     48  C   UNL     1      12.665   1.378  -5.131  1.00  0.00     0.049 A 
ATOM     49  H   UNL     1      13.493   2.838  -3.898  1.00  0.00     0.167 HD
ATOM     50  C   UNL     1      14.717   6.051  -1.168  1.00  0.00     0.037 A 
ATOM     51  C   UNL     1      12.774   1.819  -6.399  1.00  0.00     0.037 A 
ATOM     52  C   UNL     1      14.989   6.552  -2.489  1.00  0.00     0.049 A 
ATOM     53  C   UNL     1      13.386   3.167  -6.661  1.00  0.00     0.074 A 
ATOM     54  C   UNL     1      15.599   7.740  -2.851  1.00  0.00     0.029 A 
ATOM     55  N   UNL     1      14.667   5.890  -3.664  1.00  0.00    -0.354 N 
ATOM     56  N   UNL     1      13.815   4.057  -5.800  1.00  0.00    -0.248 NA
ATOM     57  C   UNL     1      13.532   3.571  -8.066  1.00  0.00     0.031 C 
ATOM     58  C   UNL     1      15.609   7.815  -4.248  1.00  0.00     0.029 A 
ATOM     59  C   UNL     1      15.047   6.653  -4.755  1.00  0.00     0.049 A 
ATOM     60  H   UNL     1      14.232   5.009  -3.716  1.00  0.00     0.167 HD
ATOM     61  C   UNL     1      14.309   5.112  -6.556  1.00  0.00     0.074 A 
ATOM     62  C   UNL     1      14.124   4.752  -7.947  1.00  0.00     0.031 C 
ATOM     63  C   UNL     1      14.869   6.272  -6.133  1.00  0.00     0.037 A 
BRANCH  50  64
ATOM     64  C   UNL     1      15.026   6.922   0.014  1.00  0.00     0.057 A 
ATOM     65  C   UNL     1      16.059   6.618   0.911  1.00  0.00     0.134 A 
ATOM     66  C   UNL     1      14.277   8.079   0.260  1.00  0.00     0.134 A 
ATOM     67  F   UNL     1      16.806   5.517   0.740  1.00  0.00    -0.206 F 
ATOM     68  C   UNL     1      16.307   7.410   2.033  1.00  0.00     0.040 A 
ATOM     69  C   UNL     1      14.536   8.895   1.363  1.00  0.00     0.040 A 
ATOM     70  F   UNL     1      13.278   8.433  -0.562  1.00  0.00    -0.206 F 
ATOM     71  C   UNL     1      15.546   8.555   2.259  1.00  0.00     0.006 A 
ENDBRANCH  50  64
BRANCH  51  72
ATOM     72  C   UNL     1      12.299   0.962  -7.512  1.00  0.00     0.057 A 
ATOM     73  C   UNL     1      13.205   0.296  -8.345  1.00  0.00     0.134 A 
ATOM     74  C   UNL     1      10.934   0.754  -7.743  1.00  0.00     0.134 A 
ATOM     75  F   UNL     1      14.524   0.469  -8.181  1.00  0.00    -0.206 F 
ATOM     76  C   UNL     1      12.771  -0.543  -9.372  1.00  0.00     0.040 A 
ATOM     77  C   UNL     1      10.486  -0.099  -8.754  1.00  0.00     0.040 A 
ATOM     78  F   UNL     1      10.017   1.356  -6.972  1.00  0.00    -0.206 F 
ATOM     79  C   UNL     1      11.407  -0.749  -9.573  1.00  0.00     0.006 A 
ENDBRANCH  51  72
BRANCH  63  80
ATOM     80  C   UNL     1      15.367   7.224  -7.179  1.00  0.00     0.057 A 
ATOM     81  C   UNL     1      14.495   8.028  -7.922  1.00  0.00     0.134 A 
ATOM     82  C   UNL     1      16.742   7.396  -7.382  1.00  0.00     0.134 A 
ATOM     83  F   UNL     1      13.167   7.902  -7.781  1.00  0.00    -0.206 F 
ATOM     84  C   UNL     1      14.975   8.970  -8.834  1.00  0.00     0.040 A 
ATOM     85  C   UNL     1      17.234   8.349  -8.274  1.00  0.00     0.040 A 
ATOM     86  F   UNL     1      17.629   6.660  -6.694  1.00  0.00    -0.206 F 
ATOM     87  C   UNL     1      16.348   9.139  -9.003  1.00  0.00     0.006 A 
ENDBRANCH  63  80
ENDBRANCH  37  38
ENDBRANCH  29  32
ENDBRANCH  27  28
ENDBRANCH  26  27
ENDBRANCH  25  26
ENDBRANCH  24  25
ENDBRANCH   1  24
TORSDOF 17
