REMARK SMILES COc1ccc(C[NH2+]Cc2cccn2-c2sc(C)c(C)c2C(=O)NCCCCCCNC(=O)c2ccc(-c3c4nc(c(-c5c(F)cccc5F)c5ccc([nH]5)c(-c5c(F)cccc5F)c5nc(c(-c6c(F)cccc6F)c6ccc3[nH]6)C=C5)C=C4)cc2)cc1
REMARK SMILES IDX 25 1 24 2 22 3 23 4 21 6 15 7 16 8 17 9 19 10 18 11 20 12
REMARK SMILES IDX 14 13 10 14 11 15 12 16 13 17 9 18 8 19 7 22 6 23 3 24 4 25
REMARK SMILES IDX 89 26 5 27 88 28 2 29 1 30 26 31 27 32 28 33 29 34 30 35
REMARK SMILES IDX 31 36 32 37 33 39 34 40 35 41 87 42 36 43 86 44 37 45 38 46
REMARK SMILES IDX 39 47 80 48 40 49 85 50 79 51 81 52 41 53 84 54 78 55 77 56
REMARK SMILES IDX 42 58 68 59 51 60 67 61 52 62 55 63 66 64 82 65 53 66 54 67
REMARK SMILES IDX 65 69 83 70 56 71 43 72 44 73 49 74 45 75 46 76 48 77 50 78
REMARK SMILES IDX 47 79 69 80 70 81 75 82 71 83 72 84 74 85 76 86 73 87 57 88
REMARK SMILES IDX 58 89 63 90 59 91 60 92 62 93 64 94 61 95
REMARK H PARENT 24 5 8 20 8 21 31 38 81 57 55 68
REMARK Flexibility Score: inf
ROOT
ATOM      1  C   UNL     1       5.110  -5.958  -5.100  1.00  0.00     0.116 C 
ENDROOT
BRANCH   1   2
ATOM      2  N   UNL     1       5.657  -7.225  -4.738  1.00  0.00    -0.352 N 
ATOM      3  C   UNL     1       5.434  -8.474  -5.282  1.00  0.00     0.254 C 
ATOM      4  O   UNL     1       6.212  -9.337  -4.867  1.00  0.00    -0.269 OA
ATOM      5  H   UNL     1       6.290  -7.206  -3.984  1.00  0.00     0.163 HD
BRANCH   3   6
ATOM      6  C   UNL     1       4.332  -8.846  -6.226  1.00  0.00     0.078 A 
ATOM      7  C   UNL     1       3.563  -8.097  -7.112  1.00  0.00     0.113 A 
ATOM      8  S   UNL     1       2.414  -8.984  -7.998  1.00  0.00    -0.122 S 
ATOM      9  C   UNL     1       2.871 -10.443  -7.272  1.00  0.00     0.007 A 
ATOM     10  C   UNL     1       3.873 -10.261  -6.329  1.00  0.00    -0.022 A 
ATOM     11  C   UNL     1       2.200 -11.712  -7.696  1.00  0.00     0.057 C 
ATOM     12  C   UNL     1       4.431 -11.396  -5.512  1.00  0.00     0.046 C 
BRANCH   7  13
ATOM     13  N   UNL     1       3.676  -6.781  -7.566  1.00  0.00    -0.306 N 
ATOM     14  C   UNL     1       2.753  -5.728  -7.433  1.00  0.00     0.078 A 
ATOM     15  C   UNL     1       3.303  -4.619  -8.062  1.00  0.00     0.029 A 
ATOM     16  C   UNL     1       4.571  -4.973  -8.567  1.00  0.00     0.020 A 
ATOM     17  C   UNL     1       4.778  -6.294  -8.250  1.00  0.00     0.092 A 
BRANCH  14  18
ATOM     18  C   UNL     1       1.426  -5.838  -6.726  1.00  0.00     0.316 C 
BRANCH  18  19
ATOM     19  N   UNL     1       1.394  -5.277  -5.371  1.00  0.00    -0.338 N 
ATOM     20  H   UNL     1       0.567  -5.641  -4.899  1.00  0.00     0.346 HD
ATOM     21  H   UNL     1       2.270  -5.554  -4.929  1.00  0.00     0.346 HD
BRANCH  19  22
ATOM     22  C   UNL     1       1.348  -3.824  -5.305  1.00  0.00     0.297 C 
BRANCH  22  23
ATOM     23  C   UNL     1       1.083  -3.312  -3.899  1.00  0.00     0.006 A 
ATOM     24  C   UNL     1       0.584  -2.144  -1.369  1.00  0.00     0.118 A 
ATOM     25  C   UNL     1      -0.459  -2.684  -2.121  1.00  0.00     0.047 A 
ATOM     26  C   UNL     1       1.885  -2.266  -1.834  1.00  0.00     0.047 A 
ATOM     27  C   UNL     1      -0.214  -3.262  -3.376  1.00  0.00     0.013 A 
ATOM     28  C   UNL     1       2.123  -2.838  -3.089  1.00  0.00     0.013 A 
BRANCH  24  29
ATOM     29  O   UNL     1       0.248  -1.550  -0.184  1.00  0.00    -0.497 OA
ATOM     30  C   UNL     1       0.988  -0.365   0.112  1.00  0.00     0.278 C 
ENDBRANCH  24  29
ENDBRANCH  22  23
ENDBRANCH  19  22
ENDBRANCH  18  19
ENDBRANCH  14  18
ENDBRANCH   7  13
ENDBRANCH   3   6
ENDBRANCH   1   2
BRANCH   1  31
ATOM     31  C   UNL     1       4.959  -4.888  -4.040  1.00  0.00     0.021 C 
BRANCH  31  32
ATOM     32  C   UNL     1       6.178  -4.071  -3.634  1.00  0.00     0.002 C 
BRANCH  32  33
ATOM     33  C   UNL     1       6.965  -3.381  -4.756  1.00  0.00     0.002 C 
BRANCH  33  34
ATOM     34  C   UNL     1       6.187  -2.525  -5.771  1.00  0.00     0.021 C 
BRANCH  34  35
ATOM     35  C   UNL     1       5.355  -1.367  -5.206  1.00  0.00     0.116 C 
BRANCH  35  36
ATOM     36  N   UNL     1       6.168  -0.361  -4.551  1.00  0.00    -0.352 N 
ATOM     37  C   UNL     1       5.872   0.908  -4.111  1.00  0.00     0.251 C 
ATOM     38  H   UNL     1       7.100  -0.636  -4.392  1.00  0.00     0.163 HD
ATOM     39  O   UNL     1       6.808   1.663  -3.869  1.00  0.00    -0.269 OA
BRANCH  37  40
ATOM     40  C   UNL     1       4.486   1.409  -3.903  1.00  0.00     0.039 A 
ATOM     41  C   UNL     1       4.261   2.788  -4.038  1.00  0.00     0.014 A 
ATOM     42  C   UNL     1       3.439   0.600  -3.462  1.00  0.00     0.014 A 
ATOM     43  C   UNL     1       3.003   3.337  -3.772  1.00  0.00     0.010 A 
ATOM     44  C   UNL     1       2.173   1.140  -3.209  1.00  0.00     0.010 A 
ATOM     45  C   UNL     1       1.947   2.510  -3.373  1.00  0.00    -0.014 A 
BRANCH  45  46
ATOM     46  C   UNL     1       0.561   3.054  -3.426  1.00  0.00     0.031 A 
ATOM     47  C   UNL     1       0.035   3.014  -4.884  1.00  0.00     0.074 A 
ATOM     48  C   UNL     1      -0.009   3.538  -2.274  1.00  0.00     0.049 A 
ATOM     49  N   UNL     1      -0.787   3.808  -5.497  1.00  0.00    -0.248 NA
ATOM     50  C   UNL     1       0.575   1.993  -5.830  1.00  0.00     0.031 C 
ATOM     51  C   UNL     1       0.604   3.446  -0.930  1.00  0.00     0.029 A 
ATOM     52  N   UNL     1      -1.196   4.196  -1.975  1.00  0.00    -0.354 N 
ATOM     53  C   UNL     1      -1.017   3.281  -6.792  1.00  0.00     0.074 A 
ATOM     54  C   UNL     1      -0.051   2.247  -6.981  1.00  0.00     0.031 C 
ATOM     55  C   UNL     1      -0.154   4.074   0.000  1.00  0.00     0.029 A 
ATOM     56  C   UNL     1      -1.336   4.641  -0.624  1.00  0.00     0.049 A 
ATOM     57  H   UNL     1      -1.895   4.347  -2.651  1.00  0.00     0.167 HD
ATOM     58  C   UNL     1      -2.093   3.631  -7.559  1.00  0.00     0.037 A 
ATOM     59  C   UNL     1      -2.301   5.443  -0.055  1.00  0.00     0.037 A 
ATOM     60  C   UNL     1      -2.851   4.622  -6.877  1.00  0.00     0.049 A 
ATOM     61  C   UNL     1      -3.302   5.640  -1.106  1.00  0.00     0.074 A 
ATOM     62  C   UNL     1      -2.590   5.930  -6.570  1.00  0.00     0.029 A 
ATOM     63  N   UNL     1      -3.872   4.157  -6.085  1.00  0.00    -0.354 N 
ATOM     64  N   UNL     1      -4.186   4.757  -1.459  1.00  0.00    -0.248 NA
ATOM     65  C   UNL     1      -3.277   6.892  -1.874  1.00  0.00     0.031 C 
ATOM     66  C   UNL     1      -3.104   6.049  -5.266  1.00  0.00     0.029 A 
ATOM     67  C   UNL     1      -3.882   4.926  -4.955  1.00  0.00     0.049 A 
ATOM     68  H   UNL     1      -4.481   3.412  -6.292  1.00  0.00     0.167 HD
ATOM     69  C   UNL     1      -4.553   5.215  -2.699  1.00  0.00     0.074 A 
ATOM     70  C   UNL     1      -4.266   6.633  -2.724  1.00  0.00     0.031 C 
ATOM     71  C   UNL     1      -4.467   4.373  -3.759  1.00  0.00     0.037 A 
BRANCH  58  72
ATOM     72  C   UNL     1      -2.752   2.998  -8.758  1.00  0.00     0.057 A 
ATOM     73  C   UNL     1      -3.747   3.744  -9.439  1.00  0.00     0.134 A 
ATOM     74  C   UNL     1      -2.741   1.626  -9.023  1.00  0.00     0.134 A 
ATOM     75  F   UNL     1      -3.820   5.080  -9.314  1.00  0.00    -0.206 F 
ATOM     76  C   UNL     1      -4.761   3.145 -10.189  1.00  0.00     0.040 A 
ATOM     77  C   UNL     1      -3.725   1.021  -9.819  1.00  0.00     0.040 A 
ATOM     78  F   UNL     1      -1.849   0.807  -8.453  1.00  0.00    -0.206 F 
ATOM     79  C   UNL     1      -4.765   1.770 -10.361  1.00  0.00     0.006 A 
ENDBRANCH  58  72
BRANCH  59  80
ATOM     80  C   UNL     1      -2.595   6.182   1.244  1.00  0.00     0.057 A 
ATOM     81  C   UNL     1      -1.990   5.957   2.482  1.00  0.00     0.134 A 
ATOM     82  C   UNL     1      -3.564   7.234   1.281  1.00  0.00     0.134 A 
ATOM     83  F   UNL     1      -1.153   4.929   2.666  1.00  0.00    -0.206 F 
ATOM     84  C   UNL     1      -2.246   6.770   3.614  1.00  0.00     0.040 A 
ATOM     85  C   UNL     1      -3.799   8.070   2.378  1.00  0.00     0.040 A 
ATOM     86  F   UNL     1      -4.362   7.511   0.242  1.00  0.00    -0.206 F 
ATOM     87  C   UNL     1      -3.121   7.851   3.555  1.00  0.00     0.006 A 
ENDBRANCH  59  80
BRANCH  71  88
ATOM     88  C   UNL     1      -4.611   2.904  -3.411  1.00  0.00     0.057 A 
ATOM     89  C   UNL     1      -5.787   2.445  -2.801  1.00  0.00     0.134 A 
ATOM     90  C   UNL     1      -3.590   1.950  -3.542  1.00  0.00     0.134 A 
ATOM     91  F   UNL     1      -6.830   3.275  -2.643  1.00  0.00    -0.206 F 
ATOM     92  C   UNL     1      -5.928   1.132  -2.331  1.00  0.00     0.040 A 
ATOM     93  C   UNL     1      -3.715   0.630  -3.085  1.00  0.00     0.040 A 
ATOM     94  F   UNL     1      -2.427   2.267  -4.109  1.00  0.00    -0.206 F 
ATOM     95  C   UNL     1      -4.888   0.219  -2.467  1.00  0.00     0.006 A 
ENDBRANCH  71  88
ENDBRANCH  45  46
ENDBRANCH  37  40
ENDBRANCH  35  36
ENDBRANCH  34  35
ENDBRANCH  33  34
ENDBRANCH  32  33
ENDBRANCH  31  32
ENDBRANCH   1  31
TORSDOF 19
