REMARK SMILES CCn1nc(C(C)C)cc1C(=O)N[C@@H](CC(N)=O)C(=O)NCCCCCCNC(=O)c1ccc(-c2c3nc(c(-c4c(F)cccc4F)c4ccc([nH]4)c(-c4c(F)cccc4F)c4nc(c(-c5c(F)cccc5F)c5ccc2[nH]5)C=C4)C=C3)cc1
REMARK SMILES IDX 24 1 23 2 22 3 21 4 19 5 20 6 14 8 13 9 11 10 12 11 10 13
REMARK SMILES IDX 3 14 4 15 5 16 9 17 2 18 1 19 6 20 7 21 8 22 15 23 16 24
REMARK SMILES IDX 17 25 18 26 25 29 26 30 27 31 28 32 29 33 30 35 31 36 32 37
REMARK SMILES IDX 84 38 33 39 83 40 34 41 35 42 36 43 77 44 37 45 82 46 76 47
REMARK SMILES IDX 78 48 38 49 81 50 75 51 74 52 39 54 65 55 48 56 64 57 49 58
REMARK SMILES IDX 52 59 63 60 79 61 50 62 51 63 62 65 80 66 53 67 40 68 41 69
REMARK SMILES IDX 46 70 42 71 43 72 45 73 47 74 44 75 66 76 67 77 72 78 68 79
REMARK SMILES IDX 69 80 71 81 73 82 70 83 54 84 55 85 60 86 56 87 57 88 59 89
REMARK SMILES IDX 61 90 58 91
REMARK H PARENT 21 7 13 12 17 27 17 28 28 34 78 53 52 64
REMARK Flexibility Score: inf
ROOT
ATOM      1  C   UNL     1      -5.867  -6.635   0.155  1.00  0.00     0.002 C 
ENDROOT
BRANCH   1   2
ATOM      2  C   UNL     1      -4.808  -5.622   0.589  1.00  0.00     0.021 C 
BRANCH   2   3
ATOM      3  C   UNL     1      -3.377  -6.134   0.548  1.00  0.00     0.116 C 
BRANCH   3   4
ATOM      4  N   UNL     1      -2.884  -6.395  -0.786  1.00  0.00    -0.354 N 
ATOM      5  C   UNL     1      -1.621  -6.280  -1.285  1.00  0.00     0.243 C 
ATOM      6  O   UNL     1      -1.389  -6.833  -2.365  1.00  0.00    -0.273 OA
ATOM      7  H   UNL     1      -3.562  -6.701  -1.431  1.00  0.00     0.163 HD
BRANCH   5   8
ATOM      8  C   UNL     1      -0.479  -5.581  -0.519  1.00  0.00     0.181 C 
BRANCH   8   9
ATOM      9  N   UNL     1      -0.824  -4.222  -0.109  1.00  0.00    -0.338 N 
ATOM     10  C   UNL     1      -0.577  -2.996  -0.678  1.00  0.00     0.270 C 
ATOM     11  O   UNL     1      -1.212  -2.059  -0.192  1.00  0.00    -0.268 OA
ATOM     12  H   UNL     1      -1.329  -4.175   0.735  1.00  0.00     0.164 HD
BRANCH  10  13
ATOM     13  C   UNL     1       0.429  -2.807  -1.703  1.00  0.00     0.126 A 
ATOM     14  N   UNL     1       1.037  -1.591  -1.973  1.00  0.00    -0.260 N 
ATOM     15  N   UNL     1       2.114  -1.690  -2.790  1.00  0.00    -0.177 NA
ATOM     16  C   UNL     1       2.104  -2.965  -3.184  1.00  0.00     0.066 A 
ATOM     17  C   UNL     1       1.011  -3.656  -2.629  1.00  0.00     0.059 A 
BRANCH  14  18
ATOM     18  C   UNL     1       0.638  -0.268  -1.520  1.00  0.00     0.142 C 
ATOM     19  C   UNL     1       1.161   0.082  -0.139  1.00  0.00     0.029 C 
ENDBRANCH  14  18
BRANCH  16  20
ATOM     20  C   UNL     1       3.135  -3.554  -4.100  1.00  0.00     0.034 C 
ATOM     21  C   UNL     1       2.912  -3.134  -5.549  1.00  0.00     0.014 C 
ATOM     22  C   UNL     1       4.566  -3.274  -3.642  1.00  0.00     0.014 C 
ENDBRANCH  16  20
ENDBRANCH  10  13
ENDBRANCH   8   9
BRANCH   8  23
ATOM     23  C   UNL     1       0.236  -6.444   0.515  1.00  0.00     0.134 C 
BRANCH  23  24
ATOM     24  C   UNL     1      -0.596  -6.913   1.672  1.00  0.00     0.220 C 
ATOM     25  N   UNL     1      -0.948  -8.230   1.645  1.00  0.00    -0.370 N 
ATOM     26  O   UNL     1      -0.962  -6.179   2.581  1.00  0.00    -0.275 OA
ATOM     27  H   UNL     1      -0.644  -8.806   0.906  1.00  0.00     0.159 HD
ATOM     28  H   UNL     1      -1.506  -8.605   2.364  1.00  0.00     0.159 HD
ENDBRANCH  23  24
ENDBRANCH   8  23
ENDBRANCH   5   8
ENDBRANCH   3   4
ENDBRANCH   2   3
ENDBRANCH   1   2
BRANCH   1  29
ATOM     29  C   UNL     1      -5.775  -8.042   0.769  1.00  0.00     0.002 C 
BRANCH  29  30
ATOM     30  C   UNL     1      -5.654  -8.148   2.297  1.00  0.00     0.021 C 
BRANCH  30  31
ATOM     31  C   UNL     1      -6.798  -7.514   3.067  1.00  0.00     0.116 C 
BRANCH  31  32
ATOM     32  N   UNL     1      -8.090  -8.144   2.793  1.00  0.00    -0.352 N 
ATOM     33  C   UNL     1      -9.344  -7.769   3.247  1.00  0.00     0.251 C 
ATOM     34  H   UNL     1      -8.064  -8.937   2.210  1.00  0.00     0.163 HD
ATOM     35  O   UNL     1     -10.276  -8.553   3.259  1.00  0.00    -0.269 OA
BRANCH  33  36
ATOM     36  C   UNL     1      -9.529  -6.380   3.703  1.00  0.00     0.039 A 
ATOM     37  C   UNL     1     -10.308  -6.053   4.816  1.00  0.00     0.014 A 
ATOM     38  C   UNL     1      -8.853  -5.396   2.995  1.00  0.00     0.014 A 
ATOM     39  C   UNL     1     -10.339  -4.727   5.243  1.00  0.00     0.010 A 
ATOM     40  C   UNL     1      -8.695  -4.161   3.548  1.00  0.00     0.010 A 
ATOM     41  C   UNL     1      -9.515  -3.789   4.604  1.00  0.00    -0.014 A 
BRANCH  41  42
ATOM     42  C   UNL     1      -9.395  -2.412   5.061  1.00  0.00     0.031 A 
ATOM     43  C   UNL     1      -8.962  -2.277   6.477  1.00  0.00     0.074 A 
ATOM     44  C   UNL     1      -9.404  -1.380   4.185  1.00  0.00     0.049 A 
ATOM     45  N   UNL     1      -9.621  -1.758   7.458  1.00  0.00    -0.248 NA
ATOM     46  C   UNL     1      -7.708  -2.935   6.889  1.00  0.00     0.031 C 
ATOM     47  C   UNL     1      -9.515  -1.432   2.718  1.00  0.00     0.029 A 
ATOM     48  N   UNL     1      -9.183  -0.057   4.408  1.00  0.00    -0.354 N 
ATOM     49  C   UNL     1      -8.768  -1.811   8.558  1.00  0.00     0.074 A 
ATOM     50  C   UNL     1      -7.714  -2.723   8.206  1.00  0.00     0.031 C 
ATOM     51  C   UNL     1      -9.115  -0.258   2.184  1.00  0.00     0.029 A 
ATOM     52  C   UNL     1      -8.893   0.683   3.263  1.00  0.00     0.049 A 
ATOM     53  H   UNL     1      -9.224   0.345   5.305  1.00  0.00     0.167 HD
ATOM     54  C   UNL     1      -8.853  -0.881   9.549  1.00  0.00     0.037 A 
ATOM     55  C   UNL     1      -8.472   1.972   3.218  1.00  0.00     0.037 A 
ATOM     56  C   UNL     1     -10.116  -0.184   9.493  1.00  0.00     0.049 A 
ATOM     57  C   UNL     1      -8.806   2.582   4.529  1.00  0.00     0.074 A 
ATOM     58  C   UNL     1     -11.441  -0.571   9.553  1.00  0.00     0.029 A 
ATOM     59  N   UNL     1     -10.122   1.077   8.949  1.00  0.00    -0.354 N 
ATOM     60  N   UNL     1     -10.029   2.796   4.932  1.00  0.00    -0.248 NA
ATOM     61  C   UNL     1      -7.807   2.489   5.583  1.00  0.00     0.031 C 
ATOM     62  C   UNL     1     -12.106   0.249   8.593  1.00  0.00     0.029 A 
ATOM     63  C   UNL     1     -11.172   1.144   8.070  1.00  0.00     0.049 A 
ATOM     64  H   UNL     1      -9.488   1.802   9.153  1.00  0.00     0.167 HD
ATOM     65  C   UNL     1     -10.028   2.423   6.268  1.00  0.00     0.074 A 
ATOM     66  C   UNL     1      -8.616   2.313   6.632  1.00  0.00     0.031 C 
ATOM     67  C   UNL     1     -11.159   1.942   6.866  1.00  0.00     0.037 A 
BRANCH  54  68
ATOM     68  C   UNL     1      -7.662  -0.315  10.290  1.00  0.00     0.057 A 
ATOM     69  C   UNL     1      -7.887   0.578  11.354  1.00  0.00     0.134 A 
ATOM     70  C   UNL     1      -6.332  -0.359   9.822  1.00  0.00     0.134 A 
ATOM     71  F   UNL     1      -9.109   0.716  11.890  1.00  0.00    -0.206 F 
ATOM     72  C   UNL     1      -6.890   1.430  11.845  1.00  0.00     0.040 A 
ATOM     73  C   UNL     1      -5.317   0.451  10.341  1.00  0.00     0.040 A 
ATOM     74  F   UNL     1      -5.954  -1.104   8.778  1.00  0.00    -0.206 F 
ATOM     75  C   UNL     1      -5.602   1.376  11.329  1.00  0.00     0.006 A 
ENDBRANCH  54  68
BRANCH  55  76
ATOM     76  C   UNL     1      -7.543   2.616   2.259  1.00  0.00     0.057 A 
ATOM     77  C   UNL     1      -7.443   4.012   2.167  1.00  0.00     0.134 A 
ATOM     78  C   UNL     1      -6.532   1.884   1.611  1.00  0.00     0.134 A 
ATOM     79  F   UNL     1      -8.335   4.800   2.785  1.00  0.00    -0.206 F 
ATOM     80  C   UNL     1      -6.387   4.643   1.494  1.00  0.00     0.040 A 
ATOM     81  C   UNL     1      -5.475   2.501   0.932  1.00  0.00     0.040 A 
ATOM     82  F   UNL     1      -6.488   0.546   1.691  1.00  0.00    -0.206 F 
ATOM     83  C   UNL     1      -5.391   3.886   0.884  1.00  0.00     0.006 A 
ENDBRANCH  55  76
BRANCH  67  84
ATOM     84  C   UNL     1     -12.457   2.043   6.108  1.00  0.00     0.057 A 
ATOM     85  C   UNL     1     -12.723   1.379   4.899  1.00  0.00     0.134 A 
ATOM     86  C   UNL     1     -13.530   2.709   6.706  1.00  0.00     0.134 A 
ATOM     87  F   UNL     1     -11.792   0.631   4.298  1.00  0.00    -0.206 F 
ATOM     88  C   UNL     1     -13.985   1.412   4.296  1.00  0.00     0.040 A 
ATOM     89  C   UNL     1     -14.804   2.723   6.132  1.00  0.00     0.040 A 
ATOM     90  F   UNL     1     -13.370   3.319   7.891  1.00  0.00    -0.206 F 
ATOM     91  C   UNL     1     -15.033   2.081   4.918  1.00  0.00     0.006 A 
ENDBRANCH  67  84
ENDBRANCH  41  42
ENDBRANCH  33  36
ENDBRANCH  31  32
ENDBRANCH  30  31
ENDBRANCH  29  30
ENDBRANCH   1  29
TORSDOF 19
