REMARK SMILES CC[C@@H]1CCC[C@@](CC[NH+]2CCOCC2)(C(=O)NCCCCCCNC(=O)c2ccc(-c3c4nc(c(-c5c(F)cccc5F)c5ccc([nH]5)c(-c5c(F)cccc5F)c5nc(c(-c6c(F)cccc6F)c6ccc3[nH]6)C=C5)C=C4)cc2)C1
REMARK SMILES IDX 21 1 20 2 19 3 18 4 16 5 17 6 7 8 3 9 4 10 82 11 5 12 6 13
REMARK SMILES IDX 2 14 1 15 8 16 9 17 10 18 11 19 15 20 12 22 14 23 13 24
REMARK SMILES IDX 22 25 23 26 24 27 25 28 26 29 27 31 28 32 29 33 81 34 30 35
REMARK SMILES IDX 80 36 31 37 32 38 33 39 74 40 34 41 79 42 73 43 75 44 35 45
REMARK SMILES IDX 78 46 72 47 71 48 36 50 62 51 45 52 61 53 46 54 49 55 60 56
REMARK SMILES IDX 76 57 47 58 48 59 59 61 77 62 50 63 37 64 38 65 43 66 39 67
REMARK SMILES IDX 40 68 42 69 44 70 41 71 63 72 64 73 69 74 65 75 66 76 68 77
REMARK SMILES IDX 70 78 67 79 51 80 52 81 57 82 53 83 54 84 56 85 58 86 55 87
REMARK H PARENT 18 7 10 21 25 30 75 49 49 60
REMARK Flexibility Score: inf
ROOT
ATOM      1  C   UNL     1       3.607  -7.454   5.579  1.00  0.00     0.002 C 
ENDROOT
BRANCH   1   2
ATOM      2  C   UNL     1       2.466  -6.870   4.721  1.00  0.00     0.021 C 
BRANCH   2   3
ATOM      3  C   UNL     1       2.086  -5.180   4.919  1.00  0.00     0.116 C 
BRANCH   3   4
ATOM      4  N   UNL     1       2.710  -3.563   3.804  1.00  0.00    -0.356 N 
ATOM      5  C   UNL     1       1.893  -2.679   2.570  1.00  0.00     0.226 C 
ATOM      6  O   UNL     1       2.541  -1.779   2.041  1.00  0.00    -0.274 OA
ATOM      7  H   UNL     1       3.619  -3.245   4.009  1.00  0.00     0.163 HD
BRANCH   5   8
ATOM      8  C   UNL     1       0.002  -2.995   2.332  1.00  0.00     0.055 C 
ATOM      9  C   UNL     1       0.341  -1.864   0.039  1.00  0.00    -0.010 C 
ATOM     10  C   UNL     1      -0.117  -3.109  -0.735  1.00  0.00     0.003 C 
ATOM     11  C   UNL     1      -0.348  -1.740   1.448  1.00  0.00     0.020 C 
ATOM     12  C   UNL     1      -0.065  -4.379   0.088  1.00  0.00     0.001 C 
ATOM     13  C   UNL     1      -0.618  -4.164   1.476  1.00  0.00     0.017 C 
BRANCH   9  14
ATOM     14  C   UNL     1       0.188  -0.634  -0.867  1.00  0.00     0.000 C 
ATOM     15  C   UNL     1       0.938   0.589  -0.365  1.00  0.00     0.004 C 
ENDBRANCH   9  14
BRANCH   8  16
ATOM     16  C   UNL     1      -1.130  -3.211   3.817  1.00  0.00     0.078 C 
BRANCH  16  17
ATOM     17  C   UNL     1      -0.460  -3.810   5.447  1.00  0.00     0.263 C 
BRANCH  17  18
ATOM     18  N   UNL     1       0.935  -3.285   5.866  1.00  0.00    -0.331 N 
ATOM     19  C   UNL     1       1.000  -3.217   4.423  1.00  0.00     0.291 C 
ATOM     20  C   UNL     1       2.718  -3.466   6.098  1.00  0.00     0.291 C 
ATOM     21  H   UNL     1       0.826  -2.956   6.825  1.00  0.00     0.348 HD
ATOM     22  C   UNL     1       1.526  -4.768   3.111  1.00  0.00     0.221 C 
ATOM     23  C   UNL     1       4.021  -4.478   5.039  1.00  0.00     0.221 C 
ATOM     24  O   UNL     1       3.366  -5.246   3.444  1.00  0.00    -0.370 OA
ENDBRANCH  17  18
ENDBRANCH  16  17
ENDBRANCH   8  16
ENDBRANCH   5   8
ENDBRANCH   3   4
ENDBRANCH   2   3
ENDBRANCH   1   2
BRANCH   1  25
ATOM     25  C   UNL     1       3.567  -7.080   7.075  1.00  0.00     0.002 C 
BRANCH  25  26
ATOM     26  C   UNL     1       2.559  -7.875   7.889  1.00  0.00     0.021 C 
BRANCH  26  27
ATOM     27  C   UNL     1       2.792  -9.369   7.787  1.00  0.00     0.116 C 
BRANCH  27  28
ATOM     28  N   UNL     1       4.203  -9.712   7.981  1.00  0.00    -0.352 N 
ATOM     29  C   UNL     1       4.717 -10.744   8.717  1.00  0.00     0.251 C 
ATOM     30  H   UNL     1       4.857  -9.132   7.530  1.00  0.00     0.163 HD
ATOM     31  O   UNL     1       5.903 -10.826   8.998  1.00  0.00    -0.269 OA
BRANCH  29  32
ATOM     32  C   UNL     1       3.752 -11.761   9.135  1.00  0.00     0.039 A 
ATOM     33  C   UNL     1       3.558 -12.016  10.489  1.00  0.00     0.014 A 
ATOM     34  C   UNL     1       2.921 -12.298   8.147  1.00  0.00     0.014 A 
ATOM     35  C   UNL     1       2.482 -12.813  10.861  1.00  0.00     0.010 A 
ATOM     36  C   UNL     1       1.786 -12.977   8.530  1.00  0.00     0.010 A 
ATOM     37  C   UNL     1       1.582 -13.275   9.884  1.00  0.00    -0.014 A 
BRANCH  37  38
ATOM     38  C   UNL     1       0.458 -14.163  10.234  1.00  0.00     0.031 A 
ATOM     39  C   UNL     1       0.438 -15.548   9.650  1.00  0.00     0.074 A 
ATOM     40  C   UNL     1      -0.541 -13.708  11.011  1.00  0.00     0.049 A 
ATOM     41  N   UNL     1      -0.486 -16.467   9.737  1.00  0.00    -0.248 NA
ATOM     42  C   UNL     1       1.592 -15.937   8.817  1.00  0.00     0.031 C 
ATOM     43  C   UNL     1      -0.635 -12.360  11.579  1.00  0.00     0.029 A 
ATOM     44  N   UNL     1      -1.672 -14.336  11.457  1.00  0.00    -0.354 N 
ATOM     45  C   UNL     1      -0.026 -17.526   8.966  1.00  0.00     0.074 A 
ATOM     46  C   UNL     1       1.203 -17.106   8.339  1.00  0.00     0.031 C 
ATOM     47  C   UNL     1      -1.744 -12.278  12.332  1.00  0.00     0.029 A 
ATOM     48  C   UNL     1      -2.455 -13.550  12.267  1.00  0.00     0.049 A 
ATOM     49  H   UNL     1      -1.903 -15.263  11.219  1.00  0.00     0.167 HD
ATOM     50  C   UNL     1      -0.556 -18.763   8.837  1.00  0.00     0.037 A 
ATOM     51  C   UNL     1      -3.615 -13.841  12.883  1.00  0.00     0.037 A 
ATOM     52  C   UNL     1      -1.758 -19.178   9.502  1.00  0.00     0.049 A 
ATOM     53  C   UNL     1      -4.189 -15.222  12.708  1.00  0.00     0.074 A 
ATOM     54  C   UNL     1      -2.380 -20.411   9.470  1.00  0.00     0.029 A 
ATOM     55  N   UNL     1      -2.510 -18.364  10.335  1.00  0.00    -0.354 N 
ATOM     56  N   UNL     1      -3.719 -16.235  12.019  1.00  0.00    -0.248 NA
ATOM     57  C   UNL     1      -5.451 -15.504  13.403  1.00  0.00     0.031 C 
ATOM     58  C   UNL     1      -3.529 -20.334  10.261  1.00  0.00     0.029 A 
ATOM     59  C   UNL     1      -3.595 -19.068  10.823  1.00  0.00     0.049 A 
ATOM     60  H   UNL     1      -2.302 -17.426  10.548  1.00  0.00     0.167 HD
ATOM     61  C   UNL     1      -4.603 -17.284  12.233  1.00  0.00     0.074 A 
ATOM     62  C   UNL     1      -5.628 -16.787  13.127  1.00  0.00     0.031 C 
ATOM     63  C   UNL     1      -4.577 -18.546  11.737  1.00  0.00     0.037 A 
BRANCH  50  64
ATOM     64  C   UNL     1       0.185 -19.746   7.981  1.00  0.00     0.057 A 
ATOM     65  C   UNL     1       1.429 -20.265   8.367  1.00  0.00     0.134 A 
ATOM     66  C   UNL     1      -0.353 -20.195   6.770  1.00  0.00     0.134 A 
ATOM     67  F   UNL     1       2.012 -19.856   9.505  1.00  0.00    -0.206 F 
ATOM     68  C   UNL     1       2.121 -21.178   7.571  1.00  0.00     0.040 A 
ATOM     69  C   UNL     1       0.315 -21.132   5.979  1.00  0.00     0.040 A 
ATOM     70  F   UNL     1      -1.537 -19.736   6.337  1.00  0.00    -0.206 F 
ATOM     71  C   UNL     1       1.558 -21.622   6.377  1.00  0.00     0.006 A 
ENDBRANCH  50  64
BRANCH  51  72
ATOM     72  C   UNL     1      -4.295 -12.836  13.739  1.00  0.00     0.057 A 
ATOM     73  C   UNL     1      -4.421 -13.031  15.120  1.00  0.00     0.134 A 
ATOM     74  C   UNL     1      -4.878 -11.683  13.199  1.00  0.00     0.134 A 
ATOM     75  F   UNL     1      -3.894 -14.121  15.698  1.00  0.00    -0.206 F 
ATOM     76  C   UNL     1      -5.137 -12.144  15.925  1.00  0.00     0.040 A 
ATOM     77  C   UNL     1      -5.571 -10.771  13.997  1.00  0.00     0.040 A 
ATOM     78  F   UNL     1      -4.782 -11.426  11.886  1.00  0.00    -0.206 F 
ATOM     79  C   UNL     1      -5.715 -11.008  15.362  1.00  0.00     0.006 A 
ENDBRANCH  51  72
BRANCH  63  80
ATOM     80  C   UNL     1      -5.649 -19.484  12.202  1.00  0.00     0.057 A 
ATOM     81  C   UNL     1      -6.978 -19.358  11.779  1.00  0.00     0.134 A 
ATOM     82  C   UNL     1      -5.333 -20.554  13.048  1.00  0.00     0.134 A 
ATOM     83  F   UNL     1      -7.344 -18.348  10.976  1.00  0.00    -0.206 F 
ATOM     84  C   UNL     1      -7.962 -20.250  12.205  1.00  0.00     0.040 A 
ATOM     85  C   UNL     1      -6.302 -21.470  13.455  1.00  0.00     0.040 A 
ATOM     86  F   UNL     1      -4.075 -20.736  13.477  1.00  0.00    -0.206 F 
ATOM     87  C   UNL     1      -7.623 -21.314  13.040  1.00  0.00     0.006 A 
ENDBRANCH  63  80
ENDBRANCH  37  38
ENDBRANCH  29  32
ENDBRANCH  27  28
ENDBRANCH  26  27
ENDBRANCH  25  26
ENDBRANCH   1  25
TORSDOF 17
