REMARK SMILES O=C(COc1ccc(N2C[C@@H](C(=O)NCCCCCCNC(=O)c3ccc(-c4c5nc(c(-c6c(F)cccc6F)c6ccc([nH]6)c(-c6c(F)cccc6F)c6nc(c(-c7c(F)cccc7F)c7ccc4[nH]7)C=C6)C=C5)cc3)CC2=O)cc1)Nc1ccc(Cl)cc1Cl
REMARK SMILES IDX 16 1 15 2 14 3 12 4 13 5 11 7 9 8 10 9 79 10 78 11 80 12
REMARK SMILES IDX 8 13 5 14 6 15 82 16 7 17 81 18 4 19 3 20 2 21 1 22 83 23
REMARK SMILES IDX 84 25 85 26 90 27 86 28 89 29 91 30 87 31 88 32 17 33 18 34
REMARK SMILES IDX 19 35 20 36 21 37 22 38 23 40 24 41 25 42 77 43 26 44 76 45
REMARK SMILES IDX 27 46 28 47 29 48 70 49 30 50 75 51 69 52 71 53 31 54 74 55
REMARK SMILES IDX 68 56 67 57 32 59 58 60 41 61 57 62 42 63 45 64 56 65 72 66
REMARK SMILES IDX 43 67 44 68 55 70 73 71 46 72 33 73 34 74 39 75 35 76 36 77
REMARK SMILES IDX 38 78 40 79 37 80 59 81 60 82 65 83 61 84 62 85 64 86 66 87
REMARK SMILES IDX 63 88 47 89 48 90 53 91 49 92 50 93 52 94 54 95 51 96
REMARK H PARENT 14 6 83 24 21 39 71 58 45 69
REMARK Flexibility Score: inf
ROOT
ATOM      1  C   UNL     1      -2.730   6.013  -5.841  1.00  0.00     0.021 C 
ENDROOT
BRANCH   1   2
ATOM      2  C   UNL     1      -1.766   4.892  -6.233  1.00  0.00     0.116 C 
BRANCH   2   3
ATOM      3  N   UNL     1      -1.181   5.136  -7.540  1.00  0.00    -0.356 N 
ATOM      4  C   UNL     1       0.094   5.380  -7.932  1.00  0.00     0.225 C 
ATOM      5  O   UNL     1       0.287   5.585  -9.133  1.00  0.00    -0.275 OA
ATOM      6  H   UNL     1      -1.831   5.121  -8.279  1.00  0.00     0.163 HD
BRANCH   4   7
ATOM      7  C   UNL     1       1.267   5.365  -6.977  1.00  0.00     0.107 C 
ATOM      8  N   UNL     1       1.819   4.183  -5.014  1.00  0.00    -0.312 N 
ATOM      9  C   UNL     1       1.533   3.981  -6.412  1.00  0.00     0.139 C 
ATOM     10  C   UNL     1       1.553   5.489  -4.600  1.00  0.00     0.227 C 
ATOM     11  C   UNL     1       1.155   6.311  -5.795  1.00  0.00     0.116 C 
ATOM     12  O   UNL     1       1.644   5.967  -3.476  1.00  0.00    -0.274 OA
BRANCH   8  13
ATOM     13  C   UNL     1       2.265   3.140  -4.165  1.00  0.00     0.044 A 
ATOM     14  C   UNL     1       3.259   1.160  -2.421  1.00  0.00     0.120 A 
ATOM     15  C   UNL     1       3.595   1.132  -3.772  1.00  0.00     0.048 A 
ATOM     16  C   UNL     1       2.429   2.167  -1.941  1.00  0.00     0.048 A 
ATOM     17  C   UNL     1       3.076   2.100  -4.645  1.00  0.00     0.030 A 
ATOM     18  C   UNL     1       1.939   3.147  -2.806  1.00  0.00     0.030 A 
BRANCH  14  19
ATOM     19  O   UNL     1       3.865   0.271  -1.574  1.00  0.00    -0.484 OA
BRANCH  19  20
ATOM     20  C   UNL     1       2.958  -0.709  -1.067  1.00  0.00     0.329 C 
BRANCH  20  21
ATOM     21  C   UNL     1       2.061  -0.212   0.071  1.00  0.00     0.262 C 
ATOM     22  O   UNL     1       0.845  -0.363   0.030  1.00  0.00    -0.271 OA
ATOM     23  N   UNL     1       2.774   0.484   1.038  1.00  0.00    -0.322 N 
ATOM     24  H   UNL     1       3.751   0.535   0.925  1.00  0.00     0.170 HD
BRANCH  23  25
ATOM     25  C   UNL     1       2.224   1.127   2.172  1.00  0.00     0.060 A 
ATOM     26  C   UNL     1       2.828   2.346   2.524  1.00  0.00     0.029 A 
ATOM     27  C   UNL     1       1.149   0.659   2.953  1.00  0.00     0.066 A 
ATOM     28  C   UNL     1       2.322   3.122   3.571  1.00  0.00     0.023 A 
ATOM     29  C   UNL     1       0.639   1.445   3.994  1.00  0.00     0.043 A 
ATOM     30  Cl  UNL     1       0.524  -0.952   2.852  1.00  0.00    -0.082 Cl
ATOM     31  C   UNL     1       1.218   2.675   4.290  1.00  0.00     0.042 A 
ATOM     32  Cl  UNL     1       0.593   3.631   5.575  1.00  0.00    -0.084 Cl
ENDBRANCH  23  25
ENDBRANCH  20  21
ENDBRANCH  19  20
ENDBRANCH  14  19
ENDBRANCH   8  13
ENDBRANCH   4   7
ENDBRANCH   2   3
ENDBRANCH   1   2
BRANCH   1  33
ATOM     33  C   UNL     1      -3.979   6.113  -6.727  1.00  0.00     0.002 C 
BRANCH  33  34
ATOM     34  C   UNL     1      -4.822   4.836  -6.809  1.00  0.00     0.002 C 
BRANCH  34  35
ATOM     35  C   UNL     1      -5.267   4.267  -5.460  1.00  0.00     0.021 C 
BRANCH  35  36
ATOM     36  C   UNL     1      -6.078   5.231  -4.601  1.00  0.00     0.116 C 
BRANCH  36  37
ATOM     37  N   UNL     1      -7.331   5.608  -5.234  1.00  0.00    -0.352 N 
ATOM     38  C   UNL     1      -8.611   5.537  -4.747  1.00  0.00     0.251 C 
ATOM     39  H   UNL     1      -7.248   5.968  -6.147  1.00  0.00     0.163 HD
ATOM     40  O   UNL     1      -9.564   5.715  -5.500  1.00  0.00    -0.269 OA
BRANCH  38  41
ATOM     41  C   UNL     1      -8.847   5.229  -3.320  1.00  0.00     0.039 A 
ATOM     42  C   UNL     1      -9.879   4.350  -2.984  1.00  0.00     0.014 A 
ATOM     43  C   UNL     1      -8.073   5.817  -2.316  1.00  0.00     0.014 A 
ATOM     44  C   UNL     1     -10.105   4.028  -1.645  1.00  0.00     0.010 A 
ATOM     45  C   UNL     1      -8.245   5.430  -0.989  1.00  0.00     0.010 A 
ATOM     46  C   UNL     1      -9.272   4.543  -0.638  1.00  0.00    -0.014 A 
BRANCH  46  47
ATOM     47  C   UNL     1      -9.477   4.169   0.785  1.00  0.00     0.031 A 
ATOM     48  C   UNL     1      -9.859   5.212   1.799  1.00  0.00     0.074 A 
ATOM     49  C   UNL     1      -9.288   2.892   1.171  1.00  0.00     0.049 A 
ATOM     50  N   UNL     1     -10.079   5.077   3.083  1.00  0.00    -0.248 NA
ATOM     51  C   UNL     1      -9.986   6.595   1.312  1.00  0.00     0.031 C 
ATOM     52  C   UNL     1      -8.872   1.796   0.294  1.00  0.00     0.029 A 
ATOM     53  N   UNL     1      -9.425   2.300   2.401  1.00  0.00    -0.354 N 
ATOM     54  C   UNL     1     -10.363   6.353   3.555  1.00  0.00     0.074 A 
ATOM     55  C   UNL     1     -10.222   7.257   2.435  1.00  0.00     0.031 C 
ATOM     56  C   UNL     1      -8.826   0.658   1.004  1.00  0.00     0.029 A 
ATOM     57  C   UNL     1      -9.170   0.950   2.392  1.00  0.00     0.049 A 
ATOM     58  H   UNL     1      -9.680   2.795   3.212  1.00  0.00     0.167 HD
ATOM     59  C   UNL     1     -10.735   6.734   4.801  1.00  0.00     0.037 A 
ATOM     60  C   UNL     1      -9.211   0.048   3.392  1.00  0.00     0.037 A 
ATOM     61  C   UNL     1     -10.882   5.830   5.912  1.00  0.00     0.049 A 
ATOM     62  C   UNL     1      -9.603   0.501   4.771  1.00  0.00     0.074 A 
ATOM     63  C   UNL     1     -11.299   6.109   7.202  1.00  0.00     0.029 A 
ATOM     64  N   UNL     1     -10.609   4.471   5.865  1.00  0.00    -0.354 N 
ATOM     65  N   UNL     1      -9.942   1.697   5.187  1.00  0.00    -0.248 NA
ATOM     66  C   UNL     1      -9.626  -0.528   5.820  1.00  0.00     0.031 C 
ATOM     67  C   UNL     1     -11.225   4.928   7.950  1.00  0.00     0.029 A 
ATOM     68  C   UNL     1     -10.823   3.902   7.111  1.00  0.00     0.049 A 
ATOM     69  H   UNL     1     -10.307   3.982   5.066  1.00  0.00     0.167 HD
ATOM     70  C   UNL     1     -10.253   1.558   6.534  1.00  0.00     0.074 A 
ATOM     71  C   UNL     1     -10.077   0.158   6.859  1.00  0.00     0.031 C 
ATOM     72  C   UNL     1     -10.650   2.504   7.421  1.00  0.00     0.037 A 
BRANCH  59  73
ATOM     73  C   UNL     1     -11.004   8.197   5.023  1.00  0.00     0.057 A 
ATOM     74  C   UNL     1     -12.099   8.847   4.436  1.00  0.00     0.134 A 
ATOM     75  C   UNL     1     -10.168   8.962   5.846  1.00  0.00     0.134 A 
ATOM     76  F   UNL     1     -12.934   8.178   3.627  1.00  0.00    -0.206 F 
ATOM     77  C   UNL     1     -12.331  10.210   4.630  1.00  0.00     0.040 A 
ATOM     78  C   UNL     1     -10.409  10.318   6.075  1.00  0.00     0.040 A 
ATOM     79  F   UNL     1      -9.106   8.405   6.447  1.00  0.00    -0.206 F 
ATOM     80  C   UNL     1     -11.488  10.948   5.457  1.00  0.00     0.006 A 
ENDBRANCH  59  73
BRANCH  60  81
ATOM     81  C   UNL     1      -8.908  -1.380   3.121  1.00  0.00     0.057 A 
ATOM     82  C   UNL     1      -9.908  -2.357   3.198  1.00  0.00     0.134 A 
ATOM     83  C   UNL     1      -7.615  -1.807   2.797  1.00  0.00     0.134 A 
ATOM     84  F   UNL     1     -11.164  -2.013   3.522  1.00  0.00    -0.206 F 
ATOM     85  C   UNL     1      -9.630  -3.708   2.987  1.00  0.00     0.040 A 
ATOM     86  C   UNL     1      -7.328  -3.152   2.555  1.00  0.00     0.040 A 
ATOM     87  F   UNL     1      -6.614  -0.921   2.699  1.00  0.00    -0.206 F 
ATOM     88  C   UNL     1      -8.336  -4.108   2.659  1.00  0.00     0.006 A 
ENDBRANCH  60  81
BRANCH  72  89
ATOM     89  C   UNL     1     -10.967   2.045   8.816  1.00  0.00     0.057 A 
ATOM     90  C   UNL     1      -9.974   1.598   9.698  1.00  0.00     0.134 A 
ATOM     91  C   UNL     1     -12.286   2.063   9.287  1.00  0.00     0.134 A 
ATOM     92  F   UNL     1      -8.691   1.543   9.307  1.00  0.00    -0.206 F 
ATOM     93  C   UNL     1     -10.286   1.153  10.984  1.00  0.00     0.040 A 
ATOM     94  C   UNL     1     -12.607   1.652  10.582  1.00  0.00     0.040 A 
ATOM     95  F   UNL     1     -13.286   2.489   8.500  1.00  0.00    -0.206 F 
ATOM     96  C   UNL     1     -11.606   1.185  11.431  1.00  0.00     0.006 A 
ENDBRANCH  72  89
ENDBRANCH  46  47
ENDBRANCH  38  41
ENDBRANCH  36  37
ENDBRANCH  35  36
ENDBRANCH  34  35
ENDBRANCH  33  34
ENDBRANCH   1  33
TORSDOF 18
