REMARK SMILES CCN(Cc1ccccn1)c1nc(C)cc(C)c1C(=O)NCCCCCCNC(=O)c1ccc(-c2c3nc(c(-c4c(F)cccc4F)c4ccc([nH]4)c(-c4c(F)cccc4F)c4nc(c(-c5c(F)cccc5F)c5ccc2[nH]5)C=C4)C=C3)cc1
REMARK SMILES IDX 24 1 23 2 22 3 21 4 19 5 20 6 18 8 11 9 12 10 13 11 16 12
REMARK SMILES IDX 14 13 15 14 17 15 3 16 2 17 1 18 4 19 5 20 6 21 10 22 7 23
REMARK SMILES IDX 9 24 8 25 25 26 26 27 27 28 28 29 29 30 30 32 31 33 32 34
REMARK SMILES IDX 84 35 33 36 83 37 34 38 35 39 36 40 77 41 37 42 82 43 76 44
REMARK SMILES IDX 78 45 38 46 81 47 75 48 74 49 39 51 65 52 48 53 64 54 49 55
REMARK SMILES IDX 52 56 63 57 79 58 50 59 51 60 62 62 80 63 53 64 40 65 41 66
REMARK SMILES IDX 46 67 42 68 43 69 45 70 47 71 44 72 66 73 67 74 72 75 68 76
REMARK SMILES IDX 69 77 71 78 73 79 70 80 54 81 55 82 60 83 56 84 57 85 59 86
REMARK SMILES IDX 61 87 58 88
REMARK H PARENT 21 7 28 31 78 50 52 61
REMARK Flexibility Score: inf
ROOT
ATOM      1  C   UNL     1       4.862   1.182   3.525  1.00  0.00     0.002 C 
ENDROOT
BRANCH   1   2
ATOM      2  C   UNL     1       5.080   1.271   2.012  1.00  0.00     0.021 C 
BRANCH   2   3
ATOM      3  C   UNL     1       4.979  -0.006   1.186  1.00  0.00     0.116 C 
BRANCH   3   4
ATOM      4  N   UNL     1       3.735  -0.735   1.262  1.00  0.00    -0.352 N 
ATOM      5  C   UNL     1       3.171  -1.598   0.337  1.00  0.00     0.255 C 
ATOM      6  O   UNL     1       2.261  -2.331   0.722  1.00  0.00    -0.269 OA
ATOM      7  H   UNL     1       3.215  -0.599   2.087  1.00  0.00     0.163 HD
BRANCH   5   8
ATOM      8  C   UNL     1       3.624  -1.653  -1.084  1.00  0.00     0.085 A 
ATOM      9  C   UNL     1       2.675  -1.482  -2.116  1.00  0.00     0.142 A 
ATOM     10  N   UNL     1       3.038  -1.597  -3.417  1.00  0.00    -0.235 NA
ATOM     11  C   UNL     1       4.283  -1.970  -3.757  1.00  0.00     0.040 A 
ATOM     12  C   UNL     1       4.938  -2.042  -1.447  1.00  0.00    -0.033 A 
ATOM     13  C   UNL     1       4.510  -2.297  -5.200  1.00  0.00     0.067 C 
ATOM     14  C   UNL     1       5.260  -2.175  -2.806  1.00  0.00     0.028 A 
ATOM     15  C   UNL     1       6.040  -2.376  -0.483  1.00  0.00     0.045 C 
BRANCH   9  16
ATOM     16  N   UNL     1       1.318  -1.255  -1.920  1.00  0.00    -0.350 N 
BRANCH  16  17
ATOM     17  C   UNL     1       0.842   0.113  -1.767  1.00  0.00     0.115 C 
ATOM     18  C   UNL     1       0.780   0.541  -0.312  1.00  0.00     0.027 C 
ENDBRANCH  16  17
BRANCH  16  19
ATOM     19  C   UNL     1       0.405  -2.253  -2.525  1.00  0.00     0.174 C 
BRANCH  19  20
ATOM     20  C   UNL     1       0.371  -2.357  -4.053  1.00  0.00     0.060 A 
ATOM     21  C   UNL     1       0.399  -1.228  -4.876  1.00  0.00     0.026 A 
ATOM     22  N   UNL     1       0.302  -3.612  -4.581  1.00  0.00    -0.259 NA
ATOM     23  C   UNL     1       0.442  -1.387  -6.260  1.00  0.00     0.004 A 
ATOM     24  C   UNL     1       0.343  -3.735  -5.927  1.00  0.00     0.111 A 
ATOM     25  C   UNL     1       0.424  -2.664  -6.799  1.00  0.00     0.020 A 
ENDBRANCH  19  20
ENDBRANCH  16  19
ENDBRANCH   9  16
ENDBRANCH   5   8
ENDBRANCH   3   4
ENDBRANCH   2   3
ENDBRANCH   1   2
BRANCH   1  26
ATOM     26  C   UNL     1       5.505   0.028   4.299  1.00  0.00     0.002 C 
BRANCH  26  27
ATOM     27  C   UNL     1       7.004  -0.214   4.122  1.00  0.00     0.021 C 
BRANCH  27  28
ATOM     28  C   UNL     1       7.924   0.988   4.298  1.00  0.00     0.116 C 
BRANCH  28  29
ATOM     29  N   UNL     1       7.830   1.597   5.612  1.00  0.00    -0.352 N 
ATOM     30  C   UNL     1       8.812   1.883   6.530  1.00  0.00     0.251 C 
ATOM     31  H   UNL     1       6.918   1.845   5.890  1.00  0.00     0.163 HD
ATOM     32  O   UNL     1       8.504   2.297   7.643  1.00  0.00    -0.269 OA
BRANCH  30  33
ATOM     33  C   UNL     1      10.242   1.673   6.202  1.00  0.00     0.039 A 
ATOM     34  C   UNL     1      11.070   1.089   7.167  1.00  0.00     0.014 A 
ATOM     35  C   UNL     1      10.781   2.071   4.975  1.00  0.00     0.014 A 
ATOM     36  C   UNL     1      12.416   0.847   6.879  1.00  0.00     0.010 A 
ATOM     37  C   UNL     1      12.106   1.765   4.664  1.00  0.00     0.010 A 
ATOM     38  C   UNL     1      12.938   1.151   5.612  1.00  0.00    -0.014 A 
BRANCH  38  39
ATOM     39  C   UNL     1      14.347   0.830   5.263  1.00  0.00     0.031 A 
ATOM     40  C   UNL     1      15.324   1.931   4.955  1.00  0.00     0.074 A 
ATOM     41  C   UNL     1      14.733  -0.457   5.166  1.00  0.00     0.049 A 
ATOM     42  N   UNL     1      16.572   1.846   4.566  1.00  0.00    -0.248 NA
ATOM     43  C   UNL     1      14.827   3.310   5.077  1.00  0.00     0.031 C 
ATOM     44  C   UNL     1      13.873  -1.618   5.401  1.00  0.00     0.029 A 
ATOM     45  N   UNL     1      15.947  -1.006   4.834  1.00  0.00    -0.354 N 
ATOM     46  C   UNL     1      17.003   3.154   4.387  1.00  0.00     0.074 A 
ATOM     47  C   UNL     1      15.870   4.012   4.659  1.00  0.00     0.031 C 
ATOM     48  C   UNL     1      14.590  -2.740   5.226  1.00  0.00     0.029 A 
ATOM     49  C   UNL     1      15.948  -2.380   4.831  1.00  0.00     0.049 A 
ATOM     50  H   UNL     1      16.741  -0.466   4.619  1.00  0.00     0.167 HD
ATOM     51  C   UNL     1      18.237   3.602   4.050  1.00  0.00     0.037 A 
ATOM     52  C   UNL     1      16.930  -3.252   4.535  1.00  0.00     0.037 A 
ATOM     53  C   UNL     1      19.369   2.748   3.799  1.00  0.00     0.049 A 
ATOM     54  C   UNL     1      18.286  -2.731   4.147  1.00  0.00     0.074 A 
ATOM     55  C   UNL     1      20.671   3.108   3.500  1.00  0.00     0.029 A 
ATOM     56  N   UNL     1      19.331   1.361   3.816  1.00  0.00    -0.354 N 
ATOM     57  N   UNL     1      18.695  -1.490   4.039  1.00  0.00    -0.248 NA
ATOM     58  C   UNL     1      19.319  -3.732   3.845  1.00  0.00     0.031 C 
ATOM     59  C   UNL     1      21.412   1.940   3.292  1.00  0.00     0.029 A 
ATOM     60  C   UNL     1      20.583   0.851   3.511  1.00  0.00     0.049 A 
ATOM     61  H   UNL     1      18.534   0.820   4.015  1.00  0.00     0.167 HD
ATOM     62  C   UNL     1      20.036  -1.560   3.686  1.00  0.00     0.074 A 
ATOM     63  C   UNL     1      20.376  -2.966   3.611  1.00  0.00     0.031 C 
ATOM     64  C   UNL     1      20.909  -0.551   3.446  1.00  0.00     0.037 A 
BRANCH  51  65
ATOM     65  C   UNL     1      18.427   5.087   3.936  1.00  0.00     0.057 A 
ATOM     66  C   UNL     1      18.410   5.923   5.061  1.00  0.00     0.134 A 
ATOM     67  C   UNL     1      18.663   5.687   2.693  1.00  0.00     0.134 A 
ATOM     68  F   UNL     1      18.178   5.415   6.282  1.00  0.00    -0.206 F 
ATOM     69  C   UNL     1      18.593   7.302   4.951  1.00  0.00     0.040 A 
ATOM     70  C   UNL     1      18.876   7.061   2.573  1.00  0.00     0.040 A 
ATOM     71  F   UNL     1      18.701   4.946   1.575  1.00  0.00    -0.206 F 
ATOM     72  C   UNL     1      18.834   7.874   3.704  1.00  0.00     0.006 A 
ENDBRANCH  51  65
BRANCH  52  73
ATOM     73  C   UNL     1      16.675  -4.713   4.614  1.00  0.00     0.057 A 
ATOM     74  C   UNL     1      17.265  -5.495   5.614  1.00  0.00     0.134 A 
ATOM     75  C   UNL     1      15.845  -5.363   3.693  1.00  0.00     0.134 A 
ATOM     76  F   UNL     1      18.086  -4.933   6.513  1.00  0.00    -0.206 F 
ATOM     77  C   UNL     1      17.055  -6.873   5.685  1.00  0.00     0.040 A 
ATOM     78  C   UNL     1      15.605  -6.736   3.767  1.00  0.00     0.040 A 
ATOM     79  F   UNL     1      15.245  -4.670   2.715  1.00  0.00    -0.206 F 
ATOM     80  C   UNL     1      16.217  -7.496   4.762  1.00  0.00     0.006 A 
ENDBRANCH  52  73
BRANCH  64  81
ATOM     81  C   UNL     1      22.323  -0.929   3.115  1.00  0.00     0.057 A 
ATOM     82  C   UNL     1      22.670  -1.494   1.882  1.00  0.00     0.134 A 
ATOM     83  C   UNL     1      23.356  -0.689   4.030  1.00  0.00     0.134 A 
ATOM     84  F   UNL     1      21.726  -1.761   0.967  1.00  0.00    -0.206 F 
ATOM     85  C   UNL     1      23.991  -1.827   1.579  1.00  0.00     0.040 A 
ATOM     86  C   UNL     1      24.684  -0.993   3.728  1.00  0.00     0.040 A 
ATOM     87  F   UNL     1      23.094  -0.142   5.227  1.00  0.00    -0.206 F 
ATOM     88  C   UNL     1      25.004  -1.570   2.501  1.00  0.00     0.006 A 
ENDBRANCH  64  81
ENDBRANCH  38  39
ENDBRANCH  30  33
ENDBRANCH  28  29
ENDBRANCH  27  28
ENDBRANCH  26  27
ENDBRANCH   1  26
TORSDOF 17
