REMARK SMILES O=C(NCCCCCCNC(=O)c1ccc(-c2c3nc(c(-c4c(F)cccc4F)c4ccc([nH]4)c(-c4c(F)cccc4F)c4nc(c(-c5c(F)cccc5F)c5ccc2[nH]5)C=C4)C=C3)cc1)C1=Cc2cc(Cl)cc(-c3ccc(O)cc3)c2O[C@@H]1C(F)(F)F
REMARK SMILES IDX 6 1 5 2 4 3 3 4 1 5 2 6 67 8 68 9 84 10 69 11 83 12 70 13
REMARK SMILES IDX 82 14 71 15 74 16 72 17 73 18 85 19 86 20 87 21 88 22 75 23
REMARK SMILES IDX 76 24 81 25 77 26 80 27 78 28 79 29 7 31 8 32 9 33 10 34
REMARK SMILES IDX 11 35 12 37 13 38 14 39 66 40 15 41 65 42 16 43 17 44 18 45
REMARK SMILES IDX 59 46 19 47 64 48 58 49 60 50 20 51 63 52 57 53 56 54 21 56
REMARK SMILES IDX 47 57 30 58 46 59 31 60 34 61 45 62 61 63 32 64 33 65 44 67
REMARK SMILES IDX 62 68 35 69 22 70 23 71 28 72 24 73 25 74 27 75 29 76 26 77
REMARK SMILES IDX 48 78 49 79 54 80 50 81 51 82 53 83 55 84 52 85 36 86 37 87
REMARK SMILES IDX 42 88 38 89 39 90 41 91 43 92 40 93
REMARK H PARENT 3 7 79 30 10 36 60 55 34 66
REMARK Flexibility Score: inf
ROOT
ATOM      1  C   UNL     1       3.850  -3.812  -2.709  1.00  0.00     0.002 C 
ENDROOT
BRANCH   1   2
ATOM      2  C   UNL     1       4.325  -3.434  -1.305  1.00  0.00     0.021 C 
BRANCH   2   3
ATOM      3  C   UNL     1       4.065  -2.009  -0.822  1.00  0.00     0.116 C 
BRANCH   3   4
ATOM      4  N   UNL     1       2.734  -1.737  -0.313  1.00  0.00    -0.352 N 
ATOM      5  O   UNL     1       1.071  -0.557   0.624  1.00  0.00    -0.270 OA
ATOM      6  C   UNL     1       2.278  -0.665   0.408  1.00  0.00     0.251 C 
ATOM      7  H   UNL     1       2.058  -2.424  -0.515  1.00  0.00     0.163 HD
BRANCH   6   8
ATOM      8  C   UNL     1       3.176   0.435   0.882  1.00  0.00     0.067 C 
ATOM      9  C   UNL     1       4.438   0.210   1.288  1.00  0.00     0.025 C 
ATOM     10  C   UNL     1       2.880   1.754   0.202  1.00  0.00     0.314 C 
ATOM     11  C   UNL     1       5.433   0.677   0.287  1.00  0.00     0.019 A 
ATOM     12  O   UNL     1       3.741   1.922  -0.955  1.00  0.00    -0.475 OA
ATOM     13  C   UNL     1       6.726   0.150   0.354  1.00  0.00     0.032 A 
ATOM     14  C   UNL     1       5.008   1.389  -0.855  1.00  0.00     0.135 A 
ATOM     15  C   UNL     1       7.567   0.268  -0.746  1.00  0.00     0.042 A 
ATOM     16  C   UNL     1       5.836   1.456  -1.990  1.00  0.00     0.026 A 
ATOM     17  Cl  UNL     1       9.100  -0.513  -0.731  1.00  0.00    -0.084 Cl
ATOM     18  C   UNL     1       7.128   0.902  -1.907  1.00  0.00     0.033 A 
BRANCH  10  19
ATOM     19  C   UNL     1       2.957   2.952   1.167  1.00  0.00     0.429 C 
ATOM     20  F   UNL     1       2.566   4.101   0.568  1.00  0.00    -0.167 F 
ATOM     21  F   UNL     1       2.150   2.775   2.243  1.00  0.00    -0.167 F 
ATOM     22  F   UNL     1       4.208   3.158   1.647  1.00  0.00    -0.167 F 
ENDBRANCH  10  19
BRANCH  16  23
ATOM     23  C   UNL     1       5.334   1.853  -3.315  1.00  0.00    -0.014 A 
ATOM     24  C   UNL     1       4.444   0.999  -3.993  1.00  0.00     0.012 A 
ATOM     25  C   UNL     1       5.806   2.985  -3.988  1.00  0.00     0.012 A 
ATOM     26  C   UNL     1       4.092   1.223  -5.322  1.00  0.00     0.047 A 
ATOM     27  C   UNL     1       5.437   3.228  -5.317  1.00  0.00     0.047 A 
ATOM     28  C   UNL     1       4.603   2.330  -5.979  1.00  0.00     0.115 A 
BRANCH  28  29
ATOM     29  O   UNL     1       4.266   2.495  -7.288  1.00  0.00    -0.508 OA
ATOM     30  H   UNL     1       3.703   1.876  -7.709  1.00  0.00     0.293 HD
ENDBRANCH  28  29
ENDBRANCH  16  23
ENDBRANCH   6   8
ENDBRANCH   3   4
ENDBRANCH   2   3
ENDBRANCH   1   2
BRANCH   1  31
ATOM     31  C   UNL     1       4.263  -2.907  -3.875  1.00  0.00     0.002 C 
BRANCH  31  32
ATOM     32  C   UNL     1       5.726  -2.453  -3.945  1.00  0.00     0.021 C 
BRANCH  32  33
ATOM     33  C   UNL     1       6.776  -3.550  -4.086  1.00  0.00     0.116 C 
BRANCH  33  34
ATOM     34  N   UNL     1       6.663  -4.285  -5.333  1.00  0.00    -0.352 N 
ATOM     35  C   UNL     1       7.622  -4.653  -6.245  1.00  0.00     0.251 C 
ATOM     36  H   UNL     1       5.747  -4.566  -5.563  1.00  0.00     0.163 HD
ATOM     37  O   UNL     1       7.272  -5.161  -7.306  1.00  0.00    -0.269 OA
BRANCH  35  38
ATOM     38  C   UNL     1       9.070  -4.442  -5.987  1.00  0.00     0.039 A 
ATOM     39  C   UNL     1       9.894  -4.104  -7.068  1.00  0.00     0.014 A 
ATOM     40  C   UNL     1       9.641  -4.649  -4.729  1.00  0.00     0.014 A 
ATOM     41  C   UNL     1      11.271  -3.942  -6.884  1.00  0.00     0.010 A 
ATOM     42  C   UNL     1      11.006  -4.427  -4.532  1.00  0.00     0.010 A 
ATOM     43  C   UNL     1      11.838  -4.087  -5.610  1.00  0.00    -0.014 A 
BRANCH  43  44
ATOM     44  C   UNL     1      13.300  -3.924  -5.392  1.00  0.00     0.031 A 
ATOM     45  C   UNL     1      14.138  -5.103  -4.977  1.00  0.00     0.074 A 
ATOM     46  C   UNL     1      13.866  -2.708  -5.515  1.00  0.00     0.049 A 
ATOM     47  N   UNL     1      15.409  -5.148  -4.665  1.00  0.00    -0.248 NA
ATOM     48  C   UNL     1      13.450  -6.399  -4.876  1.00  0.00     0.031 C 
ATOM     49  C   UNL     1      13.161  -1.479  -5.880  1.00  0.00     0.029 A 
ATOM     50  N   UNL     1      15.166  -2.305  -5.334  1.00  0.00    -0.354 N 
ATOM     51  C   UNL     1      15.665  -6.466  -4.306  1.00  0.00     0.074 A 
ATOM     52  C   UNL     1      14.410  -7.180  -4.402  1.00  0.00     0.031 C 
ATOM     53  C   UNL     1      14.039  -0.463  -5.914  1.00  0.00     0.029 A 
ATOM     54  C   UNL     1      15.360  -0.961  -5.542  1.00  0.00     0.049 A 
ATOM     55  H   UNL     1      15.891  -2.921  -5.080  1.00  0.00     0.167 HD
ATOM     56  C   UNL     1      16.841  -7.034  -3.946  1.00  0.00     0.037 A 
ATOM     57  C   UNL     1      16.476  -0.214  -5.438  1.00  0.00     0.037 A 
ATOM     58  C   UNL     1      18.097  -6.333  -3.889  1.00  0.00     0.049 A 
ATOM     59  C   UNL     1      17.770  -0.869  -5.045  1.00  0.00     0.074 A 
ATOM     60  C   UNL     1      19.354  -6.837  -3.604  1.00  0.00     0.029 A 
ATOM     61  N   UNL     1      18.254  -4.976  -4.125  1.00  0.00    -0.354 N 
ATOM     62  N   UNL     1      18.007  -2.127  -4.764  1.00  0.00    -0.248 NA
ATOM     63  C   UNL     1      18.953  -0.001  -4.958  1.00  0.00     0.031 C 
ATOM     64  C   UNL     1      20.267  -5.777  -3.634  1.00  0.00     0.029 A 
ATOM     65  C   UNL     1      19.584  -4.621  -3.974  1.00  0.00     0.049 A 
ATOM     66  H   UNL     1      17.527  -4.356  -4.364  1.00  0.00     0.167 HD
ATOM     67  C   UNL     1      19.367  -2.207  -4.494  1.00  0.00     0.074 A 
ATOM     68  C   UNL     1      19.905  -0.872  -4.655  1.00  0.00     0.031 C 
ATOM     69  C   UNL     1      20.105  -3.289  -4.146  1.00  0.00     0.037 A 
BRANCH  56  70
ATOM     70  C   UNL     1      16.823  -8.491  -3.583  1.00  0.00     0.057 A 
ATOM     71  C   UNL     1      16.644  -9.491  -4.547  1.00  0.00     0.134 A 
ATOM     72  C   UNL     1      17.015  -8.899  -2.257  1.00  0.00     0.134 A 
ATOM     73  F   UNL     1      16.443  -9.167  -5.833  1.00  0.00    -0.206 F 
ATOM     74  C   UNL     1      16.628 -10.844  -4.202  1.00  0.00     0.040 A 
ATOM     75  C   UNL     1      17.028 -10.250  -1.903  1.00  0.00     0.040 A 
ATOM     76  F   UNL     1      17.200  -7.994  -1.285  1.00  0.00    -0.206 F 
ATOM     77  C   UNL     1      16.826 -11.226  -2.877  1.00  0.00     0.006 A 
ENDBRANCH  56  70
BRANCH  57  78
ATOM     78  C   UNL     1      16.426   1.238  -5.740  1.00  0.00     0.057 A 
ATOM     79  C   UNL     1      17.014   1.750  -6.903  1.00  0.00     0.134 A 
ATOM     80  C   UNL     1      15.797   2.146  -4.881  1.00  0.00     0.134 A 
ATOM     81  F   UNL     1      17.648   0.930  -7.754  1.00  0.00    -0.206 F 
ATOM     82  C   UNL     1      16.991   3.114  -7.194  1.00  0.00     0.040 A 
ATOM     83  C   UNL     1      15.748   3.511  -5.170  1.00  0.00     0.040 A 
ATOM     84  F   UNL     1      15.211   1.717  -3.753  1.00  0.00    -0.206 F 
ATOM     85  C   UNL     1      16.352   3.999  -6.328  1.00  0.00     0.006 A 
ENDBRANCH  57  78
BRANCH  69  86
ATOM     86  C   UNL     1      21.576  -3.081  -3.949  1.00  0.00     0.057 A 
ATOM     87  C   UNL     1      22.084  -2.437  -2.814  1.00  0.00     0.134 A 
ATOM     88  C   UNL     1      22.496  -3.563  -4.889  1.00  0.00     0.134 A 
ATOM     89  F   UNL     1      21.254  -1.940  -1.885  1.00  0.00    -0.206 F 
ATOM     90  C   UNL     1      23.457  -2.263  -2.630  1.00  0.00     0.040 A 
ATOM     91  C   UNL     1      23.871  -3.415  -4.704  1.00  0.00     0.040 A 
ATOM     92  F   UNL     1      22.073  -4.195  -5.994  1.00  0.00    -0.206 F 
ATOM     93  C   UNL     1      24.355  -2.759  -3.574  1.00  0.00     0.006 A 
ENDBRANCH  69  86
ENDBRANCH  43  44
ENDBRANCH  35  38
ENDBRANCH  33  34
ENDBRANCH  32  33
ENDBRANCH  31  32
ENDBRANCH   1  31
TORSDOF 16
