REMARK SMILES CO[C@@H]1C[C@H](C(=O)NCCCCCCNC(=O)c2ccc(-c3c4nc(c(-c5c(F)cccc5F)c5ccc([nH]5)c(-c5c(F)cccc5F)c5nc(c(-c6c(F)cccc6F)c6ccc3[nH]6)C=C5)C=C4)cc2)N(C(=O)[C@H](CC(C)C)NC(N)=O)C1
REMARK SMILES IDX 10 1 9 2 8 3 6 4 7 5 5 7 3 8 4 9 84 10 72 11 2 12 1 13 73 14
REMARK SMILES IDX 74 15 75 16 80 17 81 18 82 20 83 21 76 24 77 25 78 26 79 27
REMARK SMILES IDX 11 28 12 29 13 30 14 31 15 32 16 33 17 35 18 36 19 37 71 38
REMARK SMILES IDX 20 39 70 40 21 41 22 42 23 43 64 44 24 45 69 46 63 47 65 48
REMARK SMILES IDX 25 49 68 50 62 51 61 52 26 54 52 55 35 56 51 57 36 58 39 59
REMARK SMILES IDX 50 60 66 61 37 62 38 63 49 65 67 66 40 67 27 68 28 69 33 70
REMARK SMILES IDX 29 71 30 72 32 73 34 74 31 75 53 76 54 77 59 78 55 79 56 80
REMARK SMILES IDX 58 81 60 82 57 83 41 84 42 85 47 86 43 87 44 88 46 89 48 90
REMARK SMILES IDX 45 91
REMARK H PARENT 8 6 80 19 82 22 82 23 15 34 65 53 39 64
REMARK Flexibility Score: inf
ROOT
ATOM      1  C   UNL     1       0.025   8.973   6.346  1.00  0.00     0.021 C 
ENDROOT
BRANCH   1   2
ATOM      2  C   UNL     1       0.154   8.763   4.832  1.00  0.00     0.116 C 
BRANCH   2   3
ATOM      3  N   UNL     1       1.547   8.675   4.455  1.00  0.00    -0.354 N 
ATOM      4  C   UNL     1       2.315   7.631   4.057  1.00  0.00     0.242 C 
ATOM      5  O   UNL     1       3.535   7.771   4.236  1.00  0.00    -0.273 OA
ATOM      6  H   UNL     1       2.028   9.534   4.494  1.00  0.00     0.163 HD
BRANCH   4   7
ATOM      7  C   UNL     1       1.799   6.259   3.546  1.00  0.00     0.177 C 
ATOM      8  C   UNL     1       0.174   5.089   4.907  1.00  0.00     0.139 C 
ATOM      9  C   UNL     1       1.668   5.189   4.622  1.00  0.00     0.069 C 
ATOM     10  C   UNL     1      -0.487   5.537   3.589  1.00  0.00     0.152 C 
ATOM     11  N   UNL     1       0.571   6.141   2.774  1.00  0.00    -0.326 N 
BRANCH   8  12
ATOM     12  O   UNL     1      -0.228   5.905   6.006  1.00  0.00    -0.380 OA
ATOM     13  C   UNL     1       0.418   5.561   7.230  1.00  0.00     0.195 C 
ENDBRANCH   8  12
BRANCH  11  14
ATOM     14  C   UNL     1       0.334   6.328   1.423  1.00  0.00     0.246 C 
ATOM     15  O   UNL     1      -0.848   6.454   1.074  1.00  0.00    -0.272 OA
BRANCH  14  16
ATOM     16  C   UNL     1       1.488   6.449   0.350  1.00  0.00     0.173 C 
BRANCH  16  17
ATOM     17  N   UNL     1       2.800   5.983   0.802  1.00  0.00    -0.327 N 
ATOM     18  C   UNL     1       3.896   6.784   0.890  1.00  0.00     0.312 C 
ATOM     19  H   UNL     1       2.895   5.036   1.056  1.00  0.00     0.166 HD
ATOM     20  N   UNL     1       4.936   6.173   1.510  1.00  0.00    -0.352 N 
ATOM     21  O   UNL     1       3.958   7.939   0.508  1.00  0.00    -0.249 OA
ATOM     22  H   UNL     1       4.851   5.238   1.806  1.00  0.00     0.161 HD
ATOM     23  H   UNL     1       5.775   6.664   1.664  1.00  0.00     0.161 HD
ENDBRANCH  16  17
BRANCH  16  24
ATOM     24  C   UNL     1       1.251   5.749  -1.029  1.00  0.00     0.038 C 
BRANCH  24  25
ATOM     25  C   UNL     1      -0.089   5.047  -1.315  1.00  0.00    -0.015 C 
ATOM     26  C   UNL     1      -1.147   6.034  -1.814  1.00  0.00     0.007 C 
ATOM     27  C   UNL     1       0.094   3.947  -2.372  1.00  0.00     0.007 C 
ENDBRANCH  24  25
ENDBRANCH  16  24
ENDBRANCH  14  16
ENDBRANCH  11  14
ENDBRANCH   4   7
ENDBRANCH   2   3
ENDBRANCH   1   2
BRANCH   1  28
ATOM     28  C   UNL     1       0.033  10.441   6.782  1.00  0.00     0.002 C 
BRANCH  28  29
ATOM     29  C   UNL     1      -1.142  11.274   6.259  1.00  0.00     0.002 C 
BRANCH  29  30
ATOM     30  C   UNL     1      -2.530  10.691   6.537  1.00  0.00     0.021 C 
BRANCH  30  31
ATOM     31  C   UNL     1      -2.820  10.409   8.008  1.00  0.00     0.116 C 
BRANCH  31  32
ATOM     32  N   UNL     1      -2.712  11.608   8.825  1.00  0.00    -0.352 N 
ATOM     33  C   UNL     1      -3.668  12.247   9.572  1.00  0.00     0.251 C 
ATOM     34  H   UNL     1      -1.819  12.023   8.844  1.00  0.00     0.163 HD
ATOM     35  O   UNL     1      -3.461  13.371  10.017  1.00  0.00    -0.269 OA
BRANCH  33  36
ATOM     36  C   UNL     1      -4.958  11.579   9.831  1.00  0.00     0.039 A 
ATOM     37  C   UNL     1      -6.142  12.301   9.666  1.00  0.00     0.014 A 
ATOM     38  C   UNL     1      -4.997  10.242  10.236  1.00  0.00     0.014 A 
ATOM     39  C   UNL     1      -7.370  11.662   9.843  1.00  0.00     0.010 A 
ATOM     40  C   UNL     1      -6.219   9.587  10.339  1.00  0.00     0.010 A 
ATOM     41  C   UNL     1      -7.418  10.290  10.141  1.00  0.00    -0.014 A 
BRANCH  41  42
ATOM     42  C   UNL     1      -8.710   9.567  10.233  1.00  0.00     0.031 A 
ATOM     43  C   UNL     1      -9.139   8.943  11.531  1.00  0.00     0.074 A 
ATOM     44  C   UNL     1      -9.462   9.412   9.126  1.00  0.00     0.049 A 
ATOM     45  N   UNL     1     -10.188   8.204  11.786  1.00  0.00    -0.248 NA
ATOM     46  C   UNL     1      -8.257   9.155  12.689  1.00  0.00     0.031 C 
ATOM     47  C   UNL     1      -9.130   9.933   7.799  1.00  0.00     0.029 A 
ATOM     48  N   UNL     1     -10.654   8.758   8.938  1.00  0.00    -0.354 N 
ATOM     49  C   UNL     1     -10.090   7.859  13.127  1.00  0.00     0.074 A 
ATOM     50  C   UNL     1      -8.849   8.418  13.618  1.00  0.00     0.031 C 
ATOM     51  C   UNL     1     -10.103   9.594   6.938  1.00  0.00     0.029 A 
ATOM     52  C   UNL     1     -11.102   8.794   7.639  1.00  0.00     0.049 A 
ATOM     53  H   UNL     1     -11.141   8.306   9.664  1.00  0.00     0.167 HD
ATOM     54  C   UNL     1     -10.966   7.159  13.887  1.00  0.00     0.037 A 
ATOM     55  C   UNL     1     -12.186   8.232   7.074  1.00  0.00     0.037 A 
ATOM     56  C   UNL     1     -12.203   6.611  13.395  1.00  0.00     0.049 A 
ATOM     57  C   UNL     1     -13.127   7.431   7.931  1.00  0.00     0.074 A 
ATOM     58  C   UNL     1     -13.182   5.928  14.095  1.00  0.00     0.029 A 
ATOM     59  N   UNL     1     -12.626   6.675  12.075  1.00  0.00    -0.354 N 
ATOM     60  N   UNL     1     -13.057   7.170   9.214  1.00  0.00    -0.248 NA
ATOM     61  C   UNL     1     -14.300   6.850   7.263  1.00  0.00     0.031 C 
ATOM     62  C   UNL     1     -14.171   5.532  13.189  1.00  0.00     0.029 A 
ATOM     63  C   UNL     1     -13.838   6.019  11.935  1.00  0.00     0.049 A 
ATOM     64  H   UNL     1     -12.138   7.122  11.346  1.00  0.00     0.167 HD
ATOM     65  C   UNL     1     -14.187   6.419   9.512  1.00  0.00     0.074 A 
ATOM     66  C   UNL     1     -14.933   6.280   8.279  1.00  0.00     0.031 C 
ATOM     67  C   UNL     1     -14.572   5.892  10.700  1.00  0.00     0.037 A 
BRANCH  54  68
ATOM     68  C   UNL     1     -10.613   6.944  15.332  1.00  0.00     0.057 A 
ATOM     69  C   UNL     1     -10.594   8.000  16.253  1.00  0.00     0.134 A 
ATOM     70  C   UNL     1     -10.317   5.663  15.815  1.00  0.00     0.134 A 
ATOM     71  F   UNL     1     -10.857   9.255  15.856  1.00  0.00    -0.206 F 
ATOM     72  C   UNL     1     -10.264   7.795  17.594  1.00  0.00     0.040 A 
ATOM     73  C   UNL     1     -10.017   5.441  17.160  1.00  0.00     0.040 A 
ATOM     74  F   UNL     1     -10.324   4.605  14.991  1.00  0.00    -0.206 F 
ATOM     75  C   UNL     1      -9.981   6.511  18.052  1.00  0.00     0.006 A 
ENDBRANCH  54  68
BRANCH  55  76
ATOM     76  C   UNL     1     -12.444   8.411   5.622  1.00  0.00     0.057 A 
ATOM     77  C   UNL     1     -13.523   9.177   5.167  1.00  0.00     0.134 A 
ATOM     78  C   UNL     1     -11.622   7.818   4.655  1.00  0.00     0.134 A 
ATOM     79  F   UNL     1     -14.357   9.755   6.043  1.00  0.00    -0.206 F 
ATOM     80  C   UNL     1     -13.789   9.330   3.805  1.00  0.00     0.040 A 
ATOM     81  C   UNL     1     -11.859   7.987   3.290  1.00  0.00     0.040 A 
ATOM     82  F   UNL     1     -10.566   7.078   5.025  1.00  0.00    -0.206 F 
ATOM     83  C   UNL     1     -12.951   8.738   2.862  1.00  0.00     0.006 A 
ENDBRANCH  55  76
BRANCH  67  84
ATOM     84  C   UNL     1     -15.873   5.143  10.733  1.00  0.00     0.057 A 
ATOM     85  C   UNL     1     -16.020   3.884  10.138  1.00  0.00     0.134 A 
ATOM     86  C   UNL     1     -16.980   5.670  11.412  1.00  0.00     0.134 A 
ATOM     87  F   UNL     1     -15.003   3.329   9.461  1.00  0.00    -0.206 F 
ATOM     88  C   UNL     1     -17.227   3.185  10.198  1.00  0.00     0.040 A 
ATOM     89  C   UNL     1     -18.182   4.968  11.505  1.00  0.00     0.040 A 
ATOM     90  F   UNL     1     -16.905   6.867  12.013  1.00  0.00    -0.206 F 
ATOM     91  C   UNL     1     -18.309   3.724  10.891  1.00  0.00     0.006 A 
ENDBRANCH  67  84
ENDBRANCH  41  42
ENDBRANCH  33  36
ENDBRANCH  31  32
ENDBRANCH  30  31
ENDBRANCH  29  30
ENDBRANCH  28  29
ENDBRANCH   1  28
TORSDOF 19
