REMARK SMILES O=CN1CCC[C@@H](C(=O)NCCCCCCNC(=O)c2ccc(-c3c4nc(c(-c5c(F)cccc5F)c5ccc([nH]5)c(-c5c(F)cccc5F)c5nc(c(-c6c(F)cccc6F)c6ccc3[nH]6)C=C5)C=C4)cc2)C1
REMARK SMILES IDX 14 1 13 2 12 3 11 4 10 5 8 6 9 7 7 9 3 10 4 11 74 12 5 13
REMARK SMILES IDX 6 14 2 15 1 16 15 17 16 18 17 19 18 20 19 22 20 23 21 24
REMARK SMILES IDX 73 25 22 26 72 27 23 28 24 29 25 30 66 31 26 32 71 33 65 34
REMARK SMILES IDX 67 35 27 36 70 37 64 38 63 39 28 41 54 42 37 43 53 44 38 45
REMARK SMILES IDX 41 46 52 47 68 48 39 49 40 50 51 52 69 53 42 54 29 55 30 56
REMARK SMILES IDX 35 57 31 58 32 59 34 60 36 61 33 62 55 63 56 64 61 65 57 66
REMARK SMILES IDX 58 67 60 68 62 69 59 70 43 71 44 72 49 73 45 74 46 75 48 76
REMARK SMILES IDX 50 77 47 78
REMARK H PARENT 10 8 17 21 67 40 41 51
REMARK Flexibility Score: inf
ROOT
ATOM      1  C   UNL     1       3.792  -8.903   1.782  1.00  0.00     0.002 C 
ENDROOT
BRANCH   1   2
ATOM      2  C   UNL     1       3.097  -7.572   2.093  1.00  0.00     0.002 C 
BRANCH   2   3
ATOM      3  C   UNL     1       4.003  -6.332   2.094  1.00  0.00     0.021 C 
BRANCH   3   4
ATOM      4  C   UNL     1       4.770  -6.112   0.791  1.00  0.00     0.116 C 
BRANCH   4   5
ATOM      5  N   UNL     1       3.891  -5.753  -0.304  1.00  0.00    -0.356 N 
ATOM      6  C   UNL     1       3.463  -4.589  -0.840  1.00  0.00     0.224 C 
ATOM      7  O   UNL     1       2.667  -4.708  -1.781  1.00  0.00    -0.275 OA
ATOM      8  H   UNL     1       3.519  -6.540  -0.763  1.00  0.00     0.163 HD
BRANCH   6   9
ATOM      9  C   UNL     1       3.855  -3.185  -0.381  1.00  0.00     0.098 C 
ATOM     10  N   UNL     1       2.872  -1.078   0.486  1.00  0.00    -0.344 N 
ATOM     11  C   UNL     1       3.964  -0.849   1.417  1.00  0.00     0.119 C 
ATOM     12  C   UNL     1       2.589  -2.464   0.108  1.00  0.00     0.132 C 
ATOM     13  C   UNL     1       5.239  -1.515   0.919  1.00  0.00     0.022 C 
ATOM     14  C   UNL     1       4.996  -2.996   0.618  1.00  0.00     0.017 C 
BRANCH  10  15
ATOM     15  C   UNL     1       2.082  -0.043   0.038  1.00  0.00     0.339 C 
ATOM     16  O   UNL     1       1.110  -0.145  -0.704  1.00  0.00    -0.279 OA
ENDBRANCH  10  15
ENDBRANCH   6   9
ENDBRANCH   4   5
ENDBRANCH   3   4
ENDBRANCH   2   3
ENDBRANCH   1   2
BRANCH   1  17
ATOM     17  C   UNL     1       5.003  -9.239   2.657  1.00  0.00     0.021 C 
BRANCH  17  18
ATOM     18  C   UNL     1       4.709  -9.359   4.150  1.00  0.00     0.116 C 
BRANCH  18  19
ATOM     19  N   UNL     1       3.824 -10.472   4.452  1.00  0.00    -0.352 N 
ATOM     20  C   UNL     1       3.952 -11.464   5.391  1.00  0.00     0.251 C 
ATOM     21  H   UNL     1       3.011 -10.521   3.899  1.00  0.00     0.163 HD
ATOM     22  O   UNL     1       3.176 -12.417   5.382  1.00  0.00    -0.269 OA
BRANCH  20  23
ATOM     23  C   UNL     1       5.027 -11.409   6.406  1.00  0.00     0.039 A 
ATOM     24  C   UNL     1       5.715 -12.586   6.720  1.00  0.00     0.014 A 
ATOM     25  C   UNL     1       5.335 -10.223   7.079  1.00  0.00     0.014 A 
ATOM     26  C   UNL     1       6.740 -12.564   7.669  1.00  0.00     0.010 A 
ATOM     27  C   UNL     1       6.398 -10.188   7.981  1.00  0.00     0.010 A 
ATOM     28  C   UNL     1       7.106 -11.360   8.289  1.00  0.00    -0.014 A 
BRANCH  28  29
ATOM     29  C   UNL     1       8.219 -11.311   9.272  1.00  0.00     0.031 A 
ATOM     30  C   UNL     1       7.943 -10.985  10.713  1.00  0.00     0.074 A 
ATOM     31  C   UNL     1       9.485 -11.507   8.857  1.00  0.00     0.049 A 
ATOM     32  N   UNL     1       8.787 -10.835  11.703  1.00  0.00    -0.248 NA
ATOM     33  C   UNL     1       6.536 -10.774  11.087  1.00  0.00     0.031 C 
ATOM     34  C   UNL     1       9.890 -11.790   7.478  1.00  0.00     0.029 A 
ATOM     35  N   UNL     1      10.667 -11.488   9.553  1.00  0.00    -0.354 N 
ATOM     36  C   UNL     1       8.017 -10.496  12.809  1.00  0.00     0.074 A 
ATOM     37  C   UNL     1       6.644 -10.419  12.359  1.00  0.00     0.031 C 
ATOM     38  C   UNL     1      11.224 -11.936   7.434  1.00  0.00     0.029 A 
ATOM     39  C   UNL     1      11.771 -11.729   8.772  1.00  0.00     0.049 A 
ATOM     40  H   UNL     1      10.719 -11.318  10.522  1.00  0.00     0.167 HD
ATOM     41  C   UNL     1       8.414 -10.289  14.087  1.00  0.00     0.037 A 
ATOM     42  C   UNL     1      13.077 -11.774   9.096  1.00  0.00     0.037 A 
ATOM     43  C   UNL     1       9.775 -10.398  14.542  1.00  0.00     0.049 A 
ATOM     44  C   UNL     1      13.491 -11.555  10.524  1.00  0.00     0.074 A 
ATOM     45  C   UNL     1      10.268 -10.264  15.829  1.00  0.00     0.029 A 
ATOM     46  N   UNL     1      10.861 -10.671  13.724  1.00  0.00    -0.354 N 
ATOM     47  N   UNL     1      12.745 -11.292  11.569  1.00  0.00    -0.248 NA
ATOM     48  C   UNL     1      14.928 -11.645  10.819  1.00  0.00     0.031 C 
ATOM     49  C   UNL     1      11.657 -10.424  15.784  1.00  0.00     0.029 A 
ATOM     50  C   UNL     1      12.024 -10.696  14.476  1.00  0.00     0.049 A 
ATOM     51  H   UNL     1      10.812 -10.825  12.753  1.00  0.00     0.167 HD
ATOM     52  C   UNL     1      13.616 -11.215  12.648  1.00  0.00     0.074 A 
ATOM     53  C   UNL     1      14.945 -11.467  12.132  1.00  0.00     0.031 C 
ATOM     54  C   UNL     1      13.338 -10.959  13.950  1.00  0.00     0.037 A 
BRANCH  41  55
ATOM     55  C   UNL     1       7.357  -9.928  15.089  1.00  0.00     0.057 A 
ATOM     56  C   UNL     1       6.419 -10.866  15.541  1.00  0.00     0.134 A 
ATOM     57  C   UNL     1       7.295  -8.639  15.633  1.00  0.00     0.134 A 
ATOM     58  F   UNL     1       6.416 -12.115  15.050  1.00  0.00    -0.206 F 
ATOM     59  C   UNL     1       5.442 -10.528  16.478  1.00  0.00     0.040 A 
ATOM     60  C   UNL     1       6.339  -8.296  16.589  1.00  0.00     0.040 A 
ATOM     61  F   UNL     1       8.167  -7.695  15.248  1.00  0.00    -0.206 F 
ATOM     62  C   UNL     1       5.404  -9.240  17.010  1.00  0.00     0.006 A 
ENDBRANCH  41  55
BRANCH  42  63
ATOM     63  C   UNL     1      14.088 -12.071   8.053  1.00  0.00     0.057 A 
ATOM     64  C   UNL     1      14.753 -13.303   8.024  1.00  0.00     0.134 A 
ATOM     65  C   UNL     1      14.418 -11.136   7.065  1.00  0.00     0.134 A 
ATOM     66  F   UNL     1      14.492 -14.231   8.957  1.00  0.00    -0.206 F 
ATOM     67  C   UNL     1      15.721 -13.589   7.061  1.00  0.00     0.040 A 
ATOM     68  C   UNL     1      15.368 -11.417   6.082  1.00  0.00     0.040 A 
ATOM     69  F   UNL     1      13.810  -9.941   7.035  1.00  0.00    -0.206 F 
ATOM     70  C   UNL     1      16.027 -12.645   6.082  1.00  0.00     0.006 A 
ENDBRANCH  42  63
BRANCH  54  71
ATOM     71  C   UNL     1      14.488 -10.975  14.911  1.00  0.00     0.057 A 
ATOM     72  C   UNL     1      15.424  -9.935  14.961  1.00  0.00     0.134 A 
ATOM     73  C   UNL     1      14.638 -12.027  15.824  1.00  0.00     0.134 A 
ATOM     74  F   UNL     1      15.343  -8.906  14.103  1.00  0.00    -0.206 F 
ATOM     75  C   UNL     1      16.481  -9.950  15.872  1.00  0.00     0.040 A 
ATOM     76  C   UNL     1      15.677 -12.041  16.755  1.00  0.00     0.040 A 
ATOM     77  F   UNL     1      13.770 -13.050  15.833  1.00  0.00    -0.206 F 
ATOM     78  C   UNL     1      16.605 -11.003  16.777  1.00  0.00     0.006 A 
ENDBRANCH  54  71
ENDBRANCH  28  29
ENDBRANCH  20  23
ENDBRANCH  18  19
ENDBRANCH  17  18
ENDBRANCH   1  17
TORSDOF 14
