REMARK SMILES CC1=NN(c2ccc(C(=O)NCCCCCCNC(=O)c3ccc(-c4c5nc(c(-c6c(F)cccc6F)c6ccc([nH]6)c(-c6c(F)cccc6F)c6nc(c(-c7c(F)cccc7F)c7ccc4[nH]7)C=C6)C=C5)cc3)cc2)C(=O)/C1=C\c1ccc(N2CCCC2)cc1
REMARK SMILES IDX 14 1 13 2 12 3 11 4 9 5 10 6 8 8 5 9 6 10 76 11 7 12 75 13
REMARK SMILES IDX 4 14 1 15 2 16 3 17 79 18 77 19 80 20 78 21 81 22 82 23
REMARK SMILES IDX 91 24 83 25 90 26 84 27 85 28 86 29 89 30 87 31 88 32 15 33
REMARK SMILES IDX 16 34 17 35 18 36 19 37 20 39 21 40 22 41 74 42 23 43 73 44
REMARK SMILES IDX 24 45 25 46 26 47 67 48 27 49 72 50 66 51 68 52 28 53 71 54
REMARK SMILES IDX 65 55 64 56 29 58 55 59 38 60 54 61 39 62 42 63 53 64 69 65
REMARK SMILES IDX 40 66 41 67 52 69 70 70 43 71 30 72 31 73 36 74 32 75 33 76
REMARK SMILES IDX 35 77 37 78 34 79 56 80 57 81 62 82 58 83 59 84 61 85 63 86
REMARK SMILES IDX 60 87 44 88 45 89 50 90 46 91 47 92 49 93 51 94 48 95
REMARK H PARENT 11 7 18 38 68 57 42 68
REMARK Flexibility Score: inf
ROOT
ATOM      1  C   UNL     1       5.090   7.718  -3.644  1.00  0.00     0.002 C 
ENDROOT
BRANCH   1   2
ATOM      2  C   UNL     1       4.322   6.445  -3.267  1.00  0.00     0.021 C 
BRANCH   2   3
ATOM      3  C   UNL     1       4.731   5.900  -1.896  1.00  0.00     0.116 C 
BRANCH   3   4
ATOM      4  N   UNL     1       4.063   6.657  -0.854  1.00  0.00    -0.352 N 
ATOM      5  C   UNL     1       2.933   6.430  -0.112  1.00  0.00     0.251 C 
ATOM      6  O   UNL     1       2.583   7.316   0.670  1.00  0.00    -0.269 OA
ATOM      7  H   UNL     1       4.512   7.506  -0.637  1.00  0.00     0.163 HD
BRANCH   5   8
ATOM      8  C   UNL     1       2.167   5.152  -0.150  1.00  0.00     0.039 A 
ATOM      9  C   UNL     1       0.915   2.650   0.070  1.00  0.00     0.069 A 
ATOM     10  C   UNL     1       0.744   3.594   1.080  1.00  0.00     0.029 A 
ATOM     11  C   UNL     1       1.619   2.992  -1.085  1.00  0.00     0.029 A 
ATOM     12  C   UNL     1       1.405   4.825   0.986  1.00  0.00     0.016 A 
ATOM     13  C   UNL     1       2.175   4.261  -1.221  1.00  0.00     0.016 A 
BRANCH   9  14
ATOM     14  N   UNL     1       0.409   1.353   0.202  1.00  0.00    -0.196 N 
ATOM     15  C   UNL     1      -2.532  -0.698   0.155  1.00  0.00     0.069 C 
ATOM     16  C   UNL     1      -1.171  -0.091   0.188  1.00  0.00     0.071 C 
ATOM     17  N   UNL     1      -0.954   1.185   0.374  1.00  0.00    -0.169 NA
ATOM     18  C   UNL     1       0.078  -0.853  -0.007  1.00  0.00     0.065 C 
ATOM     19  C   UNL     1       1.125   0.191  -0.107  1.00  0.00     0.280 C 
ATOM     20  C   UNL     1       0.230  -2.184  -0.004  1.00  0.00     0.024 C 
ATOM     21  O   UNL     1       2.292   0.048  -0.405  1.00  0.00    -0.267 OA
BRANCH  20  22
ATOM     22  C   UNL     1       1.543  -2.839   0.039  1.00  0.00    -0.025 A 
ATOM     23  C   UNL     1       2.002  -3.620  -1.020  1.00  0.00     0.010 A 
ATOM     24  C   UNL     1       2.361  -2.682   1.163  1.00  0.00     0.010 A 
ATOM     25  C   UNL     1       3.276  -4.208  -0.959  1.00  0.00     0.026 A 
ATOM     26  C   UNL     1       3.623  -3.282   1.216  1.00  0.00     0.026 A 
ATOM     27  C   UNL     1       4.109  -4.058   0.160  1.00  0.00     0.037 A 
BRANCH  27  28
ATOM     28  N   UNL     1       5.361  -4.630   0.189  1.00  0.00    -0.372 N 
ATOM     29  C   UNL     1       5.995  -5.151   1.395  1.00  0.00     0.116 C 
ATOM     30  C   UNL     1       6.347  -4.257  -0.825  1.00  0.00     0.116 C 
ATOM     31  C   UNL     1       7.447  -4.707   1.258  1.00  0.00     0.023 C 
ATOM     32  C   UNL     1       7.676  -4.744  -0.245  1.00  0.00     0.023 C 
ENDBRANCH  27  28
ENDBRANCH  20  22
ENDBRANCH   9  14
ENDBRANCH   5   8
ENDBRANCH   3   4
ENDBRANCH   2   3
ENDBRANCH   1   2
BRANCH   1  33
ATOM     33  C   UNL     1       6.605   7.522  -3.787  1.00  0.00     0.002 C 
BRANCH  33  34
ATOM     34  C   UNL     1       7.013   6.441  -4.790  1.00  0.00     0.021 C 
BRANCH  34  35
ATOM     35  C   UNL     1       6.566   6.730  -6.218  1.00  0.00     0.116 C 
BRANCH  35  36
ATOM     36  N   UNL     1       7.204   7.931  -6.738  1.00  0.00    -0.352 N 
ATOM     37  C   UNL     1       8.028   8.072  -7.824  1.00  0.00     0.251 C 
ATOM     38  H   UNL     1       7.016   8.758  -6.240  1.00  0.00     0.163 HD
ATOM     39  O   UNL     1       8.694   9.092  -7.970  1.00  0.00    -0.269 OA
BRANCH  37  40
ATOM     40  C   UNL     1       8.116   6.983  -8.817  1.00  0.00     0.039 A 
ATOM     41  C   UNL     1       9.369   6.610  -9.308  1.00  0.00     0.014 A 
ATOM     42  C   UNL     1       6.960   6.338  -9.266  1.00  0.00     0.014 A 
ATOM     43  C   UNL     1       9.467   5.548 -10.207  1.00  0.00     0.010 A 
ATOM     44  C   UNL     1       7.066   5.232 -10.101  1.00  0.00     0.010 A 
ATOM     45  C   UNL     1       8.320   4.828 -10.583  1.00  0.00    -0.014 A 
BRANCH  45  46
ATOM     46  C   UNL     1       8.411   3.646 -11.476  1.00  0.00     0.031 A 
ATOM     47  C   UNL     1       7.741   3.665 -12.822  1.00  0.00     0.074 A 
ATOM     48  C   UNL     1       9.047   2.537 -11.049  1.00  0.00     0.049 A 
ATOM     49  N   UNL     1       7.633   2.705 -13.705  1.00  0.00    -0.248 NA
ATOM     50  C   UNL     1       7.087   4.922 -13.220  1.00  0.00     0.031 C 
ATOM     51  C   UNL     1       9.709   2.386  -9.752  1.00  0.00     0.029 A 
ATOM     52  N   UNL     1       9.232   1.322 -11.658  1.00  0.00    -0.354 N 
ATOM     53  C   UNL     1       6.902   3.241 -14.758  1.00  0.00     0.074 A 
ATOM     54  C   UNL     1       6.539   4.588 -14.379  1.00  0.00     0.031 C 
ATOM     55  C   UNL     1      10.247   1.158  -9.672  1.00  0.00     0.029 A 
ATOM     56  C   UNL     1       9.926   0.419 -10.889  1.00  0.00     0.049 A 
ATOM     57  H   UNL     1       8.899   1.116 -12.562  1.00  0.00     0.167 HD
ATOM     58  C   UNL     1       6.587   2.670 -15.945  1.00  0.00     0.037 A 
ATOM     59  C   UNL     1      10.252  -0.864 -11.131  1.00  0.00     0.037 A 
ATOM     60  C   UNL     1       6.958   1.331 -16.322  1.00  0.00     0.049 A 
ATOM     61  C   UNL     1       9.838  -1.489 -12.437  1.00  0.00     0.074 A 
ATOM     62  C   UNL     1       6.708   0.671 -17.512  1.00  0.00     0.029 A 
ATOM     63  N   UNL     1       7.657   0.448 -15.513  1.00  0.00    -0.354 N 
ATOM     64  N   UNL     1       9.193  -0.953 -13.445  1.00  0.00    -0.248 NA
ATOM     65  C   UNL     1      10.200  -2.899 -12.639  1.00  0.00     0.031 C 
ATOM     66  C   UNL     1       7.213  -0.628 -17.406  1.00  0.00     0.029 A 
ATOM     67  C   UNL     1       7.829  -0.759 -16.172  1.00  0.00     0.049 A 
ATOM     68  H   UNL     1       7.984   0.648 -14.606  1.00  0.00     0.167 HD
ATOM     69  C   UNL     1       9.107  -1.947 -14.412  1.00  0.00     0.074 A 
ATOM     70  C   UNL     1       9.781  -3.110 -13.877  1.00  0.00     0.031 C 
ATOM     71  C   UNL     1       8.519  -1.902 -15.633  1.00  0.00     0.037 A 
BRANCH  58  72
ATOM     72  C   UNL     1       5.812   3.495 -16.931  1.00  0.00     0.057 A 
ATOM     73  C   UNL     1       6.391   4.586 -17.592  1.00  0.00     0.134 A 
ATOM     74  C   UNL     1       4.495   3.160 -17.270  1.00  0.00     0.134 A 
ATOM     75  F   UNL     1       7.645   4.967 -17.305  1.00  0.00    -0.206 F 
ATOM     76  C   UNL     1       5.683   5.325 -18.541  1.00  0.00     0.040 A 
ATOM     77  C   UNL     1       3.787   3.874 -18.239  1.00  0.00     0.040 A 
ATOM     78  F   UNL     1       3.881   2.123 -16.681  1.00  0.00    -0.206 F 
ATOM     79  C   UNL     1       4.380   4.963 -18.874  1.00  0.00     0.006 A 
ENDBRANCH  58  72
BRANCH  59  80
ATOM     80  C   UNL     1      11.008  -1.656 -10.126  1.00  0.00     0.057 A 
ATOM     81  C   UNL     1      12.304  -2.115 -10.394  1.00  0.00     0.134 A 
ATOM     82  C   UNL     1      10.440  -2.020  -8.899  1.00  0.00     0.134 A 
ATOM     83  F   UNL     1      12.898  -1.817 -11.559  1.00  0.00    -0.206 F 
ATOM     84  C   UNL     1      12.991  -2.937  -9.499  1.00  0.00     0.040 A 
ATOM     85  C   UNL     1      11.127  -2.814  -7.980  1.00  0.00     0.040 A 
ATOM     86  F   UNL     1       9.205  -1.608  -8.575  1.00  0.00    -0.206 F 
ATOM     87  C   UNL     1      12.401  -3.288  -8.286  1.00  0.00     0.006 A 
ENDBRANCH  59  80
BRANCH  71  88
ATOM     88  C   UNL     1       8.624  -3.130 -16.491  1.00  0.00     0.057 A 
ATOM     89  C   UNL     1       7.931  -4.309 -16.191  1.00  0.00     0.134 A 
ATOM     90  C   UNL     1       9.406  -3.119 -17.654  1.00  0.00     0.134 A 
ATOM     91  F   UNL     1       7.175  -4.391 -15.086  1.00  0.00    -0.206 F 
ATOM     92  C   UNL     1       8.035  -5.442 -17.000  1.00  0.00     0.040 A 
ATOM     93  C   UNL     1       9.492  -4.234 -18.488  1.00  0.00     0.040 A 
ATOM     94  F   UNL     1      10.089  -2.018 -18.007  1.00  0.00    -0.206 F 
ATOM     95  C   UNL     1       8.812  -5.403 -18.156  1.00  0.00     0.006 A 
ENDBRANCH  71  88
ENDBRANCH  45  46
ENDBRANCH  37  40
ENDBRANCH  35  36
ENDBRANCH  34  35
ENDBRANCH  33  34
ENDBRANCH   1  33
TORSDOF 16
