REMARK SMILES COc1ccccc1[C@@H]1CN(C(=O)c2cc(C(C)C)nc(N)n2)C[C@H]1C(=O)NCCCCCCNC(=O)c1ccc(-c2c3nc(c(-c4c(F)cccc4F)c4ccc([nH]4)c(-c4c(F)cccc4F)c4nc(c(-c5c(F)cccc5F)c5ccc2[nH]5)C=C4)C=C3)cc1
REMARK SMILES IDX 31 1 30 2 29 3 28 4 26 5 27 6 25 8 9 9 10 10 11 11 24 12
REMARK SMILES IDX 8 13 3 14 4 15 5 16 7 17 6 18 2 19 1 20 12 21 13 22 14 23
REMARK SMILES IDX 15 24 23 25 16 26 21 27 20 28 17 29 18 30 19 31 22 32 32 35
REMARK SMILES IDX 33 36 34 37 35 38 36 39 37 41 38 42 39 43 91 44 40 45 90 46
REMARK SMILES IDX 41 47 42 48 43 49 84 50 44 51 89 52 83 53 85 54 45 55 88 56
REMARK SMILES IDX 82 57 81 58 46 60 72 61 55 62 71 63 56 64 59 65 70 66 86 67
REMARK SMILES IDX 57 68 58 69 69 71 87 72 60 73 47 74 48 75 53 76 49 77 50 78
REMARK SMILES IDX 52 79 54 80 51 81 73 82 74 83 79 84 75 85 76 86 78 87 80 88
REMARK SMILES IDX 77 89 61 90 62 91 67 92 63 93 64 94 66 95 68 96 65 97
REMARK H PARENT 28 7 22 33 22 34 35 40 85 59 59 70
REMARK Flexibility Score: inf
ROOT
ATOM      1  C   UNL     1       6.626  -4.406  -1.333  1.00  0.00     0.002 C 
ENDROOT
BRANCH   1   2
ATOM      2  C   UNL     1       6.140  -3.275  -0.420  1.00  0.00     0.021 C 
BRANCH   2   3
ATOM      3  C   UNL     1       5.435  -2.139  -1.155  1.00  0.00     0.116 C 
BRANCH   3   4
ATOM      4  N   UNL     1       4.187  -2.592  -1.734  1.00  0.00    -0.356 N 
ATOM      5  C   UNL     1       2.911  -2.170  -1.561  1.00  0.00     0.225 C 
ATOM      6  O   UNL     1       2.032  -2.765  -2.192  1.00  0.00    -0.275 OA
ATOM      7  H   UNL     1       4.283  -3.341  -2.367  1.00  0.00     0.163 HD
BRANCH   5   8
ATOM      8  C   UNL     1       2.543  -1.011  -0.656  1.00  0.00     0.107 C 
ATOM      9  C   UNL     1       2.852  -1.221   0.840  1.00  0.00     0.057 C 
ATOM     10  C   UNL     1       3.234   0.176   1.336  1.00  0.00     0.129 C 
ATOM     11  N   UNL     1       3.865   0.783   0.172  1.00  0.00    -0.336 N 
ATOM     12  C   UNL     1       3.256   0.284  -1.050  1.00  0.00     0.134 C 
BRANCH   9  13
ATOM     13  C   UNL     1       1.794  -1.951   1.637  1.00  0.00    -0.000 A 
ATOM     14  C   UNL     1       0.564  -1.398   2.025  1.00  0.00     0.122 A 
ATOM     15  C   UNL     1      -0.345  -2.135   2.792  1.00  0.00     0.047 A 
ATOM     16  C   UNL     1      -0.045  -3.440   3.177  1.00  0.00     0.004 A 
ATOM     17  C   UNL     1       2.071  -3.276   2.032  1.00  0.00     0.008 A 
ATOM     18  C   UNL     1       1.166  -4.010   2.802  1.00  0.00     0.001 A 
BRANCH  14  19
ATOM     19  O   UNL     1       0.274  -0.079   1.813  1.00  0.00    -0.496 OA
ATOM     20  C   UNL     1      -0.452   0.146   0.607  1.00  0.00     0.278 C 
ENDBRANCH  14  19
ENDBRANCH   9  13
BRANCH  11  21
ATOM     21  C   UNL     1       4.790   1.816   0.132  1.00  0.00     0.272 C 
ATOM     22  O   UNL     1       5.150   2.335  -0.922  1.00  0.00    -0.267 OA
BRANCH  21  23
ATOM     23  C   UNL     1       5.411   2.258   1.409  1.00  0.00     0.134 A 
ATOM     24  C   UNL     1       6.134   1.348   2.149  1.00  0.00     0.058 A 
ATOM     25  N   UNL     1       5.237   3.549   1.747  1.00  0.00    -0.208 NA
ATOM     26  C   UNL     1       6.633   1.815   3.342  1.00  0.00     0.049 A 
ATOM     27  C   UNL     1       5.796   3.918   2.894  1.00  0.00     0.220 A 
ATOM     28  N   UNL     1       6.471   3.102   3.714  1.00  0.00    -0.218 NA
BRANCH  26  29
ATOM     29  C   UNL     1       7.343   0.904   4.321  1.00  0.00     0.032 C 
ATOM     30  C   UNL     1       6.376  -0.133   4.899  1.00  0.00     0.014 C 
ATOM     31  C   UNL     1       8.564   0.225   3.699  1.00  0.00     0.014 C 
ENDBRANCH  26  29
BRANCH  27  32
ATOM     32  N   UNL     1       5.683   5.226   3.260  1.00  0.00    -0.368 N 
ATOM     33  H   UNL     1       6.085   5.538   4.103  1.00  0.00     0.159 HD
ATOM     34  H   UNL     1       5.201   5.860   2.681  1.00  0.00     0.159 HD
ENDBRANCH  27  32
ENDBRANCH  21  23
ENDBRANCH  11  21
ENDBRANCH   5   8
ENDBRANCH   3   4
ENDBRANCH   2   3
ENDBRANCH   1   2
BRANCH   1  35
ATOM     35  C   UNL     1       7.510  -3.964  -2.504  1.00  0.00     0.002 C 
BRANCH  35  36
ATOM     36  C   UNL     1       8.704  -3.086  -2.124  1.00  0.00     0.021 C 
BRANCH  36  37
ATOM     37  C   UNL     1       9.634  -3.692  -1.082  1.00  0.00     0.116 C 
BRANCH  37  38
ATOM     38  N   UNL     1      10.258  -4.917  -1.547  1.00  0.00    -0.352 N 
ATOM     39  C   UNL     1      11.574  -5.294  -1.468  1.00  0.00     0.251 C 
ATOM     40  H   UNL     1       9.654  -5.565  -1.976  1.00  0.00     0.163 HD
ATOM     41  O   UNL     1      11.968  -6.292  -2.061  1.00  0.00    -0.269 OA
BRANCH  39  42
ATOM     42  C   UNL     1      12.522  -4.482  -0.676  1.00  0.00     0.039 A 
ATOM     43  C   UNL     1      13.774  -4.191  -1.221  1.00  0.00     0.014 A 
ATOM     44  C   UNL     1      12.187  -4.031   0.604  1.00  0.00     0.014 A 
ATOM     45  C   UNL     1      14.683  -3.422  -0.492  1.00  0.00     0.010 A 
ATOM     46  C   UNL     1      13.066  -3.206   1.300  1.00  0.00     0.010 A 
ATOM     47  C   UNL     1      14.330  -2.913   0.768  1.00  0.00    -0.014 A 
BRANCH  47  48
ATOM     48  C   UNL     1      15.294  -2.118   1.567  1.00  0.00     0.031 A 
ATOM     49  C   UNL     1      15.823  -2.668   2.863  1.00  0.00     0.074 A 
ATOM     50  C   UNL     1      15.660  -0.891   1.152  1.00  0.00     0.049 A 
ATOM     51  N   UNL     1      16.633  -2.114   3.729  1.00  0.00    -0.248 NA
ATOM     52  C   UNL     1      15.354  -4.008   3.253  1.00  0.00     0.031 C 
ATOM     53  C   UNL     1      15.182  -0.230  -0.064  1.00  0.00     0.029 A 
ATOM     54  N   UNL     1      16.517   0.022   1.712  1.00  0.00    -0.354 N 
ATOM     55  C   UNL     1      16.753  -3.025   4.770  1.00  0.00     0.074 A 
ATOM     56  C   UNL     1      15.893  -4.144   4.455  1.00  0.00     0.031 C 
ATOM     57  C   UNL     1      15.773   0.972  -0.170  1.00  0.00     0.029 A 
ATOM     58  C   UNL     1      16.646   1.177   0.981  1.00  0.00     0.049 A 
ATOM     59  H   UNL     1      16.994  -0.136   2.559  1.00  0.00     0.167 HD
ATOM     60  C   UNL     1      17.529  -2.949   5.877  1.00  0.00     0.037 A 
ATOM     61  C   UNL     1      17.391   2.274   1.214  1.00  0.00     0.037 A 
ATOM     62  C   UNL     1      18.415  -1.854   6.167  1.00  0.00     0.049 A 
ATOM     63  C   UNL     1      18.263   2.324   2.437  1.00  0.00     0.074 A 
ATOM     64  C   UNL     1      19.290  -1.709   7.229  1.00  0.00     0.029 A 
ATOM     65  N   UNL     1      18.544  -0.716   5.384  1.00  0.00    -0.354 N 
ATOM     66  N   UNL     1      18.415   1.428   3.382  1.00  0.00    -0.248 NA
ATOM     67  C   UNL     1      19.077   3.534   2.620  1.00  0.00     0.031 C 
ATOM     68  C   UNL     1      19.924  -0.467   7.107  1.00  0.00     0.029 A 
ATOM     69  C   UNL     1      19.474   0.141   5.946  1.00  0.00     0.049 A 
ATOM     70  H   UNL     1      18.046  -0.544   4.552  1.00  0.00     0.167 HD
ATOM     71  C   UNL     1      19.365   1.949   4.251  1.00  0.00     0.074 A 
ATOM     72  C   UNL     1      19.759   3.236   3.716  1.00  0.00     0.031 C 
ATOM     73  C   UNL     1      19.867   1.410   5.389  1.00  0.00     0.037 A 
BRANCH  60  74
ATOM     74  C   UNL     1      17.455  -4.087   6.852  1.00  0.00     0.057 A 
ATOM     75  C   UNL     1      17.983  -5.351   6.555  1.00  0.00     0.134 A 
ATOM     76  C   UNL     1      16.868  -3.913   8.112  1.00  0.00     0.134 A 
ATOM     77  F   UNL     1      18.545  -5.589   5.361  1.00  0.00    -0.206 F 
ATOM     78  C   UNL     1      17.904  -6.408   7.464  1.00  0.00     0.040 A 
ATOM     79  C   UNL     1      16.809  -4.954   9.040  1.00  0.00     0.040 A 
ATOM     80  F   UNL     1      16.347  -2.728   8.463  1.00  0.00    -0.206 F 
ATOM     81  C   UNL     1      17.321  -6.208   8.714  1.00  0.00     0.006 A 
ENDBRANCH  60  74
BRANCH  61  82
ATOM     82  C   UNL     1      17.377   3.400   0.247  1.00  0.00     0.057 A 
ATOM     83  C   UNL     1      18.488   3.667  -0.562  1.00  0.00     0.134 A 
ATOM     84  C   UNL     1      16.265   4.238   0.113  1.00  0.00     0.134 A 
ATOM     85  F   UNL     1      19.590   2.908  -0.466  1.00  0.00    -0.206 F 
ATOM     86  C   UNL     1      18.503   4.739  -1.455  1.00  0.00     0.040 A 
ATOM     87  C   UNL     1      16.256   5.300  -0.793  1.00  0.00     0.040 A 
ATOM     88  F   UNL     1      15.167   4.029   0.853  1.00  0.00    -0.206 F 
ATOM     89  C   UNL     1      17.381   5.557  -1.575  1.00  0.00     0.006 A 
ENDBRANCH  61  82
BRANCH  73  90
ATOM     90  C   UNL     1      20.931   2.188   6.104  1.00  0.00     0.057 A 
ATOM     91  C   UNL     1      20.641   3.351   6.826  1.00  0.00     0.134 A 
ATOM     92  C   UNL     1      22.260   1.743   6.096  1.00  0.00     0.134 A 
ATOM     93  F   UNL     1      19.390   3.835   6.862  1.00  0.00    -0.206 F 
ATOM     94  C   UNL     1      21.639   4.060   7.496  1.00  0.00     0.040 A 
ATOM     95  C   UNL     1      23.262   2.429   6.783  1.00  0.00     0.040 A 
ATOM     96  F   UNL     1      22.602   0.630   5.430  1.00  0.00    -0.206 F 
ATOM     97  C   UNL     1      22.953   3.595   7.481  1.00  0.00     0.006 A 
ENDBRANCH  73  90
ENDBRANCH  47  48
ENDBRANCH  39  42
ENDBRANCH  37  38
ENDBRANCH  36  37
ENDBRANCH  35  36
ENDBRANCH   1  35
TORSDOF 19
