REMARK SMILES O=C(NCCCCCCNC(=O)c1ccc(-n2cc(CSc3nc4ccccc4c(=O)n3-c3ccccc3)nn2)cc1)c1ccc(-c2c3nc(c(-c4c(F)cccc4F)c4ccc([nH]4)c(-c4c(F)cccc4F)c4nc(c(-c5c(F)cccc5F)c5ccc2[nH]5)C=C4)C=C3)cc1
REMARK SMILES IDX 8 1 7 2 6 3 5 4 4 5 3 6 1 7 2 8 43 10 44 11 96 12 45 13
REMARK SMILES IDX 95 14 46 15 47 16 48 17 89 18 49 19 94 20 88 21 90 22 50 23
REMARK SMILES IDX 93 24 87 25 86 26 51 28 77 29 60 30 76 31 61 32 64 33 75 34
REMARK SMILES IDX 91 35 62 36 63 37 74 39 92 40 65 41 52 42 53 43 58 44 54 45
REMARK SMILES IDX 55 46 57 47 59 48 56 49 78 50 79 51 84 52 80 53 81 54 83 55
REMARK SMILES IDX 85 56 82 57 66 58 67 59 72 60 68 61 69 62 71 63 73 64 70 65
REMARK SMILES IDX 9 66 10 67 11 68 12 70 13 71 14 72 42 73 15 74 41 75 16 76
REMARK SMILES IDX 17 77 18 78 40 79 19 80 39 81 20 82 21 83 22 84 23 85 32 86
REMARK SMILES IDX 24 87 30 88 25 89 29 90 31 91 26 92 28 93 27 94 33 95 34 96
REMARK SMILES IDX 38 97 35 98 37 99 36 100
REMARK H PARENT 3 9 90 27 64 38 10 69
REMARK Flexibility Score: inf
ROOT
ATOM      1  C   UNL     1       6.423  -0.571   4.198  1.00  0.00     0.021 C 
ENDROOT
BRANCH   1   2
ATOM      2  C   UNL     1       4.899  -0.455   4.106  1.00  0.00     0.002 C 
BRANCH   2   3
ATOM      3  C   UNL     1       4.362   0.801   3.409  1.00  0.00     0.002 C 
BRANCH   3   4
ATOM      4  C   UNL     1       4.880   1.068   1.989  1.00  0.00     0.021 C 
BRANCH   4   5
ATOM      5  C   UNL     1       4.641  -0.057   0.983  1.00  0.00     0.116 C 
BRANCH   5   6
ATOM      6  N   UNL     1       3.247  -0.409   0.807  1.00  0.00    -0.352 N 
ATOM      7  O   UNL     1       1.191  -0.653   0.056  1.00  0.00    -0.269 OA
ATOM      8  C   UNL     1       2.220   0.027   0.017  1.00  0.00     0.251 C 
ATOM      9  H   UNL     1       2.971  -1.143   1.402  1.00  0.00     0.163 HD
BRANCH   8  10
ATOM     10  C   UNL     1       2.221   1.259  -0.825  1.00  0.00     0.039 A 
ATOM     11  C   UNL     1       3.321   2.066  -1.108  1.00  0.00     0.014 A 
ATOM     12  C   UNL     1       0.968   1.633  -1.358  1.00  0.00     0.014 A 
ATOM     13  C   UNL     1       3.161   3.240  -1.851  1.00  0.00     0.010 A 
ATOM     14  C   UNL     1       0.802   2.802  -2.099  1.00  0.00     0.010 A 
ATOM     15  C   UNL     1       1.898   3.623  -2.327  1.00  0.00    -0.014 A 
BRANCH  15  16
ATOM     16  C   UNL     1       1.812   4.785  -3.213  1.00  0.00     0.031 A 
ATOM     17  C   UNL     1       2.528   4.613  -4.509  1.00  0.00     0.074 A 
ATOM     18  C   UNL     1       1.070   5.893  -3.004  1.00  0.00     0.049 A 
ATOM     19  N   UNL     1       3.585   5.237  -4.914  1.00  0.00    -0.248 NA
ATOM     20  C   UNL     1       2.076   3.548  -5.416  1.00  0.00     0.031 C 
ATOM     21  C   UNL     1       0.066   6.134  -1.968  1.00  0.00     0.029 A 
ATOM     22  N   UNL     1       1.017   7.038  -3.752  1.00  0.00    -0.354 N 
ATOM     23  C   UNL     1       3.836   4.776  -6.205  1.00  0.00     0.074 A 
ATOM     24  C   UNL     1       2.965   3.646  -6.406  1.00  0.00     0.031 C 
ATOM     25  C   UNL     1      -0.633   7.254  -2.272  1.00  0.00     0.029 A 
ATOM     26  C   UNL     1      -0.041   7.886  -3.441  1.00  0.00     0.049 A 
ATOM     27  H   UNL     1       1.675   7.245  -4.455  1.00  0.00     0.167 HD
ATOM     28  C   UNL     1       4.596   5.494  -7.078  1.00  0.00     0.037 A 
ATOM     29  C   UNL     1      -0.420   9.005  -4.114  1.00  0.00     0.037 A 
ATOM     30  C   UNL     1       5.379   6.491  -6.394  1.00  0.00     0.049 A 
ATOM     31  C   UNL     1       0.729   9.457  -4.933  1.00  0.00     0.074 A 
ATOM     32  C   UNL     1       6.340   6.471  -5.402  1.00  0.00     0.029 A 
ATOM     33  N   UNL     1       4.963   7.796  -6.476  1.00  0.00    -0.354 N 
ATOM     34  N   UNL     1       1.810   9.991  -4.446  1.00  0.00    -0.248 NA
ATOM     35  C   UNL     1       0.840   8.944  -6.289  1.00  0.00     0.031 C 
ATOM     36  C   UNL     1       6.082   7.632  -4.616  1.00  0.00     0.029 A 
ATOM     37  C   UNL     1       5.024   8.318  -5.212  1.00  0.00     0.049 A 
ATOM     38  H   UNL     1       4.675   8.268  -7.291  1.00  0.00     0.167 HD
ATOM     39  C   UNL     1       2.831   9.470  -5.222  1.00  0.00     0.074 A 
ATOM     40  C   UNL     1       2.170   8.923  -6.404  1.00  0.00     0.031 C 
ATOM     41  C   UNL     1       4.079   9.281  -4.703  1.00  0.00     0.037 A 
BRANCH  28  42
ATOM     42  C   UNL     1       4.360   5.558  -8.568  1.00  0.00     0.057 A 
ATOM     43  C   UNL     1       5.284   6.246  -9.380  1.00  0.00     0.134 A 
ATOM     44  C   UNL     1       3.130   5.260  -9.186  1.00  0.00     0.134 A 
ATOM     45  F   UNL     1       6.490   6.596  -8.906  1.00  0.00    -0.206 F 
ATOM     46  C   UNL     1       4.970   6.685 -10.671  1.00  0.00     0.040 A 
ATOM     47  C   UNL     1       2.825   5.649 -10.494  1.00  0.00     0.040 A 
ATOM     48  F   UNL     1       2.122   4.673  -8.530  1.00  0.00    -0.206 F 
ATOM     49  C   UNL     1       3.732   6.396 -11.229  1.00  0.00     0.006 A 
ENDBRANCH  28  42
BRANCH  29  50
ATOM     50  C   UNL     1      -1.765   9.595  -4.309  1.00  0.00     0.057 A 
ATOM     51  C   UNL     1      -1.925  10.913  -4.772  1.00  0.00     0.134 A 
ATOM     52  C   UNL     1      -2.913   8.788  -4.348  1.00  0.00     0.134 A 
ATOM     53  F   UNL     1      -0.881  11.754  -4.812  1.00  0.00    -0.206 F 
ATOM     54  C   UNL     1      -3.144  11.386  -5.278  1.00  0.00     0.040 A 
ATOM     55  C   UNL     1      -4.137   9.249  -4.846  1.00  0.00     0.040 A 
ATOM     56  F   UNL     1      -2.859   7.496  -3.994  1.00  0.00    -0.206 F 
ATOM     57  C   UNL     1      -4.252  10.547  -5.330  1.00  0.00     0.006 A 
ENDBRANCH  29  50
BRANCH  41  58
ATOM     58  C   UNL     1       4.403   9.932  -3.388  1.00  0.00     0.057 A 
ATOM     59  C   UNL     1       3.722   9.688  -2.186  1.00  0.00     0.134 A 
ATOM     60  C   UNL     1       5.534  10.755  -3.317  1.00  0.00     0.134 A 
ATOM     61  F   UNL     1       2.692   8.833  -2.128  1.00  0.00    -0.206 F 
ATOM     62  C   UNL     1       4.117  10.282  -0.983  1.00  0.00     0.040 A 
ATOM     63  C   UNL     1       5.962  11.322  -2.116  1.00  0.00     0.040 A 
ATOM     64  F   UNL     1       6.269  10.991  -4.416  1.00  0.00    -0.206 F 
ATOM     65  C   UNL     1       5.244  11.098  -0.945  1.00  0.00     0.006 A 
ENDBRANCH  41  58
ENDBRANCH  15  16
ENDBRANCH   8  10
ENDBRANCH   5   6
ENDBRANCH   4   5
ENDBRANCH   3   4
ENDBRANCH   2   3
ENDBRANCH   1   2
BRANCH   1  66
ATOM     66  C   UNL     1       7.122   0.582   4.915  1.00  0.00     0.116 C 
BRANCH  66  67
ATOM     67  N   UNL     1       6.815   0.623   6.336  1.00  0.00    -0.352 N 
ATOM     68  C   UNL     1       7.652   0.450   7.406  1.00  0.00     0.251 C 
ATOM     69  H   UNL     1       5.872   0.800   6.561  1.00  0.00     0.163 HD
ATOM     70  O   UNL     1       7.200   0.390   8.553  1.00  0.00    -0.269 OA
BRANCH  68  71
ATOM     71  C   UNL     1       9.104   0.311   7.189  1.00  0.00     0.039 A 
ATOM     72  C   UNL     1       9.754  -0.828   7.671  1.00  0.00     0.016 A 
ATOM     73  C   UNL     1       9.821   1.309   6.521  1.00  0.00     0.016 A 
ATOM     74  C   UNL     1      11.118  -1.005   7.427  1.00  0.00     0.029 A 
ATOM     75  C   UNL     1      11.187   1.143   6.290  1.00  0.00     0.029 A 
ATOM     76  C   UNL     1      11.840  -0.016   6.744  1.00  0.00     0.066 A 
BRANCH  76  77
ATOM     77  N   UNL     1      13.236  -0.170   6.572  1.00  0.00    -0.220 N 
ATOM     78  C   UNL     1      14.152   0.798   6.252  1.00  0.00     0.141 A 
ATOM     79  N   UNL     1      13.879  -1.353   6.727  1.00  0.00    -0.062 NA
ATOM     80  C   UNL     1      15.382   0.186   6.345  1.00  0.00     0.093 A 
ATOM     81  N   UNL     1      15.184  -1.147   6.574  1.00  0.00    -0.134 NA
BRANCH  80  82
ATOM     82  C   UNL     1      16.715   0.752   6.057  1.00  0.00     0.138 C 
BRANCH  82  83
ATOM     83  S   UNL     1      17.837   1.266   7.361  1.00  0.00    -0.081 SA
BRANCH  83  84
ATOM     84  C   UNL     1      17.052   1.364   8.917  1.00  0.00     0.176 A 
ATOM     85  N   UNL     1      17.818   0.915   9.868  1.00  0.00    -0.223 NA
ATOM     86  N   UNL     1      15.791   1.887   9.179  1.00  0.00    -0.255 N 
ATOM     87  C   UNL     1      17.316   0.867  11.172  1.00  0.00     0.079 A 
ATOM     88  C   UNL     1      15.116   1.262  10.242  1.00  0.00     0.266 A 
ATOM     89  C   UNL     1      18.170   0.723  12.267  1.00  0.00     0.029 A 
ATOM     90  C   UNL     1      15.948   0.871  11.390  1.00  0.00     0.066 A 
ATOM     91  O   UNL     1      13.911   1.022  10.293  1.00  0.00    -0.268 OA
ATOM     92  C   UNL     1      17.647   0.515  13.549  1.00  0.00     0.002 A 
ATOM     93  C   UNL     1      15.408   0.610  12.654  1.00  0.00     0.016 A 
ATOM     94  C   UNL     1      16.267   0.421  13.736  1.00  0.00     0.001 A 
BRANCH  86  95
ATOM     95  C   UNL     1      15.126   2.986   8.498  1.00  0.00     0.051 A 
ATOM     96  C   UNL     1      13.948   3.544   9.041  1.00  0.00     0.027 A 
ATOM     97  C   UNL     1      15.596   3.608   7.336  1.00  0.00     0.027 A 
ATOM     98  C   UNL     1      13.195   4.514   8.371  1.00  0.00     0.002 A 
ATOM     99  C   UNL     1      14.816   4.530   6.620  1.00  0.00     0.002 A 
ATOM    100  C   UNL     1      13.600   4.964   7.126  1.00  0.00     0.000 A 
ENDBRANCH  86  95
ENDBRANCH  83  84
ENDBRANCH  82  83
ENDBRANCH  80  82
ENDBRANCH  76  77
ENDBRANCH  68  71
ENDBRANCH  66  67
ENDBRANCH   1  66
TORSDOF 18
