REMARK SMILES O=C(Cc1cccn1-c1ccccc1F)NCCCCCCNC(=O)c1ccc(-c2c3nc(c(-c4c(F)cccc4F)c4ccc([nH]4)c(-c4c(F)cccc4F)c4nc(c(-c5c(F)cccc5F)c5ccc2[nH]5)C=C4)C=C3)cc1
REMARK SMILES IDX 19 1 18 2 17 3 16 4 1 5 2 6 3 8 4 9 5 10 8 11 6 12 7 13 9 14
REMARK SMILES IDX 10 15 14 16 11 17 13 18 15 19 12 20 20 21 21 22 22 23 23 24
REMARK SMILES IDX 24 25 25 27 26 28 27 29 79 30 28 31 78 32 29 33 30 34 31 35
REMARK SMILES IDX 72 36 32 37 77 38 71 39 73 40 33 41 76 42 70 43 69 44 34 46
REMARK SMILES IDX 60 47 43 48 59 49 44 50 47 51 58 52 74 53 45 54 46 55 57 57
REMARK SMILES IDX 75 58 48 59 35 60 36 61 41 62 37 63 38 64 40 65 42 66 39 67
REMARK SMILES IDX 61 68 62 69 67 70 63 71 64 72 66 73 68 74 65 75 49 76 50 77
REMARK SMILES IDX 55 78 51 79 52 80 54 81 56 82 53 83
REMARK H PARENT 16 7 23 26 73 45 47 56
REMARK Flexibility Score: inf
ROOT
ATOM      1  C   UNL     1       4.221  -1.114  -3.782  1.00  0.00     0.002 C 
ENDROOT
BRANCH   1   2
ATOM      2  C   UNL     1       2.771  -0.625  -3.716  1.00  0.00     0.021 C 
BRANCH   2   3
ATOM      3  C   UNL     1       2.054  -0.813  -2.380  1.00  0.00     0.116 C 
BRANCH   3   4
ATOM      4  N   UNL     1       2.714  -0.183  -1.254  1.00  0.00    -0.356 N 
ATOM      5  O   UNL     1       0.827  -0.147   0.054  1.00  0.00    -0.275 OA
ATOM      6  C   UNL     1       2.028   0.075  -0.082  1.00  0.00     0.225 C 
ATOM      7  H   UNL     1       3.664   0.065  -1.326  1.00  0.00     0.163 HD
BRANCH   6   8
ATOM      8  C   UNL     1       2.856   0.712   1.014  1.00  0.00     0.154 C 
BRANCH   8   9
ATOM      9  C   UNL     1       3.690  -0.197   1.881  1.00  0.00     0.032 A 
ATOM     10  C   UNL     1       4.756   0.216   2.674  1.00  0.00     0.024 A 
ATOM     11  N   UNL     1       3.502  -1.550   2.141  1.00  0.00    -0.318 N 
ATOM     12  C   UNL     1       5.219  -0.886   3.421  1.00  0.00     0.020 A 
ATOM     13  C   UNL     1       4.426  -1.954   3.083  1.00  0.00     0.091 A 
BRANCH  11  14
ATOM     14  C   UNL     1       2.642  -2.458   1.511  1.00  0.00     0.081 A 
ATOM     15  C   UNL     1       1.465  -2.870   2.133  1.00  0.00     0.030 A 
ATOM     16  C   UNL     1       3.040  -3.018   0.303  1.00  0.00     0.147 A 
ATOM     17  C   UNL     1       0.646  -3.794   1.478  1.00  0.00     0.002 A 
ATOM     18  C   UNL     1       2.225  -3.936  -0.349  1.00  0.00     0.041 A 
ATOM     19  F   UNL     1       4.215  -2.671  -0.239  1.00  0.00    -0.205 F 
ATOM     20  C   UNL     1       1.015  -4.312   0.232  1.00  0.00     0.003 A 
ENDBRANCH  11  14
ENDBRANCH   8   9
ENDBRANCH   6   8
ENDBRANCH   3   4
ENDBRANCH   2   3
ENDBRANCH   1   2
BRANCH   1  21
ATOM     21  C   UNL     1       4.466  -2.585  -3.436  1.00  0.00     0.002 C 
BRANCH  21  22
ATOM     22  C   UNL     1       3.684  -3.627  -4.240  1.00  0.00     0.021 C 
BRANCH  22  23
ATOM     23  C   UNL     1       4.003  -3.621  -5.729  1.00  0.00     0.116 C 
BRANCH  23  24
ATOM     24  N   UNL     1       5.390  -3.984  -5.974  1.00  0.00    -0.352 N 
ATOM     25  C   UNL     1       6.054  -4.117  -7.168  1.00  0.00     0.251 C 
ATOM     26  H   UNL     1       5.929  -4.160  -5.170  1.00  0.00     0.163 HD
ATOM     27  O   UNL     1       7.088  -4.767  -7.226  1.00  0.00    -0.269 OA
BRANCH  25  28
ATOM     28  C   UNL     1       5.522  -3.482  -8.389  1.00  0.00     0.039 A 
ATOM     29  C   UNL     1       5.601  -4.188  -9.595  1.00  0.00     0.014 A 
ATOM     30  C   UNL     1       5.029  -2.173  -8.357  1.00  0.00     0.014 A 
ATOM     31  C   UNL     1       5.124  -3.604 -10.761  1.00  0.00     0.010 A 
ATOM     32  C   UNL     1       4.516  -1.601  -9.510  1.00  0.00     0.010 A 
ATOM     33  C   UNL     1       4.556  -2.324 -10.706  1.00  0.00    -0.014 A 
BRANCH  33  34
ATOM     34  C   UNL     1       3.856  -1.799 -11.893  1.00  0.00     0.031 A 
ATOM     35  C   UNL     1       2.438  -2.415 -12.026  1.00  0.00     0.074 A 
ATOM     36  C   UNL     1       4.566  -0.892 -12.635  1.00  0.00     0.049 A 
ATOM     37  N   UNL     1       1.651  -2.504 -13.053  1.00  0.00    -0.248 NA
ATOM     38  C   UNL     1       1.813  -3.069 -10.836  1.00  0.00     0.031 C 
ATOM     39  C   UNL     1       5.917  -0.388 -12.286  1.00  0.00     0.029 A 
ATOM     40  N   UNL     1       4.329  -0.210 -13.810  1.00  0.00    -0.354 N 
ATOM     41  C   UNL     1       0.406  -3.022 -12.612  1.00  0.00     0.074 A 
ATOM     42  C   UNL     1       0.602  -3.440 -11.260  1.00  0.00     0.031 C 
ATOM     43  C   UNL     1       6.403   0.417 -13.255  1.00  0.00     0.029 A 
ATOM     44  C   UNL     1       5.433   0.530 -14.323  1.00  0.00     0.049 A 
ATOM     45  H   UNL     1       3.456  -0.234 -14.265  1.00  0.00     0.167 HD
ATOM     46  C   UNL     1      -0.734  -2.973 -13.367  1.00  0.00     0.037 A 
ATOM     47  C   UNL     1       5.570   1.135 -15.546  1.00  0.00     0.037 A 
ATOM     48  C   UNL     1      -0.432  -2.424 -14.644  1.00  0.00     0.049 A 
ATOM     49  C   UNL     1       4.243   1.026 -16.160  1.00  0.00     0.074 A 
ATOM     50  C   UNL     1       0.216  -2.963 -15.723  1.00  0.00     0.029 A 
ATOM     51  N   UNL     1      -0.458  -1.057 -14.759  1.00  0.00    -0.354 N 
ATOM     52  N   UNL     1       3.203   1.709 -15.788  1.00  0.00    -0.248 NA
ATOM     53  C   UNL     1       4.022  -0.007 -17.177  1.00  0.00     0.031 C 
ATOM     54  C   UNL     1       1.005  -1.892 -16.178  1.00  0.00     0.029 A 
ATOM     55  C   UNL     1       0.598  -0.703 -15.562  1.00  0.00     0.049 A 
ATOM     56  H   UNL     1      -1.109  -0.446 -14.345  1.00  0.00     0.167 HD
ATOM     57  C   UNL     1       2.169   0.942 -16.263  1.00  0.00     0.074 A 
ATOM     58  C   UNL     1       2.709   0.135 -17.337  1.00  0.00     0.031 C 
ATOM     59  C   UNL     1       1.133   0.631 -15.444  1.00  0.00     0.037 A 
BRANCH  46  60
ATOM     60  C   UNL     1      -2.189  -3.204 -13.064  1.00  0.00     0.057 A 
ATOM     61  C   UNL     1      -2.794  -2.856 -11.854  1.00  0.00     0.134 A 
ATOM     62  C   UNL     1      -3.075  -3.451 -14.143  1.00  0.00     0.134 A 
ATOM     63  F   UNL     1      -2.062  -2.597 -10.762  1.00  0.00    -0.206 F 
ATOM     64  C   UNL     1      -4.183  -2.673 -11.748  1.00  0.00     0.040 A 
ATOM     65  C   UNL     1      -4.451  -3.229 -14.061  1.00  0.00     0.040 A 
ATOM     66  F   UNL     1      -2.614  -3.851 -15.340  1.00  0.00    -0.206 F 
ATOM     67  C   UNL     1      -5.008  -2.815 -12.862  1.00  0.00     0.006 A 
ENDBRANCH  46  60
BRANCH  47  68
ATOM     68  C   UNL     1       6.665   1.715 -16.417  1.00  0.00     0.057 A 
ATOM     69  C   UNL     1       6.407   1.978 -17.794  1.00  0.00     0.134 A 
ATOM     70  C   UNL     1       7.995   1.926 -16.050  1.00  0.00     0.134 A 
ATOM     71  F   UNL     1       5.162   2.001 -18.291  1.00  0.00    -0.206 F 
ATOM     72  C   UNL     1       7.401   2.215 -18.749  1.00  0.00     0.040 A 
ATOM     73  C   UNL     1       9.003   2.220 -16.994  1.00  0.00     0.040 A 
ATOM     74  F   UNL     1       8.384   1.871 -14.772  1.00  0.00    -0.206 F 
ATOM     75  C   UNL     1       8.717   2.311 -18.353  1.00  0.00     0.006 A 
ENDBRANCH  47  68
BRANCH  59  76
ATOM     76  C   UNL     1       0.937   1.592 -14.283  1.00  0.00     0.057 A 
ATOM     77  C   UNL     1       1.111   1.263 -12.930  1.00  0.00     0.134 A 
ATOM     78  C   UNL     1       0.677   2.946 -14.540  1.00  0.00     0.134 A 
ATOM     79  F   UNL     1       1.353   0.009 -12.552  1.00  0.00    -0.206 F 
ATOM     80  C   UNL     1       1.050   2.210 -11.897  1.00  0.00     0.040 A 
ATOM     81  C   UNL     1       0.622   3.909 -13.523  1.00  0.00     0.040 A 
ATOM     82  F   UNL     1       0.476   3.364 -15.799  1.00  0.00    -0.206 F 
ATOM     83  C   UNL     1       0.812   3.544 -12.194  1.00  0.00     0.006 A 
ENDBRANCH  59  76
ENDBRANCH  33  34
ENDBRANCH  25  28
ENDBRANCH  23  24
ENDBRANCH  22  23
ENDBRANCH  21  22
ENDBRANCH   1  21
TORSDOF 15
