REMARK SMILES CCCOCCO[C@H]1CC[C@@]([NH3+])(C(=O)NCCCCCCNC(=O)c2ccc(-c3c4nc(c(-c5c(F)cccc5F)c5ccc([nH]5)c(-c5c(F)cccc5F)c5nc(c(-c6c(F)cccc6F)c6ccc3[nH]6)C=C5)C=C4)cc2)C1
REMARK SMILES IDX 16 1 15 2 13 3 14 4 11 6 8 7 9 8 79 9 10 10 7 11 6 12 5 13
REMARK SMILES IDX 4 14 3 15 2 16 1 17 12 18 17 22 18 23 19 24 20 25 21 26
REMARK SMILES IDX 22 27 23 28 24 30 25 31 26 32 78 33 27 34 77 35 28 36 29 37
REMARK SMILES IDX 30 38 71 39 31 40 76 41 70 42 72 43 32 44 75 45 69 46 68 47
REMARK SMILES IDX 33 49 59 50 42 51 58 52 43 53 46 54 57 55 73 56 44 57 45 58
REMARK SMILES IDX 56 60 74 61 47 62 34 63 35 64 40 65 36 66 37 67 39 68 41 69
REMARK SMILES IDX 38 70 60 71 61 72 66 73 62 74 63 75 65 76 67 77 64 78 48 79
REMARK SMILES IDX 49 80 54 81 50 82 51 83 53 84 55 85 52 86
REMARK H PARENT 15 5 12 19 12 20 12 21 22 29 72 48 46 59
REMARK Flexibility Score: inf
ROOT
ATOM      1  C   UNL     1       0.823  -7.019   2.260  1.00  0.00     0.116 C 
ENDROOT
BRANCH   1   2
ATOM      2  N   UNL     1       0.487  -6.160   1.145  1.00  0.00    -0.351 N 
ATOM      3  C   UNL     1       1.194  -5.158   0.552  1.00  0.00     0.281 C 
ATOM      4  O   UNL     1       0.701  -4.678  -0.472  1.00  0.00    -0.268 OA
ATOM      5  H   UNL     1      -0.399  -6.328   0.749  1.00  0.00     0.163 HD
BRANCH   3   6
ATOM      6  C   UNL     1       2.617  -4.751   1.064  1.00  0.00     0.176 C 
ATOM      7  C   UNL     1       2.502  -2.363   1.437  1.00  0.00     0.125 C 
ATOM      8  C   UNL     1       2.812  -2.997   2.784  1.00  0.00     0.039 C 
ATOM      9  C   UNL     1       3.051  -3.404   0.453  1.00  0.00     0.111 C 
ATOM     10  C   UNL     1       2.708  -4.499   2.579  1.00  0.00     0.082 C 
BRANCH   7  11
ATOM     11  O   UNL     1       1.160  -2.072   1.087  1.00  0.00    -0.376 OA
BRANCH  11  12
ATOM     12  C   UNL     1       0.113  -2.014   2.044  1.00  0.00     0.189 C 
BRANCH  12  13
ATOM     13  C   UNL     1       0.178  -0.933   3.134  1.00  0.00     0.188 C 
BRANCH  13  14
ATOM     14  O   UNL     1       0.122   0.413   2.681  1.00  0.00    -0.379 OA
BRANCH  14  15
ATOM     15  C   UNL     1       1.307   0.947   2.101  1.00  0.00     0.160 C 
BRANCH  15  16
ATOM     16  C   UNL     1       2.339   1.454   3.116  1.00  0.00     0.025 C 
ATOM     17  C   UNL     1       3.291   0.414   3.692  1.00  0.00     0.006 C 
ENDBRANCH  15  16
ENDBRANCH  14  15
ENDBRANCH  13  14
ENDBRANCH  12  13
ENDBRANCH  11  12
ENDBRANCH   7  11
BRANCH   6  18
ATOM     18  N   UNL     1       3.544  -5.831   0.651  1.00  0.00    -0.345 N 
ATOM     19  H   UNL     1       3.242  -6.714   1.064  1.00  0.00     0.345 HD
ATOM     20  H   UNL     1       4.487  -5.611   0.972  1.00  0.00     0.345 HD
ATOM     21  H   UNL     1       3.540  -5.912  -0.365  1.00  0.00     0.345 HD
ENDBRANCH   6  18
ENDBRANCH   3   6
ENDBRANCH   1   2
BRANCH   1  22
ATOM     22  C   UNL     1      -0.106  -6.751   3.447  1.00  0.00     0.021 C 
BRANCH  22  23
ATOM     23  C   UNL     1      -1.572  -7.117   3.187  1.00  0.00     0.002 C 
BRANCH  23  24
ATOM     24  C   UNL     1      -1.798  -8.549   2.698  1.00  0.00     0.002 C 
BRANCH  24  25
ATOM     25  C   UNL     1      -1.169  -9.633   3.577  1.00  0.00     0.021 C 
BRANCH  25  26
ATOM     26  C   UNL     1      -1.648  -9.627   5.024  1.00  0.00     0.116 C 
BRANCH  26  27
ATOM     27  N   UNL     1      -3.076  -9.879   5.120  1.00  0.00    -0.352 N 
ATOM     28  C   UNL     1      -3.741 -10.832   5.841  1.00  0.00     0.251 C 
ATOM     29  H   UNL     1      -3.647  -9.278   4.589  1.00  0.00     0.163 HD
ATOM     30  O   UNL     1      -4.936 -11.043   5.627  1.00  0.00    -0.269 OA
BRANCH  28  31
ATOM     31  C   UNL     1      -3.030 -11.620   6.868  1.00  0.00     0.039 A 
ATOM     32  C   UNL     1      -3.288 -12.989   6.960  1.00  0.00     0.014 A 
ATOM     33  C   UNL     1      -2.136 -11.010   7.755  1.00  0.00     0.014 A 
ATOM     34  C   UNL     1      -2.620 -13.754   7.916  1.00  0.00     0.010 A 
ATOM     35  C   UNL     1      -1.415 -11.787   8.658  1.00  0.00     0.010 A 
ATOM     36  C   UNL     1      -1.661 -13.163   8.757  1.00  0.00    -0.014 A 
BRANCH  36  37
ATOM     37  C   UNL     1      -0.914 -13.989   9.737  1.00  0.00     0.031 A 
ATOM     38  C   UNL     1      -1.102 -13.784  11.213  1.00  0.00     0.074 A 
ATOM     39  C   UNL     1      -0.048 -14.916   9.289  1.00  0.00     0.049 A 
ATOM     40  N   UNL     1      -0.580 -14.450  12.212  1.00  0.00    -0.248 NA
ATOM     41  C   UNL     1      -1.971 -12.670  11.623  1.00  0.00     0.031 C 
ATOM     42  C   UNL     1       0.266 -15.169   7.882  1.00  0.00     0.029 A 
ATOM     43  N   UNL     1       0.717 -15.828   9.971  1.00  0.00    -0.354 N 
ATOM     44  C   UNL     1      -1.055 -13.837  13.364  1.00  0.00     0.074 A 
ATOM     45  C   UNL     1      -1.852 -12.706  12.941  1.00  0.00     0.031 C 
ATOM     46  C   UNL     1       1.117 -16.203   7.802  1.00  0.00     0.029 A 
ATOM     47  C   UNL     1       1.427 -16.668   9.150  1.00  0.00     0.049 A 
ATOM     48  H   UNL     1       0.752 -15.876  10.953  1.00  0.00     0.167 HD
ATOM     49  C   UNL     1      -0.868 -14.199  14.657  1.00  0.00     0.037 A 
ATOM     50  C   UNL     1       2.224 -17.710   9.451  1.00  0.00     0.037 A 
ATOM     51  C   UNL     1      -0.079 -15.329  15.074  1.00  0.00     0.049 A 
ATOM     52  C   UNL     1       2.414 -18.096  10.889  1.00  0.00     0.074 A 
ATOM     53  C   UNL     1       0.132 -15.812  16.354  1.00  0.00     0.029 A 
ATOM     54  N   UNL     1       0.636 -16.151  14.215  1.00  0.00    -0.354 N 
ATOM     55  N   UNL     1       1.899 -17.556  11.967  1.00  0.00    -0.248 NA
ATOM     56  C   UNL     1       3.290 -19.245  11.150  1.00  0.00     0.031 C 
ATOM     57  C   UNL     1       1.011 -16.900  16.272  1.00  0.00     0.029 A 
ATOM     58  C   UNL     1       1.308 -17.124  14.937  1.00  0.00     0.049 A 
ATOM     59  H   UNL     1       0.662 -16.056  13.235  1.00  0.00     0.167 HD
ATOM     60  C   UNL     1       2.369 -18.311  13.033  1.00  0.00     0.074 A 
ATOM     61  C   UNL     1       3.194 -19.360  12.467  1.00  0.00     0.031 C 
ATOM     62  C   UNL     1       2.139 -18.152  14.360  1.00  0.00     0.037 A 
BRANCH  49  63
ATOM     63  C   UNL     1      -1.534 -13.353  15.706  1.00  0.00     0.057 A 
ATOM     64  C   UNL     1      -2.927 -13.328  15.861  1.00  0.00     0.134 A 
ATOM     65  C   UNL     1      -0.777 -12.549  16.567  1.00  0.00     0.134 A 
ATOM     66  F   UNL     1      -3.713 -14.064  15.060  1.00  0.00    -0.206 F 
ATOM     67  C   UNL     1      -3.545 -12.507  16.806  1.00  0.00     0.040 A 
ATOM     68  C   UNL     1      -1.381 -11.745  17.536  1.00  0.00     0.040 A 
ATOM     69  F   UNL     1       0.562 -12.527  16.479  1.00  0.00    -0.206 F 
ATOM     70  C   UNL     1      -2.770 -11.714  17.650  1.00  0.00     0.006 A 
ENDBRANCH  49  63
BRANCH  50  71
ATOM     71  C   UNL     1       2.846 -18.499   8.360  1.00  0.00     0.057 A 
ATOM     72  C   UNL     1       2.395 -19.791   8.064  1.00  0.00     0.134 A 
ATOM     73  C   UNL     1       3.885 -17.982   7.579  1.00  0.00     0.134 A 
ATOM     74  F   UNL     1       1.412 -20.345   8.788  1.00  0.00    -0.206 F 
ATOM     75  C   UNL     1       2.963 -20.545   7.037  1.00  0.00     0.040 A 
ATOM     76  C   UNL     1       4.448 -18.717   6.535  1.00  0.00     0.040 A 
ATOM     77  F   UNL     1       4.355 -16.747   7.809  1.00  0.00    -0.206 F 
ATOM     78  C   UNL     1       3.989 -20.005   6.264  1.00  0.00     0.006 A 
ENDBRANCH  50  71
BRANCH  62  79
ATOM     79  C   UNL     1       2.781 -19.149  15.281  1.00  0.00     0.057 A 
ATOM     80  C   UNL     1       4.164 -19.164  15.505  1.00  0.00     0.134 A 
ATOM     81  C   UNL     1       2.008 -20.108  15.947  1.00  0.00     0.134 A 
ATOM     82  F   UNL     1       4.963 -18.281  14.886  1.00  0.00    -0.206 F 
ATOM     83  C   UNL     1       4.759 -20.120  16.330  1.00  0.00     0.040 A 
ATOM     84  C   UNL     1       2.588 -21.051  16.796  1.00  0.00     0.040 A 
ATOM     85  F   UNL     1       0.677 -20.144  15.783  1.00  0.00    -0.206 F 
ATOM     86  C   UNL     1       3.969 -21.066  16.981  1.00  0.00     0.006 A 
ENDBRANCH  62  79
ENDBRANCH  36  37
ENDBRANCH  28  31
ENDBRANCH  26  27
ENDBRANCH  25  26
ENDBRANCH  24  25
ENDBRANCH  23  24
ENDBRANCH  22  23
ENDBRANCH   1  22
TORSDOF 20
