REMARK SMILES O=C(COc1csc(C(=O)NCCCCCCNC(=O)c2ccc(-c3c4nc(c(-c5c(F)cccc5F)c5ccc([nH]5)c(-c5c(F)cccc5F)c5nc(c(-c6c(F)cccc6F)c6ccc3[nH]6)C=C5)C=C4)cc2)c1)Nc1nccs1
REMARK SMILES IDX 13 1 12 2 11 3 9 4 10 5 8 7 5 8 6 9 75 10 7 11 4 12 3 13
REMARK SMILES IDX 2 14 1 15 76 16 77 18 78 19 81 20 79 21 80 22 14 23 15 24
REMARK SMILES IDX 16 25 17 26 18 27 19 28 20 30 21 31 22 32 74 33 23 34 73 35
REMARK SMILES IDX 24 36 25 37 26 38 67 39 27 40 72 41 66 42 68 43 28 44 71 45
REMARK SMILES IDX 65 46 64 47 29 49 55 50 38 51 54 52 39 53 42 54 53 55 69 56
REMARK SMILES IDX 40 57 41 58 52 60 70 61 43 62 30 63 31 64 36 65 32 66 33 67
REMARK SMILES IDX 35 68 37 69 34 70 56 71 57 72 62 73 58 74 59 75 61 76 63 77
REMARK SMILES IDX 60 78 44 79 45 80 50 81 46 82 47 83 49 84 51 85 48 86
REMARK H PARENT 11 6 76 17 18 29 68 48 42 59
REMARK Flexibility Score: inf
ROOT
ATOM      1  C   UNL     1       4.659  -2.760   6.732  1.00  0.00     0.021 C 
ENDROOT
BRANCH   1   2
ATOM      2  C   UNL     1       5.001  -3.624   5.519  1.00  0.00     0.116 C 
BRANCH   2   3
ATOM      3  N   UNL     1       3.944  -4.580   5.274  1.00  0.00    -0.351 N 
ATOM      4  C   UNL     1       2.930  -4.645   4.352  1.00  0.00     0.261 C 
ATOM      5  O   UNL     1       2.182  -5.618   4.491  1.00  0.00    -0.268 OA
ATOM      6  H   UNL     1       3.954  -5.341   5.898  1.00  0.00     0.163 HD
BRANCH   4   7
ATOM      7  C   UNL     1       2.786  -3.672   3.275  1.00  0.00     0.096 A 
ATOM      8  C   UNL     1       3.017  -1.918   1.745  1.00  0.00     0.131 A 
ATOM      9  C   UNL     1       2.142  -2.726   1.063  1.00  0.00     0.112 A 
ATOM     10  C   UNL     1       3.324  -2.419   3.038  1.00  0.00     0.072 A 
ATOM     11  S   UNL     1       1.728  -4.107   1.975  1.00  0.00    -0.135 S 
BRANCH   8  12
ATOM     12  O   UNL     1       3.623  -0.829   1.212  1.00  0.00    -0.483 OA
BRANCH  12  13
ATOM     13  C   UNL     1       2.751   0.291   1.079  1.00  0.00     0.329 C 
BRANCH  13  14
ATOM     14  C   UNL     1       1.979   0.318  -0.241  1.00  0.00     0.264 C 
ATOM     15  O   UNL     1       0.922   0.932  -0.334  1.00  0.00    -0.271 OA
ATOM     16  N   UNL     1       2.625  -0.394  -1.229  1.00  0.00    -0.299 N 
ATOM     17  H   UNL     1       3.552  -0.686  -1.071  1.00  0.00     0.172 HD
BRANCH  16  18
ATOM     18  C   UNL     1       2.032  -0.710  -2.415  1.00  0.00     0.189 A 
ATOM     19  N   UNL     1       0.867  -0.349  -2.883  1.00  0.00    -0.229 NA
ATOM     20  S   UNL     1       2.928  -1.813  -3.362  1.00  0.00    -0.105 S 
ATOM     21  C   UNL     1       0.634  -1.004  -4.075  1.00  0.00     0.125 A 
ATOM     22  C   UNL     1       1.633  -1.862  -4.487  1.00  0.00     0.088 A 
ENDBRANCH  16  18
ENDBRANCH  13  14
ENDBRANCH  12  13
ENDBRANCH   8  12
ENDBRANCH   4   7
ENDBRANCH   2   3
ENDBRANCH   1   2
BRANCH   1  23
ATOM     23  C   UNL     1       4.958  -3.461   8.066  1.00  0.00     0.002 C 
BRANCH  23  24
ATOM     24  C   UNL     1       6.427  -3.858   8.267  1.00  0.00     0.002 C 
BRANCH  24  25
ATOM     25  C   UNL     1       7.431  -2.719   8.075  1.00  0.00     0.021 C 
BRANCH  25  26
ATOM     26  C   UNL     1       7.246  -1.562   9.049  1.00  0.00     0.116 C 
BRANCH  26  27
ATOM     27  N   UNL     1       7.498  -1.974  10.421  1.00  0.00    -0.352 N 
ATOM     28  C   UNL     1       8.384  -1.455  11.331  1.00  0.00     0.251 C 
ATOM     29  H   UNL     1       6.956  -2.731  10.742  1.00  0.00     0.163 HD
ATOM     30  O   UNL     1       8.642  -2.062  12.364  1.00  0.00    -0.269 OA
BRANCH  28  31
ATOM     31  C   UNL     1       9.033  -0.158  11.052  1.00  0.00     0.039 A 
ATOM     32  C   UNL     1      10.402  -0.016  11.291  1.00  0.00     0.014 A 
ATOM     33  C   UNL     1       8.284   0.917  10.565  1.00  0.00     0.014 A 
ATOM     34  C   UNL     1      11.030   1.195  10.998  1.00  0.00     0.010 A 
ATOM     35  C   UNL     1       8.924   2.095  10.201  1.00  0.00     0.010 A 
ATOM     36  C   UNL     1      10.300   2.251  10.427  1.00  0.00    -0.014 A 
BRANCH  36  37
ATOM     37  C   UNL     1      10.943   3.543  10.088  1.00  0.00     0.031 A 
ATOM     38  C   UNL     1      10.517   4.797  10.799  1.00  0.00     0.074 A 
ATOM     39  C   UNL     1      11.851   3.601   9.096  1.00  0.00     0.049 A 
ATOM     40  N   UNL     1      10.879   6.036  10.584  1.00  0.00    -0.248 NA
ATOM     41  C   UNL     1       9.527   4.638  11.876  1.00  0.00     0.031 C 
ATOM     42  C   UNL     1      12.323   2.459   8.311  1.00  0.00     0.029 A 
ATOM     43  N   UNL     1      12.531   4.670   8.571  1.00  0.00    -0.354 N 
ATOM     44  C   UNL     1      10.150   6.802  11.484  1.00  0.00     0.074 A 
ATOM     45  C   UNL     1       9.281   5.897  12.204  1.00  0.00     0.031 C 
ATOM     46  C   UNL     1      13.234   2.885   7.422  1.00  0.00     0.029 A 
ATOM     47  C   UNL     1      13.379   4.333   7.545  1.00  0.00     0.049 A 
ATOM     48  H   UNL     1      12.421   5.592   8.899  1.00  0.00     0.167 HD
ATOM     49  C   UNL     1      10.216   8.136  11.710  1.00  0.00     0.037 A 
ATOM     50  C   UNL     1      14.176   5.106   6.785  1.00  0.00     0.037 A 
ATOM     51  C   UNL     1      11.095   9.029  11.002  1.00  0.00     0.049 A 
ATOM     52  C   UNL     1      14.213   6.589   7.033  1.00  0.00     0.074 A 
ATOM     53  C   UNL     1      11.273  10.389  11.183  1.00  0.00     0.029 A 
ATOM     54  N   UNL     1      11.944   8.648   9.973  1.00  0.00    -0.354 N 
ATOM     55  N   UNL     1      13.558   7.296   7.921  1.00  0.00    -0.248 NA
ATOM     56  C   UNL     1      15.104   7.380   6.173  1.00  0.00     0.031 C 
ATOM     57  C   UNL     1      12.195  10.839  10.232  1.00  0.00     0.029 A 
ATOM     58  C   UNL     1      12.633   9.750   9.494  1.00  0.00     0.049 A 
ATOM     59  H   UNL     1      12.042   7.729   9.632  1.00  0.00     0.167 HD
ATOM     60  C   UNL     1      13.983   8.607   7.754  1.00  0.00     0.074 A 
ATOM     61  C   UNL     1      14.956   8.596   6.680  1.00  0.00     0.031 C 
ATOM     62  C   UNL     1      13.607   9.719   8.432  1.00  0.00     0.037 A 
BRANCH  49  63
ATOM     63  C   UNL     1       9.304   8.700  12.761  1.00  0.00     0.057 A 
ATOM     64  C   UNL     1       9.470   8.405  14.122  1.00  0.00     0.134 A 
ATOM     65  C   UNL     1       8.245   9.547  12.412  1.00  0.00     0.134 A 
ATOM     66  F   UNL     1      10.456   7.590  14.525  1.00  0.00    -0.206 F 
ATOM     67  C   UNL     1       8.593   8.898  15.090  1.00  0.00     0.040 A 
ATOM     68  C   UNL     1       7.380  10.072  13.374  1.00  0.00     0.040 A 
ATOM     69  F   UNL     1       8.030   9.877  11.129  1.00  0.00    -0.206 F 
ATOM     70  C   UNL     1       7.546   9.738  14.717  1.00  0.00     0.006 A 
ENDBRANCH  49  63
BRANCH  50  71
ATOM     71  C   UNL     1      15.033   4.487   5.743  1.00  0.00     0.057 A 
ATOM     72  C   UNL     1      16.422   4.422   5.902  1.00  0.00     0.134 A 
ATOM     73  C   UNL     1      14.491   3.939   4.574  1.00  0.00     0.134 A 
ATOM     74  F   UNL     1      17.000   4.944   6.994  1.00  0.00    -0.206 F 
ATOM     75  C   UNL     1      17.244   3.848   4.931  1.00  0.00     0.040 A 
ATOM     76  C   UNL     1      15.299   3.341   3.606  1.00  0.00     0.040 A 
ATOM     77  F   UNL     1      13.166   3.961   4.366  1.00  0.00    -0.206 F 
ATOM     78  C   UNL     1      16.681   3.300   3.781  1.00  0.00     0.006 A 
ENDBRANCH  50  71
BRANCH  62  79
ATOM     79  C   UNL     1      14.282  11.010   8.069  1.00  0.00     0.057 A 
ATOM     80  C   UNL     1      14.008  11.681   6.870  1.00  0.00     0.134 A 
ATOM     81  C   UNL     1      15.184  11.611   8.956  1.00  0.00     0.134 A 
ATOM     82  F   UNL     1      13.165  11.152   5.972  1.00  0.00    -0.206 F 
ATOM     83  C   UNL     1      14.623  12.895   6.559  1.00  0.00     0.040 A 
ATOM     84  C   UNL     1      15.783  12.838   8.668  1.00  0.00     0.040 A 
ATOM     85  F   UNL     1      15.484  11.025  10.125  1.00  0.00    -0.206 F 
ATOM     86  C   UNL     1      15.507  13.481   7.464  1.00  0.00     0.006 A 
ENDBRANCH  62  79
ENDBRANCH  36  37
ENDBRANCH  28  31
ENDBRANCH  26  27
ENDBRANCH  25  26
ENDBRANCH  24  25
ENDBRANCH  23  24
ENDBRANCH   1  23
TORSDOF 17
