REMARK SMILES CCC([NH3+])(CC)C(=O)N1CCC[N@H+](CC(=O)NCCCCCCNC(=O)c2ccc(-c3c4nc(c(-c5c(F)cccc5F)c5ccc([nH]5)c(-c5c(F)cccc5F)c5nc(c(-c6c(F)cccc6F)c6ccc3[nH]6)C=C5)C=C4)cc2)CC1
REMARK SMILES IDX 18 1 17 2 15 3 16 4 14 6 13 7 81 9 82 10 9 11 7 12 8 13 3 14
REMARK SMILES IDX 2 15 1 16 4 17 5 21 6 22 10 23 11 24 12 26 19 28 20 29 21 30
REMARK SMILES IDX 22 31 23 32 24 33 25 34 26 36 27 37 28 38 80 39 29 40 79 41
REMARK SMILES IDX 30 42 31 43 32 44 73 45 33 46 78 47 72 48 74 49 34 50 77 51
REMARK SMILES IDX 71 52 70 53 35 55 61 56 44 57 60 58 45 59 48 60 59 61 75 62
REMARK SMILES IDX 46 63 47 64 58 66 76 67 49 68 36 69 37 70 42 71 38 72 39 73
REMARK SMILES IDX 41 74 43 75 40 76 62 77 63 78 68 79 64 80 65 81 67 82 69 83
REMARK SMILES IDX 66 84 50 85 51 86 56 87 52 88 53 89 55 90 57 91 54 92
REMARK H PARENT 17 5 13 8 4 18 4 19 4 20 24 35 74 54 48 65
REMARK Flexibility Score: 90.00
ROOT
ATOM      1  C   UNL     1       4.726   0.375  -4.740  1.00  0.00     0.116 C 
ENDROOT
BRANCH   1   2
ATOM      2  N   UNL     1       3.787   1.455  -4.993  1.00  0.00    -0.351 N 
ATOM      3  C   UNL     1       4.001   2.756  -5.354  1.00  0.00     0.275 C 
ATOM      4  O   UNL     1       3.039   3.380  -5.814  1.00  0.00    -0.269 OA
ATOM      5  H   UNL     1       2.839   1.209  -4.886  1.00  0.00     0.163 HD
BRANCH   3   6
ATOM      6  C   UNL     1       5.362   3.421  -5.185  1.00  0.00     0.363 C 
BRANCH   6   7
ATOM      7  N   UNL     1       5.560   4.153  -3.934  1.00  0.00    -0.326 N 
ATOM      8  H   UNL     1       6.517   4.356  -4.223  1.00  0.00     0.348 HD
BRANCH   7   9
ATOM      9  C   UNL     1       5.777   3.446  -2.695  1.00  0.00     0.284 C 
BRANCH   9  10
ATOM     10  C   UNL     1       4.590   2.812  -1.972  1.00  0.00     0.181 C 
BRANCH  10  11
ATOM     11  N   UNL     1       3.292   3.450  -1.767  1.00  0.00    -0.331 N 
BRANCH  11  12
ATOM     12  C   UNL     1       2.486   2.702  -0.873  1.00  0.00     0.284 C 
ATOM     13  O   UNL     1       3.050   2.036   0.009  1.00  0.00    -0.268 OA
BRANCH  12  14
ATOM     14  C   UNL     1       0.908   2.534  -1.048  1.00  0.00     0.173 C 
BRANCH  14  15
ATOM     15  C   UNL     1       0.335   1.673   0.139  1.00  0.00     0.075 C 
ATOM     16  C   UNL     1       0.728   0.196   0.234  1.00  0.00     0.011 C 
ENDBRANCH  14  15
BRANCH  14  17
ATOM     17  N   UNL     1       0.623   1.810  -2.315  1.00  0.00    -0.345 N 
ATOM     18  H   UNL     1      -0.386   1.702  -2.426  1.00  0.00     0.345 HD
ATOM     19  H   UNL     1       1.061   0.889  -2.287  1.00  0.00     0.345 HD
ATOM     20  H   UNL     1       0.997   2.340  -3.102  1.00  0.00     0.345 HD
ENDBRANCH  14  17
BRANCH  14  21
ATOM     21  C   UNL     1       0.078   3.838  -1.084  1.00  0.00     0.075 C 
ATOM     22  C   UNL     1       0.489   4.864  -0.037  1.00  0.00     0.011 C 
ENDBRANCH  14  21
ENDBRANCH  12  14
ENDBRANCH  11  12
BRANCH  11  23
ATOM     23  C   UNL     1       2.773   4.354  -2.785  1.00  0.00     0.126 C 
BRANCH  23  24
ATOM     24  C   UNL     1       3.576   5.584  -3.188  1.00  0.00     0.083 CG0
ATOM     25  G   UNL     1       4.977   5.460  -3.769  1.00  0.00     0.000 G0
ENDBRANCH  23  24
ENDBRANCH  11  23
ENDBRANCH  10  11
ENDBRANCH   9  10
ENDBRANCH   7   9
BRANCH   7  26
ATOM     26  C   UNL     1       4.977   5.460  -3.769  1.00  0.00     0.264 CG0
ATOM     27  G   UNL     1       3.576   5.584  -3.188  1.00  0.00     0.000 G0
ENDBRANCH   7  26
ENDBRANCH   6   7
ENDBRANCH   3   6
ENDBRANCH   1   2
BRANCH   1  28
ATOM     28  C   UNL     1       4.548  -0.388  -3.418  1.00  0.00     0.021 C 
BRANCH  28  29
ATOM     29  C   UNL     1       3.101  -0.659  -2.981  1.00  0.00     0.002 C 
BRANCH  29  30
ATOM     30  C   UNL     1       2.697  -2.134  -2.974  1.00  0.00     0.002 C 
BRANCH  30  31
ATOM     31  C   UNL     1       3.608  -3.057  -2.165  1.00  0.00     0.021 C 
BRANCH  31  32
ATOM     32  C   UNL     1       3.803  -2.627  -0.716  1.00  0.00     0.116 C 
BRANCH  32  33
ATOM     33  N   UNL     1       2.635  -2.950   0.091  1.00  0.00    -0.352 N 
ATOM     34  C   UNL     1       2.474  -3.995   0.965  1.00  0.00     0.251 C 
ATOM     35  H   UNL     1       1.866  -2.343  -0.002  1.00  0.00     0.163 HD
ATOM     36  O   UNL     1       1.359  -4.317   1.371  1.00  0.00    -0.269 OA
BRANCH  34  37
ATOM     37  C   UNL     1       3.666  -4.747   1.398  1.00  0.00     0.039 A 
ATOM     38  C   UNL     1       3.681  -6.137   1.284  1.00  0.00     0.014 A 
ATOM     39  C   UNL     1       4.787  -4.058   1.873  1.00  0.00     0.014 A 
ATOM     40  C   UNL     1       4.850  -6.835   1.591  1.00  0.00     0.010 A 
ATOM     41  C   UNL     1       5.974  -4.746   2.093  1.00  0.00     0.010 A 
ATOM     42  C   UNL     1       6.016  -6.142   1.964  1.00  0.00    -0.014 A 
BRANCH  42  43
ATOM     43  C   UNL     1       7.284  -6.865   2.230  1.00  0.00     0.031 A 
ATOM     44  C   UNL     1       7.899  -6.826   3.602  1.00  0.00     0.074 A 
ATOM     45  C   UNL     1       7.909  -7.510   1.226  1.00  0.00     0.049 A 
ATOM     46  N   UNL     1       9.012  -7.369   4.025  1.00  0.00    -0.248 NA
ATOM     47  C   UNL     1       7.183  -6.051   4.628  1.00  0.00     0.031 C 
ATOM     48  C   UNL     1       7.439  -7.576  -0.159  1.00  0.00     0.029 A 
ATOM     49  N   UNL     1       9.075  -8.233   1.215  1.00  0.00    -0.354 N 
ATOM     50  C   UNL     1       9.133  -6.992   5.357  1.00  0.00     0.074 A 
ATOM     51  C   UNL     1       8.016  -6.125   5.655  1.00  0.00     0.031 C 
ATOM     52  C   UNL     1       8.288  -8.330  -0.876  1.00  0.00     0.029 A 
ATOM     53  C   UNL     1       9.382  -8.766  -0.014  1.00  0.00     0.049 A 
ATOM     54  H   UNL     1       9.638  -8.359   2.013  1.00  0.00     0.167 HD
ATOM     55  C   UNL     1      10.077  -7.357   6.257  1.00  0.00     0.037 A 
ATOM     56  C   UNL     1      10.428  -9.520  -0.400  1.00  0.00     0.037 A 
ATOM     57  C   UNL     1      11.177  -8.236   5.959  1.00  0.00     0.049 A 
ATOM     58  C   UNL     1      11.471  -9.899   0.615  1.00  0.00     0.074 A 
ATOM     59  C   UNL     1      12.149  -8.720   6.815  1.00  0.00     0.029 A 
ATOM     60  N   UNL     1      11.455  -8.754   4.702  1.00  0.00    -0.354 N 
ATOM     61  N   UNL     1      11.530  -9.604   1.891  1.00  0.00    -0.248 NA
ATOM     62  C   UNL     1      12.592 -10.720   0.137  1.00  0.00     0.031 C 
ATOM     63  C   UNL     1      13.050  -9.483   6.065  1.00  0.00     0.029 A 
ATOM     64  C   UNL     1      12.604  -9.526   4.754  1.00  0.00     0.049 A 
ATOM     65  H   UNL     1      10.915  -8.596   3.894  1.00  0.00     0.167 HD
ATOM     66  C   UNL     1      12.673 -10.227   2.375  1.00  0.00     0.074 A 
ATOM     67  C   UNL     1      13.269 -10.928   1.256  1.00  0.00     0.031 C 
ATOM     68  C   UNL     1      13.183 -10.220   3.631  1.00  0.00     0.037 A 
BRANCH  55  69
ATOM     69  C   UNL     1       9.960  -6.798   7.647  1.00  0.00     0.057 A 
ATOM     70  C   UNL     1       8.924  -7.170   8.514  1.00  0.00     0.134 A 
ATOM     71  C   UNL     1      10.911  -5.891   8.134  1.00  0.00     0.134 A 
ATOM     72  F   UNL     1       7.972  -8.025   8.109  1.00  0.00    -0.206 F 
ATOM     73  C   UNL     1       8.817  -6.636   9.800  1.00  0.00     0.040 A 
ATOM     74  C   UNL     1      10.834  -5.375   9.429  1.00  0.00     0.040 A 
ATOM     75  F   UNL     1      11.934  -5.496   7.361  1.00  0.00    -0.206 F 
ATOM     76  C   UNL     1       9.779  -5.741  10.262  1.00  0.00     0.006 A 
ENDBRANCH  55  69
BRANCH  56  77
ATOM     77  C   UNL     1      10.528  -9.993  -1.805  1.00  0.00     0.057 A 
ATOM     78  C   UNL     1      10.383 -11.349  -2.122  1.00  0.00     0.134 A 
ATOM     79  C   UNL     1      10.778  -9.109  -2.862  1.00  0.00     0.134 A 
ATOM     80  F   UNL     1      10.160 -12.248  -1.153  1.00  0.00    -0.206 F 
ATOM     81  C   UNL     1      10.503 -11.812  -3.434  1.00  0.00     0.040 A 
ATOM     82  C   UNL     1      10.873  -9.554  -4.181  1.00  0.00     0.040 A 
ATOM     83  F   UNL     1      10.918  -7.796  -2.627  1.00  0.00    -0.206 F 
ATOM     84  C   UNL     1      10.744 -10.911  -4.469  1.00  0.00     0.006 A 
ENDBRANCH  56  77
BRANCH  68  85
ATOM     85  C   UNL     1      14.429 -11.024   3.871  1.00  0.00     0.057 A 
ATOM     86  C   UNL     1      15.674 -10.636   3.358  1.00  0.00     0.134 A 
ATOM     87  C   UNL     1      14.388 -12.182   4.659  1.00  0.00     0.134 A 
ATOM     88  F   UNL     1      15.781  -9.544   2.586  1.00  0.00    -0.206 F 
ATOM     89  C   UNL     1      16.827 -11.386   3.596  1.00  0.00     0.040 A 
ATOM     90  C   UNL     1      15.539 -12.922   4.931  1.00  0.00     0.040 A 
ATOM     91  F   UNL     1      13.231 -12.604   5.190  1.00  0.00    -0.206 F 
ATOM     92  C   UNL     1      16.762 -12.528   4.392  1.00  0.00     0.006 A 
ENDBRANCH  68  85
ENDBRANCH  42  43
ENDBRANCH  34  37
ENDBRANCH  32  33
ENDBRANCH  31  32
ENDBRANCH  30  31
ENDBRANCH  29  30
ENDBRANCH  28  29
ENDBRANCH   1  28
TORSDOF 19
