REMARK SMILES CC[C@@H]1CCC[C@@H]([NH+]2CC(n3cc(C(=O)NCCCCCCNC(=O)c4ccc(-c5c6nc(c(-c7c(F)cccc7F)c7ccc([nH]7)c(-c7c(F)cccc7F)c7nc(c(-c8c(F)cccc8F)c8ccc5[nH]8)C=C7)C=C6)cc4)nn3)C2)C1
REMARK SMILES IDX 19 1 18 2 17 3 16 4 14 5 15 6 13 8 11 9 12 10 81 11 80 12
REMARK SMILES IDX 10 13 8 14 9 15 82 16 7 18 3 19 4 20 83 21 5 22 6 23 2 24
REMARK SMILES IDX 1 25 20 26 21 27 22 28 23 29 24 30 25 32 26 33 27 34 79 35
REMARK SMILES IDX 28 36 78 37 29 38 30 39 31 40 72 41 32 42 77 43 71 44 73 45
REMARK SMILES IDX 33 46 76 47 70 48 69 49 34 51 60 52 43 53 59 54 44 55 47 56
REMARK SMILES IDX 58 57 74 58 45 59 46 60 57 62 75 63 48 64 35 65 36 66 41 67
REMARK SMILES IDX 37 68 38 69 40 70 42 71 39 72 61 73 62 74 67 75 63 76 64 77
REMARK SMILES IDX 66 78 68 79 65 80 49 81 50 82 55 83 51 84 52 85 54 86 56 87
REMARK SMILES IDX 53 88
REMARK H PARENT 16 7 8 17 23 31 73 50 47 61
REMARK Flexibility Score: inf
ROOT
ATOM      1  C   UNL     1       3.153  -5.056  11.910  1.00  0.00     0.002 C 
ENDROOT
BRANCH   1   2
ATOM      2  C   UNL     1       2.931  -4.437  10.528  1.00  0.00     0.021 C 
BRANCH   2   3
ATOM      3  C   UNL     1       4.144  -3.657  10.027  1.00  0.00     0.116 C 
BRANCH   3   4
ATOM      4  N   UNL     1       5.114  -4.533   9.398  1.00  0.00    -0.351 N 
ATOM      5  C   UNL     1       5.710  -4.540   8.156  1.00  0.00     0.273 C 
ATOM      6  O   UNL     1       6.572  -5.397   7.966  1.00  0.00    -0.267 OA
ATOM      7  H   UNL     1       5.407  -5.273   9.977  1.00  0.00     0.163 HD
BRANCH   5   8
ATOM      8  C   UNL     1       5.338  -3.579   7.126  1.00  0.00     0.170 A 
ATOM      9  N   UNL     1       4.377  -2.096   5.857  1.00  0.00    -0.237 N 
ATOM     10  C   UNL     1       4.231  -2.776   7.028  1.00  0.00     0.145 A 
ATOM     11  N   UNL     1       5.471  -2.496   5.202  1.00  0.00    -0.066 NA
ATOM     12  N   UNL     1       6.081  -3.396   5.972  1.00  0.00    -0.125 NA
BRANCH   9  13
ATOM     13  C   UNL     1       3.235  -1.480   5.296  1.00  0.00     0.218 C 
ATOM     14  N   UNL     1       2.454   0.184   4.293  1.00  0.00    -0.329 N 
ATOM     15  C   UNL     1       3.309  -0.961   3.874  1.00  0.00     0.296 C 
ATOM     16  C   UNL     1       2.982  -0.015   5.680  1.00  0.00     0.296 C 
ATOM     17  H   UNL     1       2.512   1.067   3.784  1.00  0.00     0.348 HD
BRANCH  14  18
ATOM     18  C   UNL     1       0.977   0.033   4.192  1.00  0.00     0.184 C 
ATOM     19  C   UNL     1       0.599  -1.107   1.897  1.00  0.00    -0.006 C 
ATOM     20  C   UNL     1      -0.118  -2.279   2.589  1.00  0.00     0.004 C 
ATOM     21  C   UNL     1       0.501   0.185   2.729  1.00  0.00     0.068 C 
ATOM     22  C   UNL     1       0.259  -2.450   4.055  1.00  0.00     0.006 C 
ATOM     23  C   UNL     1       0.194  -1.137   4.832  1.00  0.00     0.065 C 
BRANCH  19  24
ATOM     24  C   UNL     1       0.062  -0.950   0.466  1.00  0.00     0.000 C 
ATOM     25  C   UNL     1       0.758   0.154  -0.316  1.00  0.00     0.004 C 
ENDBRANCH  19  24
ENDBRANCH  14  18
ENDBRANCH   9  13
ENDBRANCH   5   8
ENDBRANCH   3   4
ENDBRANCH   2   3
ENDBRANCH   1   2
BRANCH   1  26
ATOM     26  C   UNL     1       3.586  -4.067  13.005  1.00  0.00     0.002 C 
BRANCH  26  27
ATOM     27  C   UNL     1       2.739  -2.791  13.142  1.00  0.00     0.021 C 
BRANCH  27  28
ATOM     28  C   UNL     1       1.307  -3.057  13.576  1.00  0.00     0.116 C 
BRANCH  28  29
ATOM     29  N   UNL     1       1.245  -3.645  14.909  1.00  0.00    -0.352 N 
ATOM     30  C   UNL     1       0.146  -4.109  15.602  1.00  0.00     0.251 C 
ATOM     31  H   UNL     1       2.106  -3.722  15.380  1.00  0.00     0.163 HD
ATOM     32  O   UNL     1       0.176  -4.226  16.815  1.00  0.00    -0.269 OA
BRANCH  30  33
ATOM     33  C   UNL     1      -1.072  -4.458  14.849  1.00  0.00     0.039 A 
ATOM     34  C   UNL     1      -2.335  -4.158  15.362  1.00  0.00     0.014 A 
ATOM     35  C   UNL     1      -0.937  -5.086  13.612  1.00  0.00     0.014 A 
ATOM     36  C   UNL     1      -3.453  -4.424  14.579  1.00  0.00     0.010 A 
ATOM     37  C   UNL     1      -2.022  -5.205  12.780  1.00  0.00     0.010 A 
ATOM     38  C   UNL     1      -3.288  -4.922  13.274  1.00  0.00    -0.014 A 
BRANCH  38  39
ATOM     39  C   UNL     1      -4.431  -5.013  12.373  1.00  0.00     0.031 A 
ATOM     40  C   UNL     1      -5.215  -3.756  12.283  1.00  0.00     0.074 A 
ATOM     41  C   UNL     1      -4.679  -6.059  11.556  1.00  0.00     0.049 A 
ATOM     42  N   UNL     1      -6.377  -3.538  12.799  1.00  0.00    -0.248 NA
ATOM     43  C   UNL     1      -4.579  -2.557  11.716  1.00  0.00     0.031 C 
ATOM     44  C   UNL     1      -3.850  -7.242  11.308  1.00  0.00     0.029 A 
ATOM     45  N   UNL     1      -5.716  -6.240  10.690  1.00  0.00    -0.354 N 
ATOM     46  C   UNL     1      -6.730  -2.252  12.407  1.00  0.00     0.074 A 
ATOM     47  C   UNL     1      -5.519  -1.633  11.936  1.00  0.00     0.031 C 
ATOM     48  C   UNL     1      -4.292  -7.886  10.204  1.00  0.00     0.029 A 
ATOM     49  C   UNL     1      -5.529  -7.265   9.767  1.00  0.00     0.049 A 
ATOM     50  H   UNL     1      -6.532  -5.690  10.715  1.00  0.00     0.167 HD
ATOM     51  C   UNL     1      -8.042  -1.931  12.233  1.00  0.00     0.037 A 
ATOM     52  C   UNL     1      -6.328  -7.569   8.712  1.00  0.00     0.037 A 
ATOM     53  C   UNL     1      -8.899  -2.904  12.877  1.00  0.00     0.049 A 
ATOM     54  C   UNL     1      -7.663  -6.988   8.991  1.00  0.00     0.074 A 
ATOM     55  C   UNL     1      -9.008  -3.414  14.158  1.00  0.00     0.029 A 
ATOM     56  N   UNL     1      -9.561  -3.798  12.070  1.00  0.00    -0.354 N 
ATOM     57  N   UNL     1      -8.462  -7.426   9.922  1.00  0.00    -0.248 NA
ATOM     58  C   UNL     1      -7.917  -5.629   8.538  1.00  0.00     0.031 C 
ATOM     59  C   UNL     1      -9.273  -4.806  13.979  1.00  0.00     0.029 A 
ATOM     60  C   UNL     1      -9.399  -5.045  12.611  1.00  0.00     0.049 A 
ATOM     61  H   UNL     1     -10.061  -3.581  11.250  1.00  0.00     0.167 HD
ATOM     62  C   UNL     1      -8.980  -6.277  10.498  1.00  0.00     0.074 A 
ATOM     63  C   UNL     1      -8.690  -5.209   9.542  1.00  0.00     0.031 C 
ATOM     64  C   UNL     1      -9.323  -6.250  11.820  1.00  0.00     0.037 A 
BRANCH  51  65
ATOM     65  C   UNL     1      -8.552  -1.038  11.123  1.00  0.00     0.057 A 
ATOM     66  C   UNL     1      -9.929  -0.747  11.077  1.00  0.00     0.134 A 
ATOM     67  C   UNL     1      -7.841  -0.740   9.943  1.00  0.00     0.134 A 
ATOM     68  F   UNL     1     -10.718  -0.981  12.137  1.00  0.00    -0.206 F 
ATOM     69  C   UNL     1     -10.566  -0.314   9.908  1.00  0.00     0.040 A 
ATOM     70  C   UNL     1      -8.460  -0.257   8.787  1.00  0.00     0.040 A 
ATOM     71  F   UNL     1      -6.536  -0.991   9.797  1.00  0.00    -0.206 F 
ATOM     72  C   UNL     1      -9.833  -0.083   8.753  1.00  0.00     0.006 A 
ENDBRANCH  51  65
BRANCH  52  73
ATOM     73  C   UNL     1      -5.966  -8.075   7.366  1.00  0.00     0.057 A 
ATOM     74  C   UNL     1      -6.957  -8.511   6.471  1.00  0.00     0.134 A 
ATOM     75  C   UNL     1      -4.693  -7.859   6.812  1.00  0.00     0.134 A 
ATOM     76  F   UNL     1      -8.213  -8.719   6.892  1.00  0.00    -0.206 F 
ATOM     77  C   UNL     1      -6.711  -8.669   5.100  1.00  0.00     0.040 A 
ATOM     78  C   UNL     1      -4.432  -8.021   5.447  1.00  0.00     0.040 A 
ATOM     79  F   UNL     1      -3.682  -7.390   7.557  1.00  0.00    -0.206 F 
ATOM     80  C   UNL     1      -5.448  -8.407   4.581  1.00  0.00     0.006 A 
ENDBRANCH  52  73
BRANCH  64  81
ATOM     81  C   UNL     1      -9.419  -7.559  12.553  1.00  0.00     0.057 A 
ATOM     82  C   UNL     1      -8.356  -8.458  12.732  1.00  0.00     0.134 A 
ATOM     83  C   UNL     1     -10.619  -7.865  13.205  1.00  0.00     0.134 A 
ATOM     84  F   UNL     1      -7.138  -8.208  12.233  1.00  0.00    -0.206 F 
ATOM     85  C   UNL     1      -8.501  -9.631  13.481  1.00  0.00     0.040 A 
ATOM     86  C   UNL     1     -10.765  -9.013  13.985  1.00  0.00     0.040 A 
ATOM     87  F   UNL     1     -11.664  -7.026  13.124  1.00  0.00    -0.206 F 
ATOM     88  C   UNL     1      -9.708  -9.909  14.114  1.00  0.00     0.006 A 
ENDBRANCH  64  81
ENDBRANCH  38  39
ENDBRANCH  30  33
ENDBRANCH  28  29
ENDBRANCH  27  28
ENDBRANCH  26  27
ENDBRANCH   1  26
TORSDOF 16
