REMARK SMILES O=C(NCCCCCCNC(=O)[C@H]1C[C@H]2CCCC[C@@H]2[N@@H+]1CC[C@@H]1CCCO1)c1ccc(-c2c3nc(c(-c4c(F)cccc4F)c4ccc([nH]4)c(-c4c(F)cccc4F)c4nc(c(-c5c(F)cccc5F)c5ccc2[nH]5)C=C4)C=C3)cc1
REMARK SMILES IDX 7 1 6 2 5 3 4 4 3 5 1 6 2 7 29 9 30 10 82 11 31 12 81 13
REMARK SMILES IDX 32 14 33 15 34 16 75 17 35 18 80 19 74 20 76 21 36 22 79 23
REMARK SMILES IDX 73 24 72 25 37 27 63 28 46 29 62 30 47 31 50 32 61 33 77 34
REMARK SMILES IDX 48 35 49 36 60 38 78 39 51 40 38 41 39 42 44 43 40 44 41 45
REMARK SMILES IDX 43 46 45 47 42 48 64 49 65 50 70 51 66 52 67 53 69 54 71 55
REMARK SMILES IDX 68 56 52 57 53 58 58 59 54 60 55 61 57 62 59 63 56 64 8 65
REMARK SMILES IDX 9 66 10 67 11 68 12 70 13 71 14 72 21 73 15 74 20 75 16 77
REMARK SMILES IDX 19 78 17 79 18 80 22 81 23 82 24 83 25 84 28 85 26 86 27 87
REMARK H PARENT 3 8 76 26 50 37 10 69 21 76
REMARK Flexibility Score: inf
ROOT
ATOM      1  C   UNL     1       6.049   2.602   3.053  1.00  0.00     0.002 C 
ENDROOT
BRANCH   1   2
ATOM      2  C   UNL     1       5.383   1.348   2.478  1.00  0.00     0.002 C 
BRANCH   2   3
ATOM      3  C   UNL     1       3.971   1.074   2.990  1.00  0.00     0.021 C 
BRANCH   3   4
ATOM      4  C   UNL     1       2.997   2.230   2.813  1.00  0.00     0.116 C 
BRANCH   4   5
ATOM      5  N   UNL     1       2.744   2.537   1.416  1.00  0.00    -0.352 N 
ATOM      6  O   UNL     1       1.496   2.757  -0.453  1.00  0.00    -0.269 OA
ATOM      7  C   UNL     1       1.539   2.655   0.762  1.00  0.00     0.251 C 
ATOM      8  H   UNL     1       3.544   2.680   0.861  1.00  0.00     0.163 HD
BRANCH   7   9
ATOM      9  C   UNL     1       0.287   2.634   1.552  1.00  0.00     0.039 A 
ATOM     10  C   UNL     1       0.172   3.395   2.717  1.00  0.00     0.014 A 
ATOM     11  C   UNL     1      -0.778   1.842   1.117  1.00  0.00     0.014 A 
ATOM     12  C   UNL     1      -0.956   3.263   3.517  1.00  0.00     0.010 A 
ATOM     13  C   UNL     1      -1.948   1.779   1.878  1.00  0.00     0.010 A 
ATOM     14  C   UNL     1      -2.037   2.471   3.096  1.00  0.00    -0.014 A 
BRANCH  14  15
ATOM     15  C   UNL     1      -3.278   2.449   3.908  1.00  0.00     0.031 A 
ATOM     16  C   UNL     1      -3.754   1.192   4.576  1.00  0.00     0.074 A 
ATOM     17  C   UNL     1      -3.967   3.598   4.051  1.00  0.00     0.049 A 
ATOM     18  N   UNL     1      -4.813   1.009   5.324  1.00  0.00    -0.248 NA
ATOM     19  C   UNL     1      -2.944  -0.019   4.377  1.00  0.00     0.031 C 
ATOM     20  C   UNL     1      -3.605   4.878   3.438  1.00  0.00     0.029 A 
ATOM     21  N   UNL     1      -5.102   3.882   4.765  1.00  0.00    -0.354 N 
ATOM     22  C   UNL     1      -4.808  -0.336   5.672  1.00  0.00     0.074 A 
ATOM     23  C   UNL     1      -3.652  -0.930   5.032  1.00  0.00     0.031 C 
ATOM     24  C   UNL     1      -4.473   5.818   3.836  1.00  0.00     0.029 A 
ATOM     25  C   UNL     1      -5.488   5.197   4.677  1.00  0.00     0.049 A 
ATOM     26  H   UNL     1      -5.593   3.208   5.289  1.00  0.00     0.167 HD
ATOM     27  C   UNL     1      -5.684  -1.008   6.458  1.00  0.00     0.037 A 
ATOM     28  C   UNL     1      -6.553   5.831   5.199  1.00  0.00     0.037 A 
ATOM     29  C   UNL     1      -6.827  -0.406   7.097  1.00  0.00     0.049 A 
ATOM     30  C   UNL     1      -7.523   5.054   6.038  1.00  0.00     0.074 A 
ATOM     31  C   UNL     1      -7.754  -0.995   7.939  1.00  0.00     0.029 A 
ATOM     32  N   UNL     1      -7.203   0.923   6.959  1.00  0.00    -0.354 N 
ATOM     33  N   UNL     1      -7.485   3.791   6.386  1.00  0.00    -0.248 NA
ATOM     34  C   UNL     1      -8.686   5.788   6.553  1.00  0.00     0.031 C 
ATOM     35  C   UNL     1      -8.716  -0.036   8.273  1.00  0.00     0.029 A 
ATOM     36  C   UNL     1      -8.361   1.165   7.680  1.00  0.00     0.049 A 
ATOM     37  H   UNL     1      -6.718   1.595   6.427  1.00  0.00     0.167 HD
ATOM     38  C   UNL     1      -8.607   3.581   7.174  1.00  0.00     0.074 A 
ATOM     39  C   UNL     1      -9.294   4.854   7.269  1.00  0.00     0.031 C 
ATOM     40  C   UNL     1      -9.032   2.437   7.764  1.00  0.00     0.037 A 
BRANCH  27  41
ATOM     41  C   UNL     1      -5.454  -2.478   6.659  1.00  0.00     0.057 A 
ATOM     42  C   UNL     1      -4.405  -2.964   7.451  1.00  0.00     0.134 A 
ATOM     43  C   UNL     1      -6.325  -3.420   6.095  1.00  0.00     0.134 A 
ATOM     44  F   UNL     1      -3.529  -2.117   8.013  1.00  0.00    -0.206 F 
ATOM     45  C   UNL     1      -4.220  -4.332   7.660  1.00  0.00     0.040 A 
ATOM     46  C   UNL     1      -6.164  -4.789   6.316  1.00  0.00     0.040 A 
ATOM     47  F   UNL     1      -7.355  -3.025   5.332  1.00  0.00    -0.206 F 
ATOM     48  C   UNL     1      -5.106  -5.249   7.097  1.00  0.00     0.006 A 
ENDBRANCH  27  41
BRANCH  28  49
ATOM     49  C   UNL     1      -6.753   7.276   4.933  1.00  0.00     0.057 A 
ATOM     50  C   UNL     1      -6.614   8.226   5.950  1.00  0.00     0.134 A 
ATOM     51  C   UNL     1      -7.074   7.743   3.652  1.00  0.00     0.134 A 
ATOM     52  F   UNL     1      -6.322   7.839   7.200  1.00  0.00    -0.206 F 
ATOM     53  C   UNL     1      -6.800   9.588   5.707  1.00  0.00     0.040 A 
ATOM     54  C   UNL     1      -7.236   9.103   3.388  1.00  0.00     0.040 A 
ATOM     55  F   UNL     1      -7.212   6.882   2.632  1.00  0.00    -0.206 F 
ATOM     56  C   UNL     1      -7.105  10.030   4.420  1.00  0.00     0.006 A 
ENDBRANCH  28  49
BRANCH  40  57
ATOM     57  C   UNL     1     -10.284   2.523   8.586  1.00  0.00     0.057 A 
ATOM     58  C   UNL     1     -11.546   2.669   7.998  1.00  0.00     0.134 A 
ATOM     59  C   UNL     1     -10.225   2.437   9.983  1.00  0.00     0.134 A 
ATOM     60  F   UNL     1     -11.668   2.773   6.666  1.00  0.00    -0.206 F 
ATOM     61  C   UNL     1     -12.705   2.752   8.772  1.00  0.00     0.040 A 
ATOM     62  C   UNL     1     -11.379   2.492  10.765  1.00  0.00     0.040 A 
ATOM     63  F   UNL     1      -9.047   2.291  10.608  1.00  0.00    -0.206 F 
ATOM     64  C   UNL     1     -12.623   2.657  10.160  1.00  0.00     0.006 A 
ENDBRANCH  40  57
ENDBRANCH  14  15
ENDBRANCH   7   9
ENDBRANCH   4   5
ENDBRANCH   3   4
ENDBRANCH   2   3
ENDBRANCH   1   2
BRANCH   1  65
ATOM     65  C   UNL     1       6.102   2.676   4.585  1.00  0.00     0.021 C 
BRANCH  65  66
ATOM     66  C   UNL     1       6.799   1.498   5.262  1.00  0.00     0.116 C 
BRANCH  66  67
ATOM     67  N   UNL     1       8.175   1.396   4.830  1.00  0.00    -0.351 N 
ATOM     68  C   UNL     1       9.316   1.265   5.562  1.00  0.00     0.278 C 
ATOM     69  H   UNL     1       8.308   1.425   3.855  1.00  0.00     0.163 HD
ATOM     70  O   UNL     1      10.386   1.322   4.949  1.00  0.00    -0.268 OA
BRANCH  68  71
ATOM     71  C   UNL     1       9.230   1.018   7.079  1.00  0.00     0.274 C 
ATOM     72  C   UNL     1      10.249  -0.083   7.462  1.00  0.00     0.085 C 
ATOM     73  N   UNL     1       9.639   2.249   7.816  1.00  0.00    -0.322 N 
ATOM     74  C   UNL     1      10.923   0.500   8.683  1.00  0.00     0.054 C 
ATOM     75  C   UNL     1      10.984   1.984   8.335  1.00  0.00     0.188 C 
ATOM     76  H   UNL     1       9.696   3.052   7.189  1.00  0.00     0.349 HD
ATOM     77  C   UNL     1      12.271  -0.046   9.105  1.00  0.00     0.010 C 
ATOM     78  C   UNL     1      11.612   2.875   9.411  1.00  0.00     0.065 C 
ATOM     79  C   UNL     1      12.758   0.764  10.311  1.00  0.00     0.001 C 
ATOM     80  C   UNL     1      12.894   2.254   9.980  1.00  0.00     0.006 C 
BRANCH  73  81
ATOM     81  C   UNL     1       8.635   2.884   8.678  1.00  0.00     0.265 C 
BRANCH  81  82
ATOM     82  C   UNL     1       7.851   2.085   9.749  1.00  0.00     0.093 C 
BRANCH  82  83
ATOM     83  C   UNL     1       8.654   1.638  10.965  1.00  0.00     0.123 C 
ATOM     84  C   UNL     1       8.227   0.299  11.535  1.00  0.00     0.034 C 
ATOM     85  O   UNL     1       8.539   2.518  12.091  1.00  0.00    -0.378 OA
ATOM     86  C   UNL     1       8.948   0.299  12.865  1.00  0.00     0.031 C 
ATOM     87  C   UNL     1       9.093   1.780  13.201  1.00  0.00     0.160 C 
ENDBRANCH  82  83
ENDBRANCH  81  82
ENDBRANCH  73  81
ENDBRANCH  68  71
ENDBRANCH  66  67
ENDBRANCH  65  66
ENDBRANCH   1  65
TORSDOF 16
