REMARK SMILES Cc1ccc(-c2cc(OCC(=O)NCCCCCCNC(=O)c3ccc(-c4c5nc(c(-c6c(F)cccc6F)c6ccc([nH]6)c(-c6c(F)cccc6F)c6nc(c(-c7c(F)cccc7F)c7ccc4[nH]7)C=C6)C=C5)cc3)nc(NCc3ccc4c(c3)OCO4)n2)cc1
REMARK SMILES IDX 15 1 14 2 13 3 11 4 12 5 10 7 9 8 8 9 6 10 7 11 90 12 78 13
REMARK SMILES IDX 77 14 5 15 1 16 2 17 3 18 92 19 4 20 91 21 79 22 80 24 81 25
REMARK SMILES IDX 82 26 86 27 83 28 85 29 84 30 87 31 89 32 88 33 16 34 17 35
REMARK SMILES IDX 18 36 19 37 20 38 21 39 22 41 23 42 24 43 76 44 25 45 75 46
REMARK SMILES IDX 26 47 27 48 28 49 69 50 29 51 74 52 68 53 70 54 30 55 73 56
REMARK SMILES IDX 67 57 66 58 31 60 57 61 40 62 56 63 41 64 44 65 55 66 71 67
REMARK SMILES IDX 42 68 43 69 54 71 72 72 45 73 32 74 33 75 38 76 34 77 35 78
REMARK SMILES IDX 37 79 39 80 36 81 58 82 59 83 64 84 60 85 61 86 63 87 65 88
REMARK SMILES IDX 62 89 46 90 47 91 52 92 48 93 49 94 51 95 53 96 50 97
REMARK H PARENT 13 6 79 23 20 40 70 59 44 70
REMARK Flexibility Score: inf
ROOT
ATOM      1  C   UNL     1      -6.704   4.277  -0.323  1.00  0.00     0.021 C 
ENDROOT
BRANCH   1   2
ATOM      2  C   UNL     1      -6.520   4.086  -1.828  1.00  0.00     0.116 C 
BRANCH   2   3
ATOM      3  N   UNL     1      -5.130   3.953  -2.209  1.00  0.00    -0.353 N 
ATOM      4  C   UNL     1      -4.520   2.903  -2.829  1.00  0.00     0.258 C 
ATOM      5  O   UNL     1      -3.329   3.002  -3.133  1.00  0.00    -0.271 OA
ATOM      6  H   UNL     1      -4.550   4.719  -1.994  1.00  0.00     0.163 HD
BRANCH   4   7
ATOM      7  C   UNL     1      -5.322   1.635  -3.145  1.00  0.00     0.331 C 
BRANCH   7   8
ATOM      8  O   UNL     1      -5.947   0.993  -2.047  1.00  0.00    -0.467 OA
BRANCH   8   9
ATOM      9  C   UNL     1      -5.147   0.523  -1.045  1.00  0.00     0.219 A 
ATOM     10  C   UNL     1      -3.159  -0.061   0.022  1.00  0.00     0.080 A 
ATOM     11  C   UNL     1      -3.787   0.388  -1.119  1.00  0.00     0.097 A 
ATOM     12  N   UNL     1      -3.833  -0.429   1.128  1.00  0.00    -0.213 NA
ATOM     13  C   UNL     1      -5.161  -0.274   1.106  1.00  0.00     0.226 A 
ATOM     14  N   UNL     1      -5.841   0.209   0.059  1.00  0.00    -0.177 NA
BRANCH  10  15
ATOM     15  C   UNL     1      -1.695  -0.083   0.096  1.00  0.00     0.000 A 
ATOM     16  C   UNL     1       2.631  -0.088   0.037  1.00  0.00     0.044 C 
ATOM     17  C   UNL     1       1.132  -0.079   0.080  1.00  0.00    -0.051 A 
ATOM     18  C   UNL     1       0.420  -1.283   0.159  1.00  0.00     0.004 A 
ATOM     19  C   UNL     1       0.425   1.125   0.024  1.00  0.00     0.004 A 
ATOM     20  C   UNL     1      -0.980  -1.284   0.175  1.00  0.00     0.010 A 
ATOM     21  C   UNL     1      -0.971   1.120   0.031  1.00  0.00     0.010 A 
ENDBRANCH  10  15
BRANCH  13  22
ATOM     22  N   UNL     1      -5.925  -0.586   2.198  1.00  0.00    -0.350 N 
ATOM     23  H   UNL     1      -6.789  -0.132   2.322  1.00  0.00     0.164 HD
BRANCH  22  24
ATOM     24  C   UNL     1      -5.500  -1.559   3.170  1.00  0.00     0.152 C 
BRANCH  24  25
ATOM     25  C   UNL     1      -5.837  -2.987   2.772  1.00  0.00    -0.025 A 
ATOM     26  C   UNL     1      -5.248  -4.049   3.506  1.00  0.00     0.009 A 
ATOM     27  C   UNL     1      -6.722  -3.299   1.723  1.00  0.00     0.056 A 
ATOM     28  C   UNL     1      -5.495  -5.387   3.178  1.00  0.00     0.051 A 
ATOM     29  C   UNL     1      -6.926  -4.625   1.408  1.00  0.00     0.166 A 
ATOM     30  C   UNL     1      -6.324  -5.641   2.110  1.00  0.00     0.165 A 
ATOM     31  O   UNL     1      -7.700  -5.087   0.388  1.00  0.00    -0.454 OA
ATOM     32  O   UNL     1      -6.638  -6.869   1.613  1.00  0.00    -0.454 OA
ATOM     33  C   UNL     1      -7.389  -6.494   0.440  1.00  0.00     0.468 C 
ENDBRANCH  24  25
ENDBRANCH  22  24
ENDBRANCH  13  22
ENDBRANCH   8   9
ENDBRANCH   7   8
ENDBRANCH   4   7
ENDBRANCH   2   3
ENDBRANCH   1   2
BRANCH   1  34
ATOM     34  C   UNL     1      -6.016   5.503   0.293  1.00  0.00     0.002 C 
BRANCH  34  35
ATOM     35  C   UNL     1      -6.230   6.858  -0.402  1.00  0.00     0.002 C 
BRANCH  35  36
ATOM     36  C   UNL     1      -7.669   7.231  -0.761  1.00  0.00     0.021 C 
BRANCH  36  37
ATOM     37  C   UNL     1      -8.602   7.403   0.427  1.00  0.00     0.116 C 
BRANCH  37  38
ATOM     38  N   UNL     1      -8.752   8.774   0.892  1.00  0.00    -0.352 N 
ATOM     39  C   UNL     1      -9.459   9.269   1.977  1.00  0.00     0.251 C 
ATOM     40  H   UNL     1      -8.280   9.451   0.355  1.00  0.00     0.163 HD
ATOM     41  O   UNL     1      -9.523  10.473   2.159  1.00  0.00    -0.269 OA
BRANCH  39  42
ATOM     42  C   UNL     1     -10.003   8.335   3.002  1.00  0.00     0.039 A 
ATOM     43  C   UNL     1      -9.850   8.696   4.348  1.00  0.00     0.014 A 
ATOM     44  C   UNL     1     -10.432   7.053   2.676  1.00  0.00     0.014 A 
ATOM     45  C   UNL     1      -9.841   7.705   5.325  1.00  0.00     0.010 A 
ATOM     46  C   UNL     1     -10.314   6.055   3.618  1.00  0.00     0.010 A 
ATOM     47  C   UNL     1      -9.937   6.377   4.924  1.00  0.00    -0.014 A 
BRANCH  47  48
ATOM     48  C   UNL     1      -9.553   5.251   5.761  1.00  0.00     0.031 A 
ATOM     49  C   UNL     1     -10.586   4.394   6.367  1.00  0.00     0.074 A 
ATOM     50  C   UNL     1      -8.243   4.937   5.864  1.00  0.00     0.049 A 
ATOM     51  N   UNL     1     -10.378   3.583   7.347  1.00  0.00    -0.248 NA
ATOM     52  C   UNL     1     -11.983   4.450   5.956  1.00  0.00     0.031 C 
ATOM     53  C   UNL     1      -7.660   3.697   6.365  1.00  0.00     0.029 A 
ATOM     54  N   UNL     1      -7.148   5.802   5.717  1.00  0.00    -0.354 N 
ATOM     55  C   UNL     1     -11.506   2.808   7.497  1.00  0.00     0.074 A 
ATOM     56  C   UNL     1     -12.508   3.481   6.711  1.00  0.00     0.031 C 
ATOM     57  C   UNL     1      -6.399   3.938   6.755  1.00  0.00     0.029 A 
ATOM     58  C   UNL     1      -6.191   5.373   6.662  1.00  0.00     0.049 A 
ATOM     59  H   UNL     1      -7.065   6.553   5.085  1.00  0.00     0.167 HD
ATOM     60  C   UNL     1     -11.393   1.615   8.150  1.00  0.00     0.037 A 
ATOM     61  C   UNL     1      -5.827   6.172   7.708  1.00  0.00     0.037 A 
ATOM     62  C   UNL     1     -10.095   1.530   8.832  1.00  0.00     0.049 A 
ATOM     63  C   UNL     1      -6.122   5.576   9.065  1.00  0.00     0.074 A 
ATOM     64  C   UNL     1      -8.912   0.871   8.539  1.00  0.00     0.029 A 
ATOM     65  N   UNL     1      -9.795   2.440   9.845  1.00  0.00    -0.354 N 
ATOM     66  N   UNL     1      -6.963   4.598   9.262  1.00  0.00    -0.248 NA
ATOM     67  C   UNL     1      -5.512   6.045  10.307  1.00  0.00     0.031 C 
ATOM     68  C   UNL     1      -7.879   1.460   9.315  1.00  0.00     0.029 A 
ATOM     69  C   UNL     1      -8.438   2.449  10.106  1.00  0.00     0.049 A 
ATOM     70  H   UNL     1     -10.459   2.998  10.311  1.00  0.00     0.167 HD
ATOM     71  C   UNL     1      -7.035   4.318  10.601  1.00  0.00     0.074 A 
ATOM     72  C   UNL     1      -6.094   5.237  11.212  1.00  0.00     0.031 C 
ATOM     73  C   UNL     1      -7.873   3.359  11.095  1.00  0.00     0.037 A 
BRANCH  60  74
ATOM     74  C   UNL     1     -12.312   0.412   7.958  1.00  0.00     0.057 A 
ATOM     75  C   UNL     1     -11.913  -0.863   8.419  1.00  0.00     0.134 A 
ATOM     76  C   UNL     1     -13.527   0.389   7.245  1.00  0.00     0.134 A 
ATOM     77  F   UNL     1     -10.816  -1.029   9.171  1.00  0.00    -0.206 F 
ATOM     78  C   UNL     1     -12.612  -2.046   8.126  1.00  0.00     0.040 A 
ATOM     79  C   UNL     1     -14.236  -0.784   6.946  1.00  0.00     0.040 A 
ATOM     80  F   UNL     1     -14.123   1.491   6.792  1.00  0.00    -0.206 F 
ATOM     81  C   UNL     1     -13.772  -2.014   7.370  1.00  0.00     0.006 A 
ENDBRANCH  60  74
BRANCH  61  82
ATOM     82  C   UNL     1      -5.868   7.620   7.377  1.00  0.00     0.057 A 
ATOM     83  C   UNL     1      -4.961   8.110   6.420  1.00  0.00     0.134 A 
ATOM     84  C   UNL     1      -6.991   8.405   7.649  1.00  0.00     0.134 A 
ATOM     85  F   UNL     1      -3.859   7.406   6.115  1.00  0.00    -0.206 F 
ATOM     86  C   UNL     1      -5.223   9.262   5.674  1.00  0.00     0.040 A 
ATOM     87  C   UNL     1      -7.257   9.570   6.918  1.00  0.00     0.040 A 
ATOM     88  F   UNL     1      -7.912   7.997   8.534  1.00  0.00    -0.206 F 
ATOM     89  C   UNL     1      -6.396   9.976   5.898  1.00  0.00     0.006 A 
ENDBRANCH  61  82
BRANCH  73  90
ATOM     90  C   UNL     1      -8.179   3.137  12.554  1.00  0.00     0.057 A 
ATOM     91  C   UNL     1      -8.198   4.155  13.519  1.00  0.00     0.134 A 
ATOM     92  C   UNL     1      -8.621   1.874  13.006  1.00  0.00     0.134 A 
ATOM     93  F   UNL     1      -7.908   5.425  13.203  1.00  0.00    -0.206 F 
ATOM     94  C   UNL     1      -8.572   3.923  14.849  1.00  0.00     0.040 A 
ATOM     95  C   UNL     1      -9.047   1.642  14.317  1.00  0.00     0.040 A 
ATOM     96  F   UNL     1      -8.679   0.815  12.185  1.00  0.00    -0.206 F 
ATOM     97  C   UNL     1      -9.009   2.666  15.250  1.00  0.00     0.006 A 
ENDBRANCH  73  90
ENDBRANCH  47  48
ENDBRANCH  39  42
ENDBRANCH  37  38
ENDBRANCH  36  37
ENDBRANCH  35  36
ENDBRANCH  34  35
ENDBRANCH   1  34
TORSDOF 19
