REMARK SMILES O=C1CCCC2=C1[C@H](c1ccc([N+](=O)[O-])cc1)CC(=O)N2c1ccccc1C(=O)NCCCCCCNC(=O)c1ccc(-c2c3nc(c(-c4c(F)cccc4F)c4ccc([nH]4)c(-c4c(F)cccc4F)c4nc(c(-c5c(F)cccc5F)c5ccc2[nH]5)C=C4)C=C3)cc1
REMARK SMILES IDX 33 1 32 2 31 3 30 4 28 5 29 6 27 8 22 9 23 10 24 11 26 12
REMARK SMILES IDX 25 13 21 14 1 15 2 16 3 17 7 18 4 19 6 20 8 21 5 22 18 23
REMARK SMILES IDX 19 24 20 25 9 26 10 27 17 28 11 29 16 30 12 31 13 32 14 33
REMARK SMILES IDX 15 34 34 35 35 36 36 37 37 38 38 39 39 41 40 42 41 43 93 44
REMARK SMILES IDX 42 45 92 46 43 47 44 48 45 49 86 50 46 51 91 52 85 53 87 54
REMARK SMILES IDX 47 55 90 56 84 57 83 58 48 60 74 61 57 62 73 63 58 64 61 65
REMARK SMILES IDX 72 66 88 67 59 68 60 69 71 71 89 72 62 73 49 74 50 75 55 76
REMARK SMILES IDX 51 77 52 78 54 79 56 80 53 81 75 82 76 83 81 84 77 85 78 86
REMARK SMILES IDX 80 87 82 88 79 89 63 90 64 91 69 92 65 93 66 94 68 95 70 96
REMARK SMILES IDX 67 97
REMARK H PARENT 30 7 37 40 87 59 61 70
REMARK Flexibility Score: inf
ROOT
ATOM      1  C   UNL     1       2.648  -0.102   3.349  1.00  0.00     0.002 C 
ENDROOT
BRANCH   1   2
ATOM      2  C   UNL     1       3.962  -0.929   3.070  1.00  0.00     0.021 C 
BRANCH   2   3
ATOM      3  C   UNL     1       4.785  -0.946   1.771  1.00  0.00     0.116 C 
BRANCH   3   4
ATOM      4  N   UNL     1       6.231  -0.788   1.899  1.00  0.00    -0.352 N 
ATOM      5  C   UNL     1       7.352  -1.037   1.128  1.00  0.00     0.253 C 
ATOM      6  O   UNL     1       8.352  -0.464   1.594  1.00  0.00    -0.269 OA
ATOM      7  H   UNL     1       6.473  -0.399   2.770  1.00  0.00     0.163 HD
BRANCH   5   8
ATOM      8  C   UNL     1       7.574  -1.846  -0.152  1.00  0.00     0.063 A 
ATOM      9  C   UNL     1       6.722  -2.616  -0.974  1.00  0.00     0.061 A 
ATOM     10  C   UNL     1       7.233  -3.268  -2.138  1.00  0.00     0.027 A 
ATOM     11  C   UNL     1       8.566  -3.204  -2.510  1.00  0.00     0.002 A 
ATOM     12  C   UNL     1       8.943  -1.830  -0.571  1.00  0.00     0.016 A 
ATOM     13  C   UNL     1       9.431  -2.486  -1.714  1.00  0.00     0.001 A 
BRANCH   9  14
ATOM     14  N   UNL     1       5.312  -2.764  -0.842  1.00  0.00    -0.284 N 
ATOM     15  O   UNL     1       1.141  -0.968  -1.616  1.00  0.00    -0.294 OA
ATOM     16  C   UNL     1       2.276  -0.752  -1.202  1.00  0.00     0.161 C 
ATOM     17  C   UNL     1       2.845   0.653  -1.100  1.00  0.00     0.081 C 
ATOM     18  C   UNL     1       3.135  -1.874  -0.727  1.00  0.00     0.023 C 
ATOM     19  C   UNL     1       4.088   0.743  -1.946  1.00  0.00     0.015 C 
ATOM     20  C   UNL     1       4.435  -1.699  -1.063  1.00  0.00     0.033 C 
ATOM     21  C   UNL     1       2.552  -3.221  -0.233  1.00  0.00     0.064 C 
ATOM     22  C   UNL     1       5.035  -0.423  -1.675  1.00  0.00     0.055 C 
ATOM     23  C   UNL     1       3.350  -4.274  -0.986  1.00  0.00     0.114 C 
ATOM     24  C   UNL     1       4.833  -4.090  -0.727  1.00  0.00     0.232 C 
ATOM     25  O   UNL     1       5.540  -5.074  -0.504  1.00  0.00    -0.274 OA
BRANCH  21  26
ATOM     26  C   UNL     1       2.440  -3.577   1.296  1.00  0.00    -0.039 A 
ATOM     27  C   UNL     1       3.220  -4.530   1.987  1.00  0.00     0.011 A 
ATOM     28  C   UNL     1       1.389  -3.053   2.058  1.00  0.00     0.011 A 
ATOM     29  C   UNL     1       3.019  -4.839   3.359  1.00  0.00     0.086 A 
ATOM     30  C   UNL     1       1.194  -3.292   3.432  1.00  0.00     0.086 A 
ATOM     31  C   UNL     1       2.032  -4.179   4.090  1.00  0.00     0.269 A 
BRANCH  31  32
ATOM     32  N   UNL     1       1.877  -4.401   5.534  1.00  0.00     0.062 N 
ATOM     33  O   UNL     1       2.432  -5.392   6.027  1.00  0.00    -0.258 OA
ATOM     34  O   UNL     1       1.214  -3.572   6.174  1.00  0.00    -0.258 OA
ENDBRANCH  31  32
ENDBRANCH  21  26
ENDBRANCH   9  14
ENDBRANCH   5   8
ENDBRANCH   3   4
ENDBRANCH   2   3
ENDBRANCH   1   2
BRANCH   1  35
ATOM     35  C   UNL     1       1.553   0.608   2.474  1.00  0.00     0.002 C 
BRANCH  35  36
ATOM     36  C   UNL     1       0.679   0.020   1.349  1.00  0.00     0.021 C 
BRANCH  36  37
ATOM     37  C   UNL     1      -0.781  -0.539   1.374  1.00  0.00     0.116 C 
BRANCH  37  38
ATOM     38  N   UNL     1      -1.375  -0.944   2.625  1.00  0.00    -0.352 N 
ATOM     39  C   UNL     1      -2.507  -1.737   2.787  1.00  0.00     0.251 C 
ATOM     40  H   UNL     1      -0.935  -0.627   3.447  1.00  0.00     0.163 HD
ATOM     41  O   UNL     1      -3.089  -1.766   3.858  1.00  0.00    -0.269 OA
BRANCH  39  42
ATOM     42  C   UNL     1      -3.036  -2.562   1.664  1.00  0.00     0.039 A 
ATOM     43  C   UNL     1      -4.252  -2.223   1.059  1.00  0.00     0.014 A 
ATOM     44  C   UNL     1      -2.395  -3.748   1.293  1.00  0.00     0.014 A 
ATOM     45  C   UNL     1      -4.789  -3.034   0.044  1.00  0.00     0.010 A 
ATOM     46  C   UNL     1      -2.921  -4.544   0.262  1.00  0.00     0.010 A 
ATOM     47  C   UNL     1      -4.120  -4.194  -0.383  1.00  0.00    -0.014 A 
BRANCH  47  48
ATOM     48  C   UNL     1      -4.651  -5.025  -1.508  1.00  0.00     0.031 A 
ATOM     49  C   UNL     1      -5.180  -6.415  -1.266  1.00  0.00     0.074 A 
ATOM     50  C   UNL     1      -4.610  -4.552  -2.770  1.00  0.00     0.049 A 
ATOM     51  N   UNL     1      -5.621  -7.300  -2.128  1.00  0.00    -0.248 NA
ATOM     52  C   UNL     1      -5.199  -6.875   0.128  1.00  0.00     0.031 C 
ATOM     53  C   UNL     1      -4.098  -3.238  -3.156  1.00  0.00     0.029 A 
ATOM     54  N   UNL     1      -4.987  -5.125  -3.963  1.00  0.00    -0.354 N 
ATOM     55  C   UNL     1      -5.957  -8.425  -1.384  1.00  0.00     0.074 A 
ATOM     56  C   UNL     1      -5.630  -8.122  -0.005  1.00  0.00     0.031 C 
ATOM     57  C   UNL     1      -4.192  -3.104  -4.489  1.00  0.00     0.029 A 
ATOM     58  C   UNL     1      -4.738  -4.333  -5.059  1.00  0.00     0.049 A 
ATOM     59  H   UNL     1      -5.397  -6.018  -4.026  1.00  0.00     0.167 HD
ATOM     60  C   UNL     1      -6.499  -9.597  -1.803  1.00  0.00     0.037 A 
ATOM     61  C   UNL     1      -4.910  -4.569  -6.375  1.00  0.00     0.037 A 
ATOM     62  C   UNL     1      -6.829  -9.897  -3.174  1.00  0.00     0.049 A 
ATOM     63  C   UNL     1      -5.498  -5.878  -6.827  1.00  0.00     0.074 A 
ATOM     64  C   UNL     1      -7.425 -11.036  -3.690  1.00  0.00     0.029 A 
ATOM     65  N   UNL     1      -6.581  -9.057  -4.250  1.00  0.00    -0.354 N 
ATOM     66  N   UNL     1      -5.868  -6.907  -6.103  1.00  0.00    -0.248 NA
ATOM     67  C   UNL     1      -5.699  -6.060  -8.272  1.00  0.00     0.031 C 
ATOM     68  C   UNL     1      -7.489 -10.906  -5.082  1.00  0.00     0.029 A 
ATOM     69  C   UNL     1      -6.986  -9.662  -5.429  1.00  0.00     0.049 A 
ATOM     70  H   UNL     1      -6.176  -8.162  -4.185  1.00  0.00     0.167 HD
ATOM     71  C   UNL     1      -6.370  -7.844  -6.998  1.00  0.00     0.074 A 
ATOM     72  C   UNL     1      -6.259  -7.262  -8.319  1.00  0.00     0.031 C 
ATOM     73  C   UNL     1      -6.881  -9.072  -6.741  1.00  0.00     0.037 A 
BRANCH  60  74
ATOM     74  C   UNL     1      -6.744 -10.654  -0.761  1.00  0.00     0.057 A 
ATOM     75  C   UNL     1      -7.720 -10.505   0.234  1.00  0.00     0.134 A 
ATOM     76  C   UNL     1      -5.993 -11.838  -0.750  1.00  0.00     0.134 A 
ATOM     77  F   UNL     1      -8.476  -9.398   0.284  1.00  0.00    -0.206 F 
ATOM     78  C   UNL     1      -7.904 -11.467   1.230  1.00  0.00     0.040 A 
ATOM     79  C   UNL     1      -6.190 -12.821   0.223  1.00  0.00     0.040 A 
ATOM     80  F   UNL     1      -5.055 -12.059  -1.683  1.00  0.00    -0.206 F 
ATOM     81  C   UNL     1      -7.137 -12.630   1.226  1.00  0.00     0.006 A 
ENDBRANCH  60  74
BRANCH  61  82
ATOM     82  C   UNL     1      -4.521  -3.526  -7.360  1.00  0.00     0.057 A 
ATOM     83  C   UNL     1      -5.483  -2.792  -8.063  1.00  0.00     0.134 A 
ATOM     84  C   UNL     1      -3.175  -3.212  -7.593  1.00  0.00     0.134 A 
ATOM     85  F   UNL     1      -6.787  -3.059  -7.900  1.00  0.00    -0.206 F 
ATOM     86  C   UNL     1      -5.123  -1.785  -8.961  1.00  0.00     0.040 A 
ATOM     87  C   UNL     1      -2.802  -2.192  -8.470  1.00  0.00     0.040 A 
ATOM     88  F   UNL     1      -2.204  -3.876  -6.948  1.00  0.00    -0.206 F 
ATOM     89  C   UNL     1      -3.778  -1.476  -9.159  1.00  0.00     0.006 A 
ENDBRANCH  61  82
BRANCH  73  90
ATOM     90  C   UNL     1      -7.402  -9.871  -7.901  1.00  0.00     0.057 A 
ATOM     91  C   UNL     1      -6.545 -10.502  -8.811  1.00  0.00     0.134 A 
ATOM     92  C   UNL     1      -8.778 -10.083  -8.055  1.00  0.00     0.134 A 
ATOM     93  F   UNL     1      -5.217 -10.330  -8.727  1.00  0.00    -0.206 F 
ATOM     94  C   UNL     1      -7.039 -11.315  -9.833  1.00  0.00     0.040 A 
ATOM     95  C   UNL     1      -9.283 -10.911  -9.058  1.00  0.00     0.040 A 
ATOM     96  F   UNL     1      -9.653  -9.512  -7.213  1.00  0.00    -0.206 F 
ATOM     97  C   UNL     1      -8.412 -11.531  -9.951  1.00  0.00     0.006 A 
ENDBRANCH  73  90
ENDBRANCH  47  48
ENDBRANCH  39  42
ENDBRANCH  37  38
ENDBRANCH  36  37
ENDBRANCH  35  36
ENDBRANCH   1  35
TORSDOF 16
