REMARK SMILES O=C(NCCCCCCNC(=O)[C@H](CO)NC(=O)[C@H](CS)NC(=O)[C@H](Cc1ccccc1)NC(=O)c1ccc(F)cc1)c1ccc(-c2c3nc(c(-c4c(F)cccc4F)c4ccc([nH]4)c(-c4c(F)cccc4F)c4nc(c(-c5c(F)cccc5F)c5ccc2[nH]5)C=C4)C=C3)cc1
REMARK SMILES IDX 8 1 7 2 6 3 5 4 4 5 3 6 1 7 2 8 43 10 44 11 96 12 45 13
REMARK SMILES IDX 95 14 46 15 47 16 48 17 89 18 49 19 94 20 88 21 90 22 50 23
REMARK SMILES IDX 93 24 87 25 86 26 51 28 77 29 60 30 76 31 61 32 64 33 75 34
REMARK SMILES IDX 91 35 62 36 63 37 74 39 92 40 65 41 52 42 53 43 58 44 54 45
REMARK SMILES IDX 55 46 57 47 59 48 56 49 78 50 79 51 84 52 80 53 81 54 83 55
REMARK SMILES IDX 85 56 82 57 66 58 67 59 72 60 68 61 69 62 71 63 73 64 70 65
REMARK SMILES IDX 9 66 10 67 11 68 12 70 13 71 16 72 17 73 18 75 19 76 22 77
REMARK SMILES IDX 23 78 24 80 25 81 33 82 34 83 35 85 36 86 37 87 42 88 38 89
REMARK SMILES IDX 41 90 39 91 40 92 26 93 27 94 28 95 32 96 29 97 31 98 30 99
REMARK SMILES IDX 20 100 21 101 14 103 15 104
REMARK H PARENT 3 9 90 27 64 38 10 69 16 74 22 79 33 84 21 102 15 105
REMARK Flexibility Score: inf
ROOT
ATOM      1  C   UNL     1       9.296 -12.550  -2.373  1.00  0.00     0.021 C 
ENDROOT
BRANCH   1   2
ATOM      2  C   UNL     1       9.262 -13.417  -1.109  1.00  0.00     0.002 C 
BRANCH   2   3
ATOM      3  C   UNL     1       8.335 -12.909  -0.000  1.00  0.00     0.002 C 
BRANCH   3   4
ATOM      4  C   UNL     1       6.900 -12.626  -0.442  1.00  0.00     0.021 C 
BRANCH   4   5
ATOM      5  C   UNL     1       6.218 -13.794  -1.137  1.00  0.00     0.116 C 
BRANCH   5   6
ATOM      6  N   UNL     1       6.075 -14.948  -0.266  1.00  0.00    -0.352 N 
ATOM      7  O   UNL     1       4.940 -16.521   0.891  1.00  0.00    -0.269 OA
ATOM      8  C   UNL     1       4.944 -15.680   0.008  1.00  0.00     0.251 C 
ATOM      9  H   UNL     1       6.896 -15.245   0.189  1.00  0.00     0.163 HD
BRANCH   8  10
ATOM     10  C   UNL     1       3.718 -15.408  -0.773  1.00  0.00     0.039 A 
ATOM     11  C   UNL     1       3.783 -15.283  -2.163  1.00  0.00     0.014 A 
ATOM     12  C   UNL     1       2.504 -15.247  -0.102  1.00  0.00     0.014 A 
ATOM     13  C   UNL     1       2.667 -14.853  -2.865  1.00  0.00     0.010 A 
ATOM     14  C   UNL     1       1.358 -14.909  -0.825  1.00  0.00     0.010 A 
ATOM     15  C   UNL     1       1.437 -14.680  -2.208  1.00  0.00    -0.014 A 
BRANCH  15  16
ATOM     16  C   UNL     1       0.240 -14.321  -3.006  1.00  0.00     0.031 A 
ATOM     17  C   UNL     1      -0.474 -13.016  -2.804  1.00  0.00     0.074 A 
ATOM     18  C   UNL     1      -0.179 -15.186  -3.951  1.00  0.00     0.049 A 
ATOM     19  N   UNL     1      -1.513 -12.539  -3.443  1.00  0.00    -0.248 NA
ATOM     20  C   UNL     1       0.034 -12.133  -1.742  1.00  0.00     0.031 C 
ATOM     21  C   UNL     1       0.432 -16.489  -4.229  1.00  0.00     0.029 A 
ATOM     22  N   UNL     1      -1.192 -15.093  -4.868  1.00  0.00    -0.354 N 
ATOM     23  C   UNL     1      -1.800 -11.317  -2.848  1.00  0.00     0.074 A 
ATOM     24  C   UNL     1      -0.838 -11.134  -1.781  1.00  0.00     0.031 C 
ATOM     25  C   UNL     1      -0.177 -17.044  -5.285  1.00  0.00     0.029 A 
ATOM     26  C   UNL     1      -1.263 -16.172  -5.714  1.00  0.00     0.049 A 
ATOM     27  H   UNL     1      -1.810 -14.328  -4.915  1.00  0.00     0.167 HD
ATOM     28  C   UNL     1      -2.773 -10.430  -3.168  1.00  0.00     0.037 A 
ATOM     29  C   UNL     1      -2.115 -16.437  -6.720  1.00  0.00     0.037 A 
ATOM     30  C   UNL     1      -3.713 -10.613  -4.244  1.00  0.00     0.049 A 
ATOM     31  C   UNL     1      -3.193 -15.445  -7.038  1.00  0.00     0.074 A 
ATOM     32  C   UNL     1      -4.708  -9.752  -4.677  1.00  0.00     0.029 A 
ATOM     33  N   UNL     1      -3.780 -11.737  -5.055  1.00  0.00    -0.354 N 
ATOM     34  N   UNL     1      -3.428 -14.277  -6.491  1.00  0.00    -0.248 NA
ATOM     35  C   UNL     1      -4.128 -15.812  -8.109  1.00  0.00     0.031 C 
ATOM     36  C   UNL     1      -5.405 -10.376  -5.718  1.00  0.00     0.029 A 
ATOM     37  C   UNL     1      -4.814 -11.604  -5.968  1.00  0.00     0.049 A 
ATOM     38  H   UNL     1      -3.180 -12.515  -4.991  1.00  0.00     0.167 HD
ATOM     39  C   UNL     1      -4.525 -13.759  -7.164  1.00  0.00     0.074 A 
ATOM     40  C   UNL     1      -4.896 -14.733  -8.171  1.00  0.00     0.031 C 
ATOM     41  C   UNL     1      -5.169 -12.583  -6.964  1.00  0.00     0.037 A 
BRANCH  28  42
ATOM     42  C   UNL     1      -2.888  -9.190  -2.327  1.00  0.00     0.057 A 
ATOM     43  C   UNL     1      -1.944  -8.156  -2.391  1.00  0.00     0.134 A 
ATOM     44  C   UNL     1      -3.979  -9.013  -1.466  1.00  0.00     0.134 A 
ATOM     45  F   UNL     1      -0.869  -8.265  -3.186  1.00  0.00    -0.206 F 
ATOM     46  C   UNL     1      -2.070  -7.003  -1.612  1.00  0.00     0.040 A 
ATOM     47  C   UNL     1      -4.129  -7.854  -0.702  1.00  0.00     0.040 A 
ATOM     48  F   UNL     1      -4.924  -9.960  -1.361  1.00  0.00    -0.206 F 
ATOM     49  C   UNL     1      -3.168  -6.848  -0.769  1.00  0.00     0.006 A 
ENDBRANCH  28  42
BRANCH  29  50
ATOM     50  C   UNL     1      -1.971 -17.692  -7.497  1.00  0.00     0.057 A 
ATOM     51  C   UNL     1      -1.550 -17.669  -8.831  1.00  0.00     0.134 A 
ATOM     52  C   UNL     1      -2.234 -18.942  -6.923  1.00  0.00     0.134 A 
ATOM     53  F   UNL     1      -1.298 -16.501  -9.440  1.00  0.00    -0.206 F 
ATOM     54  C   UNL     1      -1.408 -18.843  -9.572  1.00  0.00     0.040 A 
ATOM     55  C   UNL     1      -2.069 -20.125  -7.643  1.00  0.00     0.040 A 
ATOM     56  F   UNL     1      -2.631 -19.030  -5.645  1.00  0.00    -0.206 F 
ATOM     57  C   UNL     1      -1.661 -20.077  -8.974  1.00  0.00     0.006 A 
ENDBRANCH  29  50
BRANCH  41  58
ATOM     58  C   UNL     1      -6.318 -12.278  -7.878  1.00  0.00     0.057 A 
ATOM     59  C   UNL     1      -7.542 -12.953  -7.779  1.00  0.00     0.134 A 
ATOM     60  C   UNL     1      -6.200 -11.291  -8.864  1.00  0.00     0.134 A 
ATOM     61  F   UNL     1      -7.712 -13.922  -6.867  1.00  0.00    -0.206 F 
ATOM     62  C   UNL     1      -8.598 -12.676  -8.648  1.00  0.00     0.040 A 
ATOM     63  C   UNL     1      -7.259 -10.986  -9.721  1.00  0.00     0.040 A 
ATOM     64  F   UNL     1      -5.057 -10.604  -9.008  1.00  0.00    -0.206 F 
ATOM     65  C   UNL     1      -8.459 -11.686  -9.619  1.00  0.00     0.006 A 
ENDBRANCH  41  58
ENDBRANCH  15  16
ENDBRANCH   8  10
ENDBRANCH   5   6
ENDBRANCH   4   5
ENDBRANCH   3   4
ENDBRANCH   2   3
ENDBRANCH   1   2
BRANCH   1  66
ATOM     66  C   UNL     1       9.593 -11.080  -2.102  1.00  0.00     0.116 C 
BRANCH  66  67
ATOM     67  N   UNL     1      10.904 -10.926  -1.510  1.00  0.00    -0.354 N 
ATOM     68  C   UNL     1      11.961 -10.159  -1.878  1.00  0.00     0.244 C 
ATOM     69  H   UNL     1      11.055 -11.470  -0.703  1.00  0.00     0.163 HD
ATOM     70  O   UNL     1      12.943 -10.144  -1.131  1.00  0.00    -0.273 OA
BRANCH  68  71
ATOM     71  C   UNL     1      11.908  -9.258  -3.116  1.00  0.00     0.197 C 
BRANCH  71  72
ATOM     72  N   UNL     1      11.699 -10.002  -4.364  1.00  0.00    -0.340 N 
ATOM     73  C   UNL     1      12.433 -10.159  -5.489  1.00  0.00     0.244 C 
ATOM     74  H   UNL     1      10.845 -10.491  -4.387  1.00  0.00     0.164 HD
ATOM     75  O   UNL     1      11.973 -10.962  -6.311  1.00  0.00    -0.273 OA
BRANCH  73  76
ATOM     76  C   UNL     1      13.818  -9.533  -5.732  1.00  0.00     0.181 C 
BRANCH  76  77
ATOM     77  N   UNL     1      14.111  -8.249  -5.084  1.00  0.00    -0.342 N 
ATOM     78  C   UNL     1      14.015  -6.936  -5.420  1.00  0.00     0.243 C 
ATOM     79  H   UNL     1      14.468  -8.370  -4.174  1.00  0.00     0.164 HD
ATOM     80  O   UNL     1      14.334  -6.162  -4.509  1.00  0.00    -0.273 OA
BRANCH  78  81
ATOM     81  C   UNL     1      13.717  -6.392  -6.847  1.00  0.00     0.176 C 
BRANCH  81  82
ATOM     82  N   UNL     1      13.402  -7.394  -7.870  1.00  0.00    -0.340 N 
ATOM     83  C   UNL     1      14.184  -7.966  -8.841  1.00  0.00     0.251 C 
ATOM     84  H   UNL     1      12.470  -7.711  -7.858  1.00  0.00     0.164 HD
ATOM     85  O   UNL     1      13.638  -8.676  -9.682  1.00  0.00    -0.269 OA
BRANCH  83  86
ATOM     86  C   UNL     1      15.657  -7.782  -8.905  1.00  0.00     0.040 A 
ATOM     87  C   UNL     1      16.243  -7.723 -10.178  1.00  0.00     0.017 A 
ATOM     88  C   UNL     1      16.482  -7.779  -7.774  1.00  0.00     0.017 A 
ATOM     89  C   UNL     1      17.630  -7.616 -10.312  1.00  0.00     0.040 A 
ATOM     90  C   UNL     1      17.868  -7.665  -7.908  1.00  0.00     0.040 A 
ATOM     91  C   UNL     1      18.428  -7.580  -9.176  1.00  0.00     0.123 A 
ATOM     92  F   UNL     1      19.757  -7.480  -9.302  1.00  0.00    -0.207 F 
ENDBRANCH  83  86
ENDBRANCH  81  82
BRANCH  81  93
ATOM     93  C   UNL     1      12.680  -5.235  -6.943  1.00  0.00     0.070 C 
BRANCH  93  94
ATOM     94  C   UNL     1      12.148  -4.591  -5.690  1.00  0.00    -0.045 A 
ATOM     95  C   UNL     1      11.114  -5.201  -4.971  1.00  0.00     0.004 A 
ATOM     96  C   UNL     1      12.649  -3.364  -5.234  1.00  0.00     0.004 A 
ATOM     97  C   UNL     1      10.618  -4.622  -3.801  1.00  0.00     0.000 A 
ATOM     98  C   UNL     1      12.145  -2.780  -4.068  1.00  0.00     0.000 A 
ATOM     99  C   UNL     1      11.139  -3.415  -3.344  1.00  0.00     0.000 A 
ENDBRANCH  93  94
ENDBRANCH  81  93
ENDBRANCH  78  81
ENDBRANCH  76  77
BRANCH  76 100
ATOM    100  C   UNL     1      14.905 -10.596  -5.464  1.00  0.00     0.101 C 
BRANCH 100 101
ATOM    101  S   UNL     1      15.492 -10.662  -3.740  1.00  0.00    -0.177 SA
ATOM    102  H   UNL     1      16.076  -9.478  -3.414  1.00  0.00     0.102 HD
ENDBRANCH 100 101
ENDBRANCH  76 100
ENDBRANCH  73  76
ENDBRANCH  71  72
BRANCH  71 103
ATOM    103  C   UNL     1      10.864  -8.149  -2.916  1.00  0.00     0.191 C 
BRANCH 103 104
ATOM    104  O   UNL     1       9.777  -8.242  -3.844  1.00  0.00    -0.394 OA
ATOM    105  H   UNL     1      10.115  -8.146  -4.748  1.00  0.00     0.210 HD
ENDBRANCH 103 104
ENDBRANCH  71 103
ENDBRANCH  68  71
ENDBRANCH  66  67
ENDBRANCH   1  66
TORSDOF 25
