REMARK SMILES O=C(NCCCCCCNC(=O)c1c(-c2ccc(Cl)cc2)noc1CO[C@@H]1CCCCO1)c1ccc(-c2c3nc(c(-c4c(F)cccc4F)c4ccc([nH]4)c(-c4c(F)cccc4F)c4nc(c(-c5c(F)cccc5F)c5ccc2[nH]5)C=C4)C=C3)cc1
REMARK SMILES IDX 7 1 6 2 5 3 4 4 3 5 1 6 2 7 33 9 34 10 86 11 35 12 85 13
REMARK SMILES IDX 36 14 37 15 38 16 79 17 39 18 84 19 78 20 80 21 40 22 83 23
REMARK SMILES IDX 77 24 76 25 41 27 67 28 50 29 66 30 51 31 54 32 65 33 81 34
REMARK SMILES IDX 52 35 53 36 64 38 82 39 55 40 42 41 43 42 48 43 44 44 45 45
REMARK SMILES IDX 47 46 49 47 46 48 68 49 69 50 74 51 70 52 71 53 73 54 75 55
REMARK SMILES IDX 72 56 56 57 57 58 62 59 58 60 59 61 61 62 63 63 60 64 8 65
REMARK SMILES IDX 9 66 10 67 11 68 12 70 13 71 14 72 24 73 22 74 23 75 15 76
REMARK SMILES IDX 16 77 21 78 17 79 20 80 18 81 19 82 25 83 26 84 27 85 28 86
REMARK SMILES IDX 32 87 29 88 31 89 30 90
REMARK H PARENT 3 8 80 26 54 37 10 69
REMARK Flexibility Score: inf
ROOT
ATOM      1  C   UNL     1       4.654   2.250  -3.549  1.00  0.00     0.002 C 
ENDROOT
BRANCH   1   2
ATOM      2  C   UNL     1       4.090   0.854  -3.829  1.00  0.00     0.002 C 
BRANCH   2   3
ATOM      3  C   UNL     1       4.449  -0.234  -2.817  1.00  0.00     0.021 C 
BRANCH   3   4
ATOM      4  C   UNL     1       4.200   0.116  -1.358  1.00  0.00     0.116 C 
BRANCH   4   5
ATOM      5  N   UNL     1       2.802   0.319  -1.029  1.00  0.00    -0.352 N 
ATOM      6  O   UNL     1       0.950   0.165   0.262  1.00  0.00    -0.269 OA
ATOM      7  C   UNL     1       2.159   0.008   0.148  1.00  0.00     0.251 C 
ATOM      8  H   UNL     1       2.246   0.729  -1.732  1.00  0.00     0.163 HD
BRANCH   7   9
ATOM      9  C   UNL     1       2.943  -0.561   1.269  1.00  0.00     0.039 A 
ATOM     10  C   UNL     1       4.147   0.026   1.665  1.00  0.00     0.014 A 
ATOM     11  C   UNL     1       2.480  -1.716   1.907  1.00  0.00     0.014 A 
ATOM     12  C   UNL     1       4.952  -0.616   2.600  1.00  0.00     0.010 A 
ATOM     13  C   UNL     1       3.255  -2.316   2.905  1.00  0.00     0.010 A 
ATOM     14  C   UNL     1       4.511  -1.788   3.238  1.00  0.00    -0.014 A 
BRANCH  14  15
ATOM     15  C   UNL     1       5.361  -2.393   4.294  1.00  0.00     0.031 A 
ATOM     16  C   UNL     1       6.006  -3.737   4.110  1.00  0.00     0.074 A 
ATOM     17  C   UNL     1       5.591  -1.680   5.413  1.00  0.00     0.049 A 
ATOM     18  N   UNL     1       6.823  -4.373   4.912  1.00  0.00    -0.248 NA
ATOM     19  C   UNL     1       5.693  -4.468   2.872  1.00  0.00     0.031 C 
ATOM     20  C   UNL     1       5.000  -0.373   5.713  1.00  0.00     0.029 A 
ATOM     21  N   UNL     1       6.400  -1.934   6.490  1.00  0.00    -0.354 N 
ATOM     22  C   UNL     1       7.112  -5.579   4.288  1.00  0.00     0.074 A 
ATOM     23  C   UNL     1       6.365  -5.599   3.047  1.00  0.00     0.031 C 
ATOM     24  C   UNL     1       5.507   0.085   6.866  1.00  0.00     0.029 A 
ATOM     25  C   UNL     1       6.419  -0.914   7.410  1.00  0.00     0.049 A 
ATOM     26  H   UNL     1       6.916  -2.765   6.593  1.00  0.00     0.167 HD
ATOM     27  C   UNL     1       7.929  -6.574   4.709  1.00  0.00     0.037 A 
ATOM     28  C   UNL     1       7.095  -0.796   8.567  1.00  0.00     0.037 A 
ATOM     29  C   UNL     1       8.678  -6.548   5.940  1.00  0.00     0.049 A 
ATOM     30  C   UNL     1       8.009  -1.903   8.996  1.00  0.00     0.074 A 
ATOM     31  C   UNL     1       9.535  -7.509   6.452  1.00  0.00     0.029 A 
ATOM     32  N   UNL     1       8.665  -5.502   6.851  1.00  0.00    -0.354 N 
ATOM     33  N   UNL     1       8.276  -3.032   8.388  1.00  0.00    -0.248 NA
ATOM     34  C   UNL     1       8.713  -1.721  10.272  1.00  0.00     0.031 C 
ATOM     35  C   UNL     1      10.020  -7.054   7.683  1.00  0.00     0.029 A 
ATOM     36  C   UNL     1       9.492  -5.796   7.922  1.00  0.00     0.049 A 
ATOM     37  H   UNL     1       8.144  -4.673   6.750  1.00  0.00     0.167 HD
ATOM     38  C   UNL     1       9.176  -3.699   9.207  1.00  0.00     0.074 A 
ATOM     39  C   UNL     1       9.435  -2.831  10.338  1.00  0.00     0.031 C 
ATOM     40  C   UNL     1       9.728  -4.925   9.043  1.00  0.00     0.037 A 
BRANCH  27  41
ATOM     41  C   UNL     1       8.057  -7.786   3.833  1.00  0.00     0.057 A 
ATOM     42  C   UNL     1       8.809  -7.762   2.652  1.00  0.00     0.134 A 
ATOM     43  C   UNL     1       7.470  -9.003   4.202  1.00  0.00     0.134 A 
ATOM     44  F   UNL     1       9.387  -6.625   2.237  1.00  0.00    -0.206 F 
ATOM     45  C   UNL     1       8.964  -8.904   1.863  1.00  0.00     0.040 A 
ATOM     46  C   UNL     1       7.633 -10.155   3.432  1.00  0.00     0.040 A 
ATOM     47  F   UNL     1       6.742  -9.094   5.325  1.00  0.00    -0.206 F 
ATOM     48  C   UNL     1       8.381 -10.107   2.256  1.00  0.00     0.006 A 
ENDBRANCH  27  41
BRANCH  28  49
ATOM     49  C   UNL     1       6.926   0.424   9.392  1.00  0.00     0.057 A 
ATOM     50  C   UNL     1       7.949   1.373   9.500  1.00  0.00     0.134 A 
ATOM     51  C   UNL     1       5.728   0.681  10.070  1.00  0.00     0.134 A 
ATOM     52  F   UNL     1       9.123   1.173   8.884  1.00  0.00    -0.206 F 
ATOM     53  C   UNL     1       7.790   2.530  10.263  1.00  0.00     0.040 A 
ATOM     54  C   UNL     1       5.548   1.846  10.816  1.00  0.00     0.040 A 
ATOM     55  F   UNL     1       4.709  -0.186   9.994  1.00  0.00    -0.206 F 
ATOM     56  C   UNL     1       6.583   2.772  10.918  1.00  0.00     0.006 A 
ENDBRANCH  28  49
BRANCH  40  57
ATOM     57  C   UNL     1      10.663  -5.388  10.118  1.00  0.00     0.057 A 
ATOM     58  C   UNL     1      10.189  -5.819  11.363  1.00  0.00     0.134 A 
ATOM     59  C   UNL     1      12.046  -5.406   9.906  1.00  0.00     0.134 A 
ATOM     60  F   UNL     1       8.874  -5.809  11.630  1.00  0.00    -0.206 F 
ATOM     61  C   UNL     1      11.061  -6.229  12.371  1.00  0.00     0.040 A 
ATOM     62  C   UNL     1      12.928  -5.832  10.900  1.00  0.00     0.040 A 
ATOM     63  F   UNL     1      12.562  -5.008   8.733  1.00  0.00    -0.206 F 
ATOM     64  C   UNL     1      12.435  -6.239  12.140  1.00  0.00     0.006 A 
ENDBRANCH  40  57
ENDBRANCH  14  15
ENDBRANCH   7   9
ENDBRANCH   4   5
ENDBRANCH   3   4
ENDBRANCH   2   3
ENDBRANCH   1   2
BRANCH   1  65
ATOM     65  C   UNL     1       6.169   2.345  -3.314  1.00  0.00     0.021 C 
BRANCH  65  66
ATOM     66  C   UNL     1       7.047   1.723  -4.397  1.00  0.00     0.116 C 
BRANCH  66  67
ATOM     67  N   UNL     1       6.785   2.315  -5.694  1.00  0.00    -0.352 N 
ATOM     68  C   UNL     1       7.636   2.906  -6.582  1.00  0.00     0.257 C 
ATOM     69  H   UNL     1       5.843   2.287  -5.979  1.00  0.00     0.163 HD
ATOM     70  O   UNL     1       7.134   3.584  -7.485  1.00  0.00    -0.269 OA
BRANCH  68  71
ATOM     71  C   UNL     1       9.059   2.705  -6.484  1.00  0.00     0.113 A 
ATOM     72  C   UNL     1      10.089   3.654  -6.755  1.00  0.00     0.127 A 
ATOM     73  C   UNL     1       9.745   1.514  -6.325  1.00  0.00     0.175 A 
ATOM     74  N   UNL     1      11.301   3.098  -6.625  1.00  0.00    -0.079 NA
ATOM     75  O   UNL     1      11.081   1.764  -6.348  1.00  0.00    -0.357 OA
BRANCH  72  76
ATOM     76  C   UNL     1       9.926   5.034  -7.196  1.00  0.00     0.005 A 
ATOM     77  C   UNL     1       9.111   5.925  -6.486  1.00  0.00     0.012 A 
ATOM     78  C   UNL     1      10.511   5.445  -8.402  1.00  0.00     0.012 A 
ATOM     79  C   UNL     1       8.853   7.200  -6.997  1.00  0.00     0.021 A 
ATOM     80  C   UNL     1      10.251   6.718  -8.914  1.00  0.00     0.021 A 
ATOM     81  C   UNL     1       9.415   7.586  -8.213  1.00  0.00     0.041 A 
ATOM     82  Cl  UNL     1       9.059   9.139  -8.863  1.00  0.00    -0.084 Cl
ENDBRANCH  72  76
BRANCH  73  83
ATOM     83  C   UNL     1       9.347   0.093  -6.191  1.00  0.00     0.242 C 
BRANCH  83  84
ATOM     84  O   UNL     1      10.028  -0.683  -7.159  1.00  0.00    -0.345 OA
BRANCH  84  85
ATOM     85  C   UNL     1       9.336  -1.071  -8.344  1.00  0.00     0.250 C 
ATOM     86  C   UNL     1       9.012   0.068  -9.317  1.00  0.00     0.062 C 
ATOM     87  O   UNL     1       8.297  -2.027  -8.138  1.00  0.00    -0.353 OA
ATOM     88  C   UNL     1       7.578   0.557  -9.228  1.00  0.00     0.008 C 
ATOM     89  C   UNL     1       6.960  -1.553  -8.077  1.00  0.00     0.163 C 
ATOM     90  C   UNL     1       6.610  -0.608  -9.212  1.00  0.00     0.029 C 
ENDBRANCH  84  85
ENDBRANCH  83  84
ENDBRANCH  73  83
ENDBRANCH  68  71
ENDBRANCH  66  67
ENDBRANCH  65  66
ENDBRANCH   1  65
TORSDOF 17
