REMARK SMILES COc1ccc(C(=O)N[C@H](C(=O)NCCCCCCNC(=O)c2ccc(-c3c4nc(c(-c5c(F)cccc5F)c5ccc([nH]5)c(-c5c(F)cccc5F)c5nc(c(-c6c(F)cccc6F)c6ccc3[nH]6)C=C5)C=C4)cc2)C2=C(C)N=N[C@H]2C)c(F)c1F
REMARK SMILES IDX 16 1 15 2 14 3 13 4 11 5 12 6 10 8 9 9 7 10 8 11 6 13 3 14
REMARK SMILES IDX 4 15 86 16 5 17 84 18 87 19 85 20 2 21 1 22 77 23 78 24
REMARK SMILES IDX 82 25 79 26 80 27 81 28 83 29 17 30 18 31 19 32 20 33 21 34
REMARK SMILES IDX 22 36 23 37 24 38 76 39 25 40 75 41 26 42 27 43 28 44 69 45
REMARK SMILES IDX 29 46 74 47 68 48 70 49 30 50 73 51 67 52 66 53 31 55 57 56
REMARK SMILES IDX 40 57 56 58 41 59 44 60 55 61 71 62 42 63 43 64 54 66 72 67
REMARK SMILES IDX 45 68 32 69 33 70 38 71 34 72 35 73 37 74 39 75 36 76 58 77
REMARK SMILES IDX 59 78 64 79 60 80 61 81 63 82 65 83 62 84 46 85 47 86 52 87
REMARK SMILES IDX 48 88 49 89 51 90 53 91 50 92
REMARK H PARENT 13 7 9 12 20 35 70 54 44 65
REMARK Flexibility Score: inf
ROOT
ATOM      1  C   UNL     1       3.401  -4.402   0.859  1.00  0.00     0.002 C 
ENDROOT
BRANCH   1   2
ATOM      2  C   UNL     1       1.936  -4.045   1.163  1.00  0.00     0.021 C 
BRANCH   2   3
ATOM      3  C   UNL     1       1.103  -5.227   1.671  1.00  0.00     0.116 C 
BRANCH   3   4
ATOM      4  N   UNL     1       1.673  -5.687   2.919  1.00  0.00    -0.354 N 
ATOM      5  C   UNL     1       1.113  -5.558   4.158  1.00  0.00     0.247 C 
ATOM      6  O   UNL     1       1.854  -5.155   5.053  1.00  0.00    -0.272 OA
ATOM      7  H   UNL     1       2.547  -6.137   2.870  1.00  0.00     0.163 HD
BRANCH   5   8
ATOM      8  C   UNL     1      -0.402  -5.864   4.335  1.00  0.00     0.202 C 
BRANCH   8   9
ATOM      9  N   UNL     1      -0.862  -7.020   3.555  1.00  0.00    -0.336 N 
ATOM     10  C   UNL     1      -0.356  -8.271   3.296  1.00  0.00     0.255 C 
ATOM     11  O   UNL     1      -1.084  -9.044   2.667  1.00  0.00    -0.269 OA
ATOM     12  H   UNL     1      -1.730  -6.863   3.118  1.00  0.00     0.165 HD
BRANCH  10  13
ATOM     13  C   UNL     1       1.025  -8.725   3.602  1.00  0.00     0.078 A 
ATOM     14  C   UNL     1       3.716  -9.519   3.883  1.00  0.00     0.157 A 
ATOM     15  C   UNL     1       2.972  -9.960   2.791  1.00  0.00     0.050 A 
ATOM     16  C   UNL     1       3.082  -8.776   4.875  1.00  0.00     0.201 A 
ATOM     17  C   UNL     1       1.639  -9.556   2.647  1.00  0.00     0.021 A 
ATOM     18  C   UNL     1       1.744  -8.413   4.750  1.00  0.00     0.175 A 
ATOM     19  F   UNL     1       3.771  -8.373   5.954  1.00  0.00    -0.200 F 
ATOM     20  F   UNL     1       1.182  -7.752   5.765  1.00  0.00    -0.203 F 
BRANCH  14  21
ATOM     21  O   UNL     1       5.036  -9.818   4.076  1.00  0.00    -0.494 OA
ATOM     22  C   UNL     1       5.827  -9.766   2.892  1.00  0.00     0.278 C 
ENDBRANCH  14  21
ENDBRANCH  10  13
ENDBRANCH   8   9
BRANCH   8  23
ATOM     23  C   UNL     1      -0.941  -5.862   5.736  1.00  0.00     0.011 C 
ATOM     24  C   UNL     1      -1.393  -6.790   6.595  1.00  0.00     0.064 C 
ATOM     25  C   UNL     1      -1.185  -4.556   6.444  1.00  0.00     0.156 C 
ATOM     26  C   UNL     1      -1.512  -8.273   6.491  1.00  0.00     0.069 C 
ATOM     27  N   UNL     1      -1.858  -6.239   7.767  1.00  0.00    -0.160 NA
ATOM     28  N   UNL     1      -1.778  -4.986   7.734  1.00  0.00    -0.181 NA
ATOM     29  C   UNL     1       0.023  -3.686   6.754  1.00  0.00     0.040 C 
ENDBRANCH   8  23
ENDBRANCH   5   8
ENDBRANCH   3   4
ENDBRANCH   2   3
ENDBRANCH   1   2
BRANCH   1  30
ATOM     30  C   UNL     1       3.584  -5.501  -0.191  1.00  0.00     0.002 C 
BRANCH  30  31
ATOM     31  C   UNL     1       2.930  -5.193  -1.537  1.00  0.00     0.021 C 
BRANCH  31  32
ATOM     32  C   UNL     1       3.357  -3.865  -2.147  1.00  0.00     0.116 C 
BRANCH  32  33
ATOM     33  N   UNL     1       4.779  -3.830  -2.450  1.00  0.00    -0.352 N 
ATOM     34  C   UNL     1       5.392  -3.385  -3.593  1.00  0.00     0.251 C 
ATOM     35  H   UNL     1       5.377  -4.169  -1.745  1.00  0.00     0.163 HD
ATOM     36  O   UNL     1       6.589  -3.580  -3.781  1.00  0.00    -0.269 OA
BRANCH  34  37
ATOM     37  C   UNL     1       4.581  -2.690  -4.611  1.00  0.00     0.039 A 
ATOM     38  C   UNL     1       4.670  -3.096  -5.943  1.00  0.00     0.014 A 
ATOM     39  C   UNL     1       3.706  -1.666  -4.236  1.00  0.00     0.014 A 
ATOM     40  C   UNL     1       3.838  -2.508  -6.896  1.00  0.00     0.010 A 
ATOM     41  C   UNL     1       2.825  -1.137  -5.171  1.00  0.00     0.010 A 
ATOM     42  C   UNL     1       2.888  -1.547  -6.512  1.00  0.00    -0.014 A 
BRANCH  42  43
ATOM     43  C   UNL     1       1.959  -0.944  -7.500  1.00  0.00     0.031 A 
ATOM     44  C   UNL     1       2.024   0.530  -7.786  1.00  0.00     0.074 A 
ATOM     45  C   UNL     1       1.018  -1.709  -8.086  1.00  0.00     0.049 A 
ATOM     46  N   UNL     1       1.252   1.258  -8.551  1.00  0.00    -0.248 NA
ATOM     47  C   UNL     1       3.078   1.292  -7.097  1.00  0.00     0.031 C 
ATOM     48  C   UNL     1       0.825  -3.142  -7.857  1.00  0.00     0.029 A 
ATOM     49  N   UNL     1       0.038  -1.382  -8.989  1.00  0.00    -0.354 N 
ATOM     50  C   UNL     1       1.717   2.561  -8.424  1.00  0.00     0.074 A 
ATOM     51  C   UNL     1       2.799   2.533  -7.464  1.00  0.00     0.031 C 
ATOM     52  C   UNL     1      -0.195  -3.575  -8.615  1.00  0.00     0.029 A 
ATOM     53  C   UNL     1      -0.754  -2.446  -9.352  1.00  0.00     0.049 A 
ATOM     54  H   UNL     1      -0.087  -0.472  -9.344  1.00  0.00     0.167 HD
ATOM     55  C   UNL     1       1.296   3.676  -9.066  1.00  0.00     0.037 A 
ATOM     56  C   UNL     1      -1.816  -2.500 -10.178  1.00  0.00     0.037 A 
ATOM     57  C   UNL     1       0.235   3.695 -10.038  1.00  0.00     0.049 A 
ATOM     58  C   UNL     1      -2.270  -1.246 -10.872  1.00  0.00     0.074 A 
ATOM     59  C   UNL     1      -0.227   4.761 -10.789  1.00  0.00     0.029 A 
ATOM     60  N   UNL     1      -0.530   2.594 -10.393  1.00  0.00    -0.354 N 
ATOM     61  N   UNL     1      -1.779  -0.033 -10.793  1.00  0.00    -0.248 NA
ATOM     62  C   UNL     1      -3.423  -1.369 -11.775  1.00  0.00     0.031 C 
ATOM     63  C   UNL     1      -1.305   4.317 -11.561  1.00  0.00     0.029 A 
ATOM     64  C   UNL     1      -1.477   2.961 -11.334  1.00  0.00     0.049 A 
ATOM     65  H   UNL     1      -0.416   1.686 -10.029  1.00  0.00     0.167 HD
ATOM     66  C   UNL     1      -2.540   0.744 -11.659  1.00  0.00     0.074 A 
ATOM     67  C   UNL     1      -3.518  -0.139 -12.260  1.00  0.00     0.031 C 
ATOM     68  C   UNL     1      -2.436   2.067 -11.932  1.00  0.00     0.037 A 
BRANCH  55  69
ATOM     69  C   UNL     1       1.986   4.968  -8.736  1.00  0.00     0.057 A 
ATOM     70  C   UNL     1       3.313   5.216  -9.114  1.00  0.00     0.134 A 
ATOM     71  C   UNL     1       1.307   5.990  -8.061  1.00  0.00     0.134 A 
ATOM     72  F   UNL     1       4.026   4.275  -9.752  1.00  0.00    -0.206 F 
ATOM     73  C   UNL     1       3.948   6.421  -8.806  1.00  0.00     0.040 A 
ATOM     74  C   UNL     1       1.921   7.210  -7.775  1.00  0.00     0.040 A 
ATOM     75  F   UNL     1       0.033   5.822  -7.675  1.00  0.00    -0.206 F 
ATOM     76  C   UNL     1       3.248   7.425  -8.141  1.00  0.00     0.006 A 
ENDBRANCH  55  69
BRANCH  56  77
ATOM     77  C   UNL     1      -2.512  -3.791 -10.410  1.00  0.00     0.057 A 
ATOM     78  C   UNL     1      -2.440  -4.438 -11.649  1.00  0.00     0.134 A 
ATOM     79  C   UNL     1      -3.274  -4.403  -9.407  1.00  0.00     0.134 A 
ATOM     80  F   UNL     1      -1.740  -3.893 -12.655  1.00  0.00    -0.206 F 
ATOM     81  C   UNL     1      -3.116  -5.635 -11.891  1.00  0.00     0.040 A 
ATOM     82  C   UNL     1      -3.934  -5.614  -9.627  1.00  0.00     0.040 A 
ATOM     83  F   UNL     1      -3.376  -3.840  -8.195  1.00  0.00    -0.206 F 
ATOM     84  C   UNL     1      -3.863  -6.228 -10.875  1.00  0.00     0.006 A 
ENDBRANCH  56  77
BRANCH  68  85
ATOM     85  C   UNL     1      -3.374   2.635 -12.957  1.00  0.00     0.057 A 
ATOM     86  C   UNL     1      -4.738   2.814 -12.697  1.00  0.00     0.134 A 
ATOM     87  C   UNL     1      -2.893   3.051 -14.206  1.00  0.00     0.134 A 
ATOM     88  F   UNL     1      -5.264   2.426 -11.526  1.00  0.00    -0.206 F 
ATOM     89  C   UNL     1      -5.595   3.367 -13.651  1.00  0.00     0.040 A 
ATOM     90  C   UNL     1      -3.734   3.631 -15.156  1.00  0.00     0.040 A 
ATOM     91  F   UNL     1      -1.595   2.916 -14.515  1.00  0.00    -0.206 F 
ATOM     92  C   UNL     1      -5.091   3.785 -14.881  1.00  0.00     0.006 A 
ENDBRANCH  68  85
ENDBRANCH  42  43
ENDBRANCH  34  37
ENDBRANCH  32  33
ENDBRANCH  31  32
ENDBRANCH  30  31
ENDBRANCH   1  30
TORSDOF 17
