REMARK SMILES Cc1ccc(Cn2c(C)c(C[NH2+]C[C@@H]3CCCO3)c(C(=O)NCCCCCCNC(=O)c3ccc(-c4c5nc(c(-c6c(F)cccc6F)c6ccc([nH]6)c(-c6c(F)cccc6F)c6nc(c(-c7c(F)cccc7F)c7ccc4[nH]7)C=C6)C=C5)cc3)c2C)cc1
REMARK SMILES IDX 24 1 23 2 22 3 20 4 21 5 19 7 7 8 8 9 86 10 9 11 10 12 87 13
REMARK SMILES IDX 6 14 5 15 1 16 2 17 3 18 89 19 4 20 88 21 11 22 12 23 13 26
REMARK SMILES IDX 14 27 15 28 18 29 16 30 17 31 25 32 26 33 27 34 28 35 29 36
REMARK SMILES IDX 30 37 31 39 32 40 33 41 85 42 34 43 84 44 35 45 36 46 37 47
REMARK SMILES IDX 78 48 38 49 83 50 77 51 79 52 39 53 82 54 76 55 75 56 40 58
REMARK SMILES IDX 66 59 49 60 65 61 50 62 53 63 64 64 80 65 51 66 52 67 63 69
REMARK SMILES IDX 81 70 54 71 41 72 42 73 47 74 43 75 44 76 46 77 48 78 45 79
REMARK SMILES IDX 67 80 68 81 73 82 69 83 70 84 72 85 74 86 71 87 55 88 56 89
REMARK SMILES IDX 61 90 57 91 58 92 60 93 62 94 59 95
REMARK H PARENT 22 6 12 24 12 25 29 38 79 57 53 68
REMARK Flexibility Score: inf
ROOT
ATOM      1  C   UNL     1      -2.544  -5.676  -0.929  1.00  0.00     0.021 C 
ENDROOT
BRANCH   1   2
ATOM      2  C   UNL     1      -2.333  -4.724  -2.112  1.00  0.00     0.116 C 
BRANCH   2   3
ATOM      3  N   UNL     1      -3.488  -4.700  -2.979  1.00  0.00    -0.352 N 
ATOM      4  C   UNL     1      -4.301  -3.676  -3.394  1.00  0.00     0.253 C 
ATOM      5  O   UNL     1      -4.955  -3.928  -4.408  1.00  0.00    -0.269 OA
ATOM      6  H   UNL     1      -3.738  -5.582  -3.338  1.00  0.00     0.163 HD
BRANCH   4   7
ATOM      7  C   UNL     1      -4.328  -2.349  -2.749  1.00  0.00     0.069 A 
ATOM      8  N   UNL     1      -3.955  -0.595  -1.391  1.00  0.00    -0.343 N 
ATOM      9  C   UNL     1      -4.705  -0.100  -2.442  1.00  0.00     0.025 A 
ATOM     10  C   UNL     1      -4.074  -1.982  -1.424  1.00  0.00     0.028 A 
ATOM     11  C   UNL     1      -5.251   1.286  -2.549  1.00  0.00     0.065 C 
ATOM     12  C   UNL     1      -4.942  -1.162  -3.315  1.00  0.00     0.040 A 
ATOM     13  C   UNL     1      -4.070  -2.810  -0.186  1.00  0.00     0.065 C 
BRANCH   8  14
ATOM     14  C   UNL     1      -3.382   0.184  -0.286  1.00  0.00     0.157 C 
BRANCH  14  15
ATOM     15  C   UNL     1      -1.865   0.227  -0.275  1.00  0.00    -0.028 A 
ATOM     16  C   UNL     1       2.463   0.406  -0.038  1.00  0.00     0.044 C 
ATOM     17  C   UNL     1       0.965   0.361  -0.107  1.00  0.00    -0.051 A 
ATOM     18  C   UNL     1       0.287  -0.809   0.236  1.00  0.00     0.004 A 
ATOM     19  C   UNL     1       0.224   1.460  -0.552  1.00  0.00     0.004 A 
ATOM     20  C   UNL     1      -1.108  -0.866   0.169  1.00  0.00     0.006 A 
ATOM     21  C   UNL     1      -1.175   1.393  -0.638  1.00  0.00     0.006 A 
ENDBRANCH  14  15
ENDBRANCH   8  14
BRANCH  12  22
ATOM     22  C   UNL     1      -5.836  -1.115  -4.536  1.00  0.00     0.300 C 
BRANCH  22  23
ATOM     23  N   UNL     1      -7.202  -1.328  -4.046  1.00  0.00    -0.340 N 
ATOM     24  H   UNL     1      -7.537  -0.455  -3.638  1.00  0.00     0.346 HD
ATOM     25  H   UNL     1      -7.156  -2.087  -3.365  1.00  0.00     0.346 HD
BRANCH  23  26
ATOM     26  C   UNL     1      -8.152  -1.747  -5.085  1.00  0.00     0.293 C 
BRANCH  26  27
ATOM     27  C   UNL     1      -8.057  -3.248  -5.405  1.00  0.00     0.173 C 
ATOM     28  C   UNL     1      -9.332  -3.863  -5.952  1.00  0.00     0.040 C 
ATOM     29  O   UNL     1      -7.838  -4.018  -4.204  1.00  0.00    -0.372 OA
ATOM     30  C   UNL     1      -9.061  -5.340  -5.750  1.00  0.00     0.031 C 
ATOM     31  C   UNL     1      -8.170  -5.376  -4.518  1.00  0.00     0.161 C 
ENDBRANCH  26  27
ENDBRANCH  23  26
ENDBRANCH  22  23
ENDBRANCH  12  22
ENDBRANCH   4   7
ENDBRANCH   2   3
ENDBRANCH   1   2
BRANCH   1  32
ATOM     32  C   UNL     1      -2.173  -7.142  -1.188  1.00  0.00     0.002 C 
BRANCH  32  33
ATOM     33  C   UNL     1      -0.729  -7.414  -1.642  1.00  0.00     0.002 C 
BRANCH  33  34
ATOM     34  C   UNL     1       0.367  -6.686  -0.862  1.00  0.00     0.021 C 
BRANCH  34  35
ATOM     35  C   UNL     1       0.557  -7.193   0.561  1.00  0.00     0.116 C 
BRANCH  35  36
ATOM     36  N   UNL     1       1.482  -8.314   0.669  1.00  0.00    -0.352 N 
ATOM     37  C   UNL     1       1.817  -9.103   1.756  1.00  0.00     0.251 C 
ATOM     38  H   UNL     1       1.944  -8.548  -0.168  1.00  0.00     0.163 HD
ATOM     39  O   UNL     1       2.675  -9.962   1.638  1.00  0.00    -0.269 OA
BRANCH  37  40
ATOM     40  C   UNL     1       1.029  -9.012   3.014  1.00  0.00     0.039 A 
ATOM     41  C   UNL     1       0.696 -10.214   3.656  1.00  0.00     0.014 A 
ATOM     42  C   UNL     1       0.445  -7.821   3.427  1.00  0.00     0.014 A 
ATOM     43  C   UNL     1      -0.410 -10.256   4.500  1.00  0.00     0.010 A 
ATOM     44  C   UNL     1      -0.714  -7.875   4.172  1.00  0.00     0.010 A 
ATOM     45  C   UNL     1      -1.179  -9.105   4.646  1.00  0.00    -0.014 A 
BRANCH  45  46
ATOM     46  C   UNL     1      -2.542  -9.112   5.157  1.00  0.00     0.031 A 
ATOM     47  C   UNL     1      -2.849  -8.558   6.488  1.00  0.00     0.074 A 
ATOM     48  C   UNL     1      -3.542  -9.523   4.346  1.00  0.00     0.049 A 
ATOM     49  N   UNL     1      -3.883  -8.885   7.187  1.00  0.00    -0.248 NA
ATOM     50  C   UNL     1      -1.979  -7.604   7.162  1.00  0.00     0.031 C 
ATOM     51  C   UNL     1      -4.973  -9.308   4.530  1.00  0.00     0.029 A 
ATOM     52  N   UNL     1      -3.457 -10.397   3.255  1.00  0.00    -0.354 N 
ATOM     53  C   UNL     1      -3.975  -8.002   8.239  1.00  0.00     0.074 A 
ATOM     54  C   UNL     1      -2.724  -7.278   8.222  1.00  0.00     0.031 C 
ATOM     55  C   UNL     1      -5.646 -10.203   3.790  1.00  0.00     0.029 A 
ATOM     56  C   UNL     1      -4.668 -11.118   3.227  1.00  0.00     0.049 A 
ATOM     57  H   UNL     1      -2.701 -10.490   2.632  1.00  0.00     0.167 HD
ATOM     58  C   UNL     1      -5.160  -7.884   8.908  1.00  0.00     0.037 A 
ATOM     59  C   UNL     1      -4.695 -12.474   3.385  1.00  0.00     0.037 A 
ATOM     60  C   UNL     1      -6.155  -8.814   8.374  1.00  0.00     0.049 A 
ATOM     61  C   UNL     1      -5.501 -12.933   4.576  1.00  0.00     0.074 A 
ATOM     62  C   UNL     1      -7.185  -8.644   7.462  1.00  0.00     0.029 A 
ATOM     63  N   UNL     1      -5.990 -10.185   8.533  1.00  0.00    -0.354 N 
ATOM     64  N   UNL     1      -5.795 -12.168   5.589  1.00  0.00    -0.248 NA
ATOM     65  C   UNL     1      -6.020 -14.289   4.732  1.00  0.00     0.031 C 
ATOM     66  C   UNL     1      -7.619  -9.924   7.044  1.00  0.00     0.029 A 
ATOM     67  C   UNL     1      -6.865 -10.872   7.713  1.00  0.00     0.049 A 
ATOM     68  H   UNL     1      -5.342 -10.606   9.142  1.00  0.00     0.167 HD
ATOM     69  C   UNL     1      -6.498 -12.888   6.520  1.00  0.00     0.074 A 
ATOM     70  C   UNL     1      -6.628 -14.206   5.930  1.00  0.00     0.031 C 
ATOM     71  C   UNL     1      -6.902 -12.327   7.698  1.00  0.00     0.037 A 
BRANCH  58  72
ATOM     72  C   UNL     1      -5.523  -6.718   9.807  1.00  0.00     0.057 A 
ATOM     73  C   UNL     1      -6.868  -6.325   9.972  1.00  0.00     0.134 A 
ATOM     74  C   UNL     1      -4.606  -5.904  10.492  1.00  0.00     0.134 A 
ATOM     75  F   UNL     1      -7.884  -7.066   9.510  1.00  0.00    -0.206 F 
ATOM     76  C   UNL     1      -7.250  -5.148  10.630  1.00  0.00     0.040 A 
ATOM     77  C   UNL     1      -4.965  -4.697  11.112  1.00  0.00     0.040 A 
ATOM     78  F   UNL     1      -3.328  -6.267  10.655  1.00  0.00    -0.206 F 
ATOM     79  C   UNL     1      -6.293  -4.303  11.165  1.00  0.00     0.006 A 
ENDBRANCH  58  72
BRANCH  59  80
ATOM     80  C   UNL     1      -3.476 -13.148   2.872  1.00  0.00     0.057 A 
ATOM     81  C   UNL     1      -3.242 -13.146   1.486  1.00  0.00     0.134 A 
ATOM     82  C   UNL     1      -2.386 -13.420   3.703  1.00  0.00     0.134 A 
ATOM     83  F   UNL     1      -4.248 -12.890   0.634  1.00  0.00    -0.206 F 
ATOM     84  C   UNL     1      -1.959 -13.291   0.954  1.00  0.00     0.040 A 
ATOM     85  C   UNL     1      -1.096 -13.574   3.181  1.00  0.00     0.040 A 
ATOM     86  F   UNL     1      -2.527 -13.418   5.036  1.00  0.00    -0.206 F 
ATOM     87  C   UNL     1      -0.875 -13.470   1.808  1.00  0.00     0.006 A 
ENDBRANCH  59  80
BRANCH  71  88
ATOM     88  C   UNL     1      -7.462 -13.051   8.901  1.00  0.00     0.057 A 
ATOM     89  C   UNL     1      -7.202 -14.393   9.212  1.00  0.00     0.134 A 
ATOM     90  C   UNL     1      -8.183 -12.341   9.892  1.00  0.00     0.134 A 
ATOM     91  F   UNL     1      -6.440 -15.163   8.426  1.00  0.00    -0.206 F 
ATOM     92  C   UNL     1      -7.668 -14.998  10.389  1.00  0.00     0.040 A 
ATOM     93  C   UNL     1      -8.604 -12.919  11.093  1.00  0.00     0.040 A 
ATOM     94  F   UNL     1      -8.490 -11.043   9.751  1.00  0.00    -0.206 F 
ATOM     95  C   UNL     1      -8.359 -14.259  11.341  1.00  0.00     0.006 A 
ENDBRANCH  71  88
ENDBRANCH  45  46
ENDBRANCH  37  40
ENDBRANCH  35  36
ENDBRANCH  34  35
ENDBRANCH  33  34
ENDBRANCH  32  33
ENDBRANCH   1  32
TORSDOF 19
