REMARK SMILES N#Cc1cccc(NCCCC(=O)NCCCCCCNC(=O)c2ccc(-c3c4nc(c(-c5c(F)cccc5F)c5ccc([nH]5)c(-c5c(F)cccc5F)c5nc(c(-c6c(F)cccc6F)c6ccc3[nH]6)C=C5)C=C4)cc2)c1
REMARK SMILES IDX 16 1 15 2 14 3 12 4 13 5 11 7 10 8 9 9 8 10 7 12 3 13 4 14
REMARK SMILES IDX 78 15 5 16 6 17 2 18 1 19 17 20 18 21 19 22 20 23 21 24
REMARK SMILES IDX 22 25 23 27 24 28 25 29 77 30 26 31 76 32 27 33 28 34 29 35
REMARK SMILES IDX 70 36 30 37 75 38 69 39 71 40 31 41 74 42 68 43 67 44 32 46
REMARK SMILES IDX 58 47 41 48 57 49 42 50 45 51 56 52 72 53 43 54 44 55 55 57
REMARK SMILES IDX 73 58 46 59 33 60 34 61 39 62 35 63 36 64 38 65 40 66 37 67
REMARK SMILES IDX 59 68 60 69 65 70 61 71 62 72 64 73 66 74 63 75 47 76 48 77
REMARK SMILES IDX 53 78 49 79 50 80 52 81 54 82 51 83
REMARK H PARENT 14 6 8 11 21 26 71 45 45 56
REMARK Flexibility Score: inf
ROOT
ATOM      1  C   UNL     1       4.000  -3.166  -2.362  1.00  0.00     0.021 C 
ENDROOT
BRANCH   1   2
ATOM      2  C   UNL     1       3.195  -4.241  -1.634  1.00  0.00     0.116 C 
BRANCH   2   3
ATOM      3  N   UNL     1       4.088  -5.222  -1.058  1.00  0.00    -0.356 N 
ATOM      4  C   UNL     1       4.391  -5.449   0.247  1.00  0.00     0.220 C 
ATOM      5  O   UNL     1       5.294  -6.244   0.511  1.00  0.00    -0.275 OA
ATOM      6  H   UNL     1       4.541  -5.810  -1.704  1.00  0.00     0.163 HD
BRANCH   4   7
ATOM      7  C   UNL     1       3.602  -4.770   1.346  1.00  0.00     0.102 C 
BRANCH   7   8
ATOM      8  C   UNL     1       4.170  -3.431   1.823  1.00  0.00     0.031 C 
BRANCH   8   9
ATOM      9  C   UNL     1       3.772  -2.165   1.056  1.00  0.00     0.113 C 
BRANCH   9  10
ATOM     10  N   UNL     1       2.333  -2.052   0.895  1.00  0.00    -0.385 N 
ATOM     11  H   UNL     1       1.793  -2.852   1.090  1.00  0.00     0.160 HD
BRANCH  10  12
ATOM     12  C   UNL     1       1.657  -0.916   0.492  1.00  0.00     0.035 A 
ATOM     13  C   UNL     1      -0.496   0.145   0.010  1.00  0.00     0.054 A 
ATOM     14  C   UNL     1       0.139   1.371  -0.185  1.00  0.00     0.019 A 
ATOM     15  C   UNL     1       0.265  -0.987   0.334  1.00  0.00     0.045 A 
ATOM     16  C   UNL     1       1.527   1.449  -0.085  1.00  0.00     0.003 A 
ATOM     17  C   UNL     1       2.277   0.310   0.237  1.00  0.00     0.026 A 
BRANCH  13  18
ATOM     18  C   UNL     1      -1.921   0.041  -0.093  1.00  0.00     0.099 C 
ATOM     19  N   UNL     1      -3.076  -0.059  -0.170  1.00  0.00    -0.192 NA
ENDBRANCH  13  18
ENDBRANCH  10  12
ENDBRANCH   9  10
ENDBRANCH   8   9
ENDBRANCH   7   8
ENDBRANCH   4   7
ENDBRANCH   2   3
ENDBRANCH   1   2
BRANCH   1  20
ATOM     20  C   UNL     1       4.365  -3.557  -3.794  1.00  0.00     0.002 C 
BRANCH  20  21
ATOM     21  C   UNL     1       3.158  -3.724  -4.722  1.00  0.00     0.002 C 
BRANCH  21  22
ATOM     22  C   UNL     1       2.253  -2.493  -4.816  1.00  0.00     0.021 C 
BRANCH  22  23
ATOM     23  C   UNL     1       2.974  -1.234  -5.285  1.00  0.00     0.116 C 
BRANCH  23  24
ATOM     24  N   UNL     1       3.570  -1.423  -6.599  1.00  0.00    -0.352 N 
ATOM     25  C   UNL     1       3.283  -0.790  -7.781  1.00  0.00     0.251 C 
ATOM     26  H   UNL     1       4.282  -2.102  -6.646  1.00  0.00     0.163 HD
ATOM     27  O   UNL     1       3.664  -1.261  -8.847  1.00  0.00    -0.269 OA
BRANCH  25  28
ATOM     28  C   UNL     1       2.506   0.464  -7.758  1.00  0.00     0.039 A 
ATOM     29  C   UNL     1       1.495   0.656  -8.700  1.00  0.00     0.014 A 
ATOM     30  C   UNL     1       2.785   1.448  -6.805  1.00  0.00     0.014 A 
ATOM     31  C   UNL     1       0.725   1.818  -8.650  1.00  0.00     0.010 A 
ATOM     32  C   UNL     1       1.960   2.561  -6.701  1.00  0.00     0.010 A 
ATOM     33  C   UNL     1       0.927   2.762  -7.628  1.00  0.00    -0.014 A 
BRANCH  33  34
ATOM     34  C   UNL     1       0.065   3.963  -7.515  1.00  0.00     0.031 A 
ATOM     35  C   UNL     1       0.659   5.338  -7.642  1.00  0.00     0.074 A 
ATOM     36  C   UNL     1      -1.246   3.813  -7.243  1.00  0.00     0.049 A 
ATOM     37  N   UNL     1       0.075   6.504  -7.526  1.00  0.00    -0.248 NA
ATOM     38  C   UNL     1       2.104   5.416  -7.909  1.00  0.00     0.031 C 
ATOM     39  C   UNL     1      -1.930   2.532  -7.053  1.00  0.00     0.029 A 
ATOM     40  N   UNL     1      -2.238   4.746  -7.075  1.00  0.00    -0.354 N 
ATOM     41  C   UNL     1       1.079   7.448  -7.699  1.00  0.00     0.074 A 
ATOM     42  C   UNL     1       2.319   6.722  -7.863  1.00  0.00     0.031 C 
ATOM     43  C   UNL     1      -3.233   2.759  -6.827  1.00  0.00     0.029 A 
ATOM     44  C   UNL     1      -3.468   4.198  -6.804  1.00  0.00     0.049 A 
ATOM     45  H   UNL     1      -2.083   5.716  -7.143  1.00  0.00     0.167 HD
ATOM     46  C   UNL     1       0.972   8.797  -7.742  1.00  0.00     0.037 A 
ATOM     47  C   UNL     1      -4.651   4.790  -6.551  1.00  0.00     0.037 A 
ATOM     48  C   UNL     1      -0.267   9.512  -7.584  1.00  0.00     0.049 A 
ATOM     49  C   UNL     1      -4.734   6.292  -6.566  1.00  0.00     0.074 A 
ATOM     50  C   UNL     1      -0.489  10.876  -7.660  1.00  0.00     0.029 A 
ATOM     51  N   UNL     1      -1.492   8.923  -7.306  1.00  0.00    -0.354 N 
ATOM     52  N   UNL     1      -3.791   7.171  -6.802  1.00  0.00    -0.248 NA
ATOM     53  C   UNL     1      -6.049   6.884  -6.284  1.00  0.00     0.031 C 
ATOM     54  C   UNL     1      -1.832  11.117  -7.356  1.00  0.00     0.029 A 
ATOM     55  C   UNL     1      -2.466   9.899  -7.170  1.00  0.00     0.049 A 
ATOM     56  H   UNL     1      -1.646   7.954  -7.217  1.00  0.00     0.167 HD
ATOM     57  C   UNL     1      -4.404   8.416  -6.732  1.00  0.00     0.074 A 
ATOM     58  C   UNL     1      -5.803   8.175  -6.447  1.00  0.00     0.031 C 
ATOM     59  C   UNL     1      -3.858   9.647  -6.893  1.00  0.00     0.037 A 
BRANCH  46  60
ATOM     60  C   UNL     1       2.231   9.589  -7.957  1.00  0.00     0.057 A 
ATOM     61  C   UNL     1       2.935   9.554  -9.169  1.00  0.00     0.134 A 
ATOM     62  C   UNL     1       2.727  10.429  -6.952  1.00  0.00     0.134 A 
ATOM     63  F   UNL     1       2.523   8.763 -10.173  1.00  0.00    -0.206 F 
ATOM     64  C   UNL     1       4.099  10.300  -9.362  1.00  0.00     0.040 A 
ATOM     65  C   UNL     1       3.870  11.207  -7.144  1.00  0.00     0.040 A 
ATOM     66  F   UNL     1       2.101  10.519  -5.768  1.00  0.00    -0.206 F 
ATOM     67  C   UNL     1       4.564  11.136  -8.350  1.00  0.00     0.006 A 
ENDBRANCH  46  60
BRANCH  47  68
ATOM     68  C   UNL     1      -5.853   3.964  -6.266  1.00  0.00     0.057 A 
ATOM     69  C   UNL     1      -6.941   3.937  -7.146  1.00  0.00     0.134 A 
ATOM     70  C   UNL     1      -5.951   3.196  -5.099  1.00  0.00     0.134 A 
ATOM     71  F   UNL     1      -6.916   4.664  -8.274  1.00  0.00    -0.206 F 
ATOM     72  C   UNL     1      -8.093   3.201  -6.864  1.00  0.00     0.040 A 
ATOM     73  C   UNL     1      -7.082   2.428  -4.821  1.00  0.00     0.040 A 
ATOM     74  F   UNL     1      -4.939   3.170  -4.219  1.00  0.00    -0.206 F 
ATOM     75  C   UNL     1      -8.163   2.439  -5.699  1.00  0.00     0.006 A 
ENDBRANCH  47  68
BRANCH  59  76
ATOM     76  C   UNL     1      -4.782  10.829  -6.813  1.00  0.00     0.057 A 
ATOM     77  C   UNL     1      -5.386  11.227  -5.613  1.00  0.00     0.134 A 
ATOM     78  C   UNL     1      -5.040  11.605  -7.951  1.00  0.00     0.134 A 
ATOM     79  F   UNL     1      -5.191  10.524  -4.487  1.00  0.00    -0.206 F 
ATOM     80  C   UNL     1      -6.235  12.334  -5.555  1.00  0.00     0.040 A 
ATOM     81  C   UNL     1      -5.857  12.735  -7.898  1.00  0.00     0.040 A 
ATOM     82  F   UNL     1      -4.486  11.290  -9.132  1.00  0.00    -0.206 F 
ATOM     83  C   UNL     1      -6.465  13.096  -6.698  1.00  0.00     0.006 A 
ENDBRANCH  59  76
ENDBRANCH  33  34
ENDBRANCH  25  28
ENDBRANCH  23  24
ENDBRANCH  22  23
ENDBRANCH  21  22
ENDBRANCH  20  21
ENDBRANCH   1  20
TORSDOF 18
