REMARK SMILES CS(=O)(=O)c1ccc(-c2cc(Cl)cc3c2O[C@H](C(F)(F)F)C(C(=O)NCCCCCCNC(=O)c2ccc(-c4c5nc(c(-c6c(F)cccc6F)c6ccc([nH]6)c(-c6c(F)cccc6F)c6nc(c(-c7c(F)cccc7F)c7ccc4[nH]7)C=C6)C=C5)cc2)=C3)cc1
REMARK SMILES IDX 28 1 27 2 26 3 25 4 23 5 24 6 22 8 9 9 10 10 15 11 11 12
REMARK SMILES IDX 14 13 16 14 12 15 13 16 89 17 17 18 8 19 5 20 6 21 91 22
REMARK SMILES IDX 7 23 90 24 2 25 1 26 3 27 4 28 18 29 19 30 20 31 21 32 29 33
REMARK SMILES IDX 30 34 31 35 32 36 33 37 34 39 35 40 36 41 88 42 37 43 87 44
REMARK SMILES IDX 38 45 39 46 40 47 81 48 41 49 86 50 80 51 82 52 42 53 85 54
REMARK SMILES IDX 79 55 78 56 43 58 69 59 52 60 68 61 53 62 56 63 67 64 83 65
REMARK SMILES IDX 54 66 55 67 66 69 84 70 57 71 44 72 45 73 50 74 46 75 47 76
REMARK SMILES IDX 49 77 51 78 48 79 70 80 71 81 76 82 72 83 73 84 75 85 77 86
REMARK SMILES IDX 74 87 58 88 59 89 64 90 60 91 61 92 63 93 65 94 62 95
REMARK H PARENT 25 7 32 38 82 57 56 68
REMARK Flexibility Score: inf
ROOT
ATOM      1  C   UNL     1       0.284  -7.700  13.807  1.00  0.00     0.002 C 
ENDROOT
BRANCH   1   2
ATOM      2  C   UNL     1      -0.610  -6.491  13.481  1.00  0.00     0.021 C 
BRANCH   2   3
ATOM      3  C   UNL     1       0.148  -5.181  13.218  1.00  0.00     0.116 C 
BRANCH   3   4
ATOM      4  N   UNL     1       1.064  -5.357  12.110  1.00  0.00    -0.352 N 
ATOM      5  C   UNL     1       1.006  -4.694  10.928  1.00  0.00     0.251 C 
ATOM      6  O   UNL     1       1.058  -5.315   9.874  1.00  0.00    -0.270 OA
ATOM      7  H   UNL     1       1.789  -6.013  12.224  1.00  0.00     0.163 HD
BRANCH   5   8
ATOM      8  C   UNL     1       1.053  -3.204  11.000  1.00  0.00     0.067 C 
ATOM      9  C   UNL     1       1.337  -2.416   7.019  1.00  0.00     0.026 A 
ATOM     10  C   UNL     1       2.332  -3.293   6.508  1.00  0.00     0.033 A 
ATOM     11  C   UNL     1       1.276  -2.300   8.423  1.00  0.00     0.135 A 
ATOM     12  C   UNL     1       3.302  -3.888   7.311  1.00  0.00     0.042 A 
ATOM     13  C   UNL     1       2.347  -2.814   9.204  1.00  0.00     0.019 A 
ATOM     14  O   UNL     1       0.190  -1.765   9.109  1.00  0.00    -0.475 OA
ATOM     15  Cl  UNL     1       4.436  -4.976   6.616  1.00  0.00    -0.084 Cl
ATOM     16  C   UNL     1       3.362  -3.592   8.656  1.00  0.00     0.032 A 
ATOM     17  C   UNL     1       2.258  -2.698  10.675  1.00  0.00     0.025 C 
ATOM     18  C   UNL     1      -0.136  -2.484  10.385  1.00  0.00     0.314 C 
BRANCH   9  19
ATOM     19  C   UNL     1       0.643  -1.607   5.973  1.00  0.00    -0.015 A 
ATOM     20  C   UNL     1       0.291  -0.157   3.549  1.00  0.00     0.067 A 
ATOM     21  C   UNL     1      -0.015  -1.515   3.593  1.00  0.00     0.021 A 
ATOM     22  C   UNL     1       0.680   0.501   4.721  1.00  0.00     0.021 A 
ATOM     23  C   UNL     1       0.144  -2.223   4.799  1.00  0.00     0.010 A 
ATOM     24  C   UNL     1       0.842  -0.216   5.922  1.00  0.00     0.010 A 
BRANCH  20  25
ATOM     25  S   UNL     1       0.192   0.758   2.018  1.00  0.00     0.175 S 
ATOM     26  C   UNL     1       0.988  -0.211   0.762  1.00  0.00     0.163 C 
ATOM     27  O   UNL     1       0.988   1.956   2.179  1.00  0.00    -0.224 OA
ATOM     28  O   UNL     1      -1.221   0.838   1.685  1.00  0.00    -0.224 OA
ENDBRANCH  20  25
ENDBRANCH   9  19
BRANCH  18  29
ATOM     29  C   UNL     1      -0.714  -1.546  11.471  1.00  0.00     0.429 C 
ATOM     30  F   UNL     1      -0.462  -0.242  11.227  1.00  0.00    -0.167 F 
ATOM     31  F   UNL     1      -2.055  -1.695  11.588  1.00  0.00    -0.167 F 
ATOM     32  F   UNL     1      -0.204  -1.810  12.706  1.00  0.00    -0.167 F 
ENDBRANCH  18  29
ENDBRANCH   5   8
ENDBRANCH   3   4
ENDBRANCH   2   3
ENDBRANCH   1   2
BRANCH   1  33
ATOM     33  C   UNL     1       1.244  -7.492  14.980  1.00  0.00     0.002 C 
BRANCH  33  34
ATOM     34  C   UNL     1       0.561  -7.152  16.305  1.00  0.00     0.021 C 
BRANCH  34  35
ATOM     35  C   UNL     1      -0.492  -8.160  16.751  1.00  0.00     0.116 C 
BRANCH  35  36
ATOM     36  N   UNL     1       0.062  -9.489  16.953  1.00  0.00    -0.352 N 
ATOM     37  C   UNL     1      -0.098 -10.341  18.015  1.00  0.00     0.251 C 
ATOM     38  H   UNL     1       0.632  -9.824  16.224  1.00  0.00     0.163 HD
ATOM     39  O   UNL     1       0.582 -11.358  18.100  1.00  0.00    -0.269 OA
BRANCH  37  40
ATOM     40  C   UNL     1      -1.076 -10.016  19.074  1.00  0.00     0.039 A 
ATOM     41  C   UNL     1      -0.699 -10.176  20.409  1.00  0.00     0.014 A 
ATOM     42  C   UNL     1      -2.357  -9.555  18.755  1.00  0.00     0.014 A 
ATOM     43  C   UNL     1      -1.588  -9.822  21.424  1.00  0.00     0.010 A 
ATOM     44  C   UNL     1      -3.212  -9.127  19.766  1.00  0.00     0.010 A 
ATOM     45  C   UNL     1      -2.839  -9.263  21.112  1.00  0.00    -0.014 A 
BRANCH  45  46
ATOM     46  C   UNL     1      -3.762  -8.817  22.186  1.00  0.00     0.031 A 
ATOM     47  C   UNL     1      -5.103  -9.476  22.360  1.00  0.00     0.074 A 
ATOM     48  C   UNL     1      -3.408  -7.785  22.977  1.00  0.00     0.049 A 
ATOM     49  N   UNL     1      -6.048  -9.208  23.226  1.00  0.00    -0.248 NA
ATOM     50  C   UNL     1      -5.438 -10.561  21.424  1.00  0.00     0.031 C 
ATOM     51  C   UNL     1      -2.160  -7.027  22.871  1.00  0.00     0.029 A 
ATOM     52  N   UNL     1      -4.068  -7.192  24.024  1.00  0.00    -0.354 N 
ATOM     53  C   UNL     1      -7.088 -10.081  22.932  1.00  0.00     0.074 A 
ATOM     54  C   UNL     1      -6.683 -10.847  21.774  1.00  0.00     0.031 C 
ATOM     55  C   UNL     1      -2.132  -6.090  23.831  1.00  0.00     0.029 A 
ATOM     56  C   UNL     1      -3.374  -6.152  24.594  1.00  0.00     0.049 A 
ATOM     57  H   UNL     1      -4.955  -7.483  24.336  1.00  0.00     0.167 HD
ATOM     58  C   UNL     1      -8.264 -10.245  23.583  1.00  0.00     0.037 A 
ATOM     59  C   UNL     1      -3.704  -5.337  25.614  1.00  0.00     0.037 A 
ATOM     60  C   UNL     1      -8.655  -9.493  24.748  1.00  0.00     0.049 A 
ATOM     61  C   UNL     1      -5.017  -5.539  26.318  1.00  0.00     0.074 A 
ATOM     62  C   UNL     1      -9.796  -9.631  25.519  1.00  0.00     0.029 A 
ATOM     63  N   UNL     1      -7.919  -8.458  25.305  1.00  0.00    -0.354 N 
ATOM     64  N   UNL     1      -5.955  -6.425  26.081  1.00  0.00    -0.248 NA
ATOM     65  C   UNL     1      -5.314  -4.635  27.437  1.00  0.00     0.031 C 
ATOM     66  C   UNL     1      -9.779  -8.641  26.506  1.00  0.00     0.029 A 
ATOM     67  C   UNL     1      -8.597  -7.928  26.391  1.00  0.00     0.049 A 
ATOM     68  H   UNL     1      -7.045  -8.146  24.977  1.00  0.00     0.167 HD
ATOM     69  C   UNL     1      -6.938  -6.203  27.038  1.00  0.00     0.074 A 
ATOM     70  C   UNL     1      -6.472  -5.113  27.869  1.00  0.00     0.031 C 
ATOM     71  C   UNL     1      -8.120  -6.843  27.211  1.00  0.00     0.037 A 
BRANCH  58  72
ATOM     72  C   UNL     1      -9.218 -11.276  23.050  1.00  0.00     0.057 A 
ATOM     73  C   UNL     1      -8.949 -12.649  23.134  1.00  0.00     0.134 A 
ATOM     74  C   UNL     1     -10.442 -10.893  22.486  1.00  0.00     0.134 A 
ATOM     75  F   UNL     1      -7.792 -13.086  23.653  1.00  0.00    -0.206 F 
ATOM     76  C   UNL     1      -9.851 -13.602  22.654  1.00  0.00     0.040 A 
ATOM     77  C   UNL     1     -11.364 -11.837  22.030  1.00  0.00     0.040 A 
ATOM     78  F   UNL     1     -10.767  -9.596  22.380  1.00  0.00    -0.206 F 
ATOM     79  C   UNL     1     -11.066 -13.196  22.108  1.00  0.00     0.006 A 
ENDBRANCH  58  72
BRANCH  59  80
ATOM     80  C   UNL     1      -2.771  -4.262  26.041  1.00  0.00     0.057 A 
ATOM     81  C   UNL     1      -2.125  -4.312  27.282  1.00  0.00     0.134 A 
ATOM     82  C   UNL     1      -2.515  -3.152  25.226  1.00  0.00     0.134 A 
ATOM     83  F   UNL     1      -2.343  -5.340  28.115  1.00  0.00    -0.206 F 
ATOM     84  C   UNL     1      -1.281  -3.286  27.709  1.00  0.00     0.040 A 
ATOM     85  C   UNL     1      -1.649  -2.134  25.628  1.00  0.00     0.040 A 
ATOM     86  F   UNL     1      -3.093  -3.049  24.021  1.00  0.00    -0.206 F 
ATOM     87  C   UNL     1      -1.037  -2.194  26.878  1.00  0.00     0.006 A 
ENDBRANCH  59  80
BRANCH  71  88
ATOM     88  C   UNL     1      -8.975  -6.404  28.366  1.00  0.00     0.057 A 
ATOM     89  C   UNL     1      -9.627  -5.164  28.379  1.00  0.00     0.134 A 
ATOM     90  C   UNL     1      -9.170  -7.247  29.468  1.00  0.00     0.134 A 
ATOM     91  F   UNL     1      -9.473  -4.304  27.361  1.00  0.00    -0.206 F 
ATOM     92  C   UNL     1     -10.415  -4.765  29.460  1.00  0.00     0.040 A 
ATOM     93  C   UNL     1      -9.981  -6.873  30.540  1.00  0.00     0.040 A 
ATOM     94  F   UNL     1      -8.585  -8.454  29.516  1.00  0.00    -0.206 F 
ATOM     95  C   UNL     1     -10.599  -5.625  30.542  1.00  0.00     0.006 A 
ENDBRANCH  71  88
ENDBRANCH  45  46
ENDBRANCH  37  40
ENDBRANCH  35  36
ENDBRANCH  34  35
ENDBRANCH  33  34
ENDBRANCH   1  33
TORSDOF 16
