REMARK SMILES COc1ccc(-n2c(SCc3cn(-c4ccc(C(=O)NCCCCCCNC(=O)c5ccc(-c6c7nc(c(-c8c(F)cccc8F)c8ccc([nH]8)c(-c8c(F)cccc8F)c8nc(c(-c9c(F)cccc9F)c9ccc6[nH]9)C=C8)C=C7)cc5)cc4)nn3)nc3ccccc3c2=O)cc1
REMARK SMILES IDX 21 1 20 2 18 3 19 4 17 6 14 7 15 8 85 9 16 10 84 11 13 12
REMARK SMILES IDX 11 13 12 14 87 15 86 16 10 17 9 18 8 19 7 20 95 21 88 22
REMARK SMILES IDX 94 23 96 24 89 25 93 26 90 27 92 28 91 29 6 30 3 31 4 32
REMARK SMILES IDX 98 33 5 34 97 35 2 36 1 37 22 38 23 39 24 40 25 41 26 42
REMARK SMILES IDX 27 43 28 44 29 46 30 47 31 48 83 49 32 50 82 51 33 52 34 53
REMARK SMILES IDX 35 54 76 55 36 56 81 57 75 58 77 59 37 60 80 61 74 62 73 63
REMARK SMILES IDX 38 65 64 66 47 67 63 68 48 69 51 70 62 71 78 72 49 73 50 74
REMARK SMILES IDX 61 76 79 77 52 78 39 79 40 80 45 81 41 82 42 83 44 84 46 85
REMARK SMILES IDX 43 86 65 87 66 88 71 89 67 90 68 91 70 92 72 93 69 94 53 95
REMARK SMILES IDX 54 96 59 97 55 98 56 99 58 100 60 101 57 102
REMARK H PARENT 20 5 27 45 77 64 51 75
REMARK Flexibility Score: inf
ROOT
ATOM      1  C   UNL     1      -0.692 -10.506   2.552  1.00  0.00     0.116 C 
ENDROOT
BRANCH   1   2
ATOM      2  N   UNL     1      -1.179 -10.422   1.188  1.00  0.00    -0.352 N 
ATOM      3  C   UNL     1      -1.351  -9.386   0.309  1.00  0.00     0.251 C 
ATOM      4  O   UNL     1      -1.882  -9.643  -0.772  1.00  0.00    -0.269 OA
ATOM      5  H   UNL     1      -1.441 -11.295   0.816  1.00  0.00     0.163 HD
BRANCH   3   6
ATOM      6  C   UNL     1      -0.840  -8.011   0.550  1.00  0.00     0.039 A 
ATOM      7  C   UNL     1       0.550  -5.617   0.776  1.00  0.00     0.066 A 
ATOM      8  C   UNL     1       0.147  -6.034  -0.487  1.00  0.00     0.029 A 
ATOM      9  C   UNL     1       0.144  -6.298   1.931  1.00  0.00     0.029 A 
ATOM     10  C   UNL     1      -0.514  -7.255  -0.594  1.00  0.00     0.016 A 
ATOM     11  C   UNL     1      -0.611  -7.460   1.811  1.00  0.00     0.016 A 
BRANCH   7  12
ATOM     12  N   UNL     1       1.515  -4.609   0.882  1.00  0.00    -0.220 N 
ATOM     13  C   UNL     1       3.300  -3.518   1.451  1.00  0.00     0.093 A 
ATOM     14  C   UNL     1       2.596  -4.667   1.708  1.00  0.00     0.141 A 
ATOM     15  N   UNL     1       2.668  -2.833   0.448  1.00  0.00    -0.134 NA
ATOM     16  N   UNL     1       1.619  -3.549   0.057  1.00  0.00    -0.062 NA
BRANCH  13  17
ATOM     17  C   UNL     1       4.560  -3.028   2.035  1.00  0.00     0.138 C 
BRANCH  17  18
ATOM     18  S   UNL     1       5.127  -3.947   3.467  1.00  0.00    -0.081 SA
BRANCH  18  19
ATOM     19  C   UNL     1       3.657  -4.170   4.480  1.00  0.00     0.176 A 
ATOM     20  N   UNL     1       3.354  -3.066   5.240  1.00  0.00    -0.255 N 
ATOM     21  C   UNL     1       3.880  -3.037   6.523  1.00  0.00     0.266 A 
ATOM     22  N   UNL     1       3.517  -5.352   5.005  1.00  0.00    -0.223 NA
ATOM     23  C   UNL     1       4.666  -4.269   6.861  1.00  0.00     0.066 A 
ATOM     24  O   UNL     1       3.783  -2.122   7.331  1.00  0.00    -0.268 OA
ATOM     25  C   UNL     1       4.340  -5.443   6.150  1.00  0.00     0.079 A 
ATOM     26  C   UNL     1       5.825  -4.215   7.628  1.00  0.00     0.016 A 
ATOM     27  C   UNL     1       5.083  -6.606   6.332  1.00  0.00     0.029 A 
ATOM     28  C   UNL     1       6.635  -5.353   7.705  1.00  0.00     0.001 A 
ATOM     29  C   UNL     1       6.248  -6.552   7.094  1.00  0.00     0.002 A 
BRANCH  20  30
ATOM     30  C   UNL     1       2.487  -2.087   4.708  1.00  0.00     0.052 A 
ATOM     31  C   UNL     1       0.994  -0.528   2.942  1.00  0.00     0.119 A 
ATOM     32  C   UNL     1       0.391  -1.613   3.572  1.00  0.00     0.048 A 
ATOM     33  C   UNL     1       2.291  -0.146   3.287  1.00  0.00     0.048 A 
ATOM     34  C   UNL     1       1.148  -2.414   4.433  1.00  0.00     0.030 A 
ATOM     35  C   UNL     1       3.030  -0.910   4.192  1.00  0.00     0.030 A 
BRANCH  31  36
ATOM     36  O   UNL     1       0.269   0.183   2.025  1.00  0.00    -0.497 OA
ATOM     37  C   UNL     1       0.795   0.024   0.702  1.00  0.00     0.278 C 
ENDBRANCH  31  36
ENDBRANCH  20  30
ENDBRANCH  18  19
ENDBRANCH  17  18
ENDBRANCH  13  17
ENDBRANCH   7  12
ENDBRANCH   3   6
ENDBRANCH   1   2
BRANCH   1  38
ATOM     38  C   UNL     1      -1.877 -10.578   3.518  1.00  0.00     0.021 C 
BRANCH  38  39
ATOM     39  C   UNL     1      -2.562 -11.952   3.523  1.00  0.00     0.002 C 
BRANCH  39  40
ATOM     40  C   UNL     1      -1.647 -13.145   3.848  1.00  0.00     0.002 C 
BRANCH  40  41
ATOM     41  C   UNL     1      -0.796 -13.023   5.121  1.00  0.00     0.021 C 
BRANCH  41  42
ATOM     42  C   UNL     1      -1.608 -13.079   6.404  1.00  0.00     0.116 C 
BRANCH  42  43
ATOM     43  N   UNL     1      -2.245 -14.386   6.595  1.00  0.00    -0.352 N 
ATOM     44  C   UNL     1      -3.187 -14.787   7.528  1.00  0.00     0.251 C 
ATOM     45  H   UNL     1      -1.960 -15.085   5.963  1.00  0.00     0.163 HD
ATOM     46  O   UNL     1      -3.351 -15.963   7.792  1.00  0.00    -0.269 OA
BRANCH  44  47
ATOM     47  C   UNL     1      -4.006 -13.754   8.185  1.00  0.00     0.039 A 
ATOM     48  C   UNL     1      -4.428 -13.860   9.515  1.00  0.00     0.014 A 
ATOM     49  C   UNL     1      -4.343 -12.647   7.421  1.00  0.00     0.014 A 
ATOM     50  C   UNL     1      -5.157 -12.808  10.067  1.00  0.00     0.010 A 
ATOM     51  C   UNL     1      -4.812 -11.526   8.031  1.00  0.00     0.010 A 
ATOM     52  C   UNL     1      -5.341 -11.647   9.306  1.00  0.00    -0.014 A 
BRANCH  52  53
ATOM     53  C   UNL     1      -6.060 -10.484   9.791  1.00  0.00     0.031 A 
ATOM     54  C   UNL     1      -5.408  -9.790  10.924  1.00  0.00     0.074 A 
ATOM     55  C   UNL     1      -7.038  -9.917   9.049  1.00  0.00     0.049 A 
ATOM     56  N   UNL     1      -5.824  -9.706  12.143  1.00  0.00    -0.248 NA
ATOM     57  C   UNL     1      -4.052  -9.255  10.718  1.00  0.00     0.031 C 
ATOM     58  C   UNL     1      -7.512 -10.302   7.711  1.00  0.00     0.029 A 
ATOM     59  N   UNL     1      -7.729  -8.774   9.286  1.00  0.00    -0.354 N 
ATOM     60  C   UNL     1      -4.894  -8.905  12.799  1.00  0.00     0.074 A 
ATOM     61  C   UNL     1      -3.732  -8.871  11.954  1.00  0.00     0.031 C 
ATOM     62  C   UNL     1      -8.225  -9.290   7.172  1.00  0.00     0.029 A 
ATOM     63  C   UNL     1      -8.398  -8.261   8.179  1.00  0.00     0.049 A 
ATOM     64  H   UNL     1      -7.756  -8.343  10.170  1.00  0.00     0.167 HD
ATOM     65  C   UNL     1      -5.270  -8.106  13.837  1.00  0.00     0.037 A 
ATOM     66  C   UNL     1      -8.997  -7.047   8.106  1.00  0.00     0.037 A 
ATOM     67  C   UNL     1      -6.580  -8.479  14.322  1.00  0.00     0.049 A 
ATOM     68  C   UNL     1      -9.213  -6.588   9.505  1.00  0.00     0.074 A 
ATOM     69  C   UNL     1      -7.140  -9.646  14.809  1.00  0.00     0.029 A 
ATOM     70  N   UNL     1      -7.643  -7.682  13.966  1.00  0.00    -0.354 N 
ATOM     71  N   UNL     1     -10.033  -7.168  10.339  1.00  0.00    -0.248 NA
ATOM     72  C   UNL     1      -8.161  -5.791  10.118  1.00  0.00     0.031 C 
ATOM     73  C   UNL     1      -8.452  -9.684  14.250  1.00  0.00     0.029 A 
ATOM     74  C   UNL     1      -8.646  -8.507  13.526  1.00  0.00     0.049 A 
ATOM     75  H   UNL     1      -7.677  -6.700  14.017  1.00  0.00     0.167 HD
ATOM     76  C   UNL     1      -9.361  -7.171  11.554  1.00  0.00     0.074 A 
ATOM     77  C   UNL     1      -8.248  -6.239  11.374  1.00  0.00     0.031 C 
ATOM     78  C   UNL     1      -9.580  -8.150  12.482  1.00  0.00     0.037 A 
BRANCH  65  79
ATOM     79  C   UNL     1      -4.662  -6.755  14.149  1.00  0.00     0.057 A 
ATOM     80  C   UNL     1      -5.093  -6.075  15.304  1.00  0.00     0.134 A 
ATOM     81  C   UNL     1      -3.909  -5.973  13.249  1.00  0.00     0.134 A 
ATOM     82  F   UNL     1      -5.813  -6.703  16.246  1.00  0.00    -0.206 F 
ATOM     83  C   UNL     1      -4.884  -4.704  15.494  1.00  0.00     0.040 A 
ATOM     84  C   UNL     1      -3.647  -4.615  13.456  1.00  0.00     0.040 A 
ATOM     85  F   UNL     1      -3.467  -6.435  12.075  1.00  0.00    -0.206 F 
ATOM     86  C   UNL     1      -4.168  -3.966  14.562  1.00  0.00     0.006 A 
ENDBRANCH  65  79
BRANCH  66  87
ATOM     87  C   UNL     1      -9.085  -6.131   6.943  1.00  0.00     0.057 A 
ATOM     88  C   UNL     1      -9.932  -5.013   6.969  1.00  0.00     0.134 A 
ATOM     89  C   UNL     1      -8.146  -6.163   5.895  1.00  0.00     0.134 A 
ATOM     90  F   UNL     1     -10.838  -4.870   7.946  1.00  0.00    -0.206 F 
ATOM     91  C   UNL     1      -9.828  -3.974   6.033  1.00  0.00     0.040 A 
ATOM     92  C   UNL     1      -8.038  -5.137   4.950  1.00  0.00     0.040 A 
ATOM     93  F   UNL     1      -7.238  -7.146   5.803  1.00  0.00    -0.206 F 
ATOM     94  C   UNL     1      -8.869  -4.028   5.027  1.00  0.00     0.006 A 
ENDBRANCH  66  87
BRANCH  78  95
ATOM     95  C   UNL     1     -10.740  -9.087  12.268  1.00  0.00     0.057 A 
ATOM     96  C   UNL     1     -10.849  -9.975  11.186  1.00  0.00     0.134 A 
ATOM     97  C   UNL     1     -11.695  -9.214  13.281  1.00  0.00     0.134 A 
ATOM     98  F   UNL     1      -9.929 -10.004  10.216  1.00  0.00    -0.206 F 
ATOM     99  C   UNL     1     -11.881 -10.914  11.098  1.00  0.00     0.040 A 
ATOM    100  C   UNL     1     -12.713 -10.170  13.222  1.00  0.00     0.040 A 
ATOM    101  F   UNL     1     -11.625  -8.441  14.376  1.00  0.00    -0.206 F 
ATOM    102  C   UNL     1     -12.814 -11.019  12.123  1.00  0.00     0.006 A 
ENDBRANCH  78  95
ENDBRANCH  52  53
ENDBRANCH  44  47
ENDBRANCH  42  43
ENDBRANCH  41  42
ENDBRANCH  40  41
ENDBRANCH  39  40
ENDBRANCH  38  39
ENDBRANCH   1  38
TORSDOF 19
