REMARK SMILES Cc1cc(C(=O)NCCCCCCNC(=O)c2ccc(-c3c4nc(c(-c5c(F)cccc5F)c5ccc([nH]5)c(-c5c(F)cccc5F)c5nc(c(-c6c(F)cccc6F)c6ccc3[nH]6)C=C5)C=C4)cc2)ccc1NC(=O)N1C[C@@H](C)[C@H](C)C1
REMARK SMILES IDX 11 1 10 2 9 3 8 4 7 5 5 6 6 7 4 9 1 10 2 11 3 12 73 13 72 14
REMARK SMILES IDX 71 15 74 16 75 17 76 19 77 20 78 21 83 22 79 23 81 24 80 25
REMARK SMILES IDX 82 26 12 27 13 28 14 29 15 30 16 32 17 33 18 34 70 35 19 36
REMARK SMILES IDX 69 37 20 38 21 39 22 40 63 41 23 42 68 43 62 44 64 45 24 46
REMARK SMILES IDX 67 47 61 48 60 49 25 51 51 52 34 53 50 54 35 55 38 56 49 57
REMARK SMILES IDX 65 58 36 59 37 60 48 62 66 63 39 64 26 65 27 66 32 67 28 68
REMARK SMILES IDX 29 69 31 70 33 71 30 72 52 73 53 74 58 75 54 76 55 77 57 78
REMARK SMILES IDX 59 79 56 80 40 81 41 82 46 83 42 84 43 85 45 86 47 87 44 88
REMARK H PARENT 7 8 74 18 14 31 64 50 38 61
REMARK Flexibility Score: inf
ROOT
ATOM      1  C   UNL     1      -6.866  -2.890   0.263  1.00  0.00     0.002 C 
ENDROOT
BRANCH   1   2
ATOM      2  C   UNL     1      -6.004  -2.648  -0.987  1.00  0.00     0.002 C 
BRANCH   2   3
ATOM      3  C   UNL     1      -4.951  -1.535  -0.887  1.00  0.00     0.021 C 
BRANCH   3   4
ATOM      4  C   UNL     1      -3.953  -1.694   0.263  1.00  0.00     0.116 C 
BRANCH   4   5
ATOM      5  N   UNL     1      -2.961  -2.718  -0.022  1.00  0.00    -0.352 N 
ATOM      6  C   UNL     1      -1.613  -2.620  -0.281  1.00  0.00     0.251 C 
ATOM      7  O   UNL     1      -0.941  -3.647  -0.340  1.00  0.00    -0.269 OA
ATOM      8  H   UNL     1      -3.313  -3.637  -0.031  1.00  0.00     0.163 HD
BRANCH   6   9
ATOM      9  C   UNL     1      -0.945  -1.302  -0.426  1.00  0.00     0.040 A 
ATOM     10  C   UNL     1       2.420   0.161   0.545  1.00  0.00     0.046 C 
ATOM     11  C   UNL     1       0.987   0.118   0.085  1.00  0.00    -0.027 A 
ATOM     12  C   UNL     1       0.349  -1.141   0.085  1.00  0.00     0.019 A 
ATOM     13  C   UNL     1       0.273   1.235  -0.386  1.00  0.00     0.045 A 
ATOM     14  C   UNL     1      -0.947   1.024  -1.043  1.00  0.00     0.027 A 
ATOM     15  C   UNL     1      -1.541  -0.234  -1.084  1.00  0.00     0.016 A 
BRANCH  13  16
ATOM     16  N   UNL     1       0.792   2.539  -0.247  1.00  0.00    -0.308 N 
ATOM     17  C   UNL     1       0.167   3.742  -0.422  1.00  0.00     0.321 C 
ATOM     18  H   UNL     1       1.740   2.590   0.013  1.00  0.00     0.171 HD
ATOM     19  O   UNL     1       0.825   4.699  -0.832  1.00  0.00    -0.248 OA
ATOM     20  N   UNL     1      -1.163   3.853  -0.106  1.00  0.00    -0.324 N 
ATOM     21  C   UNL     1      -2.000   4.857  -0.736  1.00  0.00     0.125 C 
ATOM     22  C   UNL     1      -1.768   3.358   1.126  1.00  0.00     0.125 C 
ATOM     23  C   UNL     1      -3.144   5.111   0.245  1.00  0.00     0.010 C 
ATOM     24  C   UNL     1      -3.232   3.795   1.040  1.00  0.00     0.010 C 
ATOM     25  C   UNL     1      -4.443   5.482  -0.453  1.00  0.00     0.010 C 
ATOM     26  C   UNL     1      -3.897   3.962   2.401  1.00  0.00     0.010 C 
ENDBRANCH  13  16
ENDBRANCH   6   9
ENDBRANCH   4   5
ENDBRANCH   3   4
ENDBRANCH   2   3
ENDBRANCH   1   2
BRANCH   1  27
ATOM     27  C   UNL     1      -7.483  -1.645   0.906  1.00  0.00     0.021 C 
BRANCH  27  28
ATOM     28  C   UNL     1      -8.560  -0.976   0.064  1.00  0.00     0.116 C 
BRANCH  28  29
ATOM     29  N   UNL     1      -9.926  -1.375   0.409  1.00  0.00    -0.352 N 
ATOM     30  C   UNL     1     -11.116  -1.105  -0.234  1.00  0.00     0.251 C 
ATOM     31  H   UNL     1     -10.007  -1.920   1.225  1.00  0.00     0.163 HD
ATOM     32  O   UNL     1     -12.165  -1.504   0.223  1.00  0.00    -0.269 OA
BRANCH  30  33
ATOM     33  C   UNL     1     -11.093  -0.435  -1.567  1.00  0.00     0.039 A 
ATOM     34  C   UNL     1     -11.891  -0.976  -2.582  1.00  0.00     0.014 A 
ATOM     35  C   UNL     1     -10.177   0.571  -1.861  1.00  0.00     0.014 A 
ATOM     36  C   UNL     1     -11.588  -0.694  -3.912  1.00  0.00     0.010 A 
ATOM     37  C   UNL     1      -9.817   0.783  -3.178  1.00  0.00     0.010 A 
ATOM     38  C   UNL     1     -10.474   0.091  -4.200  1.00  0.00    -0.014 A 
BRANCH  38  39
ATOM     39  C   UNL     1      -9.843   0.131  -5.515  1.00  0.00     0.031 A 
ATOM     40  C   UNL     1      -9.991   1.303  -6.399  1.00  0.00     0.074 A 
ATOM     41  C   UNL     1      -9.051  -0.899  -5.890  1.00  0.00     0.049 A 
ATOM     42  N   UNL     1      -9.797   1.280  -7.675  1.00  0.00    -0.248 NA
ATOM     43  C   UNL     1     -10.408   2.608  -5.902  1.00  0.00     0.031 C 
ATOM     44  C   UNL     1      -8.142  -0.957  -7.031  1.00  0.00     0.029 A 
ATOM     45  N   UNL     1      -9.101  -2.218  -5.418  1.00  0.00    -0.354 N 
ATOM     46  C   UNL     1      -9.832   2.575  -8.134  1.00  0.00     0.074 A 
ATOM     47  C   UNL     1     -10.246   3.363  -6.994  1.00  0.00     0.031 C 
ATOM     48  C   UNL     1      -7.963  -2.244  -7.370  1.00  0.00     0.029 A 
ATOM     49  C   UNL     1      -8.860  -3.035  -6.547  1.00  0.00     0.049 A 
ATOM     50  H   UNL     1      -9.270  -2.514  -4.495  1.00  0.00     0.167 HD
ATOM     51  C   UNL     1      -9.411   2.853  -9.401  1.00  0.00     0.037 A 
ATOM     52  C   UNL     1      -9.828  -3.876  -7.014  1.00  0.00     0.037 A 
ATOM     53  C   UNL     1      -9.063   1.641 -10.136  1.00  0.00     0.049 A 
ATOM     54  C   UNL     1     -10.290  -3.587  -8.427  1.00  0.00     0.074 A 
ATOM     55  C   UNL     1      -7.878   0.965 -10.379  1.00  0.00     0.029 A 
ATOM     56  N   UNL     1     -10.079   0.779 -10.503  1.00  0.00    -0.354 N 
ATOM     57  N   UNL     1      -9.901  -2.563  -9.136  1.00  0.00    -0.248 NA
ATOM     58  C   UNL     1     -11.311  -4.383  -9.113  1.00  0.00     0.031 C 
ATOM     59  C   UNL     1      -8.202  -0.338 -10.854  1.00  0.00     0.029 A 
ATOM     60  C   UNL     1      -9.579  -0.444 -10.904  1.00  0.00     0.049 A 
ATOM     61  H   UNL     1     -11.036   1.008 -10.482  1.00  0.00     0.167 HD
ATOM     62  C   UNL     1     -10.623  -2.521 -10.297  1.00  0.00     0.074 A 
ATOM     63  C   UNL     1     -11.487  -3.683 -10.246  1.00  0.00     0.031 C 
ATOM     64  C   UNL     1     -10.507  -1.516 -11.207  1.00  0.00     0.037 A 
BRANCH  51  65
ATOM     65  C   UNL     1      -9.110   4.245  -9.894  1.00  0.00     0.057 A 
ATOM     66  C   UNL     1      -8.073   4.474 -10.820  1.00  0.00     0.134 A 
ATOM     67  C   UNL     1      -9.777   5.405  -9.467  1.00  0.00     0.134 A 
ATOM     68  F   UNL     1      -7.406   3.465 -11.393  1.00  0.00    -0.206 F 
ATOM     69  C   UNL     1      -7.660   5.758 -11.197  1.00  0.00     0.040 A 
ATOM     70  C   UNL     1      -9.338   6.698  -9.788  1.00  0.00     0.040 A 
ATOM     71  F   UNL     1     -10.912   5.337  -8.759  1.00  0.00    -0.206 F 
ATOM     72  C   UNL     1      -8.265   6.878 -10.648  1.00  0.00     0.006 A 
ENDBRANCH  51  65
BRANCH  52  73
ATOM     73  C   UNL     1     -10.695  -4.421  -5.936  1.00  0.00     0.057 A 
ATOM     74  C   UNL     1     -10.106  -5.188  -4.915  1.00  0.00     0.134 A 
ATOM     75  C   UNL     1     -11.980  -3.926  -5.700  1.00  0.00     0.134 A 
ATOM     76  F   UNL     1      -8.873  -5.695  -5.076  1.00  0.00    -0.206 F 
ATOM     77  C   UNL     1     -10.718  -5.354  -3.671  1.00  0.00     0.040 A 
ATOM     78  C   UNL     1     -12.611  -4.104  -4.465  1.00  0.00     0.040 A 
ATOM     79  F   UNL     1     -12.601  -3.168  -6.616  1.00  0.00    -0.206 F 
ATOM     80  C   UNL     1     -11.963  -4.782  -3.434  1.00  0.00     0.006 A 
ENDBRANCH  52  73
BRANCH  64  81
ATOM     81  C   UNL     1     -11.288  -1.494 -12.479  1.00  0.00     0.057 A 
ATOM     82  C   UNL     1     -11.265  -2.569 -13.376  1.00  0.00     0.134 A 
ATOM     83  C   UNL     1     -11.981  -0.345 -12.895  1.00  0.00     0.134 A 
ATOM     84  F   UNL     1     -10.604  -3.698 -13.076  1.00  0.00    -0.206 F 
ATOM     85  C   UNL     1     -11.908  -2.511 -14.615  1.00  0.00     0.040 A 
ATOM     86  C   UNL     1     -12.596  -0.260 -14.145  1.00  0.00     0.040 A 
ATOM     87  F   UNL     1     -12.097   0.725 -12.094  1.00  0.00    -0.206 F 
ATOM     88  C   UNL     1     -12.564  -1.348 -15.009  1.00  0.00     0.006 A 
ENDBRANCH  64  81
ENDBRANCH  38  39
ENDBRANCH  30  33
ENDBRANCH  28  29
ENDBRANCH  27  28
ENDBRANCH   1  27
TORSDOF 14
