REMARK SMILES O=C(NCCCCCCNC(=O)[C@@H]1CC(=O)N(CCO)C1)c1ccc(-c2c3nc(c(-c4c(F)cccc4F)c4ccc([nH]4)c(-c4c(F)cccc4F)c4nc(c(-c5c(F)cccc5F)c5ccc2[nH]5)C=C4)C=C3)cc1
REMARK SMILES IDX 7 1 6 2 5 3 4 4 3 5 1 6 2 7 22 9 23 10 75 11 24 12 74 13
REMARK SMILES IDX 25 14 26 15 27 16 68 17 28 18 73 19 67 20 69 21 29 22 72 23
REMARK SMILES IDX 66 24 65 25 30 27 56 28 39 29 55 30 40 31 43 32 54 33 70 34
REMARK SMILES IDX 41 35 42 36 53 38 71 39 44 40 31 41 32 42 37 43 33 44 34 45
REMARK SMILES IDX 36 46 38 47 35 48 57 49 58 50 63 51 59 52 60 53 62 54 64 55
REMARK SMILES IDX 61 56 45 57 46 58 51 59 47 60 48 61 50 62 52 63 49 64 8 65
REMARK SMILES IDX 9 66 10 67 11 68 12 70 13 71 14 72 21 73 15 74 17 75 16 76
REMARK SMILES IDX 18 77 19 78 20 79
REMARK H PARENT 3 8 69 26 43 37 10 69 20 80
REMARK Flexibility Score: inf
ROOT
ATOM      1  C   UNL     1       4.651  -3.910   1.799  1.00  0.00     0.002 C 
ENDROOT
BRANCH   1   2
ATOM      2  C   UNL     1       4.028  -2.714   2.532  1.00  0.00     0.002 C 
BRANCH   2   3
ATOM      3  C   UNL     1       4.597  -1.350   2.135  1.00  0.00     0.021 C 
BRANCH   3   4
ATOM      4  C   UNL     1       4.449  -1.026   0.654  1.00  0.00     0.116 C 
BRANCH   4   5
ATOM      5  N   UNL     1       3.051  -0.979   0.255  1.00  0.00    -0.352 N 
ATOM      6  O   UNL     1       1.088   0.014  -0.241  1.00  0.00    -0.269 OA
ATOM      7  C   UNL     1       2.312   0.084  -0.195  1.00  0.00     0.251 C 
ATOM      8  H   UNL     1       2.566  -1.834   0.319  1.00  0.00     0.163 HD
BRANCH   7   9
ATOM      9  C   UNL     1       3.000   1.317  -0.622  1.00  0.00     0.039 A 
ATOM     10  C   UNL     1       4.140   1.248  -1.427  1.00  0.00     0.014 A 
ATOM     11  C   UNL     1       2.484   2.555  -0.231  1.00  0.00     0.014 A 
ATOM     12  C   UNL     1       4.838   2.408  -1.738  1.00  0.00     0.010 A 
ATOM     13  C   UNL     1       3.139   3.725  -0.617  1.00  0.00     0.010 A 
ATOM     14  C   UNL     1       4.333   3.659  -1.354  1.00  0.00    -0.014 A 
BRANCH  14  15
ATOM     15  C   UNL     1       5.030   4.896  -1.778  1.00  0.00     0.031 A 
ATOM     16  C   UNL     1       5.630   5.827  -0.766  1.00  0.00     0.074 A 
ATOM     17  C   UNL     1       5.103   5.181  -3.092  1.00  0.00     0.049 A 
ATOM     18  N   UNL     1       6.220   6.981  -0.954  1.00  0.00    -0.248 NA
ATOM     19  C   UNL     1       5.551   5.415   0.643  1.00  0.00     0.031 C 
ATOM     20  C   UNL     1       4.554   4.350  -4.166  1.00  0.00     0.029 A 
ATOM     21  N   UNL     1       5.661   6.247  -3.748  1.00  0.00    -0.354 N 
ATOM     22  C   UNL     1       6.562   7.443   0.310  1.00  0.00     0.074 A 
ATOM     23  C   UNL     1       6.087   6.458   1.260  1.00  0.00     0.031 C 
ATOM     24  C   UNL     1       4.822   4.925  -5.347  1.00  0.00     0.029 A 
ATOM     25  C   UNL     1       5.497   6.196  -5.110  1.00  0.00     0.049 A 
ATOM     26  H   UNL     1       6.133   6.978  -3.288  1.00  0.00     0.167 HD
ATOM     27  C   UNL     1       7.216   8.582   0.643  1.00  0.00     0.037 A 
ATOM     28  C   UNL     1       5.823   7.087  -6.064  1.00  0.00     0.037 A 
ATOM     29  C   UNL     1       7.681   9.555  -0.313  1.00  0.00     0.049 A 
ATOM     30  C   UNL     1       6.500   8.365  -5.665  1.00  0.00     0.074 A 
ATOM     31  C   UNL     1       8.380  10.726  -0.081  1.00  0.00     0.029 A 
ATOM     32  N   UNL     1       7.480   9.476  -1.685  1.00  0.00    -0.354 N 
ATOM     33  N   UNL     1       6.848   8.776  -4.470  1.00  0.00    -0.248 NA
ATOM     34  C   UNL     1       6.830   9.303  -6.745  1.00  0.00     0.031 C 
ATOM     35  C   UNL     1       8.550  11.385  -1.303  1.00  0.00     0.029 A 
ATOM     36  C   UNL     1       8.017  10.592  -2.307  1.00  0.00     0.049 A 
ATOM     37  H   UNL     1       7.024   8.736  -2.147  1.00  0.00     0.167 HD
ATOM     38  C   UNL     1       7.466  10.006  -4.655  1.00  0.00     0.074 A 
ATOM     39  C   UNL     1       7.450  10.268  -6.080  1.00  0.00     0.031 C 
ATOM     40  C   UNL     1       8.001  10.838  -3.729  1.00  0.00     0.037 A 
BRANCH  27  41
ATOM     41  C   UNL     1       7.435   8.852   2.106  1.00  0.00     0.057 A 
ATOM     42  C   UNL     1       8.310   8.082   2.884  1.00  0.00     0.134 A 
ATOM     43  C   UNL     1       6.775   9.913   2.741  1.00  0.00     0.134 A 
ATOM     44  F   UNL     1       8.969   7.046   2.344  1.00  0.00    -0.206 F 
ATOM     45  C   UNL     1       8.493   8.335   4.246  1.00  0.00     0.040 A 
ATOM     46  C   UNL     1       6.973  10.194   4.094  1.00  0.00     0.040 A 
ATOM     47  F   UNL     1       5.930  10.698   2.056  1.00  0.00    -0.206 F 
ATOM     48  C   UNL     1       7.827   9.397   4.853  1.00  0.00     0.006 A 
ENDBRANCH  27  41
BRANCH  28  49
ATOM     49  C   UNL     1       5.501   6.793  -7.482  1.00  0.00     0.057 A 
ATOM     50  C   UNL     1       6.509   6.519  -8.411  1.00  0.00     0.134 A 
ATOM     51  C   UNL     1       4.176   6.750  -7.934  1.00  0.00     0.134 A 
ATOM     52  F   UNL     1       7.798   6.558  -8.041  1.00  0.00    -0.206 F 
ATOM     53  C   UNL     1       6.214   6.226  -9.743  1.00  0.00     0.040 A 
ATOM     54  C   UNL     1       3.864   6.429  -9.255  1.00  0.00     0.040 A 
ATOM     55  F   UNL     1       3.163   6.991  -7.088  1.00  0.00    -0.206 F 
ATOM     56  C   UNL     1       4.886   6.172 -10.166  1.00  0.00     0.006 A 
ENDBRANCH  28  49
BRANCH  40  57
ATOM     57  C   UNL     1       8.664  12.089  -4.229  1.00  0.00     0.057 A 
ATOM     58  C   UNL     1       7.932  13.163  -4.751  1.00  0.00     0.134 A 
ATOM     59  C   UNL     1      10.055  12.235  -4.144  1.00  0.00     0.134 A 
ATOM     60  F   UNL     1       6.599  13.082  -4.875  1.00  0.00    -0.206 F 
ATOM     61  C   UNL     1       8.563  14.329  -5.189  1.00  0.00     0.040 A 
ATOM     62  C   UNL     1      10.693  13.407  -4.550  1.00  0.00     0.040 A 
ATOM     63  F   UNL     1      10.815  11.246  -3.648  1.00  0.00    -0.206 F 
ATOM     64  C   UNL     1       9.946  14.457  -5.079  1.00  0.00     0.006 A 
ENDBRANCH  40  57
ENDBRANCH  14  15
ENDBRANCH   7   9
ENDBRANCH   4   5
ENDBRANCH   3   4
ENDBRANCH   2   3
ENDBRANCH   1   2
BRANCH   1  65
ATOM     65  C   UNL     1       6.180  -3.973   1.869  1.00  0.00     0.021 C 
BRANCH  65  66
ATOM     66  C   UNL     1       6.711  -4.056   3.299  1.00  0.00     0.116 C 
BRANCH  66  67
ATOM     67  N   UNL     1       6.704  -5.420   3.783  1.00  0.00    -0.356 N 
ATOM     68  C   UNL     1       7.700  -6.302   4.038  1.00  0.00     0.225 C 
ATOM     69  H   UNL     1       5.803  -5.774   3.961  1.00  0.00     0.163 HD
ATOM     70  O   UNL     1       7.355  -7.434   4.396  1.00  0.00    -0.275 OA
BRANCH  68  71
ATOM     71  C   UNL     1       9.184  -5.965   3.969  1.00  0.00     0.107 C 
ATOM     72  C   UNL     1       9.641  -5.047   5.098  1.00  0.00     0.115 C 
ATOM     73  C   UNL     1       9.678  -5.329   2.684  1.00  0.00     0.133 C 
ATOM     74  C   UNL     1       9.980  -3.753   4.412  1.00  0.00     0.223 C 
ATOM     75  N   UNL     1      10.001  -3.966   3.043  1.00  0.00    -0.340 N 
ATOM     76  O   UNL     1      10.169  -2.688   4.981  1.00  0.00    -0.275 OA
BRANCH  75  77
ATOM     77  C   UNL     1      10.068  -2.879   2.067  1.00  0.00     0.147 C 
BRANCH  77  78
ATOM     78  C   UNL     1      11.284  -2.921   1.151  1.00  0.00     0.177 C 
BRANCH  78  79
ATOM     79  O   UNL     1      11.188  -4.001   0.227  1.00  0.00    -0.395 OA
ATOM     80  H   UNL     1      11.145  -4.839   0.714  1.00  0.00     0.210 HD
ENDBRANCH  78  79
ENDBRANCH  77  78
ENDBRANCH  75  77
ENDBRANCH  68  71
ENDBRANCH  66  67
ENDBRANCH  65  66
ENDBRANCH   1  65
TORSDOF 16
