REMARK SMILES O=C(COc1ccc(Cl)c2ccccc12)N[C@@H](Cc1c[nH]c2ccccc12)C(=O)NCCCCCCNC(=O)c1ccc(-c2c3nc(c(-c4c(F)cccc4F)c4ccc([nH]4)c(-c4c(F)cccc4F)c4nc(c(-c5c(F)cccc5F)c5ccc2[nH]5)C=C4)C=C3)cc1
REMARK SMILES IDX 32 1 31 2 30 3 28 4 29 5 17 7 16 8 1 9 2 10 3 12 4 13 5 14
REMARK SMILES IDX 6 15 15 16 7 17 10 18 14 19 8 20 11 21 13 22 9 23 12 24
REMARK SMILES IDX 18 25 19 26 20 27 27 28 21 29 22 30 26 31 23 33 25 34 24 35
REMARK SMILES IDX 33 36 34 37 35 38 36 39 37 40 38 41 39 43 40 44 41 45 93 46
REMARK SMILES IDX 42 47 92 48 43 49 44 50 45 51 86 52 46 53 91 54 85 55 87 56
REMARK SMILES IDX 47 57 90 58 84 59 83 60 48 62 74 63 57 64 73 65 58 66 61 67
REMARK SMILES IDX 72 68 88 69 59 70 60 71 71 73 89 74 62 75 49 76 50 77 55 78
REMARK SMILES IDX 51 79 52 80 54 81 56 82 53 83 75 84 76 85 81 86 77 87 78 88
REMARK SMILES IDX 80 89 82 90 79 91 63 92 64 93 69 94 65 95 66 96 68 97 70 98
REMARK SMILES IDX 67 99
REMARK H PARENT 30 6 16 11 21 32 37 42 87 61 61 72
REMARK Flexibility Score: inf
ROOT
ATOM      1  C   UNL     1       6.405  -1.891  -1.987  1.00  0.00     0.021 C 
ENDROOT
BRANCH   1   2
ATOM      2  C   UNL     1       5.314  -0.856  -2.305  1.00  0.00     0.116 C 
BRANCH   2   3
ATOM      3  N   UNL     1       4.043  -1.400  -2.761  1.00  0.00    -0.354 N 
ATOM      4  C   UNL     1       2.793  -0.858  -2.893  1.00  0.00     0.242 C 
ATOM      5  O   UNL     1       2.026  -1.473  -3.650  1.00  0.00    -0.273 OA
ATOM      6  H   UNL     1       4.093  -2.347  -3.026  1.00  0.00     0.163 HD
BRANCH   4   7
ATOM      7  C   UNL     1       2.301   0.475  -2.249  1.00  0.00     0.175 C 
BRANCH   7   8
ATOM      8  N   UNL     1       2.862   0.718  -0.922  1.00  0.00    -0.341 N 
ATOM      9  O   UNL     1       0.915   0.349   0.236  1.00  0.00    -0.271 OA
ATOM     10  C   UNL     1       2.144   0.352   0.200  1.00  0.00     0.258 C 
ATOM     11  H   UNL     1       3.747   1.140  -0.828  1.00  0.00     0.164 HD
BRANCH  10  12
ATOM     12  C   UNL     1       2.982  -0.161   1.371  1.00  0.00     0.329 C 
BRANCH  12  13
ATOM     13  O   UNL     1       3.836  -1.265   1.049  1.00  0.00    -0.483 OA
BRANCH  13  14
ATOM     14  C   UNL     1       3.203  -2.492   1.016  1.00  0.00     0.128 A 
ATOM     15  C   UNL     1       2.203  -2.750   0.078  1.00  0.00     0.048 A 
ATOM     16  C   UNL     1       3.680  -3.533   1.850  1.00  0.00     0.025 A 
ATOM     17  C   UNL     1       1.649  -4.019  -0.041  1.00  0.00     0.025 A 
ATOM     18  C   UNL     1       3.117  -4.836   1.734  1.00  0.00     0.004 A 
ATOM     19  C   UNL     1       4.699  -3.322   2.804  1.00  0.00     0.012 A 
ATOM     20  C   UNL     1       2.099  -5.053   0.775  1.00  0.00     0.049 A 
ATOM     21  C   UNL     1       3.606  -5.861   2.578  1.00  0.00     0.010 A 
ATOM     22  C   UNL     1       5.157  -4.352   3.627  1.00  0.00     0.001 A 
ATOM     23  Cl  UNL     1       1.359  -6.604   0.535  1.00  0.00    -0.084 Cl
ATOM     24  C   UNL     1       4.612  -5.622   3.513  1.00  0.00     0.001 A 
ENDBRANCH  13  14
ENDBRANCH  12  13
ENDBRANCH  10  12
ENDBRANCH   7   8
BRANCH   7  25
ATOM     25  C   UNL     1       2.245   1.700  -3.182  1.00  0.00     0.072 C 
BRANCH  25  26
ATOM     26  C   UNL     1       3.557   2.179  -3.711  1.00  0.00    -0.020 A 
ATOM     27  C   UNL     1       4.224   3.339  -3.366  1.00  0.00     0.087 A 
ATOM     28  C   UNL     1       4.357   1.523  -4.696  1.00  0.00     0.003 A 
ATOM     29  N   UNL     1       5.435   3.341  -4.007  1.00  0.00    -0.361 N 
ATOM     30  C   UNL     1       5.582   2.186  -4.739  1.00  0.00     0.046 A 
ATOM     31  C   UNL     1       4.186   0.364  -5.479  1.00  0.00     0.010 A 
ATOM     32  H   UNL     1       6.102   4.062  -3.951  1.00  0.00     0.166 HD
ATOM     33  C   UNL     1       6.687   1.675  -5.426  1.00  0.00     0.026 A 
ATOM     34  C   UNL     1       5.284  -0.176  -6.147  1.00  0.00     0.001 A 
ATOM     35  C   UNL     1       6.521   0.462  -6.101  1.00  0.00     0.002 A 
ENDBRANCH  25  26
ENDBRANCH   7  25
ENDBRANCH   4   7
ENDBRANCH   2   3
ENDBRANCH   1   2
BRANCH   1  36
ATOM     36  C   UNL     1       6.823  -2.927  -3.043  1.00  0.00     0.002 C 
BRANCH  36  37
ATOM     37  C   UNL     1       7.631  -2.503  -4.278  1.00  0.00     0.002 C 
BRANCH  37  38
ATOM     38  C   UNL     1       8.698  -1.426  -4.106  1.00  0.00     0.021 C 
BRANCH  38  39
ATOM     39  C   UNL     1       9.897  -1.826  -3.258  1.00  0.00     0.116 C 
BRANCH  39  40
ATOM     40  N   UNL     1      10.828  -2.693  -3.974  1.00  0.00    -0.352 N 
ATOM     41  C   UNL     1      12.143  -2.490  -4.310  1.00  0.00     0.251 C 
ATOM     42  H   UNL     1      10.454  -3.557  -4.262  1.00  0.00     0.163 HD
ATOM     43  O   UNL     1      12.695  -3.260  -5.107  1.00  0.00    -0.269 OA
BRANCH  41  44
ATOM     44  C   UNL     1      12.922  -1.371  -3.733  1.00  0.00     0.039 A 
ATOM     45  C   UNL     1      13.915  -0.748  -4.500  1.00  0.00     0.014 A 
ATOM     46  C   UNL     1      12.727  -0.973  -2.409  1.00  0.00     0.014 A 
ATOM     47  C   UNL     1      14.692   0.274  -3.943  1.00  0.00     0.010 A 
ATOM     48  C   UNL     1      13.413   0.122  -1.897  1.00  0.00     0.010 A 
ATOM     49  C   UNL     1      14.443   0.718  -2.635  1.00  0.00    -0.014 A 
BRANCH  49  50
ATOM     50  C   UNL     1      15.320   1.711  -1.964  1.00  0.00     0.031 A 
ATOM     51  C   UNL     1      16.092   1.301  -0.734  1.00  0.00     0.074 A 
ATOM     52  C   UNL     1      15.386   2.978  -2.414  1.00  0.00     0.049 A 
ATOM     53  N   UNL     1      16.861   2.017   0.045  1.00  0.00    -0.248 NA
ATOM     54  C   UNL     1      15.938  -0.097  -0.295  1.00  0.00     0.031 C 
ATOM     55  C   UNL     1      14.656   3.507  -3.566  1.00  0.00     0.029 A 
ATOM     56  N   UNL     1      16.108   4.050  -1.954  1.00  0.00    -0.354 N 
ATOM     57  C   UNL     1      17.247   1.168   1.077  1.00  0.00     0.074 A 
ATOM     58  C   UNL     1      16.563  -0.087   0.870  1.00  0.00     0.031 C 
ATOM     59  C   UNL     1      15.005   4.791  -3.753  1.00  0.00     0.029 A 
ATOM     60  C   UNL     1      15.954   5.183  -2.715  1.00  0.00     0.049 A 
ATOM     61  H   UNL     1      16.681   4.010  -1.155  1.00  0.00     0.167 HD
ATOM     62  C   UNL     1      18.122   1.395   2.085  1.00  0.00     0.037 A 
ATOM     63  C   UNL     1      16.529   6.394  -2.592  1.00  0.00     0.037 A 
ATOM     64  C   UNL     1      18.835   2.632   2.254  1.00  0.00     0.049 A 
ATOM     65  C   UNL     1      17.509   6.626  -1.475  1.00  0.00     0.074 A 
ATOM     66  C   UNL     1      19.797   2.956   3.193  1.00  0.00     0.029 A 
ATOM     67  N   UNL     1      18.662   3.752   1.453  1.00  0.00    -0.354 N 
ATOM     68  N   UNL     1      17.916   5.796  -0.544  1.00  0.00    -0.248 NA
ATOM     69  C   UNL     1      18.116   7.961  -1.398  1.00  0.00     0.031 C 
ATOM     70  C   UNL     1      20.169   4.289   2.991  1.00  0.00     0.029 A 
ATOM     71  C   UNL     1      19.483   4.777   1.889  1.00  0.00     0.049 A 
ATOM     72  H   UNL     1      18.046   3.809   0.687  1.00  0.00     0.167 HD
ATOM     73  C   UNL     1      18.856   6.494   0.204  1.00  0.00     0.074 A 
ATOM     74  C   UNL     1      18.960   7.813  -0.387  1.00  0.00     0.031 C 
ATOM     75  C   UNL     1      19.575   6.080   1.278  1.00  0.00     0.037 A 
BRANCH  62  76
ATOM     76  C   UNL     1      18.340   0.280   3.072  1.00  0.00     0.057 A 
ATOM     77  C   UNL     1      18.939  -0.935   2.706  1.00  0.00     0.134 A 
ATOM     78  C   UNL     1      17.918   0.410   4.401  1.00  0.00     0.134 A 
ATOM     79  F   UNL     1      19.355  -1.136   1.446  1.00  0.00    -0.206 F 
ATOM     80  C   UNL     1      19.058  -1.996   3.607  1.00  0.00     0.040 A 
ATOM     81  C   UNL     1      18.066  -0.630   5.321  1.00  0.00     0.040 A 
ATOM     82  F   UNL     1      17.345   1.545   4.827  1.00  0.00    -0.206 F 
ATOM     83  C   UNL     1      18.622  -1.843   4.921  1.00  0.00     0.006 A 
ENDBRANCH  62  76
BRANCH  63  84
ATOM     84  C   UNL     1      16.250   7.449  -3.599  1.00  0.00     0.057 A 
ATOM     85  C   UNL     1      17.230   7.829  -4.524  1.00  0.00     0.134 A 
ATOM     86  C   UNL     1      15.006   8.085  -3.681  1.00  0.00     0.134 A 
ATOM     87  F   UNL     1      18.447   7.266  -4.487  1.00  0.00    -0.206 F 
ATOM     88  C   UNL     1      16.988   8.810  -5.487  1.00  0.00     0.040 A 
ATOM     89  C   UNL     1      14.743   9.052  -4.653  1.00  0.00     0.040 A 
ATOM     90  F   UNL     1      14.021   7.759  -2.831  1.00  0.00    -0.206 F 
ATOM     91  C   UNL     1      15.738   9.420  -5.557  1.00  0.00     0.006 A 
ENDBRANCH  63  84
BRANCH  75  92
ATOM     92  C   UNL     1      20.571   7.046   1.849  1.00  0.00     0.057 A 
ATOM     93  C   UNL     1      20.180   8.187   2.560  1.00  0.00     0.134 A 
ATOM     94  C   UNL     1      21.945   6.806   1.716  1.00  0.00     0.134 A 
ATOM     95  F   UNL     1      18.879   8.480   2.714  1.00  0.00    -0.206 F 
ATOM     96  C   UNL     1      21.119   9.071   3.093  1.00  0.00     0.040 A 
ATOM     97  C   UNL     1      22.894   7.666   2.270  1.00  0.00     0.040 A 
ATOM     98  F   UNL     1      22.388   5.725   1.056  1.00  0.00    -0.206 F 
ATOM     99  C   UNL     1      22.481   8.807   2.954  1.00  0.00     0.006 A 
ENDBRANCH  75  92
ENDBRANCH  49  50
ENDBRANCH  41  44
ENDBRANCH  39  40
ENDBRANCH  38  39
ENDBRANCH  37  38
ENDBRANCH  36  37
ENDBRANCH   1  36
TORSDOF 19
