REMARK SMILES Cc1cc2n(n1)[C@H](C(F)(F)F)CCN2C(=O)c1cnn([C@@H](C)C(=O)NCCCCCCNC(=O)c2ccc(-c3c4nc(c(-c5c(F)cccc5F)c5ccc([nH]5)c(-c5c(F)cccc5F)c5nc(c(-c6c(F)cccc6F)c6ccc3[nH]6)C=C5)C=C4)cc2)c1
REMARK SMILES IDX 27 1 26 2 25 3 23 4 24 5 21 7 22 8 20 9 17 10 18 11 89 12
REMARK SMILES IDX 19 13 15 14 16 15 14 16 1 17 2 18 3 19 6 20 4 21 5 22 7 23
REMARK SMILES IDX 13 24 12 25 8 26 9 27 10 28 11 29 28 30 29 31 30 32 31 33
REMARK SMILES IDX 32 34 33 35 34 37 35 38 36 39 88 40 37 41 87 42 38 43 39 44
REMARK SMILES IDX 40 45 81 46 41 47 86 48 80 49 82 50 42 51 85 52 79 53 78 54
REMARK SMILES IDX 43 56 69 57 52 58 68 59 53 60 56 61 67 62 83 63 54 64 55 65
REMARK SMILES IDX 66 67 84 68 57 69 44 70 45 71 50 72 46 73 47 74 49 75 51 76
REMARK SMILES IDX 48 77 70 78 71 79 76 80 72 81 73 82 75 83 77 84 74 85 58 86
REMARK SMILES IDX 59 87 64 88 60 89 61 90 63 91 65 92 62 93
REMARK H PARENT 25 6 32 36 82 55 56 66
REMARK Flexibility Score: inf
ROOT
ATOM      1  C   UNL     1      -5.334  -1.698   9.458  1.00  0.00     0.021 C 
ENDROOT
BRANCH   1   2
ATOM      2  C   UNL     1      -4.258  -1.935  10.522  1.00  0.00     0.116 C 
BRANCH   2   3
ATOM      3  N   UNL     1      -3.685  -3.264  10.421  1.00  0.00    -0.354 N 
ATOM      4  C   UNL     1      -2.461  -3.676   9.990  1.00  0.00     0.244 C 
ATOM      5  O   UNL     1      -2.294  -4.897   9.879  1.00  0.00    -0.273 OA
ATOM      6  H   UNL     1      -4.282  -3.990  10.713  1.00  0.00     0.163 HD
BRANCH   4   7
ATOM      7  C   UNL     1      -1.304  -2.729   9.685  1.00  0.00     0.193 C 
ATOM      8  C   UNL     1      -0.866  -1.863  10.862  1.00  0.00     0.044 C 
BRANCH   7   9
ATOM      9  N   UNL     1      -1.487  -2.003   8.432  1.00  0.00    -0.260 N 
ATOM     10  C   UNL     1      -1.285  -1.275   6.355  1.00  0.00     0.078 A 
ATOM     11  C   UNL     1      -2.393  -0.718   7.018  1.00  0.00     0.149 A 
ATOM     12  C   UNL     1      -0.746  -2.143   7.289  1.00  0.00     0.123 A 
ATOM     13  N   UNL     1      -2.421  -1.039   8.307  1.00  0.00    -0.180 NA
BRANCH  10  14
ATOM     14  C   UNL     1      -0.856  -1.116   4.994  1.00  0.00     0.262 C 
ATOM     15  O   UNL     1      -0.673  -2.064   4.236  1.00  0.00    -0.269 OA
BRANCH  14  16
ATOM     16  N   UNL     1      -0.587   0.261   4.591  1.00  0.00    -0.293 N 
ATOM     17  C   UNL     1       0.937   0.146  -0.201  1.00  0.00     0.069 C 
ATOM     18  C   UNL     1       0.502   0.536   1.161  1.00  0.00     0.062 A 
ATOM     19  C   UNL     1       0.040  -0.307   2.203  1.00  0.00     0.072 A 
ATOM     20  N   UNL     1       0.533   1.818   1.544  1.00  0.00    -0.176 NA
ATOM     21  C   UNL     1      -0.153   0.522   3.284  1.00  0.00     0.134 A 
ATOM     22  N   UNL     1       0.200   1.767   2.839  1.00  0.00    -0.237 N 
ATOM     23  C   UNL     1       0.169   2.963   3.650  1.00  0.00     0.216 C 
ATOM     24  C   UNL     1      -0.529   1.391   5.560  1.00  0.00     0.130 C 
ATOM     25  C   UNL     1      -0.740   2.745   4.868  1.00  0.00     0.059 C 
BRANCH  23  26
ATOM     26  C   UNL     1       1.568   3.370   4.058  1.00  0.00     0.410 C 
ATOM     27  F   UNL     1       2.109   2.475   4.916  1.00  0.00    -0.169 F 
ATOM     28  F   UNL     1       2.412   3.518   3.022  1.00  0.00    -0.169 F 
ATOM     29  F   UNL     1       1.522   4.559   4.709  1.00  0.00    -0.169 F 
ENDBRANCH  23  26
ENDBRANCH  14  16
ENDBRANCH  10  14
ENDBRANCH   7   9
ENDBRANCH   4   7
ENDBRANCH   2   3
ENDBRANCH   1   2
BRANCH   1  30
ATOM     30  C   UNL     1      -6.679  -2.365   9.757  1.00  0.00     0.002 C 
BRANCH  30  31
ATOM     31  C   UNL     1      -7.292  -2.053  11.130  1.00  0.00     0.002 C 
BRANCH  31  32
ATOM     32  C   UNL     1      -7.383  -0.570  11.523  1.00  0.00     0.021 C 
BRANCH  32  33
ATOM     33  C   UNL     1      -8.331   0.245  10.657  1.00  0.00     0.116 C 
BRANCH  33  34
ATOM     34  N   UNL     1      -9.721  -0.187  10.787  1.00  0.00    -0.352 N 
ATOM     35  C   UNL     1     -10.820   0.222  10.059  1.00  0.00     0.251 C 
ATOM     36  H   UNL     1      -9.897  -0.858  11.485  1.00  0.00     0.163 HD
ATOM     37  O   UNL     1     -11.959   0.046  10.474  1.00  0.00    -0.269 OA
BRANCH  35  38
ATOM     38  C   UNL     1     -10.595   0.889   8.766  1.00  0.00     0.039 A 
ATOM     39  C   UNL     1     -11.310   2.032   8.401  1.00  0.00     0.014 A 
ATOM     40  C   UNL     1      -9.603   0.375   7.940  1.00  0.00     0.014 A 
ATOM     41  C   UNL     1     -10.954   2.703   7.232  1.00  0.00     0.010 A 
ATOM     42  C   UNL     1      -9.141   1.131   6.894  1.00  0.00     0.010 A 
ATOM     43  C   UNL     1      -9.849   2.259   6.488  1.00  0.00    -0.014 A 
BRANCH  43  44
ATOM     44  C   UNL     1      -9.398   2.986   5.303  1.00  0.00     0.031 A 
ATOM     45  C   UNL     1      -9.155   4.452   5.460  1.00  0.00     0.074 A 
ATOM     46  C   UNL     1      -9.011   2.356   4.172  1.00  0.00     0.049 A 
ATOM     47  N   UNL     1      -9.710   5.427   4.817  1.00  0.00    -0.248 NA
ATOM     48  C   UNL     1      -8.208   4.890   6.497  1.00  0.00     0.031 C 
ATOM     49  C   UNL     1      -8.876   0.915   3.911  1.00  0.00     0.029 A 
ATOM     50  N   UNL     1      -8.546   2.909   3.021  1.00  0.00    -0.354 N 
ATOM     51  C   UNL     1      -9.091   6.598   5.256  1.00  0.00     0.074 A 
ATOM     52  C   UNL     1      -8.249   6.217   6.361  1.00  0.00     0.031 C 
ATOM     53  C   UNL     1      -8.146   0.723   2.792  1.00  0.00     0.029 A 
ATOM     54  C   UNL     1      -7.944   2.009   2.156  1.00  0.00     0.049 A 
ATOM     55  H   UNL     1      -8.629   3.869   2.818  1.00  0.00     0.167 HD
ATOM     56  C   UNL     1      -9.197   7.774   4.574  1.00  0.00     0.037 A 
ATOM     57  C   UNL     1      -7.312   2.298   0.997  1.00  0.00     0.037 A 
ATOM     58  C   UNL     1     -10.299   7.749   3.649  1.00  0.00     0.049 A 
ATOM     59  C   UNL     1      -7.785   3.632   0.557  1.00  0.00     0.074 A 
ATOM     60  C   UNL     1     -11.667   7.608   3.775  1.00  0.00     0.029 A 
ATOM     61  N   UNL     1     -10.033   7.532   2.320  1.00  0.00    -0.354 N 
ATOM     62  N   UNL     1      -9.004   3.879   0.167  1.00  0.00    -0.248 NA
ATOM     63  C   UNL     1      -7.014   4.793   0.972  1.00  0.00     0.031 C 
ATOM     64  C   UNL     1     -12.057   6.813   2.656  1.00  0.00     0.029 A 
ATOM     65  C   UNL     1     -10.912   6.567   1.897  1.00  0.00     0.049 A 
ATOM     66  H   UNL     1      -9.346   7.981   1.776  1.00  0.00     0.167 HD
ATOM     67  C   UNL     1      -9.292   5.139   0.669  1.00  0.00     0.074 A 
ATOM     68  C   UNL     1      -7.999   5.689   1.072  1.00  0.00     0.031 C 
ATOM     69  C   UNL     1     -10.571   5.513   0.969  1.00  0.00     0.037 A 
BRANCH  56  70
ATOM     70  C   UNL     1      -8.143   8.852   4.533  1.00  0.00     0.057 A 
ATOM     71  C   UNL     1      -8.441  10.103   3.961  1.00  0.00     0.134 A 
ATOM     72  C   UNL     1      -6.776   8.620   4.782  1.00  0.00     0.134 A 
ATOM     73  F   UNL     1      -9.704  10.440   3.657  1.00  0.00    -0.206 F 
ATOM     74  C   UNL     1      -7.448  11.027   3.609  1.00  0.00     0.040 A 
ATOM     75  C   UNL     1      -5.781   9.556   4.481  1.00  0.00     0.040 A 
ATOM     76  F   UNL     1      -6.324   7.443   5.234  1.00  0.00    -0.206 F 
ATOM     77  C   UNL     1      -6.111  10.752   3.865  1.00  0.00     0.006 A 
ENDBRANCH  56  70
BRANCH  57  78
ATOM     78  C   UNL     1      -6.138   1.619   0.413  1.00  0.00     0.057 A 
ATOM     79  C   UNL     1      -5.821   1.759  -0.942  1.00  0.00     0.134 A 
ATOM     80  C   UNL     1      -5.152   1.032   1.227  1.00  0.00     0.134 A 
ATOM     81  F   UNL     1      -6.686   2.341  -1.785  1.00  0.00    -0.206 F 
ATOM     82  C   UNL     1      -4.581   1.362  -1.457  1.00  0.00     0.040 A 
ATOM     83  C   UNL     1      -3.913   0.623   0.724  1.00  0.00     0.040 A 
ATOM     84  F   UNL     1      -5.320   0.921   2.554  1.00  0.00    -0.206 F 
ATOM     85  C   UNL     1      -3.618   0.803  -0.621  1.00  0.00     0.006 A 
ENDBRANCH  57  78
BRANCH  69  86
ATOM     86  C   UNL     1     -11.695   4.613   0.529  1.00  0.00     0.057 A 
ATOM     87  C   UNL     1     -11.878   3.303   0.999  1.00  0.00     0.134 A 
ATOM     88  C   UNL     1     -12.719   5.143  -0.264  1.00  0.00     0.134 A 
ATOM     89  F   UNL     1     -11.008   2.743   1.847  1.00  0.00    -0.206 F 
ATOM     90  C   UNL     1     -13.002   2.543   0.662  1.00  0.00     0.040 A 
ATOM     91  C   UNL     1     -13.863   4.407  -0.582  1.00  0.00     0.040 A 
ATOM     92  F   UNL     1     -12.647   6.410  -0.701  1.00  0.00    -0.206 F 
ATOM     93  C   UNL     1     -14.004   3.098  -0.127  1.00  0.00     0.006 A 
ENDBRANCH  69  86
ENDBRANCH  43  44
ENDBRANCH  35  38
ENDBRANCH  33  34
ENDBRANCH  32  33
ENDBRANCH  31  32
ENDBRANCH  30  31
ENDBRANCH   1  30
TORSDOF 17
