REMARK SMILES Cc1ncc(C(=O)NCCCCCCNC(=O)c2ccc(-c3c4nc(c(-c5c(F)cccc5F)c5ccc([nH]5)c(-c5c(F)cccc5F)c5nc(c(-c6c(F)cccc6F)c6ccc3[nH]6)C=C5)C=C4)cc2)cc1C#N
REMARK SMILES IDX 12 1 11 2 10 3 9 4 8 5 6 6 7 7 5 9 1 10 2 11 3 12 73 13 4 14
REMARK SMILES IDX 72 15 74 16 75 17 13 18 14 19 15 20 16 21 17 23 18 24 19 25
REMARK SMILES IDX 71 26 20 27 70 28 21 29 22 30 23 31 64 32 24 33 69 34 63 35
REMARK SMILES IDX 65 36 25 37 68 38 62 39 61 40 26 42 52 43 35 44 51 45 36 46
REMARK SMILES IDX 39 47 50 48 66 49 37 50 38 51 49 53 67 54 40 55 27 56 28 57
REMARK SMILES IDX 33 58 29 59 30 60 32 61 34 62 31 63 53 64 54 65 59 66 55 67
REMARK SMILES IDX 56 68 58 69 60 70 57 71 41 72 42 73 47 74 43 75 44 76 46 77
REMARK SMILES IDX 48 78 45 79
REMARK H PARENT 8 8 15 22 65 41 39 52
REMARK Flexibility Score: inf
ROOT
ATOM      1  C   UNL     1       1.107   9.327  -2.095  1.00  0.00     0.002 C 
ENDROOT
BRANCH   1   2
ATOM      2  C   UNL     1       1.739   8.188  -2.908  1.00  0.00     0.002 C 
BRANCH   2   3
ATOM      3  C   UNL     1       1.817   6.849  -2.161  1.00  0.00     0.021 C 
BRANCH   3   4
ATOM      4  C   UNL     1       0.437   6.337  -1.745  1.00  0.00     0.116 C 
BRANCH   4   5
ATOM      5  N   UNL     1      -0.170   5.613  -2.841  1.00  0.00    -0.352 N 
ATOM      6  C   UNL     1      -0.314   4.287  -3.138  1.00  0.00     0.252 C 
ATOM      7  O   UNL     1      -0.875   4.016  -4.201  1.00  0.00    -0.269 OA
ATOM      8  H   UNL     1      -0.564   6.205  -3.521  1.00  0.00     0.163 HD
BRANCH   6   9
ATOM      9  C   UNL     1       0.114   3.171  -2.257  1.00  0.00     0.059 A 
ATOM     10  C   UNL     1       0.906  -0.359   0.035  1.00  0.00     0.068 C 
ATOM     11  C   UNL     1       0.645   0.903  -0.735  1.00  0.00     0.055 A 
ATOM     12  N   UNL     1      -0.155   0.788  -1.822  1.00  0.00    -0.259 NA
ATOM     13  C   UNL     1       1.210   2.121  -0.365  1.00  0.00     0.074 A 
ATOM     14  C   UNL     1      -0.411   1.913  -2.542  1.00  0.00     0.125 A 
ATOM     15  C   UNL     1       0.984   3.244  -1.172  1.00  0.00     0.036 A 
BRANCH  13  16
ATOM     16  C   UNL     1       1.982   2.266   0.834  1.00  0.00     0.101 C 
ATOM     17  N   UNL     1       2.578   2.419   1.815  1.00  0.00    -0.192 NA
ENDBRANCH  13  16
ENDBRANCH   6   9
ENDBRANCH   4   5
ENDBRANCH   3   4
ENDBRANCH   2   3
ENDBRANCH   1   2
BRANCH   1  18
ATOM     18  C   UNL     1       1.758   9.556  -0.730  1.00  0.00     0.021 C 
BRANCH  18  19
ATOM     19  C   UNL     1       3.224   9.954  -0.832  1.00  0.00     0.116 C 
BRANCH  19  20
ATOM     20  N   UNL     1       3.370  11.235  -1.508  1.00  0.00    -0.352 N 
ATOM     21  C   UNL     1       3.821  12.421  -0.989  1.00  0.00     0.251 C 
ATOM     22  H   UNL     1       3.112  11.252  -2.458  1.00  0.00     0.163 HD
ATOM     23  O   UNL     1       3.643  13.481  -1.575  1.00  0.00    -0.269 OA
BRANCH  21  24
ATOM     24  C   UNL     1       4.524  12.388   0.304  1.00  0.00     0.039 A 
ATOM     25  C   UNL     1       4.111  13.239   1.329  1.00  0.00     0.014 A 
ATOM     26  C   UNL     1       5.565  11.474   0.498  1.00  0.00     0.014 A 
ATOM     27  C   UNL     1       4.725  13.145   2.577  1.00  0.00     0.010 A 
ATOM     28  C   UNL     1       6.124  11.332   1.760  1.00  0.00     0.010 A 
ATOM     29  C   UNL     1       5.722  12.181   2.802  1.00  0.00    -0.014 A 
BRANCH  29  30
ATOM     30  C   UNL     1       6.413  12.099   4.107  1.00  0.00     0.031 A 
ATOM     31  C   UNL     1       7.857  12.499   4.197  1.00  0.00     0.074 A 
ATOM     32  C   UNL     1       5.757  11.648   5.192  1.00  0.00     0.049 A 
ATOM     33  N   UNL     1       8.655  12.492   5.234  1.00  0.00    -0.248 NA
ATOM     34  C   UNL     1       8.494  12.953   2.950  1.00  0.00     0.031 C 
ATOM     35  C   UNL     1       4.361  11.212   5.219  1.00  0.00     0.029 A 
ATOM     36  N   UNL     1       6.186  11.480   6.483  1.00  0.00    -0.354 N 
ATOM     37  C   UNL     1       9.880  12.946   4.766  1.00  0.00     0.074 A 
ATOM     38  C   UNL     1       9.743  13.150   3.341  1.00  0.00     0.031 C 
ATOM     39  C   UNL     1       4.042  10.846   6.471  1.00  0.00     0.029 A 
ATOM     40  C   UNL     1       5.219  10.986   7.324  1.00  0.00     0.049 A 
ATOM     41  H   UNL     1       7.100  11.694   6.780  1.00  0.00     0.167 HD
ATOM     42  C   UNL     1      11.011  13.198   5.465  1.00  0.00     0.037 A 
ATOM     43  C   UNL     1       5.286  10.674   8.632  1.00  0.00     0.037 A 
ATOM     44  C   UNL     1      11.146  12.978   6.880  1.00  0.00     0.049 A 
ATOM     45  C   UNL     1       6.584  10.887   9.368  1.00  0.00     0.074 A 
ATOM     46  C   UNL     1      12.240  13.224   7.689  1.00  0.00     0.029 A 
ATOM     47  N   UNL     1      10.158  12.443   7.693  1.00  0.00    -0.354 N 
ATOM     48  N   UNL     1       7.717  11.382   8.931  1.00  0.00    -0.248 NA
ATOM     49  C   UNL     1       6.607  10.500  10.785  1.00  0.00     0.031 C 
ATOM     50  C   UNL     1      11.939  12.771   8.977  1.00  0.00     0.029 A 
ATOM     51  C   UNL     1      10.630  12.316   8.988  1.00  0.00     0.049 A 
ATOM     52  H   UNL     1       9.254  12.191   7.393  1.00  0.00     0.167 HD
ATOM     53  C   UNL     1       8.573  11.399  10.026  1.00  0.00     0.074 A 
ATOM     54  C   UNL     1       7.820  10.886  11.151  1.00  0.00     0.031 C 
ATOM     55  C   UNL     1       9.867  11.802  10.098  1.00  0.00     0.037 A 
BRANCH  42  56
ATOM     56  C   UNL     1      12.190  13.721   4.698  1.00  0.00     0.057 A 
ATOM     57  C   UNL     1      13.346  12.945   4.547  1.00  0.00     0.134 A 
ATOM     58  C   UNL     1      12.190  14.997   4.116  1.00  0.00     0.134 A 
ATOM     59  F   UNL     1      13.418  11.717   5.083  1.00  0.00    -0.206 F 
ATOM     60  C   UNL     1      14.455  13.416   3.844  1.00  0.00     0.040 A 
ATOM     61  C   UNL     1      13.280  15.465   3.381  1.00  0.00     0.040 A 
ATOM     62  F   UNL     1      11.110  15.788   4.210  1.00  0.00    -0.206 F 
ATOM     63  C   UNL     1      14.420  14.676   3.249  1.00  0.00     0.006 A 
ENDBRANCH  42  56
BRANCH  43  64
ATOM     64  C   UNL     1       4.102  10.125   9.342  1.00  0.00     0.057 A 
ATOM     65  C   UNL     1       3.597   8.853   9.046  1.00  0.00     0.134 A 
ATOM     66  C   UNL     1       3.487  10.834  10.382  1.00  0.00     0.134 A 
ATOM     67  F   UNL     1       4.132   8.124   8.055  1.00  0.00    -0.206 F 
ATOM     68  C   UNL     1       2.533   8.302   9.763  1.00  0.00     0.040 A 
ATOM     69  C   UNL     1       2.446  10.281  11.129  1.00  0.00     0.040 A 
ATOM     70  F   UNL     1       3.935  12.050  10.726  1.00  0.00    -0.206 F 
ATOM     71  C   UNL     1       1.966   9.011  10.819  1.00  0.00     0.006 A 
ENDBRANCH  43  64
BRANCH  55  72
ATOM     72  C   UNL     1      10.530  11.745  11.445  1.00  0.00     0.057 A 
ATOM     73  C   UNL     1      10.893  12.924  12.110  1.00  0.00     0.134 A 
ATOM     74  C   UNL     1      10.826  10.531  12.081  1.00  0.00     0.134 A 
ATOM     75  F   UNL     1      10.654  14.122  11.555  1.00  0.00    -0.206 F 
ATOM     76  C   UNL     1      11.520  12.899  13.356  1.00  0.00     0.040 A 
ATOM     77  C   UNL     1      11.418  10.494  13.345  1.00  0.00     0.040 A 
ATOM     78  F   UNL     1      10.500   9.364  11.505  1.00  0.00    -0.206 F 
ATOM     79  C   UNL     1      11.771  11.681  13.983  1.00  0.00     0.006 A 
ENDBRANCH  55  72
ENDBRANCH  29  30
ENDBRANCH  21  24
ENDBRANCH  19  20
ENDBRANCH  18  19
ENDBRANCH   1  18
TORSDOF 14
