REMARK SMILES Cc1cc(C)cc(OCC(=O)Nc2ccc(O)cc2C(=O)NCCCCCCNC(=O)c2ccc(-c3c4nc(c(-c5c(F)cccc5F)c5ccc([nH]5)c(-c5c(F)cccc5F)c5nc(c(-c6c(F)cccc6F)c6ccc3[nH]6)C=C5)C=C4)cc2)c1
REMARK SMILES IDX 24 1 23 2 22 3 20 4 21 5 19 7 13 8 14 9 15 10 18 11 16 12
REMARK SMILES IDX 12 13 10 14 11 15 9 17 8 18 7 19 1 20 2 21 3 22 86 23 4 24
REMARK SMILES IDX 5 25 6 26 17 27 25 29 26 30 27 31 28 32 29 33 30 34 31 36
REMARK SMILES IDX 32 37 33 38 85 39 34 40 84 41 35 42 36 43 37 44 78 45 38 46
REMARK SMILES IDX 83 47 77 48 79 49 39 50 82 51 76 52 75 53 40 55 66 56 49 57
REMARK SMILES IDX 65 58 50 59 53 60 64 61 80 62 51 63 52 64 63 66 81 67 54 68
REMARK SMILES IDX 41 69 42 70 47 71 43 72 44 73 46 74 48 75 45 76 67 77 68 78
REMARK SMILES IDX 73 79 69 80 70 81 72 82 74 83 71 84 55 85 56 86 61 87 57 88
REMARK SMILES IDX 58 89 60 90 62 91 59 92
REMARK H PARENT 22 6 12 16 17 28 29 35 79 54 53 65
REMARK Flexibility Score: inf
ROOT
ATOM      1  C   UNL     1       4.295  -5.599  -2.647  1.00  0.00     0.021 C 
ENDROOT
BRANCH   1   2
ATOM      2  C   UNL     1       2.934  -5.040  -3.034  1.00  0.00     0.116 C 
BRANCH   2   3
ATOM      3  N   UNL     1       2.288  -5.591  -4.198  1.00  0.00    -0.352 N 
ATOM      4  C   UNL     1       0.958  -5.623  -4.563  1.00  0.00     0.253 C 
ATOM      5  O   UNL     1       0.709  -6.077  -5.683  1.00  0.00    -0.269 OA
ATOM      6  H   UNL     1       2.899  -6.016  -4.842  1.00  0.00     0.163 HD
BRANCH   4   7
ATOM      7  C   UNL     1      -0.202  -5.216  -3.695  1.00  0.00     0.067 A 
ATOM      8  C   UNL     1      -0.273  -4.155  -2.770  1.00  0.00     0.054 A 
ATOM      9  C   UNL     1      -1.462  -3.918  -2.057  1.00  0.00     0.031 A 
ATOM     10  C   UNL     1      -2.589  -4.713  -2.243  1.00  0.00     0.048 A 
ATOM     11  C   UNL     1      -1.358  -6.008  -3.867  1.00  0.00     0.062 A 
ATOM     12  C   UNL     1      -2.527  -5.753  -3.153  1.00  0.00     0.116 A 
BRANCH   8  13
ATOM     13  N   UNL     1       0.758  -3.224  -2.617  1.00  0.00    -0.322 N 
ATOM     14  C   UNL     1       1.394  -2.861  -1.455  1.00  0.00     0.262 C 
ATOM     15  O   UNL     1       2.417  -2.174  -1.556  1.00  0.00    -0.271 OA
ATOM     16  H   UNL     1       1.065  -2.776  -3.438  1.00  0.00     0.170 HD
BRANCH  14  17
ATOM     17  C   UNL     1       0.968  -3.451  -0.083  1.00  0.00     0.329 C 
BRANCH  17  18
ATOM     18  O   UNL     1      -0.054  -2.821   0.679  1.00  0.00    -0.484 OA
BRANCH  18  19
ATOM     19  C   UNL     1      -0.015  -1.455   0.630  1.00  0.00     0.120 A 
ATOM     20  C   UNL     1       2.432   1.405   0.213  1.00  0.00     0.044 C 
ATOM     21  C   UNL     1       1.145   0.647   0.349  1.00  0.00    -0.047 A 
ATOM     22  C   UNL     1      -0.087   1.278   0.138  1.00  0.00     0.007 A 
ATOM     23  C   UNL     1       1.165  -0.714   0.660  1.00  0.00     0.049 A 
ATOM     24  C   UNL     1      -1.287   0.556   0.211  1.00  0.00    -0.047 A 
ATOM     25  C   UNL     1      -2.598   1.246  -0.008  1.00  0.00     0.044 C 
ATOM     26  C   UNL     1      -1.241  -0.816   0.469  1.00  0.00     0.049 A 
ENDBRANCH  18  19
ENDBRANCH  17  18
ENDBRANCH  14  17
ENDBRANCH   8  13
BRANCH  12  27
ATOM     27  O   UNL     1      -3.610  -6.545  -3.391  1.00  0.00    -0.508 OA
ATOM     28  H   UNL     1      -4.410  -6.397  -2.926  1.00  0.00     0.293 HD
ENDBRANCH  12  27
ENDBRANCH   4   7
ENDBRANCH   2   3
ENDBRANCH   1   2
BRANCH   1  29
ATOM     29  C   UNL     1       5.455  -5.356  -3.614  1.00  0.00     0.002 C 
BRANCH  29  30
ATOM     30  C   UNL     1       5.667  -3.935  -4.148  1.00  0.00     0.002 C 
BRANCH  30  31
ATOM     31  C   UNL     1       5.762  -2.792  -3.135  1.00  0.00     0.021 C 
BRANCH  31  32
ATOM     32  C   UNL     1       6.728  -2.977  -1.971  1.00  0.00     0.116 C 
BRANCH  32  33
ATOM     33  N   UNL     1       8.096  -3.227  -2.391  1.00  0.00    -0.352 N 
ATOM     34  C   UNL     1       9.264  -2.626  -1.998  1.00  0.00     0.251 C 
ATOM     35  H   UNL     1       8.200  -3.939  -3.064  1.00  0.00     0.163 HD
ATOM     36  O   UNL     1      10.318  -2.911  -2.569  1.00  0.00    -0.269 OA
BRANCH  34  37
ATOM     37  C   UNL     1       9.276  -1.620  -0.912  1.00  0.00     0.039 A 
ATOM     38  C   UNL     1      10.066  -0.476  -1.069  1.00  0.00     0.014 A 
ATOM     39  C   UNL     1       8.545  -1.802   0.265  1.00  0.00     0.014 A 
ATOM     40  C   UNL     1      10.076   0.506  -0.075  1.00  0.00     0.010 A 
ATOM     41  C   UNL     1       8.495  -0.787   1.219  1.00  0.00     0.010 A 
ATOM     42  C   UNL     1       9.265   0.375   1.063  1.00  0.00    -0.014 A 
BRANCH  42  43
ATOM     43  C   UNL     1       9.216   1.442   2.096  1.00  0.00     0.031 A 
ATOM     44  C   UNL     1       9.697   1.175   3.495  1.00  0.00     0.074 A 
ATOM     45  C   UNL     1       8.693   2.644   1.786  1.00  0.00     0.049 A 
ATOM     46  N   UNL     1       9.717   1.975   4.532  1.00  0.00    -0.248 NA
ATOM     47  C   UNL     1      10.199  -0.179   3.772  1.00  0.00     0.031 C 
ATOM     48  C   UNL     1       8.155   3.020   0.478  1.00  0.00     0.029 A 
ATOM     49  N   UNL     1       8.530   3.773   2.550  1.00  0.00    -0.354 N 
ATOM     50  C   UNL     1      10.224   1.220   5.582  1.00  0.00     0.074 A 
ATOM     51  C   UNL     1      10.435  -0.118   5.073  1.00  0.00     0.031 C 
ATOM     52  C   UNL     1       7.761   4.302   0.517  1.00  0.00     0.029 A 
ATOM     53  C   UNL     1       7.981   4.827   1.861  1.00  0.00     0.049 A 
ATOM     54  H   UNL     1       8.782   3.822   3.500  1.00  0.00     0.167 HD
ATOM     55  C   UNL     1      10.513   1.609   6.848  1.00  0.00     0.037 A 
ATOM     56  C   UNL     1       7.692   6.078   2.266  1.00  0.00     0.037 A 
ATOM     57  C   UNL     1      10.305   2.943   7.351  1.00  0.00     0.049 A 
ATOM     58  C   UNL     1       7.984   6.480   3.685  1.00  0.00     0.074 A 
ATOM     59  C   UNL     1      10.610   3.453   8.601  1.00  0.00     0.029 A 
ATOM     60  N   UNL     1       9.726   3.977   6.629  1.00  0.00    -0.354 N 
ATOM     61  N   UNL     1       8.529   5.777   4.649  1.00  0.00    -0.248 NA
ATOM     62  C   UNL     1       7.623   7.851   4.070  1.00  0.00     0.031 C 
ATOM     63  C   UNL     1      10.166   4.779   8.653  1.00  0.00     0.029 A 
ATOM     64  C   UNL     1       9.637   5.114   7.417  1.00  0.00     0.049 A 
ATOM     65  H   UNL     1       9.424   3.913   5.694  1.00  0.00     0.167 HD
ATOM     66  C   UNL     1       8.606   6.628   5.744  1.00  0.00     0.074 A 
ATOM     67  C   UNL     1       8.060   7.902   5.321  1.00  0.00     0.031 C 
ATOM     68  C   UNL     1       9.089   6.377   6.986  1.00  0.00     0.037 A 
BRANCH  55  69
ATOM     69  C   UNL     1      11.076   0.565   7.772  1.00  0.00     0.057 A 
ATOM     70  C   UNL     1      12.348   0.007   7.575  1.00  0.00     0.134 A 
ATOM     71  C   UNL     1      10.336   0.103   8.868  1.00  0.00     0.134 A 
ATOM     72  F   UNL     1      13.107   0.396   6.539  1.00  0.00    -0.206 F 
ATOM     73  C   UNL     1      12.840  -1.005   8.401  1.00  0.00     0.040 A 
ATOM     74  C   UNL     1      10.833  -0.884   9.722  1.00  0.00     0.040 A 
ATOM     75  F   UNL     1       9.117   0.599   9.127  1.00  0.00    -0.206 F 
ATOM     76  C   UNL     1      12.082  -1.452   9.480  1.00  0.00     0.006 A 
ENDBRANCH  55  69
BRANCH  56  77
ATOM     77  C   UNL     1       7.139   7.058   1.297  1.00  0.00     0.057 A 
ATOM     78  C   UNL     1       7.917   8.128   0.840  1.00  0.00     0.134 A 
ATOM     79  C   UNL     1       5.838   6.943   0.793  1.00  0.00     0.134 A 
ATOM     80  F   UNL     1       9.165   8.300   1.301  1.00  0.00    -0.206 F 
ATOM     81  C   UNL     1       7.419   9.055  -0.076  1.00  0.00     0.040 A 
ATOM     82  C   UNL     1       5.336   7.850  -0.142  1.00  0.00     0.040 A 
ATOM     83  F   UNL     1       5.045   5.936   1.186  1.00  0.00    -0.206 F 
ATOM     84  C   UNL     1       6.126   8.913  -0.576  1.00  0.00     0.006 A 
ENDBRANCH  56  77
BRANCH  68  85
ATOM     85  C   UNL     1       9.080   7.513   7.969  1.00  0.00     0.057 A 
ATOM     86  C   UNL     1       7.893   7.999   8.532  1.00  0.00     0.134 A 
ATOM     87  C   UNL     1      10.280   8.105   8.384  1.00  0.00     0.134 A 
ATOM     88  F   UNL     1       6.707   7.486   8.168  1.00  0.00    -0.206 F 
ATOM     89  C   UNL     1       7.898   9.049   9.453  1.00  0.00     0.040 A 
ATOM     90  C   UNL     1      10.300   9.135   9.326  1.00  0.00     0.040 A 
ATOM     91  F   UNL     1      11.454   7.683   7.891  1.00  0.00    -0.206 F 
ATOM     92  C   UNL     1       9.106   9.614   9.858  1.00  0.00     0.006 A 
ENDBRANCH  68  85
ENDBRANCH  42  43
ENDBRANCH  34  37
ENDBRANCH  32  33
ENDBRANCH  31  32
ENDBRANCH  30  31
ENDBRANCH  29  30
ENDBRANCH   1  29
TORSDOF 18
