REMARK SMILES Cc1c(C(=O)NCCCCCCNC(=O)c2ccc(-c3c4nc(c(-c5c(F)cccc5F)c5ccc([nH]5)c(-c5c(F)cccc5F)c5nc(c(-c6c(F)cccc6F)c6ccc3[nH]6)C=C5)C=C4)cc2)oc2c1/C(=N/NC(=O)C(c1ccccc1)c1ccccc1)CCC2
REMARK SMILES IDX 9 1 8 2 7 3 6 4 4 5 5 6 3 8 1 9 2 10 72 11 70 12 71 13 73 14
REMARK SMILES IDX 93 15 74 16 91 17 92 18 75 19 76 20 77 22 78 23 79 24 80 25
REMARK SMILES IDX 84 26 81 27 83 28 82 29 85 30 86 31 90 32 87 33 89 34 88 35
REMARK SMILES IDX 10 36 11 37 12 38 13 39 14 40 15 42 16 43 17 44 69 45 18 46
REMARK SMILES IDX 68 47 19 48 20 49 21 50 62 51 22 52 67 53 61 54 63 55 23 56
REMARK SMILES IDX 66 57 60 58 59 59 24 61 50 62 33 63 49 64 34 65 37 66 48 67
REMARK SMILES IDX 64 68 35 69 36 70 47 72 65 73 38 74 25 75 26 76 31 77 27 78
REMARK SMILES IDX 28 79 30 80 32 81 29 82 51 83 52 84 57 85 53 86 54 87 56 88
REMARK SMILES IDX 58 89 55 90 39 91 40 92 45 93 41 94 42 95 44 96 46 97 43 98
REMARK H PARENT 6 7 75 21 13 41 63 60 37 71
REMARK Flexibility Score: inf
ROOT
ATOM      1  C   UNL     1       3.767  -7.263  -1.844  1.00  0.00     0.002 C 
ENDROOT
BRANCH   1   2
ATOM      2  C   UNL     1       2.568  -6.505  -1.262  1.00  0.00     0.021 C 
BRANCH   2   3
ATOM      3  C   UNL     1       2.970  -5.503  -0.176  1.00  0.00     0.116 C 
BRANCH   3   4
ATOM      4  N   UNL     1       3.552  -4.279  -0.737  1.00  0.00    -0.349 N 
ATOM      5  C   UNL     1       3.018  -3.004  -0.901  1.00  0.00     0.287 C 
ATOM      6  O   UNL     1       3.773  -2.116  -1.298  1.00  0.00    -0.266 OA
ATOM      7  H   UNL     1       4.479  -4.375  -1.052  1.00  0.00     0.163 HD
BRANCH   5   8
ATOM      8  C   UNL     1       1.637  -2.777  -0.529  1.00  0.00     0.195 A 
ATOM      9  C   UNL     1       1.278  -0.229  -0.206  1.00  0.00     0.049 C 
ATOM     10  C   UNL     1       0.875  -1.658  -0.160  1.00  0.00     0.010 A 
ATOM     11  C   UNL     1      -0.298  -2.200   0.464  1.00  0.00     0.043 A 
ATOM     12  O   UNL     1       0.877  -3.893  -0.410  1.00  0.00    -0.455 OA
ATOM     13  C   UNL     1      -0.143  -3.567   0.370  1.00  0.00     0.114 A 
ATOM     14  C   UNL     1      -1.411  -1.697   1.264  1.00  0.00     0.072 C 
ATOM     15  C   UNL     1      -0.776  -4.669   1.115  1.00  0.00     0.076 C 
ATOM     16  N   UNL     1      -1.823  -0.476   1.103  1.00  0.00    -0.177 NA
ATOM     17  C   UNL     1      -1.863  -2.737   2.242  1.00  0.00     0.059 C 
ATOM     18  C   UNL     1      -2.067  -4.139   1.675  1.00  0.00     0.014 C 
BRANCH  16  19
ATOM     19  N   UNL     1      -2.860   0.247   1.671  1.00  0.00    -0.246 N 
ATOM     20  C   UNL     1      -4.096   0.087   2.272  1.00  0.00     0.252 C 
ATOM     21  H   UNL     1      -2.642   1.206   1.632  1.00  0.00     0.193 HD
ATOM     22  O   UNL     1      -4.768   1.131   2.378  1.00  0.00    -0.272 OA
BRANCH  20  23
ATOM     23  C   UNL     1      -4.702  -1.220   2.871  1.00  0.00     0.140 C 
BRANCH  23  24
ATOM     24  C   UNL     1      -4.969  -2.243   1.712  1.00  0.00    -0.031 A 
ATOM     25  C   UNL     1      -5.502  -3.526   1.909  1.00  0.00     0.005 A 
ATOM     26  C   UNL     1      -4.689  -1.897   0.362  1.00  0.00     0.005 A 
ATOM     27  C   UNL     1      -5.602  -4.446   0.843  1.00  0.00     0.000 A 
ATOM     28  C   UNL     1      -4.763  -2.812  -0.692  1.00  0.00     0.000 A 
ATOM     29  C   UNL     1      -5.203  -4.099  -0.448  1.00  0.00     0.000 A 
ENDBRANCH  23  24
BRANCH  23  30
ATOM     30  C   UNL     1      -3.884  -1.557   4.186  1.00  0.00    -0.031 A 
ATOM     31  C   UNL     1      -3.702  -2.851   4.710  1.00  0.00     0.005 A 
ATOM     32  C   UNL     1      -3.084  -0.533   4.757  1.00  0.00     0.005 A 
ATOM     33  C   UNL     1      -2.602  -3.134   5.545  1.00  0.00     0.000 A 
ATOM     34  C   UNL     1      -1.981  -0.819   5.565  1.00  0.00     0.000 A 
ATOM     35  C   UNL     1      -1.712  -2.130   5.922  1.00  0.00     0.000 A 
ENDBRANCH  23  30
ENDBRANCH  20  23
ENDBRANCH  16  19
ENDBRANCH   5   8
ENDBRANCH   3   4
ENDBRANCH   2   3
ENDBRANCH   1   2
BRANCH   1  36
ATOM     36  C   UNL     1       4.638  -8.008  -0.818  1.00  0.00     0.002 C 
BRANCH  36  37
ATOM     37  C   UNL     1       3.919  -9.024   0.083  1.00  0.00     0.021 C 
BRANCH  37  38
ATOM     38  C   UNL     1       3.447 -10.267  -0.655  1.00  0.00     0.116 C 
BRANCH  38  39
ATOM     39  N   UNL     1       4.562 -11.042  -1.208  1.00  0.00    -0.352 N 
ATOM     40  C   UNL     1       4.527 -12.117  -2.071  1.00  0.00     0.251 C 
ATOM     41  H   UNL     1       5.460 -10.755  -0.924  1.00  0.00     0.163 HD
ATOM     42  O   UNL     1       5.487 -12.879  -2.177  1.00  0.00    -0.269 OA
BRANCH  40  43
ATOM     43  C   UNL     1       3.318 -12.335  -2.874  1.00  0.00     0.039 A 
ATOM     44  C   UNL     1       2.788 -13.610  -3.089  1.00  0.00     0.014 A 
ATOM     45  C   UNL     1       2.687 -11.205  -3.379  1.00  0.00     0.014 A 
ATOM     46  C   UNL     1       1.566 -13.723  -3.749  1.00  0.00     0.010 A 
ATOM     47  C   UNL     1       1.403 -11.302  -3.834  1.00  0.00     0.010 A 
ATOM     48  C   UNL     1       0.871 -12.557  -4.103  1.00  0.00    -0.014 A 
BRANCH  48  49
ATOM     49  C   UNL     1      -0.459 -12.604  -4.694  1.00  0.00     0.031 A 
ATOM     50  C   UNL     1      -1.478 -13.338  -3.897  1.00  0.00     0.074 A 
ATOM     51  C   UNL     1      -0.800 -11.827  -5.746  1.00  0.00     0.049 A 
ATOM     52  N   UNL     1      -2.097 -14.427  -4.209  1.00  0.00    -0.248 NA
ATOM     53  C   UNL     1      -1.758 -12.866  -2.531  1.00  0.00     0.031 C 
ATOM     54  C   UNL     1       0.004 -10.803  -6.430  1.00  0.00     0.029 A 
ATOM     55  N   UNL     1      -2.004 -11.713  -6.365  1.00  0.00    -0.354 N 
ATOM     56  C   UNL     1      -2.999 -14.666  -3.174  1.00  0.00     0.074 A 
ATOM     57  C   UNL     1      -2.616 -13.791  -2.098  1.00  0.00     0.031 C 
ATOM     58  C   UNL     1      -0.796 -10.026  -7.190  1.00  0.00     0.029 A 
ATOM     59  C   UNL     1      -2.122 -10.609  -7.200  1.00  0.00     0.049 A 
ATOM     60  H   UNL     1      -2.734 -12.361  -6.232  1.00  0.00     0.167 HD
ATOM     61  C   UNL     1      -4.137 -15.386  -3.384  1.00  0.00     0.037 A 
ATOM     62  C   UNL     1      -3.239 -10.197  -7.845  1.00  0.00     0.037 A 
ATOM     63  C   UNL     1      -4.056 -16.136  -4.612  1.00  0.00     0.049 A 
ATOM     64  C   UNL     1      -4.168 -11.352  -7.888  1.00  0.00     0.074 A 
ATOM     65  C   UNL     1      -3.213 -17.114  -5.104  1.00  0.00     0.029 A 
ATOM     66  N   UNL     1      -4.722 -15.639  -5.706  1.00  0.00    -0.354 N 
ATOM     67  N   UNL     1      -3.942 -12.438  -8.574  1.00  0.00    -0.248 NA
ATOM     68  C   UNL     1      -5.122 -11.488  -6.799  1.00  0.00     0.031 C 
ATOM     69  C   UNL     1      -3.056 -16.802  -6.487  1.00  0.00     0.029 A 
ATOM     70  C   UNL     1      -3.861 -15.697  -6.771  1.00  0.00     0.049 A 
ATOM     71  H   UNL     1      -5.647 -15.303  -5.723  1.00  0.00     0.167 HD
ATOM     72  C   UNL     1      -4.381 -13.471  -7.758  1.00  0.00     0.074 A 
ATOM     73  C   UNL     1      -5.181 -12.820  -6.721  1.00  0.00     0.031 C 
ATOM     74  C   UNL     1      -3.821 -14.714  -7.831  1.00  0.00     0.037 A 
BRANCH  61  75
ATOM     75  C   UNL     1      -5.459 -15.119  -2.700  1.00  0.00     0.057 A 
ATOM     76  C   UNL     1      -6.533 -16.001  -2.923  1.00  0.00     0.134 A 
ATOM     77  C   UNL     1      -5.810 -13.898  -2.088  1.00  0.00     0.134 A 
ATOM     78  F   UNL     1      -6.336 -17.194  -3.504  1.00  0.00    -0.206 F 
ATOM     79  C   UNL     1      -7.862 -15.657  -2.643  1.00  0.00     0.040 A 
ATOM     80  C   UNL     1      -7.127 -13.566  -1.755  1.00  0.00     0.040 A 
ATOM     81  F   UNL     1      -4.925 -12.919  -1.871  1.00  0.00    -0.206 F 
ATOM     82  C   UNL     1      -8.163 -14.431  -2.065  1.00  0.00     0.006 A 
ENDBRANCH  61  75
BRANCH  62  83
ATOM     83  C   UNL     1      -3.661  -8.819  -8.174  1.00  0.00     0.057 A 
ATOM     84  C   UNL     1      -4.642  -8.570  -9.141  1.00  0.00     0.134 A 
ATOM     85  C   UNL     1      -3.308  -7.731  -7.354  1.00  0.00     0.134 A 
ATOM     86  F   UNL     1      -5.073  -9.555  -9.942  1.00  0.00    -0.206 F 
ATOM     87  C   UNL     1      -5.257  -7.317  -9.272  1.00  0.00     0.040 A 
ATOM     88  C   UNL     1      -3.909  -6.475  -7.478  1.00  0.00     0.040 A 
ATOM     89  F   UNL     1      -2.433  -7.879  -6.349  1.00  0.00    -0.206 F 
ATOM     90  C   UNL     1      -4.899  -6.268  -8.431  1.00  0.00     0.006 A 
ENDBRANCH  62  83
BRANCH  74  91
ATOM     91  C   UNL     1      -2.888 -15.002  -8.977  1.00  0.00     0.057 A 
ATOM     92  C   UNL     1      -1.644 -14.376  -9.154  1.00  0.00     0.134 A 
ATOM     93  C   UNL     1      -3.181 -16.069  -9.832  1.00  0.00     0.134 A 
ATOM     94  F   UNL     1      -1.230 -13.408  -8.329  1.00  0.00    -0.206 F 
ATOM     95  C   UNL     1      -0.750 -14.771 -10.155  1.00  0.00     0.040 A 
ATOM     96  C   UNL     1      -2.284 -16.495 -10.815  1.00  0.00     0.040 A 
ATOM     97  F   UNL     1      -4.326 -16.753  -9.688  1.00  0.00    -0.206 F 
ATOM     98  C   UNL     1      -1.066 -15.841 -10.984  1.00  0.00     0.006 A 
ENDBRANCH  74  91
ENDBRANCH  48  49
ENDBRANCH  40  43
ENDBRANCH  38  39
ENDBRANCH  37  38
ENDBRANCH  36  37
ENDBRANCH   1  36
TORSDOF 17
