REMARK SMILES CCc1nn2c(C)c(CCC(=O)NCCCCCCNC(=O)c3ccc(-c4c5nc(c(-c6c(F)cccc6F)c6ccc([nH]6)c(-c6c(F)cccc6F)c6nc(c(-c7c(F)cccc7F)c7ccc4[nH]7)C=C6)C=C5)cc3)c(C)nc2c1-c1ccccc1
REMARK SMILES IDX 16 1 15 2 14 3 13 4 11 5 12 6 10 8 9 9 8 10 3 11 4 12 81 13
REMARK SMILES IDX 5 14 80 15 6 16 79 17 7 18 77 19 78 20 2 21 1 22 82 23 83 24
REMARK SMILES IDX 87 25 84 26 86 27 85 28 17 29 18 30 19 31 20 32 21 33 22 35
REMARK SMILES IDX 23 36 24 37 76 38 25 39 75 40 26 41 27 42 28 43 69 44 29 45
REMARK SMILES IDX 74 46 68 47 70 48 30 49 73 50 67 51 66 52 31 54 57 55 40 56
REMARK SMILES IDX 56 57 41 58 44 59 55 60 71 61 42 62 43 63 54 65 72 66 45 67
REMARK SMILES IDX 32 68 33 69 38 70 34 71 35 72 37 73 39 74 36 75 58 76 59 77
REMARK SMILES IDX 64 78 60 79 61 80 63 81 65 82 62 83 46 84 47 85 52 86 48 87
REMARK SMILES IDX 49 88 51 89 53 90 50 91
REMARK H PARENT 13 7 20 34 70 53 44 64
REMARK Flexibility Score: inf
ROOT
ATOM      1  C   UNL     1       0.775   2.783  -4.896  1.00  0.00     0.002 C 
ENDROOT
BRANCH   1   2
ATOM      2  C   UNL     1       0.726   1.361  -5.470  1.00  0.00     0.021 C 
BRANCH   2   3
ATOM      3  C   UNL     1       0.092   1.146  -6.852  1.00  0.00     0.116 C 
BRANCH   3   4
ATOM      4  N   UNL     1       0.954   1.613  -7.934  1.00  0.00    -0.356 N 
ATOM      5  C   UNL     1       1.600   0.958  -8.940  1.00  0.00     0.220 C 
ATOM      6  O   UNL     1       2.345   1.620  -9.669  1.00  0.00    -0.275 OA
ATOM      7  H   UNL     1       1.095   2.587  -7.938  1.00  0.00     0.163 HD
BRANCH   5   8
ATOM      8  C   UNL     1       1.428  -0.532  -9.191  1.00  0.00     0.105 C 
BRANCH   8   9
ATOM      9  C   UNL     1       2.717  -1.325  -8.921  1.00  0.00     0.049 C 
BRANCH   9  10
ATOM     10  C   UNL     1       2.830  -1.672  -7.466  1.00  0.00    -0.005 A 
ATOM     11  C   UNL     1       2.802  -0.584  -3.187  1.00  0.00     0.073 A 
ATOM     12  N   UNL     1       3.580  -0.268  -4.217  1.00  0.00    -0.171 NA
ATOM     13  C   UNL     1       1.967  -1.698  -3.455  1.00  0.00     0.050 A 
ATOM     14  N   UNL     1       3.177  -1.068  -5.213  1.00  0.00    -0.219 N 
ATOM     15  C   UNL     1       2.242  -2.004  -4.775  1.00  0.00     0.163 A 
ATOM     16  C   UNL     1       3.474  -0.896  -6.567  1.00  0.00     0.046 A 
ATOM     17  N   UNL     1       1.768  -2.969  -5.610  1.00  0.00    -0.233 NA
ATOM     18  C   UNL     1       4.351   0.285  -6.898  1.00  0.00     0.067 C 
ATOM     19  C   UNL     1       2.077  -2.846  -6.868  1.00  0.00     0.045 A 
ATOM     20  C   UNL     1       1.719  -4.038  -7.726  1.00  0.00     0.067 C 
BRANCH  11  21
ATOM     21  C   UNL     1       2.967   0.256  -1.994  1.00  0.00     0.055 C 
ATOM     22  C   UNL     1       4.178  -0.141  -1.189  1.00  0.00     0.011 C 
ENDBRANCH  11  21
BRANCH  13  23
ATOM     23  C   UNL     1       1.042  -2.479  -2.649  1.00  0.00    -0.013 A 
ATOM     24  C   UNL     1      -0.245  -2.024  -2.336  1.00  0.00     0.009 A 
ATOM     25  C   UNL     1       1.424  -3.762  -2.233  1.00  0.00     0.009 A 
ATOM     26  C   UNL     1      -1.121  -2.831  -1.594  1.00  0.00     0.001 A 
ATOM     27  C   UNL     1       0.543  -4.573  -1.511  1.00  0.00     0.001 A 
ATOM     28  C   UNL     1      -0.725  -4.103  -1.180  1.00  0.00     0.000 A 
ENDBRANCH  13  23
ENDBRANCH   9  10
ENDBRANCH   8   9
ENDBRANCH   5   8
ENDBRANCH   3   4
ENDBRANCH   2   3
ENDBRANCH   1   2
BRANCH   1  29
ATOM     29  C   UNL     1      -0.463   3.299  -4.146  1.00  0.00     0.002 C 
BRANCH  29  30
ATOM     30  C   UNL     1      -1.022   2.459  -2.985  1.00  0.00     0.021 C 
BRANCH  30  31
ATOM     31  C   UNL     1      -0.075   2.153  -1.808  1.00  0.00     0.116 C 
BRANCH  31  32
ATOM     32  N   UNL     1      -0.454   2.800  -0.541  1.00  0.00    -0.352 N 
ATOM     33  C   UNL     1      -0.149   2.579   0.797  1.00  0.00     0.251 C 
ATOM     34  H   UNL     1      -1.062   3.563  -0.671  1.00  0.00     0.163 HD
ATOM     35  O   UNL     1      -0.525   3.428   1.611  1.00  0.00    -0.269 OA
BRANCH  33  36
ATOM     36  C   UNL     1       0.655   1.428   1.308  1.00  0.00     0.039 A 
ATOM     37  C   UNL     1       1.360   1.499   2.527  1.00  0.00     0.014 A 
ATOM     38  C   UNL     1       0.740   0.244   0.616  1.00  0.00     0.014 A 
ATOM     39  C   UNL     1       2.270   0.482   2.920  1.00  0.00     0.010 A 
ATOM     40  C   UNL     1       1.724  -0.686   0.932  1.00  0.00     0.010 A 
ATOM     41  C   UNL     1       2.526  -0.591   2.068  1.00  0.00    -0.014 A 
BRANCH  41  42
ATOM     42  C   UNL     1       3.430  -1.731   2.363  1.00  0.00     0.031 A 
ATOM     43  C   UNL     1       2.734  -3.033   2.641  1.00  0.00     0.074 A 
ATOM     44  C   UNL     1       4.762  -1.824   2.119  1.00  0.00     0.049 A 
ATOM     45  N   UNL     1       2.627  -3.665   3.767  1.00  0.00    -0.248 NA
ATOM     46  C   UNL     1       1.996  -3.678   1.547  1.00  0.00     0.031 C 
ATOM     47  C   UNL     1       5.674  -0.853   1.516  1.00  0.00     0.029 A 
ATOM     48  N   UNL     1       5.575  -2.921   2.279  1.00  0.00    -0.354 N 
ATOM     49  C   UNL     1       1.925  -4.838   3.477  1.00  0.00     0.074 A 
ATOM     50  C   UNL     1       1.365  -4.665   2.172  1.00  0.00     0.031 C 
ATOM     51  C   UNL     1       6.832  -1.465   1.158  1.00  0.00     0.029 A 
ATOM     52  C   UNL     1       6.830  -2.821   1.679  1.00  0.00     0.049 A 
ATOM     53  H   UNL     1       5.292  -3.719   2.780  1.00  0.00     0.167 HD
ATOM     54  C   UNL     1       2.044  -5.980   4.208  1.00  0.00     0.037 A 
ATOM     55  C   UNL     1       7.801  -3.773   1.635  1.00  0.00     0.037 A 
ATOM     56  C   UNL     1       2.689  -5.734   5.468  1.00  0.00     0.049 A 
ATOM     57  C   UNL     1       7.514  -4.738   2.721  1.00  0.00     0.074 A 
ATOM     58  C   UNL     1       2.457  -4.872   6.522  1.00  0.00     0.029 A 
ATOM     59  N   UNL     1       3.984  -6.163   5.623  1.00  0.00    -0.354 N 
ATOM     60  N   UNL     1       7.636  -4.474   3.990  1.00  0.00    -0.248 NA
ATOM     61  C   UNL     1       6.755  -5.934   2.397  1.00  0.00     0.031 C 
ATOM     62  C   UNL     1       3.752  -4.434   6.925  1.00  0.00     0.029 A 
ATOM     63  C   UNL     1       4.686  -5.102   6.131  1.00  0.00     0.049 A 
ATOM     64  H   UNL     1       4.338  -7.057   5.412  1.00  0.00     0.167 HD
ATOM     65  C   UNL     1       6.625  -5.200   4.593  1.00  0.00     0.074 A 
ATOM     66  C   UNL     1       6.205  -6.173   3.589  1.00  0.00     0.031 C 
ATOM     67  C   UNL     1       6.034  -4.759   5.740  1.00  0.00     0.037 A 
BRANCH  54  68
ATOM     68  C   UNL     1       1.854  -7.374   3.654  1.00  0.00     0.057 A 
ATOM     69  C   UNL     1       1.751  -8.458   4.543  1.00  0.00     0.134 A 
ATOM     70  C   UNL     1       2.003  -7.732   2.296  1.00  0.00     0.134 A 
ATOM     71  F   UNL     1       1.641  -8.255   5.864  1.00  0.00    -0.206 F 
ATOM     72  C   UNL     1       1.830  -9.791   4.120  1.00  0.00     0.040 A 
ATOM     73  C   UNL     1       2.018  -9.059   1.855  1.00  0.00     0.040 A 
ATOM     74  F   UNL     1       2.238  -6.832   1.334  1.00  0.00    -0.206 F 
ATOM     75  C   UNL     1       1.960 -10.096   2.771  1.00  0.00     0.006 A 
ENDBRANCH  54  68
BRANCH  55  76
ATOM     76  C   UNL     1       8.919  -4.029   0.692  1.00  0.00     0.057 A 
ATOM     77  C   UNL     1      10.008  -4.845   1.052  1.00  0.00     0.134 A 
ATOM     78  C   UNL     1       8.803  -3.735  -0.675  1.00  0.00     0.134 A 
ATOM     79  F   UNL     1      10.195  -5.213   2.327  1.00  0.00    -0.206 F 
ATOM     80  C   UNL     1      10.902  -5.369   0.107  1.00  0.00     0.040 A 
ATOM     81  C   UNL     1       9.693  -4.249  -1.630  1.00  0.00     0.040 A 
ATOM     82  F   UNL     1       7.770  -3.017  -1.136  1.00  0.00    -0.206 F 
ATOM     83  C   UNL     1      10.737  -5.084  -1.243  1.00  0.00     0.006 A 
ENDBRANCH  55  76
BRANCH  67  84
ATOM     84  C   UNL     1       6.677  -3.626   6.496  1.00  0.00     0.057 A 
ATOM     85  C   UNL     1       6.863  -2.335   5.976  1.00  0.00     0.134 A 
ATOM     86  C   UNL     1       6.927  -3.794   7.863  1.00  0.00     0.134 A 
ATOM     87  F   UNL     1       6.570  -2.046   4.704  1.00  0.00    -0.206 F 
ATOM     88  C   UNL     1       7.290  -1.271   6.775  1.00  0.00     0.040 A 
ATOM     89  C   UNL     1       7.318  -2.731   8.680  1.00  0.00     0.040 A 
ATOM     90  F   UNL     1       6.729  -4.989   8.444  1.00  0.00    -0.206 F 
ATOM     91  C   UNL     1       7.503  -1.463   8.136  1.00  0.00     0.006 A 
ENDBRANCH  67  84
ENDBRANCH  41  42
ENDBRANCH  33  36
ENDBRANCH  31  32
ENDBRANCH  30  31
ENDBRANCH  29  30
ENDBRANCH   1  29
TORSDOF 17
