REMARK SMILES O=C(NCCCCCCNC(=O)[C@H]1CSCN1C(=O)c1cccc2cccnc12)c1ccc(-c2c3nc(c(-c4c(F)cccc4F)c4ccc([nH]4)c(-c4c(F)cccc4F)c4nc(c(-c5c(F)cccc5F)c5ccc2[nH]5)C=C4)C=C3)cc1
REMARK SMILES IDX 6 1 5 2 4 3 3 4 1 5 2 6 30 8 31 9 83 10 32 11 82 12 33 13
REMARK SMILES IDX 34 14 35 15 76 16 36 17 81 18 75 19 77 20 37 21 80 22 74 23
REMARK SMILES IDX 73 24 38 26 64 27 47 28 63 29 48 30 51 31 62 32 78 33 49 34
REMARK SMILES IDX 50 35 61 37 79 38 52 39 39 40 40 41 45 42 41 43 42 44 44 45
REMARK SMILES IDX 46 46 43 47 65 48 66 49 71 50 67 51 68 52 70 53 72 54 69 55
REMARK SMILES IDX 53 56 54 57 59 58 55 59 56 60 58 61 60 62 57 63 7 64 8 65
REMARK SMILES IDX 9 66 10 67 11 68 12 70 13 71 14 72 17 73 15 74 16 75 18 76
REMARK SMILES IDX 19 77 20 78 21 79 29 80 22 81 24 82 28 83 23 84 25 85 27 86
REMARK SMILES IDX 26 87
REMARK H PARENT 3 7 77 25 51 36 10 69
REMARK Flexibility Score: inf
ROOT
ATOM      1  C   UNL     1       4.108  -3.380  -1.926  1.00  0.00     0.002 C 
ENDROOT
BRANCH   1   2
ATOM      2  C   UNL     1       4.538  -2.615  -0.675  1.00  0.00     0.021 C 
BRANCH   2   3
ATOM      3  C   UNL     1       4.404  -1.100  -0.774  1.00  0.00     0.116 C 
BRANCH   3   4
ATOM      4  N   UNL     1       3.020  -0.665  -0.880  1.00  0.00    -0.352 N 
ATOM      5  O   UNL     1       1.124   0.385  -0.241  1.00  0.00    -0.269 OA
ATOM      6  C   UNL     1       2.337   0.248  -0.113  1.00  0.00     0.251 C 
ATOM      7  H   UNL     1       2.500  -1.084  -1.603  1.00  0.00     0.163 HD
BRANCH   6   8
ATOM      8  C   UNL     1       3.067   1.046   0.894  1.00  0.00     0.039 A 
ATOM      9  C   UNL     1       4.285   1.651   0.575  1.00  0.00     0.014 A 
ATOM     10  C   UNL     1       2.534   1.177   2.180  1.00  0.00     0.014 A 
ATOM     11  C   UNL     1       5.041   2.246   1.578  1.00  0.00     0.010 A 
ATOM     12  C   UNL     1       3.257   1.853   3.166  1.00  0.00     0.010 A 
ATOM     13  C   UNL     1       4.536   2.357   2.885  1.00  0.00    -0.014 A 
BRANCH  13  14
ATOM     14  C   UNL     1       5.359   3.029   3.923  1.00  0.00     0.031 A 
ATOM     15  C   UNL     1       5.881   2.272   5.114  1.00  0.00     0.074 A 
ATOM     16  C   UNL     1       5.676   4.328   3.758  1.00  0.00     0.049 A 
ATOM     17  N   UNL     1       6.662   2.692   6.078  1.00  0.00    -0.248 NA
ATOM     18  C   UNL     1       5.470   0.867   5.247  1.00  0.00     0.031 C 
ATOM     19  C   UNL     1       5.216   5.172   2.652  1.00  0.00     0.029 A 
ATOM     20  N   UNL     1       6.477   5.158   4.499  1.00  0.00    -0.354 N 
ATOM     21  C   UNL     1       6.814   1.616   6.943  1.00  0.00     0.074 A 
ATOM     22  C   UNL     1       6.028   0.528   6.402  1.00  0.00     0.031 C 
ATOM     23  C   UNL     1       5.789   6.380   2.754  1.00  0.00     0.029 A 
ATOM     24  C   UNL     1       6.611   6.413   3.959  1.00  0.00     0.049 A 
ATOM     25  H   UNL     1       6.914   4.880   5.336  1.00  0.00     0.167 HD
ATOM     26  C   UNL     1       7.548   1.541   8.080  1.00  0.00     0.037 A 
ATOM     27  C   UNL     1       7.314   7.477   4.386  1.00  0.00     0.037 A 
ATOM     28  C   UNL     1       8.351   2.617   8.603  1.00  0.00     0.049 A 
ATOM     29  C   UNL     1       8.121   7.363   5.646  1.00  0.00     0.074 A 
ATOM     30  C   UNL     1       9.163   2.622   9.725  1.00  0.00     0.029 A 
ATOM     31  N   UNL     1       8.441   3.881   8.041  1.00  0.00    -0.354 N 
ATOM     32  N   UNL     1       8.286   6.326   6.430  1.00  0.00    -0.248 NA
ATOM     33  C   UNL     1       8.839   8.569   6.080  1.00  0.00     0.031 C 
ATOM     34  C   UNL     1       9.714   3.901   9.862  1.00  0.00     0.029 A 
ATOM     35  C   UNL     1       9.280   4.679   8.802  1.00  0.00     0.049 A 
ATOM     36  H   UNL     1       7.976   4.170   7.222  1.00  0.00     0.167 HD
ATOM     37  C   UNL     1       9.141   6.746   7.439  1.00  0.00     0.074 A 
ATOM     38  C   UNL     1       9.474   8.127   7.156  1.00  0.00     0.031 C 
ATOM     39  C   UNL     1       9.606   6.051   8.505  1.00  0.00     0.037 A 
BRANCH  26  40
ATOM     40  C   UNL     1       7.504   0.253   8.852  1.00  0.00     0.057 A 
ATOM     41  C   UNL     1       8.151  -0.905   8.403  1.00  0.00     0.134 A 
ATOM     42  C   UNL     1       6.841   0.185  10.085  1.00  0.00     0.134 A 
ATOM     43  F   UNL     1       8.793  -0.912   7.225  1.00  0.00    -0.206 F 
ATOM     44  C   UNL     1       8.123  -2.090   9.142  1.00  0.00     0.040 A 
ATOM     45  C   UNL     1       6.826  -0.987  10.844  1.00  0.00     0.040 A 
ATOM     46  F   UNL     1       6.208   1.260  10.578  1.00  0.00    -0.206 F 
ATOM     47  C   UNL     1       7.465  -2.130  10.370  1.00  0.00     0.006 A 
ENDBRANCH  26  40
BRANCH  27  48
ATOM     48  C   UNL     1       7.297   8.736   3.602  1.00  0.00     0.057 A 
ATOM     49  C   UNL     1       8.430   9.167   2.903  1.00  0.00     0.134 A 
ATOM     50  C   UNL     1       6.147   9.530   3.523  1.00  0.00     0.134 A 
ATOM     51  F   UNL     1       9.566   8.455   2.954  1.00  0.00    -0.206 F 
ATOM     52  C   UNL     1       8.425  10.350   2.163  1.00  0.00     0.040 A 
ATOM     53  C   UNL     1       6.120  10.702   2.767  1.00  0.00     0.040 A 
ATOM     54  F   UNL     1       5.027   9.166   4.165  1.00  0.00    -0.206 F 
ATOM     55  C   UNL     1       7.264  11.118   2.089  1.00  0.00     0.006 A 
ENDBRANCH  27  48
BRANCH  39  56
ATOM     56  C   UNL     1      10.553   6.767   9.421  1.00  0.00     0.057 A 
ATOM     57  C   UNL     1      10.117   7.768  10.298  1.00  0.00     0.134 A 
ATOM     58  C   UNL     1      11.915   6.442   9.432  1.00  0.00     0.134 A 
ATOM     59  F   UNL     1       8.827   8.135  10.323  1.00  0.00    -0.206 F 
ATOM     60  C   UNL     1      11.008   8.440  11.136  1.00  0.00     0.040 A 
ATOM     61  C   UNL     1      12.811   7.090  10.283  1.00  0.00     0.040 A 
ATOM     62  F   UNL     1      12.395   5.488   8.621  1.00  0.00    -0.206 F 
ATOM     63  C   UNL     1      12.359   8.097  11.133  1.00  0.00     0.006 A 
ENDBRANCH  39  56
ENDBRANCH  13  14
ENDBRANCH   6   8
ENDBRANCH   3   4
ENDBRANCH   2   3
ENDBRANCH   1   2
BRANCH   1  64
ATOM     64  C   UNL     1       4.811  -2.959  -3.221  1.00  0.00     0.002 C 
BRANCH  64  65
ATOM     65  C   UNL     1       6.344  -2.951  -3.162  1.00  0.00     0.021 C 
BRANCH  65  66
ATOM     66  C   UNL     1       6.972  -4.308  -2.845  1.00  0.00     0.116 C 
BRANCH  66  67
ATOM     67  N   UNL     1       6.771  -5.225  -3.945  1.00  0.00    -0.354 N 
ATOM     68  C   UNL     1       7.680  -5.894  -4.711  1.00  0.00     0.243 C 
ATOM     69  H   UNL     1       5.829  -5.393  -4.179  1.00  0.00     0.163 HD
ATOM     70  O   UNL     1       7.281  -6.337  -5.794  1.00  0.00    -0.273 OA
BRANCH  68  71
ATOM     71  C   UNL     1       9.182  -5.913  -4.365  1.00  0.00     0.185 C 
ATOM     72  C   UNL     1       9.792  -4.605  -4.870  1.00  0.00     0.106 C 
ATOM     73  N   UNL     1       9.527  -6.110  -2.951  1.00  0.00    -0.316 N 
ATOM     74  S   UNL     1      11.078  -4.114  -3.694  1.00  0.00    -0.138 SA
ATOM     75  C   UNL     1      10.740  -5.446  -2.533  1.00  0.00     0.190 C 
BRANCH  73  76
ATOM     76  C   UNL     1       9.014  -7.238  -2.308  1.00  0.00     0.257 C 
ATOM     77  O   UNL     1       8.124  -7.930  -2.794  1.00  0.00    -0.269 OA
BRANCH  76  78
ATOM     78  C   UNL     1       9.479  -7.567  -0.945  1.00  0.00     0.066 A 
ATOM     79  C   UNL     1       9.180  -6.668   0.092  1.00  0.00     0.016 A 
ATOM     80  C   UNL     1      10.089  -8.807  -0.713  1.00  0.00     0.083 A 
ATOM     81  C   UNL     1       9.522  -6.987   1.399  1.00  0.00     0.002 A 
ATOM     82  C   UNL     1      10.397  -9.124   0.630  1.00  0.00     0.001 A 
ATOM     83  N   UNL     1      10.383  -9.670  -1.713  1.00  0.00    -0.255 NA
ATOM     84  C   UNL     1      10.125  -8.213   1.667  1.00  0.00     0.010 A 
ATOM     85  C   UNL     1      10.968 -10.374   0.907  1.00  0.00     0.012 A 
ATOM     86  C   UNL     1      10.915 -10.873  -1.408  1.00  0.00     0.112 A 
ATOM     87  C   UNL     1      11.220 -11.270  -0.123  1.00  0.00     0.021 A 
ENDBRANCH  76  78
ENDBRANCH  73  76
ENDBRANCH  68  71
ENDBRANCH  66  67
ENDBRANCH  65  66
ENDBRANCH  64  65
ENDBRANCH   1  64
TORSDOF 15
