REMARK SMILES Cc1c(C(=O)NCCCCCCNC(=O)c2ccc(-c3c4nc(c(-c5c(F)cccc5F)c5ccc([nH]5)c(-c5c(F)cccc5F)c5nc(c(-c6c(F)cccc6F)c6ccc3[nH]6)C=C5)C=C4)cc2)sc2ncn(N3CCCCCC3)c(=O)c12
REMARK SMILES IDX 8 1 7 2 6 3 4 4 5 5 3 7 1 8 2 9 84 10 70 11 71 12 82 13
REMARK SMILES IDX 72 14 74 15 83 16 73 17 75 18 76 19 77 20 78 21 81 23 80 24
REMARK SMILES IDX 79 25 9 27 10 28 11 29 12 30 13 31 14 32 15 34 16 35 17 36
REMARK SMILES IDX 69 37 18 38 68 39 19 40 20 41 21 42 62 43 22 44 67 45 61 46
REMARK SMILES IDX 63 47 23 48 66 49 60 50 59 51 24 53 50 54 33 55 49 56 34 57
REMARK SMILES IDX 37 58 48 59 64 60 35 61 36 62 47 64 65 65 38 66 25 67 26 68
REMARK SMILES IDX 31 69 27 70 28 71 30 72 32 73 29 74 51 75 52 76 57 77 53 78
REMARK SMILES IDX 54 79 56 80 58 81 55 82 39 83 40 84 45 85 41 86 42 87 44 88
REMARK SMILES IDX 46 89 43 90
REMARK H PARENT 6 6 13 33 63 52 37 63
REMARK Flexibility Score: 80.00
ROOT
ATOM      1  C   UNL     1      -4.656  -2.946   0.709  1.00  0.00     0.021 C 
ENDROOT
BRANCH   1   2
ATOM      2  C   UNL     1      -3.779  -2.614  -0.499  1.00  0.00     0.116 C 
BRANCH   2   3
ATOM      3  N   UNL     1      -3.196  -1.299  -0.343  1.00  0.00    -0.351 N 
ATOM      4  C   UNL     1      -1.938  -0.862  -0.010  1.00  0.00     0.261 C 
ATOM      5  O   UNL     1      -1.827   0.367   0.044  1.00  0.00    -0.268 OA
ATOM      6  H   UNL     1      -3.832  -0.567  -0.510  1.00  0.00     0.163 HD
BRANCH   4   7
ATOM      7  C   UNL     1      -0.799  -1.757   0.186  1.00  0.00     0.098 A 
ATOM      8  C   UNL     1       1.038   0.003  -0.086  1.00  0.00     0.047 C 
ATOM      9  C   UNL     1       0.551  -1.406   0.083  1.00  0.00    -0.012 A 
ATOM     10  C   UNL     1       1.391  -2.579   0.123  1.00  0.00     0.082 A 
ATOM     11  S   UNL     1      -0.945  -3.372   0.731  1.00  0.00    -0.110 S 
ATOM     12  C   UNL     1       0.682  -3.720   0.431  1.00  0.00     0.131 A 
ATOM     13  C   UNL     1       2.825  -2.718  -0.076  1.00  0.00     0.281 A 
ATOM     14  N   UNL     1       1.161  -4.982   0.566  1.00  0.00    -0.225 NA
ATOM     15  N   UNL     1       3.305  -3.995   0.248  1.00  0.00    -0.210 N 
ATOM     16  O   UNL     1       3.518  -1.794  -0.513  1.00  0.00    -0.267 OA
ATOM     17  C   UNL     1       2.450  -5.060   0.489  1.00  0.00     0.226 A 
BRANCH  15  18
ATOM     18  N   UNL     1       4.680  -4.229   0.321  1.00  0.00    -0.309 N 
BRANCH  18  19
ATOM     19  C   UNL     1       5.390  -3.781   1.498  1.00  0.00     0.137 C 
BRANCH  19  20
ATOM     20  C   UNL     1       6.068  -2.420   1.330  1.00  0.00     0.023 C 
BRANCH  20  21
ATOM     21  C   UNL     1       7.233  -2.367   0.342  1.00  0.00     0.002 CG0
ATOM     22  G   UNL     1       6.983  -2.966  -1.042  1.00  0.00     0.000 G0
ENDBRANCH  20  21
ENDBRANCH  19  20
ENDBRANCH  18  19
BRANCH  18  23
ATOM     23  C   UNL     1       5.330  -4.886  -0.787  1.00  0.00     0.137 C 
BRANCH  23  24
ATOM     24  C   UNL     1       6.786  -4.481  -1.004  1.00  0.00     0.023 C 
BRANCH  24  25
ATOM     25  C   UNL     1       6.983  -2.966  -1.042  1.00  0.00     0.002 CG0
ATOM     26  G   UNL     1       7.233  -2.367   0.342  1.00  0.00     0.000 G0
ENDBRANCH  24  25
ENDBRANCH  23  24
ENDBRANCH  18  23
ENDBRANCH  15  18
ENDBRANCH   4   7
ENDBRANCH   2   3
ENDBRANCH   1   2
BRANCH   1  27
ATOM     27  C   UNL     1      -6.007  -2.220   0.680  1.00  0.00     0.002 C 
BRANCH  27  28
ATOM     28  C   UNL     1      -6.813  -2.399  -0.617  1.00  0.00     0.002 C 
BRANCH  28  29
ATOM     29  C   UNL     1      -6.990  -3.849  -1.098  1.00  0.00     0.021 C 
BRANCH  29  30
ATOM     30  C   UNL     1      -7.880  -4.666  -0.179  1.00  0.00     0.116 C 
BRANCH  30  31
ATOM     31  N   UNL     1      -9.242  -4.139  -0.168  1.00  0.00    -0.352 N 
ATOM     32  C   UNL     1     -10.341  -4.553   0.541  1.00  0.00     0.251 C 
ATOM     33  H   UNL     1      -9.394  -3.368  -0.760  1.00  0.00     0.163 HD
ATOM     34  O   UNL     1     -11.468  -4.227   0.180  1.00  0.00    -0.269 OA
BRANCH  32  35
ATOM     35  C   UNL     1     -10.165  -5.364   1.754  1.00  0.00     0.039 A 
ATOM     36  C   UNL     1     -11.142  -6.292   2.137  1.00  0.00     0.014 A 
ATOM     37  C   UNL     1      -9.052  -5.132   2.559  1.00  0.00     0.014 A 
ATOM     38  C   UNL     1     -10.979  -6.986   3.330  1.00  0.00     0.010 A 
ATOM     39  C   UNL     1      -8.810  -5.922   3.646  1.00  0.00     0.010 A 
ATOM     40  C   UNL     1      -9.815  -6.774   4.077  1.00  0.00    -0.014 A 
BRANCH  40  41
ATOM     41  C   UNL     1      -9.571  -7.470   5.322  1.00  0.00     0.031 A 
ATOM     42  C   UNL     1      -9.268  -8.907   5.148  1.00  0.00     0.074 A 
ATOM     43  C   UNL     1      -9.350  -6.795   6.469  1.00  0.00     0.049 A 
ATOM     44  N   UNL     1     -10.037  -9.912   5.404  1.00  0.00    -0.248 NA
ATOM     45  C   UNL     1      -8.039  -9.265   4.420  1.00  0.00     0.031 C 
ATOM     46  C   UNL     1      -9.253  -5.344   6.666  1.00  0.00     0.029 A 
ATOM     47  N   UNL     1      -9.055  -7.285   7.700  1.00  0.00    -0.354 N 
ATOM     48  C   UNL     1      -9.274 -11.038   5.111  1.00  0.00     0.074 A 
ATOM     49  C   UNL     1      -8.204 -10.581   4.270  1.00  0.00     0.031 C 
ATOM     50  C   UNL     1      -8.720  -5.087   7.882  1.00  0.00     0.029 A 
ATOM     51  C   UNL     1      -8.580  -6.339   8.602  1.00  0.00     0.049 A 
ATOM     52  H   UNL     1      -9.168  -8.234   7.936  1.00  0.00     0.167 HD
ATOM     53  C   UNL     1      -9.394 -12.167   5.865  1.00  0.00     0.037 A 
ATOM     54  C   UNL     1      -8.074  -6.596   9.835  1.00  0.00     0.037 A 
ATOM     55  C   UNL     1     -10.592 -12.108   6.676  1.00  0.00     0.049 A 
ATOM     56  C   UNL     1      -8.511  -7.965  10.211  1.00  0.00     0.074 A 
ATOM     57  C   UNL     1     -11.943 -11.953   6.428  1.00  0.00     0.029 A 
ATOM     58  N   UNL     1     -10.427 -11.826   8.012  1.00  0.00    -0.354 N 
ATOM     59  N   UNL     1      -9.748  -8.285  10.469  1.00  0.00    -0.248 NA
ATOM     60  C   UNL     1      -7.647  -9.076   9.839  1.00  0.00     0.031 C 
ATOM     61  C   UNL     1     -12.427 -11.139   7.498  1.00  0.00     0.029 A 
ATOM     62  C   UNL     1     -11.368 -10.900   8.374  1.00  0.00     0.049 A 
ATOM     63  H   UNL     1      -9.749 -12.222   8.606  1.00  0.00     0.167 HD
ATOM     64  C   UNL     1      -9.926  -9.526   9.872  1.00  0.00     0.074 A 
ATOM     65  C   UNL     1      -8.574 -10.005   9.586  1.00  0.00     0.031 C 
ATOM     66  C   UNL     1     -11.150  -9.901   9.395  1.00  0.00     0.037 A 
BRANCH  53  67
ATOM     67  C   UNL     1      -8.236 -13.077   6.242  1.00  0.00     0.057 A 
ATOM     68  C   UNL     1      -6.867 -12.748   6.151  1.00  0.00     0.134 A 
ATOM     69  C   UNL     1      -8.515 -14.201   7.045  1.00  0.00     0.134 A 
ATOM     70  F   UNL     1      -6.402 -11.726   5.428  1.00  0.00    -0.206 F 
ATOM     71  C   UNL     1      -5.877 -13.408   6.883  1.00  0.00     0.040 A 
ATOM     72  C   UNL     1      -7.538 -14.837   7.818  1.00  0.00     0.040 A 
ATOM     73  F   UNL     1      -9.772 -14.650   7.186  1.00  0.00    -0.206 F 
ATOM     74  C   UNL     1      -6.216 -14.424   7.758  1.00  0.00     0.006 A 
ENDBRANCH  53  67
BRANCH  54  75
ATOM     75  C   UNL     1      -7.035  -5.866  10.594  1.00  0.00     0.057 A 
ATOM     76  C   UNL     1      -6.002  -5.170   9.942  1.00  0.00     0.134 A 
ATOM     77  C   UNL     1      -6.869  -6.062  11.972  1.00  0.00     0.134 A 
ATOM     78  F   UNL     1      -6.021  -4.990   8.613  1.00  0.00    -0.206 F 
ATOM     79  C   UNL     1      -4.863  -4.714  10.615  1.00  0.00     0.040 A 
ATOM     80  C   UNL     1      -5.731  -5.616  12.659  1.00  0.00     0.040 A 
ATOM     81  F   UNL     1      -7.781  -6.749  12.676  1.00  0.00    -0.206 F 
ATOM     82  C   UNL     1      -4.718  -4.950  11.977  1.00  0.00     0.006 A 
ENDBRANCH  54  75
BRANCH  66  83
ATOM     83  C   UNL     1     -12.334  -9.063   9.790  1.00  0.00     0.057 A 
ATOM     84  C   UNL     1     -13.388  -9.673  10.476  1.00  0.00     0.134 A 
ATOM     85  C   UNL     1     -12.514  -7.722   9.415  1.00  0.00     0.134 A 
ATOM     86  F   UNL     1     -13.311 -10.969  10.817  1.00  0.00    -0.206 F 
ATOM     87  C   UNL     1     -14.560  -8.982  10.792  1.00  0.00     0.040 A 
ATOM     88  C   UNL     1     -13.668  -7.008   9.754  1.00  0.00     0.040 A 
ATOM     89  F   UNL     1     -11.605  -7.082   8.670  1.00  0.00    -0.206 F 
ATOM     90  C   UNL     1     -14.697  -7.641  10.443  1.00  0.00     0.006 A 
ENDBRANCH  66  83
ENDBRANCH  40  41
ENDBRANCH  32  35
ENDBRANCH  30  31
ENDBRANCH  29  30
ENDBRANCH  28  29
ENDBRANCH  27  28
ENDBRANCH   1  27
TORSDOF 14
