REMARK SMILES CC[C@@](C)(NC(=O)Nc1ccccc1C#N)C(=O)NCCCCCCNC(=O)c1ccc(-c2c3nc(c(-c4c(F)cccc4F)c4ccc([nH]4)c(-c4c(F)cccc4F)c4nc(c(-c5c(F)cccc5F)c5ccc2[nH]5)C=C4)C=C3)cc1
REMARK SMILES IDX 22 1 21 2 20 3 19 4 17 5 18 6 3 8 4 9 2 10 1 11 5 12 6 13
REMARK SMILES IDX 7 15 8 16 9 18 10 19 14 20 11 21 13 22 12 23 15 24 16 25
REMARK SMILES IDX 23 26 24 27 25 28 26 29 27 30 28 32 29 33 30 34 82 35 31 36
REMARK SMILES IDX 81 37 32 38 33 39 34 40 75 41 35 42 80 43 74 44 76 45 36 46
REMARK SMILES IDX 79 47 73 48 72 49 37 51 63 52 46 53 62 54 47 55 50 56 61 57
REMARK SMILES IDX 77 58 48 59 49 60 60 62 78 63 51 64 38 65 39 66 44 67 40 68
REMARK SMILES IDX 41 69 43 70 45 71 42 72 64 73 65 74 70 75 66 76 67 77 69 78
REMARK SMILES IDX 71 79 68 80 52 81 53 82 58 83 54 84 55 85 57 86 59 87 56 88
REMARK H PARENT 19 7 5 14 8 17 26 31 76 50 50 61
REMARK Flexibility Score: inf
ROOT
ATOM      1  C   UNL     1       4.018   5.226  -3.636  1.00  0.00     0.002 C 
ENDROOT
BRANCH   1   2
ATOM      2  C   UNL     1       2.481   5.391  -3.599  1.00  0.00     0.021 C 
BRANCH   2   3
ATOM      3  C   UNL     1       1.537   4.171  -3.798  1.00  0.00     0.116 C 
BRANCH   3   4
ATOM      4  N   UNL     1       2.002   2.945  -3.165  1.00  0.00    -0.354 N 
ATOM      5  C   UNL     1       1.389   1.934  -2.425  1.00  0.00     0.245 C 
ATOM      6  O   UNL     1       1.542   0.747  -2.707  1.00  0.00    -0.272 OA
ATOM      7  H   UNL     1       2.967   2.795  -3.288  1.00  0.00     0.163 HD
BRANCH   5   8
ATOM      8  C   UNL     1       0.519   2.350  -1.239  1.00  0.00     0.117 C 
ATOM      9  C   UNL     1      -0.875   2.314  -1.922  1.00  0.00     0.045 C 
BRANCH   8  10
ATOM     10  C   UNL     1       0.395   1.563   0.090  1.00  0.00     0.035 C 
ATOM     11  C   UNL     1       0.733   0.090   0.121  1.00  0.00     0.007 C 
ENDBRANCH   8  10
BRANCH   8  12
ATOM     12  N   UNL     1       1.014   3.675  -0.881  1.00  0.00    -0.324 N 
ATOM     13  C   UNL     1       2.229   4.124  -0.542  1.00  0.00     0.320 C 
ATOM     14  H   UNL     1       0.320   4.374  -0.890  1.00  0.00     0.166 HD
ATOM     15  O   UNL     1       2.245   5.281  -0.095  1.00  0.00    -0.248 OA
ATOM     16  N   UNL     1       3.451   3.547  -0.666  1.00  0.00    -0.307 N 
ATOM     17  H   UNL     1       4.121   4.266  -0.721  1.00  0.00     0.171 HD
BRANCH  16  18
ATOM     18  C   UNL     1       4.148   2.284  -0.750  1.00  0.00     0.060 A 
ATOM     19  C   UNL     1       4.997   2.117   0.368  1.00  0.00     0.027 A 
ATOM     20  C   UNL     1       4.351   1.314  -1.778  1.00  0.00     0.076 A 
ATOM     21  C   UNL     1       5.792   0.981   0.567  1.00  0.00     0.002 A 
ATOM     22  C   UNL     1       5.051   0.115  -1.508  1.00  0.00     0.021 A 
ATOM     23  C   UNL     1       5.759  -0.059  -0.340  1.00  0.00     0.002 A 
BRANCH  20  24
ATOM     24  C   UNL     1       4.200   1.400  -3.208  1.00  0.00     0.101 C 
ATOM     25  N   UNL     1       4.186   1.325  -4.374  1.00  0.00    -0.192 NA
ENDBRANCH  20  24
ENDBRANCH  16  18
ENDBRANCH   8  12
ENDBRANCH   5   8
ENDBRANCH   3   4
ENDBRANCH   2   3
ENDBRANCH   1   2
BRANCH   1  26
ATOM     26  C   UNL     1       4.654   4.613  -4.879  1.00  0.00     0.002 C 
BRANCH  26  27
ATOM     27  C   UNL     1       4.185   5.164  -6.210  1.00  0.00     0.021 C 
BRANCH  27  28
ATOM     28  C   UNL     1       4.424   6.651  -6.369  1.00  0.00     0.116 C 
BRANCH  28  29
ATOM     29  N   UNL     1       5.834   6.981  -6.519  1.00  0.00    -0.352 N 
ATOM     30  C   UNL     1       6.430   7.732  -7.503  1.00  0.00     0.251 C 
ATOM     31  H   UNL     1       6.436   6.620  -5.828  1.00  0.00     0.163 HD
ATOM     32  O   UNL     1       7.650   7.809  -7.588  1.00  0.00    -0.269 OA
BRANCH  30  33
ATOM     33  C   UNL     1       5.570   8.417  -8.490  1.00  0.00     0.039 A 
ATOM     34  C   UNL     1       5.840   8.254  -9.849  1.00  0.00     0.014 A 
ATOM     35  C   UNL     1       4.453   9.146  -8.070  1.00  0.00     0.014 A 
ATOM     36  C   UNL     1       4.943   8.760 -10.790  1.00  0.00     0.010 A 
ATOM     37  C   UNL     1       3.513   9.560  -9.005  1.00  0.00     0.010 A 
ATOM     38  C   UNL     1       3.748   9.372 -10.376  1.00  0.00    -0.014 A 
BRANCH  38  39
ATOM     39  C   UNL     1       2.728   9.809 -11.361  1.00  0.00     0.031 A 
ATOM     40  C   UNL     1       2.346  11.258 -11.463  1.00  0.00     0.074 A 
ATOM     41  C   UNL     1       2.100   8.890 -12.121  1.00  0.00     0.049 A 
ATOM     42  N   UNL     1       1.440  11.823 -12.220  1.00  0.00    -0.248 NA
ATOM     43  C   UNL     1       3.057  12.193 -10.577  1.00  0.00     0.031 C 
ATOM     44  C   UNL     1       2.343   7.447 -12.078  1.00  0.00     0.029 A 
ATOM     45  N   UNL     1       1.119   9.033 -13.070  1.00  0.00    -0.354 N 
ATOM     46  C   UNL     1       1.470  13.174 -11.899  1.00  0.00     0.074 A 
ATOM     47  C   UNL     1       2.433  13.332 -10.831  1.00  0.00     0.031 C 
ATOM     48  C   UNL     1       1.550   6.841 -12.975  1.00  0.00     0.029 A 
ATOM     49  C   UNL     1       0.707   7.843 -13.620  1.00  0.00     0.049 A 
ATOM     50  H   UNL     1       0.745   9.905 -13.332  1.00  0.00     0.167 HD
ATOM     51  C   UNL     1       0.778  14.193 -12.460  1.00  0.00     0.037 A 
ATOM     52  C   UNL     1      -0.254   7.583 -14.526  1.00  0.00     0.037 A 
ATOM     53  C   UNL     1      -0.182  14.027 -13.521  1.00  0.00     0.049 A 
ATOM     54  C   UNL     1      -1.039   8.725 -15.109  1.00  0.00     0.074 A 
ATOM     55  C   UNL     1      -0.901  15.001 -14.192  1.00  0.00     0.029 A 
ATOM     56  N   UNL     1      -0.570  12.806 -14.053  1.00  0.00    -0.354 N 
ATOM     57  N   UNL     1      -0.945  10.008 -14.855  1.00  0.00    -0.248 NA
ATOM     58  C   UNL     1      -2.061   8.386 -16.109  1.00  0.00     0.031 C 
ATOM     59  C   UNL     1      -1.774  14.365 -15.079  1.00  0.00     0.029 A 
ATOM     60  C   UNL     1      -1.547  12.999 -15.017  1.00  0.00     0.049 A 
ATOM     61  H   UNL     1      -0.204  11.932 -13.787  1.00  0.00     0.167 HD
ATOM     62  C   UNL     1      -1.876  10.630 -15.677  1.00  0.00     0.074 A 
ATOM     63  C   UNL     1      -2.511   9.585 -16.452  1.00  0.00     0.031 C 
ATOM     64  C   UNL     1      -2.177  11.949 -15.780  1.00  0.00     0.037 A 
BRANCH  51  65
ATOM     65  C   UNL     1       1.026  15.575 -11.921  1.00  0.00     0.057 A 
ATOM     66  C   UNL     1       2.258  16.225 -12.080  1.00  0.00     0.134 A 
ATOM     67  C   UNL     1       0.016  16.270 -11.244  1.00  0.00     0.134 A 
ATOM     68  F   UNL     1       3.273  15.615 -12.711  1.00  0.00    -0.206 F 
ATOM     69  C   UNL     1       2.490  17.495 -11.549  1.00  0.00     0.040 A 
ATOM     70  C   UNL     1       0.224  17.555 -10.740  1.00  0.00     0.040 A 
ATOM     71  F   UNL     1      -1.191  15.714 -11.062  1.00  0.00    -0.206 F 
ATOM     72  C   UNL     1       1.468  18.167 -10.882  1.00  0.00     0.006 A 
ENDBRANCH  51  65
BRANCH  52  73
ATOM     73  C   UNL     1      -0.528   6.180 -14.931  1.00  0.00     0.057 A 
ATOM     74  C   UNL     1      -0.240   5.723 -16.222  1.00  0.00     0.134 A 
ATOM     75  C   UNL     1      -1.079   5.259 -14.031  1.00  0.00     0.134 A 
ATOM     76  F   UNL     1       0.272   6.560 -17.136  1.00  0.00    -0.206 F 
ATOM     77  C   UNL     1      -0.507   4.408 -16.610  1.00  0.00     0.040 A 
ATOM     78  C   UNL     1      -1.322   3.934 -14.395  1.00  0.00     0.040 A 
ATOM     79  F   UNL     1      -1.371   5.630 -12.775  1.00  0.00    -0.206 F 
ATOM     80  C   UNL     1      -1.042   3.507 -15.691  1.00  0.00     0.006 A 
ENDBRANCH  52  73
BRANCH  64  81
ATOM     81  C   UNL     1      -3.221  12.343 -16.786  1.00  0.00     0.057 A 
ATOM     82  C   UNL     1      -4.576  12.035 -16.611  1.00  0.00     0.134 A 
ATOM     83  C   UNL     1      -2.870  13.084 -17.922  1.00  0.00     0.134 A 
ATOM     84  F   UNL     1      -4.980  11.318 -15.551  1.00  0.00    -0.206 F 
ATOM     85  C   UNL     1      -5.540  12.428 -17.541  1.00  0.00     0.040 A 
ATOM     86  C   UNL     1      -3.829  13.512 -18.842  1.00  0.00     0.040 A 
ATOM     87  F   UNL     1      -1.592  13.423 -18.148  1.00  0.00    -0.206 F 
ATOM     88  C   UNL     1      -5.168  13.178 -18.656  1.00  0.00     0.006 A 
ENDBRANCH  64  81
ENDBRANCH  38  39
ENDBRANCH  30  33
ENDBRANCH  28  29
ENDBRANCH  27  28
ENDBRANCH  26  27
ENDBRANCH   1  26
TORSDOF 17
