REMARK SMILES C[C@@H]1CCC[C@H](C)[N@H+]1Cc1cc2c(cc1Cl)C=C(C(=O)NCCCCCCNC(=O)c1ccc(-c3c4nc(c(-c5c(F)cccc5F)c5ccc([nH]5)c(-c5c(F)cccc5F)c5nc(c(-c6c(F)cccc6F)c6ccc3[nH]6)C=C5)C=C4)cc1)[C@@H](C(F)(F)F)O2
REMARK SMILES IDX 24 1 23 2 22 3 21 4 19 5 20 6 18 8 10 9 11 10 15 11 12 12
REMARK SMILES IDX 14 13 16 14 13 15 90 16 17 17 85 18 9 19 8 20 7 21 6 22 5 23
REMARK SMILES IDX 4 24 2 25 3 27 1 28 86 29 87 30 88 31 89 32 25 33 26 34
REMARK SMILES IDX 27 35 28 36 29 37 30 39 31 40 32 41 84 42 33 43 83 44 34 45
REMARK SMILES IDX 35 46 36 47 77 48 37 49 82 50 76 51 78 52 38 53 81 54 75 55
REMARK SMILES IDX 74 56 39 58 65 59 48 60 64 61 49 62 52 63 63 64 79 65 50 66
REMARK SMILES IDX 51 67 62 69 80 70 53 71 40 72 41 73 46 74 42 75 43 76 45 77
REMARK SMILES IDX 47 78 44 79 66 80 67 81 72 82 68 83 69 84 71 85 73 86 70 87
REMARK SMILES IDX 54 88 55 89 60 90 56 91 57 92 59 93 61 94 58 95
REMARK H PARENT 21 7 8 26 28 38 78 57 52 68
REMARK Flexibility Score: inf
ROOT
ATOM      1  C   UNL     1       1.491   5.051 -11.660  1.00  0.00     0.002 C 
ENDROOT
BRANCH   1   2
ATOM      2  C   UNL     1       0.984   4.371 -10.384  1.00  0.00     0.021 C 
BRANCH   2   3
ATOM      3  C   UNL     1       1.039   2.847 -10.426  1.00  0.00     0.116 C 
BRANCH   3   4
ATOM      4  N   UNL     1       2.355   2.353 -10.066  1.00  0.00    -0.352 N 
ATOM      5  C   UNL     1       2.866   1.441  -9.208  1.00  0.00     0.251 C 
ATOM      6  O   UNL     1       4.089   1.282  -9.281  1.00  0.00    -0.270 OA
ATOM      7  H   UNL     1       3.063   2.800 -10.584  1.00  0.00     0.163 HD
BRANCH   5   8
ATOM      8  C   UNL     1       2.081   0.663  -8.209  1.00  0.00     0.067 C 
ATOM      9  C   UNL     1       0.910  -2.103  -4.154  1.00  0.00     0.029 A 
ATOM     10  C   UNL     1       0.305  -1.023  -4.820  1.00  0.00     0.058 A 
ATOM     11  C   UNL     1       2.001  -2.732  -4.781  1.00  0.00     0.050 A 
ATOM     12  C   UNL     1       0.878  -0.492  -5.971  1.00  0.00     0.128 A 
ATOM     13  C   UNL     1       2.603  -2.162  -5.909  1.00  0.00     0.033 A 
ATOM     14  Cl  UNL     1       2.677  -4.216  -4.209  1.00  0.00    -0.084 Cl
ATOM     15  C   UNL     1       2.069  -1.008  -6.475  1.00  0.00     0.019 A 
ATOM     16  O   UNL     1       0.262   0.595  -6.522  1.00  0.00    -0.475 OA
ATOM     17  C   UNL     1       2.764  -0.276  -7.527  1.00  0.00     0.025 C 
ATOM     18  C   UNL     1       0.623   0.863  -7.907  1.00  0.00     0.314 C 
BRANCH   9  19
ATOM     19  C   UNL     1       0.415  -2.461  -2.767  1.00  0.00     0.301 C 
BRANCH  19  20
ATOM     20  N   UNL     1       1.025  -1.723  -1.636  1.00  0.00    -0.327 N 
ATOM     21  C   UNL     1       0.410   0.107  -0.083  1.00  0.00     0.075 C 
ATOM     22  C   UNL     1       0.676  -0.296  -1.543  1.00  0.00     0.181 C 
ATOM     23  C   UNL     1       1.706   0.657  -2.174  1.00  0.00     0.065 C 
ATOM     24  C   UNL     1       3.141   0.343  -1.772  1.00  0.00     0.012 C 
ATOM     25  C   UNL     1       2.425  -2.075  -1.357  1.00  0.00     0.181 C 
ATOM     26  H   UNL     1       0.539  -2.094  -0.820  1.00  0.00     0.348 HD
ATOM     27  C   UNL     1       3.457  -1.129  -1.993  1.00  0.00     0.065 C 
ATOM     28  C   UNL     1       2.673  -2.225   0.150  1.00  0.00     0.075 C 
ENDBRANCH  19  20
ENDBRANCH   9  19
BRANCH  18  29
ATOM     29  C   UNL     1      -0.272   0.047  -8.862  1.00  0.00     0.429 C 
ATOM     30  F   UNL     1      -1.557   0.472  -8.796  1.00  0.00    -0.167 F 
ATOM     31  F   UNL     1       0.109   0.180 -10.157  1.00  0.00    -0.167 F 
ATOM     32  F   UNL     1      -0.267  -1.277  -8.589  1.00  0.00    -0.167 F 
ENDBRANCH  18  29
ENDBRANCH   5   8
ENDBRANCH   3   4
ENDBRANCH   2   3
ENDBRANCH   1   2
BRANCH   1  33
ATOM     33  C   UNL     1       0.776   4.640 -12.954  1.00  0.00     0.002 C 
BRANCH  33  34
ATOM     34  C   UNL     1      -0.753   4.665 -12.901  1.00  0.00     0.021 C 
BRANCH  34  35
ATOM     35  C   UNL     1      -1.360   6.009 -12.519  1.00  0.00     0.116 C 
BRANCH  35  36
ATOM     36  N   UNL     1      -1.069   7.051 -13.491  1.00  0.00    -0.352 N 
ATOM     37  C   UNL     1      -1.931   7.927 -14.104  1.00  0.00     0.251 C 
ATOM     38  H   UNL     1      -0.122   7.141 -13.745  1.00  0.00     0.163 HD
ATOM     39  O   UNL     1      -1.540   8.648 -15.017  1.00  0.00    -0.269 OA
BRANCH  37  40
ATOM     40  C   UNL     1      -3.345   7.971 -13.678  1.00  0.00     0.039 A 
ATOM     41  C   UNL     1      -3.678   8.013 -12.322  1.00  0.00     0.014 A 
ATOM     42  C   UNL     1      -4.349   7.937 -14.650  1.00  0.00     0.014 A 
ATOM     43  C   UNL     1      -5.004   7.859 -11.935  1.00  0.00     0.010 A 
ATOM     44  C   UNL     1      -5.688   7.862 -14.258  1.00  0.00     0.010 A 
ATOM     45  C   UNL     1      -6.023   7.773 -12.898  1.00  0.00    -0.014 A 
BRANCH  45  46
ATOM     46  C   UNL     1      -7.428   7.573 -12.458  1.00  0.00     0.031 A 
ATOM     47  C   UNL     1      -8.163   6.302 -12.790  1.00  0.00     0.074 A 
ATOM     48  C   UNL     1      -8.024   8.521 -11.709  1.00  0.00     0.049 A 
ATOM     49  N   UNL     1      -9.384   5.948 -12.475  1.00  0.00    -0.248 NA
ATOM     50  C   UNL     1      -7.435   5.298 -13.581  1.00  0.00     0.031 C 
ATOM     51  C   UNL     1      -7.412   9.790 -11.311  1.00  0.00     0.029 A 
ATOM     52  N   UNL     1      -9.266   8.553 -11.130  1.00  0.00    -0.354 N 
ATOM     53  C   UNL     1      -9.577   4.695 -13.044  1.00  0.00     0.074 A 
ATOM     54  C   UNL     1      -8.357   4.361 -13.748  1.00  0.00     0.031 C 
ATOM     55  C   UNL     1      -8.261  10.454 -10.511  1.00  0.00     0.029 A 
ATOM     56  C   UNL     1      -9.495   9.687 -10.390  1.00  0.00     0.049 A 
ATOM     57  H   UNL     1      -9.930   7.834 -11.235  1.00  0.00     0.167 HD
ATOM     58  C   UNL     1     -10.666   3.892 -12.978  1.00  0.00     0.037 A 
ATOM     59  C   UNL     1     -10.585  10.072  -9.701  1.00  0.00     0.037 A 
ATOM     60  C   UNL     1     -11.872   4.215 -12.260  1.00  0.00     0.049 A 
ATOM     61  C   UNL     1     -11.795   9.184  -9.687  1.00  0.00     0.074 A 
ATOM     62  C   UNL     1     -13.019   3.454 -12.109  1.00  0.00     0.029 A 
ATOM     63  N   UNL     1     -12.087   5.400 -11.573  1.00  0.00    -0.354 N 
ATOM     64  N   UNL     1     -11.955   7.996 -10.217  1.00  0.00    -0.248 NA
ATOM     65  C   UNL     1     -12.980   9.698  -8.987  1.00  0.00     0.031 C 
ATOM     66  C   UNL     1     -13.943   4.195 -11.364  1.00  0.00     0.029 A 
ATOM     67  C   UNL     1     -13.356   5.401 -11.015  1.00  0.00     0.049 A 
ATOM     68  H   UNL     1     -11.435   6.133 -11.492  1.00  0.00     0.167 HD
ATOM     69  C   UNL     1     -13.252   7.614  -9.902  1.00  0.00     0.074 A 
ATOM     70  C   UNL     1     -13.826   8.686  -9.116  1.00  0.00     0.031 C 
ATOM     71  C   UNL     1     -13.911   6.478 -10.238  1.00  0.00     0.037 A 
BRANCH  58  72
ATOM     72  C   UNL     1     -10.610   2.588 -13.720  1.00  0.00     0.057 A 
ATOM     73  C   UNL     1     -11.370   2.394 -14.881  1.00  0.00     0.134 A 
ATOM     74  C   UNL     1      -9.828   1.514 -13.275  1.00  0.00     0.134 A 
ATOM     75  F   UNL     1     -12.145   3.379 -15.359  1.00  0.00    -0.206 F 
ATOM     76  C   UNL     1     -11.355   1.181 -15.571  1.00  0.00     0.040 A 
ATOM     77  C   UNL     1      -9.787   0.303 -13.969  1.00  0.00     0.040 A 
ATOM     78  F   UNL     1      -9.065   1.638 -12.178  1.00  0.00    -0.206 F 
ATOM     79  C   UNL     1     -10.557   0.133 -15.118  1.00  0.00     0.006 A 
ENDBRANCH  58  72
BRANCH  59  80
ATOM     80  C   UNL     1     -10.588  11.366  -8.974  1.00  0.00     0.057 A 
ATOM     81  C   UNL     1     -10.588  12.587  -9.658  1.00  0.00     0.134 A 
ATOM     82  C   UNL     1     -10.612  11.408  -7.576  1.00  0.00     0.134 A 
ATOM     83  F   UNL     1     -10.563  12.613 -10.998  1.00  0.00    -0.206 F 
ATOM     84  C   UNL     1     -10.602  13.805  -8.977  1.00  0.00     0.040 A 
ATOM     85  C   UNL     1     -10.653  12.618  -6.882  1.00  0.00     0.040 A 
ATOM     86  F   UNL     1     -10.633  10.269  -6.867  1.00  0.00    -0.206 F 
ATOM     87  C   UNL     1     -10.643  13.822  -7.585  1.00  0.00     0.006 A 
ENDBRANCH  59  80
BRANCH  71  88
ATOM     88  C   UNL     1     -15.316   6.338  -9.731  1.00  0.00     0.057 A 
ATOM     89  C   UNL     1     -15.615   5.446  -8.694  1.00  0.00     0.134 A 
ATOM     90  C   UNL     1     -16.371   7.084 -10.272  1.00  0.00     0.134 A 
ATOM     91  F   UNL     1     -14.650   4.699  -8.138  1.00  0.00    -0.206 F 
ATOM     92  C   UNL     1     -16.916   5.303  -8.210  1.00  0.00     0.040 A 
ATOM     93  C   UNL     1     -17.671   6.968  -9.779  1.00  0.00     0.040 A 
ATOM     94  F   UNL     1     -16.145   7.968 -11.255  1.00  0.00    -0.206 F 
ATOM     95  C   UNL     1     -17.947   6.072  -8.747  1.00  0.00     0.006 A 
ENDBRANCH  71  88
ENDBRANCH  45  46
ENDBRANCH  37  40
ENDBRANCH  35  36
ENDBRANCH  34  35
ENDBRANCH  33  34
ENDBRANCH   1  33
TORSDOF 16
