REMARK SMILES CN(C)c1ccc(-c2nnc([C@H]3CC[N@@H+](Cc4ccc(C(=O)NCCCCCCNC(=O)c5ccc(-c6c7nc(c(-c8c(F)cccc8F)c8ccc([nH]8)c(-c8c(F)cccc8F)c8nc(c(-c9c(F)cccc9F)c9ccc6[nH]9)C=C8)C=C7)cc5)cc4)C3)o2)cc1
REMARK SMILES IDX 25 1 24 2 23 3 21 4 22 5 20 7 17 8 18 9 88 10 19 11 87 12
REMARK SMILES IDX 16 13 15 14 12 15 13 16 89 17 14 18 11 20 8 21 9 22 90 23
REMARK SMILES IDX 10 24 7 25 4 26 5 27 92 28 6 29 91 30 2 31 1 32 3 33 26 34
REMARK SMILES IDX 27 35 28 36 29 37 30 38 31 39 32 41 33 42 34 43 86 44 35 45
REMARK SMILES IDX 85 46 36 47 37 48 38 49 79 50 39 51 84 52 78 53 80 54 40 55
REMARK SMILES IDX 83 56 77 57 76 58 41 60 67 61 50 62 66 63 51 64 54 65 65 66
REMARK SMILES IDX 81 67 52 68 53 69 64 71 82 72 55 73 42 74 43 75 48 76 44 77
REMARK SMILES IDX 45 78 47 79 49 80 46 81 68 82 69 83 74 84 70 85 71 86 73 87
REMARK SMILES IDX 75 88 72 89 56 90 57 91 62 92 58 93 59 94 61 95 63 96 60 97
REMARK H PARENT 23 6 15 19 30 40 80 59 54 70
REMARK Flexibility Score: inf
ROOT
ATOM      1  C   UNL     1       4.902   6.120  14.151  1.00  0.00     0.021 C 
ENDROOT
BRANCH   1   2
ATOM      2  C   UNL     1       4.296   7.213  13.264  1.00  0.00     0.116 C 
BRANCH   2   3
ATOM      3  N   UNL     1       5.025   8.472  13.369  1.00  0.00    -0.352 N 
ATOM      4  C   UNL     1       5.733   9.195  12.435  1.00  0.00     0.251 C 
ATOM      5  O   UNL     1       6.080  10.341  12.712  1.00  0.00    -0.269 OA
ATOM      6  H   UNL     1       5.009   8.876  14.267  1.00  0.00     0.163 HD
BRANCH   4   7
ATOM      7  C   UNL     1       6.082   8.650  11.098  1.00  0.00     0.039 A 
ATOM      8  C   UNL     1       6.760   7.691   8.526  1.00  0.00     0.006 A 
ATOM      9  C   UNL     1       6.349   9.019   8.709  1.00  0.00     0.010 A 
ATOM     10  C   UNL     1       6.913   6.885   9.660  1.00  0.00     0.010 A 
ATOM     11  C   UNL     1       6.019   9.496   9.984  1.00  0.00     0.014 A 
ATOM     12  C   UNL     1       6.576   7.359  10.935  1.00  0.00     0.014 A 
BRANCH   8  13
ATOM     13  C   UNL     1       7.009   7.139   7.136  1.00  0.00     0.299 C 
BRANCH  13  14
ATOM     14  N   UNL     1       5.900   6.416   6.489  1.00  0.00    -0.330 N 
ATOM     15  C   UNL     1       4.214   5.156   7.696  1.00  0.00     0.138 C 
ATOM     16  C   UNL     1       3.807   6.622   7.596  1.00  0.00     0.081 C 
ATOM     17  C   UNL     1       5.607   5.092   7.060  1.00  0.00     0.276 C 
ATOM     18  C   UNL     1       4.631   7.142   6.429  1.00  0.00     0.263 C 
ATOM     19  H   UNL     1       6.277   6.312   5.547  1.00  0.00     0.348 HD
BRANCH  15  20
ATOM     20  C   UNL     1       4.109   4.618   9.078  1.00  0.00     0.225 A 
ATOM     21  C   UNL     1       4.731   3.726  10.909  1.00  0.00     0.247 A 
ATOM     22  N   UNL     1       3.424   3.876  10.988  1.00  0.00    -0.108 NA
ATOM     23  O   UNL     1       5.240   4.174   9.720  1.00  0.00    -0.420 OA
ATOM     24  N   UNL     1       3.023   4.462   9.807  1.00  0.00    -0.112 NA
BRANCH  21  25
ATOM     25  C   UNL     1       5.659   3.262  11.930  1.00  0.00     0.039 A 
ATOM     26  C   UNL     1       7.174   2.754  14.289  1.00  0.00     0.036 A 
ATOM     27  C   UNL     1       6.026   2.020  13.984  1.00  0.00     0.027 A 
ATOM     28  C   UNL     1       7.630   3.634  13.302  1.00  0.00     0.027 A 
ATOM     29  C   UNL     1       5.250   2.296  12.849  1.00  0.00     0.016 A 
ATOM     30  C   UNL     1       6.906   3.858  12.124  1.00  0.00     0.016 A 
BRANCH  26  31
ATOM     31  N   UNL     1       7.838   2.670  15.507  1.00  0.00    -0.378 N 
ATOM     32  C   UNL     1       7.910   3.908  16.289  1.00  0.00     0.143 C 
ATOM     33  C   UNL     1       7.823   1.446  16.296  1.00  0.00     0.143 C 
ENDBRANCH  26  31
ENDBRANCH  21  25
ENDBRANCH  15  20
ENDBRANCH  13  14
ENDBRANCH   8  13
ENDBRANCH   4   7
ENDBRANCH   2   3
ENDBRANCH   1   2
BRANCH   1  34
ATOM     34  C   UNL     1       4.538   6.178  15.642  1.00  0.00     0.002 C 
BRANCH  34  35
ATOM     35  C   UNL     1       3.130   5.695  16.028  1.00  0.00     0.002 C 
BRANCH  35  36
ATOM     36  C   UNL     1       2.729   4.268  15.616  1.00  0.00     0.021 C 
BRANCH  36  37
ATOM     37  C   UNL     1       3.544   3.111  16.209  1.00  0.00     0.116 C 
BRANCH  37  38
ATOM     38  N   UNL     1       3.258   2.846  17.613  1.00  0.00    -0.352 N 
ATOM     39  C   UNL     1       3.068   1.662  18.296  1.00  0.00     0.251 C 
ATOM     40  H   UNL     1       3.188   3.653  18.172  1.00  0.00     0.163 HD
ATOM     41  O   UNL     1       2.754   1.708  19.483  1.00  0.00    -0.269 OA
BRANCH  39  42
ATOM     42  C   UNL     1       3.219   0.327  17.652  1.00  0.00     0.039 A 
ATOM     43  C   UNL     1       2.351  -0.711  18.009  1.00  0.00     0.014 A 
ATOM     44  C   UNL     1       4.255   0.047  16.764  1.00  0.00     0.014 A 
ATOM     45  C   UNL     1       2.473  -1.980  17.419  1.00  0.00     0.010 A 
ATOM     46  C   UNL     1       4.359  -1.203  16.137  1.00  0.00     0.010 A 
ATOM     47  C   UNL     1       3.458  -2.229  16.449  1.00  0.00    -0.014 A 
BRANCH  47  48
ATOM     48  C   UNL     1       3.497  -3.520  15.705  1.00  0.00     0.031 A 
ATOM     49  C   UNL     1       4.597  -4.525  15.912  1.00  0.00     0.074 A 
ATOM     50  C   UNL     1       2.554  -3.764  14.773  1.00  0.00     0.049 A 
ATOM     51  N   UNL     1       4.758  -5.700  15.352  1.00  0.00    -0.248 NA
ATOM     52  C   UNL     1       5.663  -4.159  16.854  1.00  0.00     0.031 C 
ATOM     53  C   UNL     1       1.467  -2.852  14.417  1.00  0.00     0.029 A 
ATOM     54  N   UNL     1       2.366  -4.845  13.947  1.00  0.00    -0.354 N 
ATOM     55  C   UNL     1       5.935  -6.218  15.877  1.00  0.00     0.074 A 
ATOM     56  C   UNL     1       6.473  -5.207  16.767  1.00  0.00     0.031 C 
ATOM     57  C   UNL     1       0.722  -3.414  13.452  1.00  0.00     0.029 A 
ATOM     58  C   UNL     1       1.284  -4.718  13.111  1.00  0.00     0.049 A 
ATOM     59  H   UNL     1       2.952  -5.637  13.953  1.00  0.00     0.167 HD
ATOM     60  C   UNL     1       6.506  -7.429  15.656  1.00  0.00     0.037 A 
ATOM     61  C   UNL     1       0.790  -5.554  12.178  1.00  0.00     0.037 A 
ATOM     62  C   UNL     1       5.975  -8.441  14.777  1.00  0.00     0.049 A 
ATOM     63  C   UNL     1       1.438  -6.890  11.952  1.00  0.00     0.074 A 
ATOM     64  C   UNL     1       6.447  -9.725  14.554  1.00  0.00     0.029 A 
ATOM     65  N   UNL     1       4.865  -8.281  13.963  1.00  0.00    -0.354 N 
ATOM     66  N   UNL     1       2.490  -7.407  12.536  1.00  0.00    -0.248 NA
ATOM     67  C   UNL     1       0.818  -7.766  10.946  1.00  0.00     0.031 C 
ATOM     68  C   UNL     1       5.646 -10.327  13.577  1.00  0.00     0.029 A 
ATOM     69  C   UNL     1       4.651  -9.433  13.220  1.00  0.00     0.049 A 
ATOM     70  H   UNL     1       4.309  -7.470  13.919  1.00  0.00     0.167 HD
ATOM     71  C   UNL     1       2.641  -8.675  11.992  1.00  0.00     0.074 A 
ATOM     72  C   UNL     1       1.570  -8.854  11.036  1.00  0.00     0.031 C 
ATOM     73  C   UNL     1       3.584  -9.609  12.269  1.00  0.00     0.037 A 
BRANCH  60  74
ATOM     74  C   UNL     1       7.777  -7.742  16.393  1.00  0.00     0.057 A 
ATOM     75  C   UNL     1       7.778  -8.017  17.766  1.00  0.00     0.134 A 
ATOM     76  C   UNL     1       8.998  -7.837  15.714  1.00  0.00     0.134 A 
ATOM     77  F   UNL     1       6.642  -7.943  18.476  1.00  0.00    -0.206 F 
ATOM     78  C   UNL     1       8.953  -8.353  18.443  1.00  0.00     0.040 A 
ATOM     79  C   UNL     1      10.175  -8.193  16.375  1.00  0.00     0.040 A 
ATOM     80  F   UNL     1       9.065  -7.600  14.395  1.00  0.00    -0.206 F 
ATOM     81  C   UNL     1      10.155  -8.448  17.745  1.00  0.00     0.006 A 
ENDBRANCH  60  74
BRANCH  61  82
ATOM     82  C   UNL     1      -0.417  -5.163  11.411  1.00  0.00     0.057 A 
ATOM     83  C   UNL     1      -1.658  -5.753  11.674  1.00  0.00     0.134 A 
ATOM     84  C   UNL     1      -0.360  -4.189  10.408  1.00  0.00     0.134 A 
ATOM     85  F   UNL     1      -1.766  -6.706  12.611  1.00  0.00    -0.206 F 
ATOM     86  C   UNL     1      -2.801  -5.394  10.960  1.00  0.00     0.040 A 
ATOM     87  C   UNL     1      -1.500  -3.807   9.699  1.00  0.00     0.040 A 
ATOM     88  F   UNL     1       0.801  -3.586  10.114  1.00  0.00    -0.206 F 
ATOM     89  C   UNL     1      -2.724  -4.414   9.972  1.00  0.00     0.006 A 
ENDBRANCH  61  82
BRANCH  73  90
ATOM     90  C   UNL     1       3.483 -10.921  11.549  1.00  0.00     0.057 A 
ATOM     91  C   UNL     1       3.826 -11.050  10.198  1.00  0.00     0.134 A 
ATOM     92  C   UNL     1       3.061 -12.074  12.223  1.00  0.00     0.134 A 
ATOM     93  F   UNL     1       4.224  -9.981   9.492  1.00  0.00    -0.206 F 
ATOM     94  C   UNL     1       3.734 -12.276   9.536  1.00  0.00     0.040 A 
ATOM     95  C   UNL     1       2.985 -13.310  11.578  1.00  0.00     0.040 A 
ATOM     96  F   UNL     1       2.721 -12.020  13.520  1.00  0.00    -0.206 F 
ATOM     97  C   UNL     1       3.317 -13.412  10.229  1.00  0.00     0.006 A 
ENDBRANCH  73  90
ENDBRANCH  47  48
ENDBRANCH  39  42
ENDBRANCH  37  38
ENDBRANCH  36  37
ENDBRANCH  35  36
ENDBRANCH  34  35
ENDBRANCH   1  34
TORSDOF 18
