REMARK SMILES CC[C@H](C(=O)NCCCCCCNC(=O)c1ccc(-c2c3nc(c(-c4c(F)cccc4F)c4ccc([nH]4)c(-c4c(F)cccc4F)c4nc(c(-c5c(F)cccc5F)c5ccc2[nH]5)C=C4)C=C3)cc1)[N@H+](C)[C@H]1CC[C@H]([NH3+])CC1
REMARK SMILES IDX 9 1 8 2 7 3 6 4 4 5 5 6 3 8 2 9 1 10 70 11 71 12 72 14 73 15
REMARK SMILES IDX 78 16 74 17 77 18 75 19 76 20 10 24 11 25 12 26 13 27 14 28
REMARK SMILES IDX 15 30 16 31 17 32 69 33 18 34 68 35 19 36 20 37 21 38 62 39
REMARK SMILES IDX 22 40 67 41 61 42 63 43 23 44 66 45 60 46 59 47 24 49 50 50
REMARK SMILES IDX 33 51 49 52 34 53 37 54 48 55 64 56 35 57 36 58 47 60 65 61
REMARK SMILES IDX 38 62 25 63 26 64 31 65 27 66 28 67 30 68 32 69 29 70 51 71
REMARK SMILES IDX 52 72 57 73 53 74 54 75 56 76 58 77 55 78 39 79 40 80 45 81
REMARK SMILES IDX 41 82 42 83 44 84 46 85 43 86
REMARK H PARENT 6 7 70 13 76 21 76 22 76 23 13 29 63 48 37 59
REMARK Flexibility Score: inf
ROOT
ATOM      1  C   UNL     1      -1.510  -0.223  -2.633  1.00  0.00     0.002 C 
ENDROOT
BRANCH   1   2
ATOM      2  C   UNL     1      -0.570   0.833  -2.044  1.00  0.00     0.021 C 
BRANCH   2   3
ATOM      3  C   UNL     1      -0.868   1.141  -0.574  1.00  0.00     0.116 C 
BRANCH   3   4
ATOM      4  N   UNL     1      -0.142   0.205   0.255  1.00  0.00    -0.351 N 
ATOM      5  C   UNL     1       0.994   0.365   0.985  1.00  0.00     0.278 C 
ATOM      6  O   UNL     1       1.708  -0.642   1.094  1.00  0.00    -0.268 OA
ATOM      7  H   UNL     1      -0.535  -0.696   0.299  1.00  0.00     0.163 HD
BRANCH   5   8
ATOM      8  C   UNL     1       1.361   1.648   1.761  1.00  0.00     0.273 C 
BRANCH   8   9
ATOM      9  C   UNL     1       1.278   3.012   1.063  1.00  0.00     0.072 C 
ATOM     10  C   UNL     1       2.038   3.057  -0.259  1.00  0.00     0.011 C 
ENDBRANCH   8   9
BRANCH   8  11
ATOM     11  N   UNL     1       0.741   1.760   3.124  1.00  0.00    -0.325 N 
ATOM     12  C   UNL     1       1.781   1.712   4.154  1.00  0.00     0.333 C 
ATOM     13  H   UNL     1       0.306   2.682   3.111  1.00  0.00     0.348 HD
BRANCH  11  14
ATOM     14  C   UNL     1      -0.489   0.996   3.440  1.00  0.00     0.184 C 
ATOM     15  C   UNL     1      -1.181   1.594   4.700  1.00  0.00     0.071 C 
ATOM     16  C   UNL     1      -0.321  -0.528   3.651  1.00  0.00     0.071 C 
ATOM     17  C   UNL     1      -2.475   0.872   5.092  1.00  0.00     0.071 C 
ATOM     18  C   UNL     1      -1.648  -1.214   3.985  1.00  0.00     0.071 C 
ATOM     19  C   UNL     1      -2.243  -0.632   5.263  1.00  0.00     0.181 C 
BRANCH  19  20
ATOM     20  N   UNL     1      -3.485  -1.324   5.597  1.00  0.00    -0.355 N 
ATOM     21  H   UNL     1      -4.156  -1.202   4.839  1.00  0.00     0.344 HD
ATOM     22  H   UNL     1      -3.870  -0.935   6.458  1.00  0.00     0.344 HD
ATOM     23  H   UNL     1      -3.296  -2.317   5.728  1.00  0.00     0.344 HD
ENDBRANCH  19  20
ENDBRANCH  11  14
ENDBRANCH   8  11
ENDBRANCH   5   8
ENDBRANCH   3   4
ENDBRANCH   2   3
ENDBRANCH   1   2
BRANCH   1  24
ATOM     24  C   UNL     1      -2.962   0.242  -2.788  1.00  0.00     0.002 C 
BRANCH  24  25
ATOM     25  C   UNL     1      -3.142   1.548  -3.567  1.00  0.00     0.021 C 
BRANCH  25  26
ATOM     26  C   UNL     1      -2.507   1.548  -4.954  1.00  0.00     0.116 C 
BRANCH  26  27
ATOM     27  N   UNL     1      -3.107   0.544  -5.818  1.00  0.00    -0.352 N 
ATOM     28  C   UNL     1      -3.730   0.710  -7.025  1.00  0.00     0.251 C 
ATOM     29  H   UNL     1      -3.058  -0.383  -5.489  1.00  0.00     0.163 HD
ATOM     30  O   UNL     1      -4.389  -0.207  -7.518  1.00  0.00    -0.269 OA
BRANCH  28  31
ATOM     31  C   UNL     1      -3.617   1.997  -7.736  1.00  0.00     0.039 A 
ATOM     32  C   UNL     1      -4.766   2.577  -8.279  1.00  0.00     0.014 A 
ATOM     33  C   UNL     1      -2.373   2.621  -7.879  1.00  0.00     0.014 A 
ATOM     34  C   UNL     1      -4.675   3.809  -8.927  1.00  0.00     0.010 A 
ATOM     35  C   UNL     1      -2.295   3.878  -8.470  1.00  0.00     0.010 A 
ATOM     36  C   UNL     1      -3.443   4.479  -9.008  1.00  0.00    -0.014 A 
BRANCH  36  37
ATOM     37  C   UNL     1      -3.334   5.806  -9.661  1.00  0.00     0.031 A 
ATOM     38  C   UNL     1      -2.532   5.959 -10.923  1.00  0.00     0.074 A 
ATOM     39  C   UNL     1      -3.901   6.881  -9.082  1.00  0.00     0.049 A 
ATOM     40  N   UNL     1      -2.260   7.044 -11.603  1.00  0.00    -0.248 NA
ATOM     41  C   UNL     1      -1.932   4.736 -11.479  1.00  0.00     0.031 C 
ATOM     42  C   UNL     1      -4.661   6.866  -7.831  1.00  0.00     0.029 A 
ATOM     43  N   UNL     1      -3.915   8.198  -9.464  1.00  0.00    -0.354 N 
ATOM     44  C   UNL     1      -1.445   6.638 -12.652  1.00  0.00     0.074 A 
ATOM     45  C   UNL     1      -1.229   5.216 -12.494  1.00  0.00     0.031 C 
ATOM     46  C   UNL     1      -5.078   8.113  -7.556  1.00  0.00     0.029 A 
ATOM     47  C   UNL     1      -4.590   9.017  -8.593  1.00  0.00     0.049 A 
ATOM     48  H   UNL     1      -3.481   8.526 -10.285  1.00  0.00     0.167 HD
ATOM     49  C   UNL     1      -0.940   7.380 -13.665  1.00  0.00     0.037 A 
ATOM     50  C   UNL     1      -4.787  10.348  -8.624  1.00  0.00     0.037 A 
ATOM     51  C   UNL     1      -1.186   8.787 -13.837  1.00  0.00     0.049 A 
ATOM     52  C   UNL     1      -4.231  11.146  -9.770  1.00  0.00     0.074 A 
ATOM     53  C   UNL     1      -0.781   9.614 -14.870  1.00  0.00     0.029 A 
ATOM     54  N   UNL     1      -1.904   9.576 -12.950  1.00  0.00    -0.354 N 
ATOM     55  N   UNL     1      -3.523  10.736 -10.794  1.00  0.00    -0.248 NA
ATOM     56  C   UNL     1      -4.507  12.589  -9.768  1.00  0.00     0.031 C 
ATOM     57  C   UNL     1      -1.220  10.911 -14.589  1.00  0.00     0.029 A 
ATOM     58  C   UNL     1      -1.936  10.884 -13.403  1.00  0.00     0.049 A 
ATOM     59  H   UNL     1      -2.327   9.254 -12.122  1.00  0.00     0.167 HD
ATOM     60  C   UNL     1      -3.291  11.864 -11.571  1.00  0.00     0.074 A 
ATOM     61  C   UNL     1      -3.945  12.972 -10.906  1.00  0.00     0.031 C 
ATOM     62  C   UNL     1      -2.598  11.972 -12.731  1.00  0.00     0.037 A 
BRANCH  49  63
ATOM     63  C   UNL     1      -0.075   6.681 -14.672  1.00  0.00     0.057 A 
ATOM     64  C   UNL     1      -0.606   5.779 -15.604  1.00  0.00     0.134 A 
ATOM     65  C   UNL     1       1.300   6.942 -14.737  1.00  0.00     0.134 A 
ATOM     66  F   UNL     1      -1.913   5.476 -15.587  1.00  0.00    -0.206 F 
ATOM     67  C   UNL     1       0.203   5.145 -16.549  1.00  0.00     0.040 A 
ATOM     68  C   UNL     1       2.114   6.334 -15.694  1.00  0.00     0.040 A 
ATOM     69  F   UNL     1       1.872   7.799 -13.878  1.00  0.00    -0.206 F 
ATOM     70  C   UNL     1       1.566   5.428 -16.600  1.00  0.00     0.006 A 
ENDBRANCH  49  63
BRANCH  50  71
ATOM     71  C   UNL     1      -5.565  11.008  -7.546  1.00  0.00     0.057 A 
ATOM     72  C   UNL     1      -6.846  11.518  -7.789  1.00  0.00     0.134 A 
ATOM     73  C   UNL     1      -5.048  11.150  -6.253  1.00  0.00     0.134 A 
ATOM     74  F   UNL     1      -7.387  11.427  -9.013  1.00  0.00    -0.206 F 
ATOM     75  C   UNL     1      -7.578  12.161  -6.790  1.00  0.00     0.040 A 
ATOM     76  C   UNL     1      -5.779  11.770  -5.239  1.00  0.00     0.040 A 
ATOM     77  F   UNL     1      -3.830  10.675  -5.955  1.00  0.00    -0.206 F 
ATOM     78  C   UNL     1      -7.045  12.285  -5.509  1.00  0.00     0.006 A 
ENDBRANCH  50  71
BRANCH  62  79
ATOM     79  C   UNL     1      -2.538  13.328 -13.368  1.00  0.00     0.057 A 
ATOM     80  C   UNL     1      -1.744  14.355 -12.844  1.00  0.00     0.134 A 
ATOM     81  C   UNL     1      -3.253  13.595 -14.542  1.00  0.00     0.134 A 
ATOM     82  F   UNL     1      -1.046  14.166 -11.714  1.00  0.00    -0.206 F 
ATOM     83  C   UNL     1      -1.678  15.608 -13.455  1.00  0.00     0.040 A 
ATOM     84  C   UNL     1      -3.177  14.836 -15.175  1.00  0.00     0.040 A 
ATOM     85  F   UNL     1      -4.026  12.651 -15.099  1.00  0.00    -0.206 F 
ATOM     86  C   UNL     1      -2.391  15.849 -14.628  1.00  0.00     0.006 A 
ENDBRANCH  62  79
ENDBRANCH  36  37
ENDBRANCH  28  31
ENDBRANCH  26  27
ENDBRANCH  25  26
ENDBRANCH  24  25
ENDBRANCH   1  24
TORSDOF 17
