REMARK SMILES O=C(NCCCCCCNC(=O)[C@@H]1[C@H](C(=O)Nc2ccc(Cn3cncn3)cc2)[C@@H]2C=C[C@H]1CC2)c1ccc(-c2c3nc(c(-c4c(F)cccc4F)c4ccc([nH]4)c(-c4c(F)cccc4F)c4nc(c(-c5c(F)cccc5F)c5ccc2[nH]5)C=C4)C=C3)cc1
REMARK SMILES IDX 7 1 6 2 5 3 4 4 3 5 1 6 2 7 36 9 37 10 89 11 38 12 88 13
REMARK SMILES IDX 39 14 40 15 41 16 82 17 42 18 87 19 81 20 83 21 43 22 86 23
REMARK SMILES IDX 80 24 79 25 44 27 70 28 53 29 69 30 54 31 57 32 68 33 84 34
REMARK SMILES IDX 55 35 56 36 67 38 85 39 58 40 45 41 46 42 51 43 47 44 48 45
REMARK SMILES IDX 50 46 52 47 49 48 71 49 72 50 77 51 73 52 74 53 76 54 78 55
REMARK SMILES IDX 75 56 59 57 60 58 65 59 61 60 62 61 64 62 66 63 63 64 8 65
REMARK SMILES IDX 9 66 10 67 11 68 12 70 13 71 14 72 33 73 30 74 32 75 34 76
REMARK SMILES IDX 31 77 35 78 15 79 16 80 17 81 18 83 19 84 29 85 20 86 28 87
REMARK SMILES IDX 21 88 22 89 23 90 24 91 27 92 25 93 26 94
REMARK H PARENT 3 8 83 26 57 37 10 69 17 82
REMARK Flexibility Score: inf
ROOT
ATOM      1  C   UNL     1       5.005  -3.906   1.059  1.00  0.00     0.002 C 
ENDROOT
BRANCH   1   2
ATOM      2  C   UNL     1       4.450  -2.861   2.028  1.00  0.00     0.002 C 
BRANCH   2   3
ATOM      3  C   UNL     1       4.872  -1.420   1.728  1.00  0.00     0.021 C 
BRANCH   3   4
ATOM      4  C   UNL     1       4.702  -1.001   0.265  1.00  0.00     0.116 C 
BRANCH   4   5
ATOM      5  N   UNL     1       3.335  -1.003  -0.202  1.00  0.00    -0.352 N 
ATOM      6  O   UNL     1       1.269  -0.390  -0.699  1.00  0.00    -0.269 OA
ATOM      7  C   UNL     1       2.277  -0.142  -0.058  1.00  0.00     0.251 C 
ATOM      8  H   UNL     1       3.115  -1.796  -0.741  1.00  0.00     0.163 HD
BRANCH   7   9
ATOM      9  C   UNL     1       2.277   1.021   0.872  1.00  0.00     0.039 A 
ATOM     10  C   UNL     1       3.408   1.625   1.422  1.00  0.00     0.014 A 
ATOM     11  C   UNL     1       1.010   1.535   1.202  1.00  0.00     0.014 A 
ATOM     12  C   UNL     1       3.283   2.662   2.337  1.00  0.00     0.010 A 
ATOM     13  C   UNL     1       0.876   2.592   2.094  1.00  0.00     0.010 A 
ATOM     14  C   UNL     1       2.017   3.140   2.675  1.00  0.00    -0.014 A 
BRANCH  14  15
ATOM     15  C   UNL     1       1.952   4.363   3.468  1.00  0.00     0.031 A 
ATOM     16  C   UNL     1       2.492   5.569   2.774  1.00  0.00     0.074 A 
ATOM     17  C   UNL     1       1.311   4.458   4.647  1.00  0.00     0.049 A 
ATOM     18  N   UNL     1       3.434   6.367   3.160  1.00  0.00    -0.248 NA
ATOM     19  C   UNL     1       1.973   5.865   1.427  1.00  0.00     0.031 C 
ATOM     20  C   UNL     1       0.479   3.440   5.289  1.00  0.00     0.029 A 
ATOM     21  N   UNL     1       1.172   5.539   5.468  1.00  0.00    -0.354 N 
ATOM     22  C   UNL     1       3.492   7.377   2.201  1.00  0.00     0.074 A 
ATOM     23  C   UNL     1       2.688   6.938   1.093  1.00  0.00     0.031 C 
ATOM     24  C   UNL     1      -0.248   4.019   6.270  1.00  0.00     0.029 A 
ATOM     25  C   UNL     1       0.150   5.412   6.399  1.00  0.00     0.049 A 
ATOM     26  H   UNL     1       1.745   6.338   5.406  1.00  0.00     0.167 HD
ATOM     27  C   UNL     1       3.990   8.609   2.497  1.00  0.00     0.037 A 
ATOM     28  C   UNL     1      -0.383   6.395   7.166  1.00  0.00     0.037 A 
ATOM     29  C   UNL     1       4.867   8.563   3.638  1.00  0.00     0.049 A 
ATOM     30  C   UNL     1       0.571   7.528   7.189  1.00  0.00     0.074 A 
ATOM     31  C   UNL     1       6.020   7.875   3.962  1.00  0.00     0.029 A 
ATOM     32  N   UNL     1       4.416   9.097   4.818  1.00  0.00    -0.354 N 
ATOM     33  N   UNL     1       1.712   7.521   7.816  1.00  0.00    -0.248 NA
ATOM     34  C   UNL     1       0.419   8.569   6.184  1.00  0.00     0.031 C 
ATOM     35  C   UNL     1       5.923   7.627   5.364  1.00  0.00     0.029 A 
ATOM     36  C   UNL     1       4.742   8.216   5.813  1.00  0.00     0.049 A 
ATOM     37  H   UNL     1       3.946   9.954   4.929  1.00  0.00     0.167 HD
ATOM     38  C   UNL     1       2.565   8.241   6.996  1.00  0.00     0.074 A 
ATOM     39  C   UNL     1       1.690   8.964   6.079  1.00  0.00     0.031 C 
ATOM     40  C   UNL     1       3.900   7.960   6.955  1.00  0.00     0.037 A 
BRANCH  27  41
ATOM     41  C   UNL     1       3.348   9.899   2.025  1.00  0.00     0.057 A 
ATOM     42  C   UNL     1       3.962  11.124   2.350  1.00  0.00     0.134 A 
ATOM     43  C   UNL     1       2.017  10.006   1.570  1.00  0.00     0.134 A 
ATOM     44  F   UNL     1       5.227  11.164   2.796  1.00  0.00    -0.206 F 
ATOM     45  C   UNL     1       3.269  12.341   2.335  1.00  0.00     0.040 A 
ATOM     46  C   UNL     1       1.334  11.223   1.499  1.00  0.00     0.040 A 
ATOM     47  F   UNL     1       1.268   8.941   1.264  1.00  0.00    -0.206 F 
ATOM     48  C   UNL     1       1.944  12.391   1.921  1.00  0.00     0.006 A 
ENDBRANCH  27  41
BRANCH  28  49
ATOM     49  C   UNL     1      -1.764   6.537   7.683  1.00  0.00     0.057 A 
ATOM     50  C   UNL     1      -2.064   7.450   8.706  1.00  0.00     0.134 A 
ATOM     51  C   UNL     1      -2.867   5.984   7.010  1.00  0.00     0.134 A 
ATOM     52  F   UNL     1      -1.083   8.065   9.382  1.00  0.00    -0.206 F 
ATOM     53  C   UNL     1      -3.380   7.812   9.021  1.00  0.00     0.040 A 
ATOM     54  C   UNL     1      -4.186   6.327   7.323  1.00  0.00     0.040 A 
ATOM     55  F   UNL     1      -2.701   5.162   5.964  1.00  0.00    -0.206 F 
ATOM     56  C   UNL     1      -4.447   7.257   8.321  1.00  0.00     0.006 A 
ENDBRANCH  28  49
BRANCH  40  57
ATOM     57  C   UNL     1       4.471   7.101   8.046  1.00  0.00     0.057 A 
ATOM     58  C   UNL     1       4.080   5.778   8.298  1.00  0.00     0.134 A 
ATOM     59  C   UNL     1       5.546   7.599   8.792  1.00  0.00     0.134 A 
ATOM     60  F   UNL     1       3.133   5.179   7.564  1.00  0.00    -0.206 F 
ATOM     61  C   UNL     1       4.695   5.007   9.289  1.00  0.00     0.040 A 
ATOM     62  C   UNL     1       6.193   6.826   9.757  1.00  0.00     0.040 A 
ATOM     63  F   UNL     1       6.012   8.837   8.565  1.00  0.00    -0.206 F 
ATOM     64  C   UNL     1       5.759   5.530  10.019  1.00  0.00     0.006 A 
ENDBRANCH  40  57
ENDBRANCH  14  15
ENDBRANCH   7   9
ENDBRANCH   4   5
ENDBRANCH   3   4
ENDBRANCH   2   3
ENDBRANCH   1   2
BRANCH   1  65
ATOM     65  C   UNL     1       6.532  -3.884   0.871  1.00  0.00     0.021 C 
BRANCH  65  66
ATOM     66  C   UNL     1       7.336  -4.311   2.098  1.00  0.00     0.116 C 
BRANCH  66  67
ATOM     67  N   UNL     1       7.062  -5.696   2.385  1.00  0.00    -0.356 N 
ATOM     68  C   UNL     1       7.846  -6.733   2.730  1.00  0.00     0.224 C 
ATOM     69  H   UNL     1       6.108  -5.931   2.315  1.00  0.00     0.163 HD
ATOM     70  O   UNL     1       7.335  -7.839   2.525  1.00  0.00    -0.275 OA
BRANCH  68  71
ATOM     71  C   UNL     1       9.274  -6.604   3.217  1.00  0.00     0.098 C 
ATOM     72  C   UNL     1       9.773  -7.914   3.901  1.00  0.00     0.098 C 
ATOM     73  C   UNL     1       9.810  -5.381   4.031  1.00  0.00     0.025 C 
ATOM     74  C   UNL     1      10.911  -7.576   4.905  1.00  0.00     0.025 C 
ATOM     75  C   UNL     1       9.755  -5.580   5.532  1.00  0.00    -0.027 C 
ATOM     76  C   UNL     1      11.343  -5.336   3.759  1.00  0.00     0.009 C 
ATOM     77  C   UNL     1      10.350  -6.693   5.987  1.00  0.00    -0.027 C 
ATOM     78  C   UNL     1      11.971  -6.699   4.176  1.00  0.00     0.009 C 
BRANCH  72  79
ATOM     79  C   UNL     1       8.800  -9.000   4.438  1.00  0.00     0.228 C 
ATOM     80  O   UNL     1       8.987 -10.167   4.049  1.00  0.00    -0.274 OA
ATOM     81  N   UNL     1       7.853  -8.876   5.417  1.00  0.00    -0.326 N 
ATOM     82  H   UNL     1       7.390  -9.719   5.624  1.00  0.00     0.169 HD
BRANCH  81  83
ATOM     83  C   UNL     1       7.410  -7.794   6.182  1.00  0.00     0.041 A 
ATOM     84  C   UNL     1       7.576  -7.853   7.565  1.00  0.00     0.026 A 
ATOM     85  C   UNL     1       6.760  -6.694   5.638  1.00  0.00     0.026 A 
ATOM     86  C   UNL     1       7.352  -6.713   8.343  1.00  0.00     0.008 A 
ATOM     87  C   UNL     1       6.528  -5.550   6.404  1.00  0.00     0.008 A 
ATOM     88  C   UNL     1       6.910  -5.523   7.748  1.00  0.00    -0.026 A 
BRANCH  88  89
ATOM     89  C   UNL     1       6.898  -4.227   8.514  1.00  0.00     0.181 C 
BRANCH  89  90
ATOM     90  N   UNL     1       5.583  -3.901   9.016  1.00  0.00    -0.249 N 
ATOM     91  C   UNL     1       4.925  -4.488  10.050  1.00  0.00     0.220 A 
ATOM     92  N   UNL     1       4.893  -2.849   8.534  1.00  0.00    -0.160 NA
ATOM     93  N   UNL     1       3.793  -3.859  10.261  1.00  0.00    -0.224 NA
ATOM     94  C   UNL     1       3.810  -2.873   9.315  1.00  0.00     0.246 A 
ENDBRANCH  89  90
ENDBRANCH  88  89
ENDBRANCH  81  83
ENDBRANCH  72  79
ENDBRANCH  68  71
ENDBRANCH  66  67
ENDBRANCH  65  66
ENDBRANCH   1  65
TORSDOF 17
