REMARK SMILES CCNS(=O)(=O)c1ccc(CC(=O)NCCCCCCNC(=O)c2ccc(-c3c4nc(c(-c5c(F)cccc5F)c5ccc([nH]5)c(-c5c(F)cccc5F)c5nc(c(-c6c(F)cccc6F)c6ccc3[nH]6)C=C5)C=C4)cc2)cc1
REMARK SMILES IDX 16 1 15 2 14 3 12 4 13 5 11 7 10 8 7 9 8 10 79 11 9 12 78 13
REMARK SMILES IDX 4 14 5 15 6 16 3 17 2 19 1 20 17 21 18 22 19 23 20 24 21 25
REMARK SMILES IDX 22 26 23 28 24 29 25 30 77 31 26 32 76 33 27 34 28 35 29 36
REMARK SMILES IDX 70 37 30 38 75 39 69 40 71 41 31 42 74 43 68 44 67 45 32 47
REMARK SMILES IDX 58 48 41 49 57 50 42 51 45 52 56 53 72 54 43 55 44 56 55 58
REMARK SMILES IDX 73 59 46 60 33 61 34 62 39 63 35 64 36 65 38 66 40 67 37 68
REMARK SMILES IDX 59 69 60 70 65 71 61 72 62 73 64 74 66 75 63 76 47 77 48 78
REMARK SMILES IDX 53 79 49 80 50 81 52 82 54 83 51 84
REMARK H PARENT 14 6 3 18 21 27 71 46 45 57
REMARK Flexibility Score: inf
ROOT
ATOM      1  C   UNL     1      -4.103   3.179   4.876  1.00  0.00     0.021 C 
ENDROOT
BRANCH   1   2
ATOM      2  C   UNL     1      -5.406   2.852   4.142  1.00  0.00     0.116 C 
BRANCH   2   3
ATOM      3  N   UNL     1      -6.130   4.058   3.788  1.00  0.00    -0.356 N 
ATOM      4  C   UNL     1      -6.231   4.689   2.582  1.00  0.00     0.224 C 
ATOM      5  O   UNL     1      -6.815   5.774   2.540  1.00  0.00    -0.275 OA
ATOM      6  H   UNL     1      -6.621   4.484   4.527  1.00  0.00     0.163 HD
BRANCH   4   7
ATOM      7  C   UNL     1      -5.698   4.034   1.318  1.00  0.00     0.135 C 
BRANCH   7   8
ATOM      8  C   UNL     1      -4.192   3.948   1.240  1.00  0.00    -0.039 A 
ATOM      9  C   UNL     1      -1.401   3.741   1.281  1.00  0.00     0.082 A 
ATOM     10  C   UNL     1      -2.004   5.003   1.256  1.00  0.00     0.022 A 
ATOM     11  C   UNL     1      -2.182   2.588   1.232  1.00  0.00     0.022 A 
ATOM     12  C   UNL     1      -3.398   5.104   1.242  1.00  0.00     0.005 A 
ATOM     13  C   UNL     1      -3.569   2.694   1.187  1.00  0.00     0.005 A 
BRANCH   9  14
ATOM     14  S   UNL     1       0.360   3.615   1.454  1.00  0.00     0.240 S 
ATOM     15  O   UNL     1       0.633   3.145   2.792  1.00  0.00    -0.207 OA
ATOM     16  O   UNL     1       0.938   4.837   0.934  1.00  0.00    -0.207 OA
BRANCH  14  17
ATOM     17  N   UNL     1       0.815   2.422   0.346  1.00  0.00    -0.211 NA
ATOM     18  H   UNL     1       0.075   2.359  -0.353  1.00  0.00     0.141 HD
BRANCH  17  19
ATOM     19  C   UNL     1       1.052   1.063   0.857  1.00  0.00     0.095 C 
ATOM     20  C   UNL     1       1.624   0.200  -0.254  1.00  0.00     0.022 C 
ENDBRANCH  17  19
ENDBRANCH  14  17
ENDBRANCH   9  14
ENDBRANCH   7   8
ENDBRANCH   4   7
ENDBRANCH   2   3
ENDBRANCH   1   2
BRANCH   1  21
ATOM     21  C   UNL     1      -4.308   3.706   6.304  1.00  0.00     0.002 C 
BRANCH  21  22
ATOM     22  C   UNL     1      -5.016   2.742   7.263  1.00  0.00     0.002 C 
BRANCH  22  23
ATOM     23  C   UNL     1      -4.342   1.377   7.435  1.00  0.00     0.021 C 
BRANCH  23  24
ATOM     24  C   UNL     1      -2.930   1.426   8.013  1.00  0.00     0.116 C 
BRANCH  24  25
ATOM     25  N   UNL     1      -2.910   1.934   9.376  1.00  0.00    -0.352 N 
ATOM     26  C   UNL     1      -2.342   1.397  10.504  1.00  0.00     0.251 C 
ATOM     27  H   UNL     1      -3.375   2.791   9.510  1.00  0.00     0.163 HD
ATOM     28  O   UNL     1      -2.582   1.883  11.605  1.00  0.00    -0.269 OA
BRANCH  26  29
ATOM     29  C   UNL     1      -1.454   0.217  10.403  1.00  0.00     0.039 A 
ATOM     30  C   UNL     1      -1.609  -0.822  11.326  1.00  0.00     0.014 A 
ATOM     31  C   UNL     1      -0.458   0.143   9.426  1.00  0.00     0.014 A 
ATOM     32  C   UNL     1      -0.807  -1.962  11.231  1.00  0.00     0.010 A 
ATOM     33  C   UNL     1       0.301  -1.018   9.296  1.00  0.00     0.010 A 
ATOM     34  C   UNL     1       0.134  -2.081  10.196  1.00  0.00    -0.014 A 
BRANCH  34  35
ATOM     35  C   UNL     1       0.944  -3.314  10.034  1.00  0.00     0.031 A 
ATOM     36  C   UNL     1       2.434  -3.274  10.225  1.00  0.00     0.074 A 
ATOM     37  C   UNL     1       0.346  -4.456   9.644  1.00  0.00     0.049 A 
ATOM     38  N   UNL     1       3.316  -4.226  10.051  1.00  0.00    -0.248 NA
ATOM     39  C   UNL     1       3.013  -1.988  10.643  1.00  0.00     0.031 C 
ATOM     40  C   UNL     1      -1.086  -4.614   9.381  1.00  0.00     0.029 A 
ATOM     41  N   UNL     1       0.870  -5.698   9.388  1.00  0.00    -0.354 N 
ATOM     42  C   UNL     1       4.551  -3.651  10.319  1.00  0.00     0.074 A 
ATOM     43  C   UNL     1       4.310  -2.257  10.628  1.00  0.00     0.031 C 
ATOM     44  C   UNL     1      -1.327  -5.884   9.015  1.00  0.00     0.029 A 
ATOM     45  C   UNL     1      -0.066  -6.619   8.987  1.00  0.00     0.049 A 
ATOM     46  H   UNL     1       1.827  -5.909   9.483  1.00  0.00     0.167 HD
ATOM     47  C   UNL     1       5.773  -4.234  10.324  1.00  0.00     0.037 A 
ATOM     48  C   UNL     1       0.076  -7.909   8.630  1.00  0.00     0.037 A 
ATOM     49  C   UNL     1       6.010  -5.627  10.047  1.00  0.00     0.049 A 
ATOM     50  C   UNL     1       1.440  -8.537   8.657  1.00  0.00     0.074 A 
ATOM     51  C   UNL     1       7.204  -6.325  10.094  1.00  0.00     0.029 A 
ATOM     52  N   UNL     1       5.031  -6.534   9.671  1.00  0.00    -0.354 N 
ATOM     53  N   UNL     1       2.592  -7.996   8.972  1.00  0.00    -0.248 NA
ATOM     54  C   UNL     1       1.524  -9.956   8.283  1.00  0.00     0.031 C 
ATOM     55  C   UNL     1       6.953  -7.648   9.714  1.00  0.00     0.029 A 
ATOM     56  C   UNL     1       5.597  -7.782   9.466  1.00  0.00     0.049 A 
ATOM     57  H   UNL     1       4.075  -6.323   9.566  1.00  0.00     0.167 HD
ATOM     58  C   UNL     1       3.532  -9.011   8.858  1.00  0.00     0.074 A 
ATOM     59  C   UNL     1       2.816 -10.204   8.456  1.00  0.00     0.031 C 
ATOM     60  C   UNL     1       4.870  -8.959   9.069  1.00  0.00     0.037 A 
BRANCH  47  61
ATOM     61  C   UNL     1       6.952  -3.364  10.644  1.00  0.00     0.057 A 
ATOM     62  C   UNL     1       7.189  -2.893  11.942  1.00  0.00     0.134 A 
ATOM     63  C   UNL     1       7.878  -3.020   9.651  1.00  0.00     0.134 A 
ATOM     64  F   UNL     1       6.334  -3.178  12.935  1.00  0.00    -0.206 F 
ATOM     65  C   UNL     1       8.293  -2.089  12.236  1.00  0.00     0.040 A 
ATOM     66  C   UNL     1       8.998  -2.237   9.938  1.00  0.00     0.040 A 
ATOM     67  F   UNL     1       7.713  -3.443   8.389  1.00  0.00    -0.206 F 
ATOM     68  C   UNL     1       9.204  -1.765  11.233  1.00  0.00     0.006 A 
ENDBRANCH  47  61
BRANCH  48  69
ATOM     69  C   UNL     1      -1.115  -8.703   8.238  1.00  0.00     0.057 A 
ATOM     70  C   UNL     1      -1.629  -9.692   9.083  1.00  0.00     0.134 A 
ATOM     71  C   UNL     1      -1.765  -8.492   7.017  1.00  0.00     0.134 A 
ATOM     72  F   UNL     1      -1.036  -9.951  10.258  1.00  0.00    -0.206 F 
ATOM     73  C   UNL     1      -2.740 -10.456   8.722  1.00  0.00     0.040 A 
ATOM     74  C   UNL     1      -2.890  -9.234   6.652  1.00  0.00     0.040 A 
ATOM     75  F   UNL     1      -1.324  -7.553   6.168  1.00  0.00    -0.206 F 
ATOM     76  C   UNL     1      -3.376 -10.223   7.505  1.00  0.00     0.006 A 
ENDBRANCH  48  69
BRANCH  60  77
ATOM     77  C   UNL     1       5.639 -10.234   8.895  1.00  0.00     0.057 A 
ATOM     78  C   UNL     1       5.917 -10.758   7.627  1.00  0.00     0.134 A 
ATOM     79  C   UNL     1       6.139 -10.923  10.007  1.00  0.00     0.134 A 
ATOM     80  F   UNL     1       5.454 -10.151   6.523  1.00  0.00    -0.206 F 
ATOM     81  C   UNL     1       6.650 -11.935   7.471  1.00  0.00     0.040 A 
ATOM     82  C   UNL     1       6.891 -12.089   9.863  1.00  0.00     0.040 A 
ATOM     83  F   UNL     1       5.912 -10.469  11.248  1.00  0.00    -0.206 F 
ATOM     84  C   UNL     1       7.145 -12.601   8.591  1.00  0.00     0.006 A 
ENDBRANCH  60  77
ENDBRANCH  34  35
ENDBRANCH  26  29
ENDBRANCH  24  25
ENDBRANCH  23  24
ENDBRANCH  22  23
ENDBRANCH  21  22
ENDBRANCH   1  21
TORSDOF 17
