REMARK SMILES O=C(C[C@@H]1CN(C(=O)CCn2cncn2)CCO1)NCCCCCCNC(=O)c1ccc(-c2c3nc(c(-c4c(F)cccc4F)c4ccc([nH]4)c(-c4c(F)cccc4F)c4nc(c(-c5c(F)cccc5F)c5ccc2[nH]5)C=C4)C=C3)cc1
REMARK SMILES IDX 21 1 20 2 19 3 1 4 2 5 3 7 4 8 5 9 18 10 6 11 17 12 16 13
REMARK SMILES IDX 7 14 8 15 9 16 10 17 11 18 12 19 15 20 13 21 14 22 22 23
REMARK SMILES IDX 23 24 24 25 25 26 26 27 27 28 28 30 29 31 30 32 82 33 31 34
REMARK SMILES IDX 81 35 32 36 33 37 34 38 75 39 35 40 80 41 74 42 76 43 36 44
REMARK SMILES IDX 79 45 73 46 72 47 37 49 63 50 46 51 62 52 47 53 50 54 61 55
REMARK SMILES IDX 77 56 48 57 49 58 60 60 78 61 51 62 38 63 39 64 44 65 40 66
REMARK SMILES IDX 41 67 43 68 45 69 42 70 64 71 65 72 70 73 66 74 67 75 69 76
REMARK SMILES IDX 71 77 68 78 52 79 53 80 58 81 54 82 55 83 57 84 59 85 56 86
REMARK H PARENT 19 6 26 29 76 48 50 59
REMARK Flexibility Score: inf
ROOT
ATOM      1  C   UNL     1       2.688   3.526  -0.896  1.00  0.00     0.021 C 
ENDROOT
BRANCH   1   2
ATOM      2  C   UNL     1       2.160   2.204  -1.450  1.00  0.00     0.116 C 
BRANCH   2   3
ATOM      3  N   UNL     1       2.909   1.105  -0.893  1.00  0.00    -0.356 N 
ATOM      4  O   UNL     1       1.141  -0.047   0.016  1.00  0.00    -0.275 OA
ATOM      5  C   UNL     1       2.345   0.110  -0.139  1.00  0.00     0.222 C 
ATOM      6  H   UNL     1       3.878   1.067  -1.064  1.00  0.00     0.163 HD
BRANCH   5   7
ATOM      7  C   UNL     1       3.377  -0.780   0.499  1.00  0.00     0.133 C 
BRANCH   7   8
ATOM      8  C   UNL     1       4.119  -1.574  -0.579  1.00  0.00     0.147 C 
ATOM      9  C   UNL     1       3.928  -3.058  -0.296  1.00  0.00     0.152 C 
ATOM     10  O   UNL     1       5.516  -1.224  -0.561  1.00  0.00    -0.374 OA
ATOM     11  N   UNL     1       4.711  -3.912  -1.170  1.00  0.00    -0.338 N 
ATOM     12  C   UNL     1       6.249  -2.003  -1.527  1.00  0.00     0.182 C 
ATOM     13  C   UNL     1       6.118  -3.512  -1.269  1.00  0.00     0.148 C 
BRANCH  11  14
ATOM     14  C   UNL     1       4.302  -5.149  -1.629  1.00  0.00     0.224 C 
ATOM     15  O   UNL     1       5.084  -5.942  -2.156  1.00  0.00    -0.275 OA
BRANCH  14  16
ATOM     16  C   UNL     1       2.826  -5.516  -1.536  1.00  0.00     0.124 C 
BRANCH  16  17
ATOM     17  C   UNL     1       2.453  -6.250  -0.252  1.00  0.00     0.156 C 
BRANCH  17  18
ATOM     18  N   UNL     1       2.215  -5.405   0.900  1.00  0.00    -0.252 N 
ATOM     19  C   UNL     1       1.193  -4.528   1.107  1.00  0.00     0.219 A 
ATOM     20  N   UNL     1       3.069  -5.397   1.940  1.00  0.00    -0.160 NA
ATOM     21  N   UNL     1       1.375  -3.906   2.249  1.00  0.00    -0.224 NA
ATOM     22  C   UNL     1       2.511  -4.483   2.738  1.00  0.00     0.246 A 
ENDBRANCH  17  18
ENDBRANCH  16  17
ENDBRANCH  14  16
ENDBRANCH  11  14
ENDBRANCH   7   8
ENDBRANCH   5   7
ENDBRANCH   2   3
ENDBRANCH   1   2
BRANCH   1  23
ATOM     23  C   UNL     1       4.193   3.748  -1.113  1.00  0.00     0.002 C 
BRANCH  23  24
ATOM     24  C   UNL     1       4.685   3.607  -2.560  1.00  0.00     0.002 C 
BRANCH  24  25
ATOM     25  C   UNL     1       3.980   4.495  -3.593  1.00  0.00     0.021 C 
BRANCH  25  26
ATOM     26  C   UNL     1       4.128   5.986  -3.326  1.00  0.00     0.116 C 
BRANCH  26  27
ATOM     27  N   UNL     1       5.505   6.441  -3.476  1.00  0.00    -0.352 N 
ATOM     28  C   UNL     1       6.009   7.712  -3.292  1.00  0.00     0.251 C 
ATOM     29  H   UNL     1       6.158   5.754  -3.741  1.00  0.00     0.163 HD
ATOM     30  O   UNL     1       7.066   8.046  -3.802  1.00  0.00    -0.269 OA
BRANCH  28  31
ATOM     31  C   UNL     1       5.247   8.669  -2.468  1.00  0.00     0.039 A 
ATOM     32  C   UNL     1       5.137  10.007  -2.857  1.00  0.00     0.014 A 
ATOM     33  C   UNL     1       4.642   8.216  -1.296  1.00  0.00     0.014 A 
ATOM     34  C   UNL     1       4.341  10.864  -2.102  1.00  0.00     0.010 A 
ATOM     35  C   UNL     1       3.767   9.031  -0.616  1.00  0.00     0.010 A 
ATOM     36  C   UNL     1       3.636  10.364  -0.995  1.00  0.00    -0.014 A 
BRANCH  36  37
ATOM     37  C   UNL     1       2.621  11.188  -0.339  1.00  0.00     0.031 A 
ATOM     38  C   UNL     1       1.567  11.680  -1.270  1.00  0.00     0.074 A 
ATOM     39  C   UNL     1       2.503  11.304   1.002  1.00  0.00     0.049 A 
ATOM     40  N   UNL     1       1.334  12.899  -1.625  1.00  0.00    -0.248 NA
ATOM     41  C   UNL     1       0.772  10.687  -2.016  1.00  0.00     0.031 C 
ATOM     42  C   UNL     1       3.285  10.598   2.025  1.00  0.00     0.029 A 
ATOM     43  N   UNL     1       1.590  11.995   1.749  1.00  0.00    -0.354 N 
ATOM     44  C   UNL     1       0.209  12.848  -2.448  1.00  0.00     0.074 A 
ATOM     45  C   UNL     1       0.041  11.470  -2.814  1.00  0.00     0.031 C 
ATOM     46  C   UNL     1       2.675  10.710   3.225  1.00  0.00     0.029 A 
ATOM     47  C   UNL     1       1.565  11.636   3.096  1.00  0.00     0.049 A 
ATOM     48  H   UNL     1       1.001  12.686   1.368  1.00  0.00     0.167 HD
ATOM     49  C   UNL     1      -0.654  13.902  -2.495  1.00  0.00     0.037 A 
ATOM     50  C   UNL     1       0.702  12.069   4.047  1.00  0.00     0.037 A 
ATOM     51  C   UNL     1      -0.053  15.063  -1.888  1.00  0.00     0.049 A 
ATOM     52  C   UNL     1       0.100  13.328   3.565  1.00  0.00     0.074 A 
ATOM     53  C   UNL     1       0.909  15.991  -2.217  1.00  0.00     0.029 A 
ATOM     54  N   UNL     1      -0.236  15.121  -0.533  1.00  0.00    -0.354 N 
ATOM     55  N   UNL     1       0.764  14.442   3.449  1.00  0.00    -0.248 NA
ATOM     56  C   UNL     1      -1.190  13.293   2.885  1.00  0.00     0.031 C 
ATOM     57  C   UNL     1       1.420  16.485  -0.979  1.00  0.00     0.029 A 
ATOM     58  C   UNL     1       0.726  15.883   0.068  1.00  0.00     0.049 A 
ATOM     59  H   UNL     1      -0.968  14.670  -0.052  1.00  0.00     0.167 HD
ATOM     60  C   UNL     1       0.207  15.050   2.344  1.00  0.00     0.074 A 
ATOM     61  C   UNL     1      -1.092  14.414   2.166  1.00  0.00     0.031 C 
ATOM     62  C   UNL     1       0.989  15.759   1.482  1.00  0.00     0.037 A 
BRANCH  49  63
ATOM     63  C   UNL     1      -2.168  13.794  -2.583  1.00  0.00     0.057 A 
ATOM     64  C   UNL     1      -2.928  14.983  -2.612  1.00  0.00     0.134 A 
ATOM     65  C   UNL     1      -2.912  12.629  -2.311  1.00  0.00     0.134 A 
ATOM     66  F   UNL     1      -2.347  16.168  -2.861  1.00  0.00    -0.206 F 
ATOM     67  C   UNL     1      -4.295  15.018  -2.302  1.00  0.00     0.040 A 
ATOM     68  C   UNL     1      -4.287  12.647  -2.045  1.00  0.00     0.040 A 
ATOM     69  F   UNL     1      -2.348  11.424  -2.185  1.00  0.00    -0.206 F 
ATOM     70  C   UNL     1      -4.977  13.847  -2.005  1.00  0.00     0.006 A 
ENDBRANCH  49  63
BRANCH  50  71
ATOM     71  C   UNL     1       0.233  11.431   5.296  1.00  0.00     0.057 A 
ATOM     72  C   UNL     1      -0.316  12.193   6.339  1.00  0.00     0.134 A 
ATOM     73  C   UNL     1       0.032  10.044   5.368  1.00  0.00     0.134 A 
ATOM     74  F   UNL     1      -0.195  13.528   6.346  1.00  0.00    -0.206 F 
ATOM     75  C   UNL     1      -1.068  11.614   7.369  1.00  0.00     0.040 A 
ATOM     76  C   UNL     1      -0.714   9.453   6.394  1.00  0.00     0.040 A 
ATOM     77  F   UNL     1       0.474   9.234   4.395  1.00  0.00    -0.206 F 
ATOM     78  C   UNL     1      -1.285  10.240   7.388  1.00  0.00     0.006 A 
ENDBRANCH  50  71
BRANCH  62  79
ATOM     79  C   UNL     1       2.280  16.296   2.014  1.00  0.00     0.057 A 
ATOM     80  C   UNL     1       3.375  15.511   2.399  1.00  0.00     0.134 A 
ATOM     81  C   UNL     1       2.436  17.684   2.075  1.00  0.00     0.134 A 
ATOM     82  F   UNL     1       3.340  14.175   2.306  1.00  0.00    -0.206 F 
ATOM     83  C   UNL     1       4.560  16.088   2.864  1.00  0.00     0.040 A 
ATOM     84  C   UNL     1       3.624  18.273   2.504  1.00  0.00     0.040 A 
ATOM     85  F   UNL     1       1.438  18.493   1.686  1.00  0.00    -0.206 F 
ATOM     86  C   UNL     1       4.688  17.474   2.912  1.00  0.00     0.006 A 
ENDBRANCH  62  79
ENDBRANCH  36  37
ENDBRANCH  28  31
ENDBRANCH  26  27
ENDBRANCH  25  26
ENDBRANCH  24  25
ENDBRANCH  23  24
ENDBRANCH   1  23
TORSDOF 18
