REMARK SMILES O=C(CNc1nc(-c2ccccc2)c(-c2ccccc2)s1)NCCCCCCNC(=O)c1ccc(-c2c3nc(c(-c4c(F)cccc4F)c4ccc([nH]4)c(-c4c(F)cccc4F)c4nc(c(-c5c(F)cccc5F)c5ccc2[nH]5)C=C4)C=C3)cc1
REMARK SMILES IDX 25 1 24 2 23 3 22 4 1 5 2 6 3 8 4 9 5 11 6 12 21 13 7 14
REMARK SMILES IDX 14 15 8 16 9 17 13 18 10 19 12 20 11 21 15 22 16 23 20 24
REMARK SMILES IDX 17 25 19 26 18 27 26 28 27 29 28 30 29 31 30 32 31 34 32 35
REMARK SMILES IDX 33 36 85 37 34 38 84 39 35 40 36 41 37 42 78 43 38 44 83 45
REMARK SMILES IDX 77 46 79 47 39 48 82 49 76 50 75 51 40 53 66 54 49 55 65 56
REMARK SMILES IDX 50 57 53 58 64 59 80 60 51 61 52 62 63 64 81 65 54 66 41 67
REMARK SMILES IDX 42 68 47 69 43 70 44 71 46 72 48 73 45 74 67 75 68 76 73 77
REMARK SMILES IDX 69 78 70 79 72 80 74 81 71 82 55 83 56 84 61 85 57 86 58 87
REMARK SMILES IDX 60 88 62 89 59 90
REMARK H PARENT 22 7 4 10 29 33 79 52 53 63
REMARK Flexibility Score: inf
ROOT
ATOM      1  C   UNL     1       4.216   1.136   3.420  1.00  0.00     0.002 C 
ENDROOT
BRANCH   1   2
ATOM      2  C   UNL     1       2.717   0.907   3.183  1.00  0.00     0.021 C 
BRANCH   2   3
ATOM      3  C   UNL     1       2.194   1.398   1.833  1.00  0.00     0.116 C 
BRANCH   3   4
ATOM      4  N   UNL     1       2.851   0.743   0.725  1.00  0.00    -0.355 N 
ATOM      5  O   UNL     1       1.051  -0.485  -0.020  1.00  0.00    -0.273 OA
ATOM      6  C   UNL     1       2.223  -0.140  -0.135  1.00  0.00     0.239 C 
ATOM      7  H   UNL     1       3.804   0.937   0.572  1.00  0.00     0.163 HD
BRANCH   6   8
ATOM      8  C   UNL     1       3.152  -0.683  -1.235  1.00  0.00     0.215 C 
BRANCH   8   9
ATOM      9  N   UNL     1       4.123   0.342  -1.602  1.00  0.00    -0.352 N 
ATOM     10  H   UNL     1       3.813   1.267  -1.734  1.00  0.00     0.163 HD
BRANCH   9  11
ATOM     11  C   UNL     1       5.427   0.061  -1.766  1.00  0.00     0.184 A 
ATOM     12  N   UNL     1       5.943  -1.137  -1.894  1.00  0.00    -0.220 NA
ATOM     13  S   UNL     1       6.563   1.352  -1.777  1.00  0.00    -0.096 S 
ATOM     14  C   UNL     1       7.324  -1.054  -1.989  1.00  0.00     0.091 A 
ATOM     15  C   UNL     1       7.852   0.225  -1.891  1.00  0.00     0.064 A 
BRANCH  14  16
ATOM     16  C   UNL     1       8.135  -2.243  -2.204  1.00  0.00     0.002 A 
ATOM     17  C   UNL     1       9.139  -2.608  -1.297  1.00  0.00     0.010 A 
ATOM     18  C   UNL     1       7.951  -2.999  -3.367  1.00  0.00     0.010 A 
ATOM     19  C   UNL     1       9.971  -3.695  -1.570  1.00  0.00     0.001 A 
ATOM     20  C   UNL     1       8.788  -4.084  -3.640  1.00  0.00     0.001 A 
ATOM     21  C   UNL     1       9.801  -4.427  -2.745  1.00  0.00     0.000 A 
ENDBRANCH  14  16
BRANCH  15  22
ATOM     22  C   UNL     1       9.234   0.703  -1.913  1.00  0.00    -0.006 A 
ATOM     23  C   UNL     1       9.771   1.369  -0.802  1.00  0.00     0.009 A 
ATOM     24  C   UNL     1      10.055   0.459  -3.022  1.00  0.00     0.009 A 
ATOM     25  C   UNL     1      11.105   1.781  -0.800  1.00  0.00     0.001 A 
ATOM     26  C   UNL     1      11.389   0.871  -3.018  1.00  0.00     0.001 A 
ATOM     27  C   UNL     1      11.913   1.530  -1.907  1.00  0.00     0.000 A 
ENDBRANCH  15  22
ENDBRANCH   9  11
ENDBRANCH   8   9
ENDBRANCH   6   8
ENDBRANCH   3   4
ENDBRANCH   2   3
ENDBRANCH   1   2
BRANCH   1  28
ATOM     28  C   UNL     1       4.689   2.591   3.343  1.00  0.00     0.002 C 
BRANCH  28  29
ATOM     29  C   UNL     1       4.006   3.565   4.308  1.00  0.00     0.021 C 
BRANCH  29  30
ATOM     30  C   UNL     1       4.114   3.211   5.790  1.00  0.00     0.116 C 
BRANCH  30  31
ATOM     31  N   UNL     1       5.486   3.193   6.269  1.00  0.00    -0.352 N 
ATOM     32  C   UNL     1       6.037   3.760   7.390  1.00  0.00     0.251 C 
ATOM     33  H   UNL     1       6.119   2.697   5.701  1.00  0.00     0.163 HD
ATOM     34  O   UNL     1       7.261   3.737   7.543  1.00  0.00    -0.269 OA
BRANCH  32  35
ATOM     35  C   UNL     1       5.192   4.425   8.408  1.00  0.00     0.039 A 
ATOM     36  C   UNL     1       5.641   5.625   8.969  1.00  0.00     0.014 A 
ATOM     37  C   UNL     1       3.985   3.868   8.841  1.00  0.00     0.014 A 
ATOM     38  C   UNL     1       4.856   6.295   9.911  1.00  0.00     0.010 A 
ATOM     39  C   UNL     1       3.172   4.568   9.734  1.00  0.00     0.010 A 
ATOM     40  C   UNL     1       3.599   5.789  10.277  1.00  0.00    -0.014 A 
BRANCH  40  41
ATOM     41  C   UNL     1       2.719   6.543  11.208  1.00  0.00     0.031 A 
ATOM     42  C   UNL     1       2.385   5.996  12.567  1.00  0.00     0.074 A 
ATOM     43  C   UNL     1       2.179   7.710  10.806  1.00  0.00     0.049 A 
ATOM     44  N   UNL     1       1.636   6.518  13.507  1.00  0.00    -0.248 NA
ATOM     45  C   UNL     1       2.945   4.680  12.909  1.00  0.00     0.031 C 
ATOM     46  C   UNL     1       2.378   8.326   9.493  1.00  0.00     0.029 A 
ATOM     47  N   UNL     1       1.352   8.586  11.463  1.00  0.00    -0.354 N 
ATOM     48  C   UNL     1       1.621   5.590  14.540  1.00  0.00     0.074 A 
ATOM     49  C   UNL     1       2.401   4.454  14.096  1.00  0.00     0.031 C 
ATOM     50  C   UNL     1       1.722   9.497   9.454  1.00  0.00     0.029 A 
ATOM     51  C   UNL     1       1.035   9.701  10.725  1.00  0.00     0.049 A 
ATOM     52  H   UNL     1       1.018   8.431  12.376  1.00  0.00     0.167 HD
ATOM     53  C   UNL     1       1.028   5.682  15.755  1.00  0.00     0.037 A 
ATOM     54  C   UNL     1       0.283  10.771  11.040  1.00  0.00     0.037 A 
ATOM     55  C   UNL     1       0.278   6.824  16.211  1.00  0.00     0.049 A 
ATOM     56  C   UNL     1      -0.351  10.857  12.399  1.00  0.00     0.074 A 
ATOM     57  C   UNL     1      -0.285   7.045  17.456  1.00  0.00     0.029 A 
ATOM     58  N   UNL     1      -0.020   7.934  15.436  1.00  0.00    -0.354 N 
ATOM     59  N   UNL     1      -0.285  10.010  13.397  1.00  0.00    -0.248 NA
ATOM     60  C   UNL     1      -1.160  12.052  12.675  1.00  0.00     0.031 C 
ATOM     61  C   UNL     1      -0.958   8.273  17.422  1.00  0.00     0.029 A 
ATOM     62  C   UNL     1      -0.781   8.832  16.167  1.00  0.00     0.049 A 
ATOM     63  H   UNL     1       0.267   8.065  14.503  1.00  0.00     0.167 HD
ATOM     64  C   UNL     1      -1.023  10.579  14.426  1.00  0.00     0.074 A 
ATOM     65  C   UNL     1      -1.514  11.851  13.936  1.00  0.00     0.031 C 
ATOM     66  C   UNL     1      -1.269  10.092  15.667  1.00  0.00     0.037 A 
BRANCH  53  67
ATOM     67  C   UNL     1       1.170   4.509  16.681  1.00  0.00     0.057 A 
ATOM     68  C   UNL     1       2.387   4.200  17.303  1.00  0.00     0.134 A 
ATOM     69  C   UNL     1       0.070   3.693  16.973  1.00  0.00     0.134 A 
ATOM     70  F   UNL     1       3.482   4.936  17.057  1.00  0.00    -0.206 F 
ATOM     71  C   UNL     1       2.512   3.104  18.158  1.00  0.00     0.040 A 
ATOM     72  C   UNL     1       0.177   2.609  17.846  1.00  0.00     0.040 A 
ATOM     73  F   UNL     1      -1.127   3.937  16.417  1.00  0.00    -0.206 F 
ATOM     74  C   UNL     1       1.403   2.308  18.435  1.00  0.00     0.006 A 
ENDBRANCH  53  67
BRANCH  54  75
ATOM     75  C   UNL     1       0.127  11.878  10.065  1.00  0.00     0.057 A 
ATOM     76  C   UNL     1       0.772  13.104  10.265  1.00  0.00     0.134 A 
ATOM     77  C   UNL     1      -0.663  11.741   8.918  1.00  0.00     0.134 A 
ATOM     78  F   UNL     1       1.526  13.299  11.357  1.00  0.00    -0.206 F 
ATOM     79  C   UNL     1       0.626  14.161   9.366  1.00  0.00     0.040 A 
ATOM     80  C   UNL     1      -0.800  12.783   8.000  1.00  0.00     0.040 A 
ATOM     81  F   UNL     1      -1.301  10.588   8.669  1.00  0.00    -0.206 F 
ATOM     82  C   UNL     1      -0.158  13.999   8.226  1.00  0.00     0.006 A 
ENDBRANCH  54  75
BRANCH  66  83
ATOM     83  C   UNL     1      -2.090  10.951  16.583  1.00  0.00     0.057 A 
ATOM     84  C   UNL     1      -3.469  11.116  16.400  1.00  0.00     0.134 A 
ATOM     85  C   UNL     1      -1.496  11.612  17.665  1.00  0.00     0.134 A 
ATOM     86  F   UNL     1      -4.094  10.522  15.372  1.00  0.00    -0.206 F 
ATOM     87  C   UNL     1      -4.223  11.932  17.244  1.00  0.00     0.040 A 
ATOM     88  C   UNL     1      -2.245  12.411  18.531  1.00  0.00     0.040 A 
ATOM     89  F   UNL     1      -0.181  11.491  17.900  1.00  0.00    -0.206 F 
ATOM     90  C   UNL     1      -3.611  12.579  18.316  1.00  0.00     0.006 A 
ENDBRANCH  66  83
ENDBRANCH  40  41
ENDBRANCH  32  35
ENDBRANCH  30  31
ENDBRANCH  29  30
ENDBRANCH  28  29
ENDBRANCH   1  28
TORSDOF 17
