REMARK SMILES C[NH2+]C[C@@H](C)C(=O)Nc1ccc(Cl)cc1C(=O)NCCCCCCNC(=O)c1ccc(-c2c3nc(c(-c4c(F)cccc4F)c4ccc([nH]4)c(-c4c(F)cccc4F)c4nc(c(-c5c(F)cccc5F)c5ccc2[nH]5)C=C4)C=C3)cc1
REMARK SMILES IDX 20 1 19 2 18 3 16 4 17 5 15 7 9 8 10 9 11 10 14 11 12 12
REMARK SMILES IDX 13 13 8 14 6 15 7 16 4 18 5 19 3 20 2 21 1 22 21 25 22 26
REMARK SMILES IDX 23 27 24 28 25 29 26 30 27 32 28 33 29 34 81 35 30 36 80 37
REMARK SMILES IDX 31 38 32 39 33 40 74 41 34 42 79 43 73 44 75 45 35 46 78 47
REMARK SMILES IDX 72 48 71 49 36 51 62 52 45 53 61 54 46 55 49 56 60 57 76 58
REMARK SMILES IDX 47 59 48 60 59 62 77 63 50 64 37 65 38 66 43 67 39 68 40 69
REMARK SMILES IDX 42 70 44 71 41 72 63 73 64 74 69 75 65 76 66 77 68 78 70 79
REMARK SMILES IDX 67 80 51 81 52 82 57 83 53 84 54 85 56 86 58 87 55 88
REMARK H PARENT 18 6 8 17 2 23 2 24 25 31 75 50 49 61
REMARK Flexibility Score: inf
ROOT
ATOM      1  C   UNL     1      -5.110  -2.069  -3.465  1.00  0.00     0.021 C 
ENDROOT
BRANCH   1   2
ATOM      2  C   UNL     1      -4.809  -2.618  -2.079  1.00  0.00     0.116 C 
BRANCH   2   3
ATOM      3  N   UNL     1      -5.132  -3.999  -1.858  1.00  0.00    -0.352 N 
ATOM      4  C   UNL     1      -4.592  -4.932  -1.011  1.00  0.00     0.253 C 
ATOM      5  O   UNL     1      -5.113  -6.052  -1.057  1.00  0.00    -0.269 OA
ATOM      6  H   UNL     1      -5.872  -4.336  -2.413  1.00  0.00     0.163 HD
BRANCH   4   7
ATOM      7  C   UNL     1      -3.435  -4.748  -0.064  1.00  0.00     0.064 A 
ATOM      8  C   UNL     1      -3.013  -3.610   0.651  1.00  0.00     0.054 A 
ATOM      9  C   UNL     1      -2.071  -3.747   1.686  1.00  0.00     0.028 A 
ATOM     10  C   UNL     1      -1.396  -4.941   1.906  1.00  0.00     0.023 A 
ATOM     11  C   UNL     1      -2.716  -5.948   0.163  1.00  0.00     0.036 A 
ATOM     12  C   UNL     1      -1.694  -6.032   1.110  1.00  0.00     0.041 A 
ATOM     13  Cl  UNL     1      -0.822  -7.498   1.317  1.00  0.00    -0.084 Cl
BRANCH   8  14
ATOM     14  N   UNL     1      -3.522  -2.321   0.483  1.00  0.00    -0.325 N 
ATOM     15  C   UNL     1      -2.871  -1.194   0.039  1.00  0.00     0.232 C 
ATOM     16  O   UNL     1      -3.548  -0.159  -0.025  1.00  0.00    -0.274 OA
ATOM     17  H   UNL     1      -4.472  -2.204   0.713  1.00  0.00     0.169 HD
BRANCH  15  18
ATOM     18  C   UNL     1      -1.414  -1.170  -0.487  1.00  0.00     0.130 C 
ATOM     19  C   UNL     1      -1.108  -2.190  -1.587  1.00  0.00     0.024 C 
BRANCH  18  20
ATOM     20  C   UNL     1      -0.373  -1.156   0.640  1.00  0.00     0.273 C 
BRANCH  20  21
ATOM     21  N   UNL     1       1.022  -0.914   0.262  1.00  0.00    -0.348 N 
ATOM     22  C   UNL     1       1.266   0.426  -0.241  1.00  0.00     0.330 C 
ATOM     23  H   UNL     1       1.608  -1.062   1.084  1.00  0.00     0.346 HD
ATOM     24  H   UNL     1       1.242  -1.562  -0.495  1.00  0.00     0.346 HD
ENDBRANCH  20  21
ENDBRANCH  18  20
ENDBRANCH  15  18
ENDBRANCH   8  14
ENDBRANCH   4   7
ENDBRANCH   2   3
ENDBRANCH   1   2
BRANCH   1  25
ATOM     25  C   UNL     1      -6.584  -1.963  -3.853  1.00  0.00     0.002 C 
BRANCH  25  26
ATOM     26  C   UNL     1      -7.530  -1.309  -2.843  1.00  0.00     0.002 C 
BRANCH  26  27
ATOM     27  C   UNL     1      -7.129   0.060  -2.287  1.00  0.00     0.021 C 
BRANCH  27  28
ATOM     28  C   UNL     1      -6.747   1.123  -3.309  1.00  0.00     0.116 C 
BRANCH  28  29
ATOM     29  N   UNL     1      -7.790   1.373  -4.288  1.00  0.00    -0.352 N 
ATOM     30  C   UNL     1      -8.319   2.559  -4.722  1.00  0.00     0.251 C 
ATOM     31  H   UNL     1      -8.175   0.568  -4.702  1.00  0.00     0.163 HD
ATOM     32  O   UNL     1      -9.294   2.549  -5.478  1.00  0.00    -0.269 OA
BRANCH  30  33
ATOM     33  C   UNL     1      -7.752   3.854  -4.285  1.00  0.00     0.039 A 
ATOM     34  C   UNL     1      -8.630   4.900  -3.983  1.00  0.00     0.014 A 
ATOM     35  C   UNL     1      -6.372   4.065  -4.215  1.00  0.00     0.014 A 
ATOM     36  C   UNL     1      -8.129   6.140  -3.579  1.00  0.00     0.010 A 
ATOM     37  C   UNL     1      -5.874   5.277  -3.739  1.00  0.00     0.010 A 
ATOM     38  C   UNL     1      -6.746   6.334  -3.436  1.00  0.00    -0.014 A 
BRANCH  38  39
ATOM     39  C   UNL     1      -6.194   7.649  -3.018  1.00  0.00     0.031 A 
ATOM     40  C   UNL     1      -5.332   8.438  -3.967  1.00  0.00     0.074 A 
ATOM     41  C   UNL     1      -6.431   8.115  -1.777  1.00  0.00     0.049 A 
ATOM     42  N   UNL     1      -4.711   9.574  -3.773  1.00  0.00    -0.248 NA
ATOM     43  C   UNL     1      -5.116   7.858  -5.303  1.00  0.00     0.031 C 
ATOM     44  C   UNL     1      -7.220   7.431  -0.751  1.00  0.00     0.029 A 
ATOM     45  N   UNL     1      -6.025   9.274  -1.165  1.00  0.00    -0.354 N 
ATOM     46  C   UNL     1      -4.022   9.834  -4.952  1.00  0.00     0.074 A 
ATOM     47  C   UNL     1      -4.254   8.712  -5.834  1.00  0.00     0.031 C 
ATOM     48  C   UNL     1      -7.258   8.192   0.354  1.00  0.00     0.029 A 
ATOM     49  C   UNL     1      -6.467   9.399   0.130  1.00  0.00     0.049 A 
ATOM     50  H   UNL     1      -5.468   9.953  -1.611  1.00  0.00     0.167 HD
ATOM     51  C   UNL     1      -3.284  10.921  -5.281  1.00  0.00     0.037 A 
ATOM     52  C   UNL     1      -6.255  10.373   1.035  1.00  0.00     0.037 A 
ATOM     53  C   UNL     1      -3.076  12.050  -4.411  1.00  0.00     0.049 A 
ATOM     54  C   UNL     1      -5.425  11.567   0.648  1.00  0.00     0.074 A 
ATOM     55  C   UNL     1      -2.387  13.222  -4.669  1.00  0.00     0.029 A 
ATOM     56  N   UNL     1      -3.558  12.145  -3.114  1.00  0.00    -0.354 N 
ATOM     57  N   UNL     1      -4.830  11.828  -0.491  1.00  0.00    -0.248 NA
ATOM     58  C   UNL     1      -5.246  12.608   1.670  1.00  0.00     0.031 C 
ATOM     59  C   UNL     1      -2.412  14.007  -3.512  1.00  0.00     0.029 A 
ATOM     60  C   UNL     1      -3.165  13.349  -2.553  1.00  0.00     0.049 A 
ATOM     61  H   UNL     1      -4.098  11.460  -2.660  1.00  0.00     0.167 HD
ATOM     62  C   UNL     1      -4.239  13.076  -0.335  1.00  0.00     0.074 A 
ATOM     63  C   UNL     1      -4.556  13.523   1.005  1.00  0.00     0.031 C 
ATOM     64  C   UNL     1      -3.502  13.788  -1.222  1.00  0.00     0.037 A 
BRANCH  51  65
ATOM     65  C   UNL     1      -2.648  10.942  -6.642  1.00  0.00     0.057 A 
ATOM     66  C   UNL     1      -3.409  11.067  -7.813  1.00  0.00     0.134 A 
ATOM     67  C   UNL     1      -1.257  10.866  -6.783  1.00  0.00     0.134 A 
ATOM     68  F   UNL     1      -4.747  11.132  -7.750  1.00  0.00    -0.206 F 
ATOM     69  C   UNL     1      -2.811  11.085  -9.074  1.00  0.00     0.040 A 
ATOM     70  C   UNL     1      -0.646  10.914  -8.038  1.00  0.00     0.040 A 
ATOM     71  F   UNL     1      -0.467  10.752  -5.705  1.00  0.00    -0.206 F 
ATOM     72  C   UNL     1      -1.425  11.016  -9.188  1.00  0.00     0.006 A 
ENDBRANCH  51  65
BRANCH  52  73
ATOM     73  C   UNL     1      -6.855  10.276   2.390  1.00  0.00     0.057 A 
ATOM     74  C   UNL     1      -7.881  11.141   2.789  1.00  0.00     0.134 A 
ATOM     75  C   UNL     1      -6.410   9.332   3.322  1.00  0.00     0.134 A 
ATOM     76  F   UNL     1      -8.338  12.080   1.947  1.00  0.00    -0.206 F 
ATOM     77  C   UNL     1      -8.426  11.088   4.073  1.00  0.00     0.040 A 
ATOM     78  C   UNL     1      -6.964   9.249   4.601  1.00  0.00     0.040 A 
ATOM     79  F   UNL     1      -5.435   8.469   3.000  1.00  0.00    -0.206 F 
ATOM     80  C   UNL     1      -7.969  10.135   4.982  1.00  0.00     0.006 A 
ENDBRANCH  52  73
BRANCH  64  81
ATOM     81  C   UNL     1      -3.032  15.148  -0.793  1.00  0.00     0.057 A 
ATOM     82  C   UNL     1      -2.025  15.320   0.164  1.00  0.00     0.134 A 
ATOM     83  C   UNL     1      -3.572  16.301  -1.379  1.00  0.00     0.134 A 
ATOM     84  F   UNL     1      -1.475  14.258   0.771  1.00  0.00    -0.206 F 
ATOM     85  C   UNL     1      -1.591  16.592   0.544  1.00  0.00     0.040 A 
ATOM     86  C   UNL     1      -3.125  17.576  -1.029  1.00  0.00     0.040 A 
ATOM     87  F   UNL     1      -4.532  16.207  -2.311  1.00  0.00    -0.206 F 
ATOM     88  C   UNL     1      -2.136  17.724  -0.059  1.00  0.00     0.006 A 
ENDBRANCH  64  81
ENDBRANCH  38  39
ENDBRANCH  30  33
ENDBRANCH  28  29
ENDBRANCH  27  28
ENDBRANCH  26  27
ENDBRANCH  25  26
ENDBRANCH   1  25
TORSDOF 17
