REMARK SMILES O=C(CC1(C(=O)NCCCCCCNC(=O)c2ccc(-c3c4nc(c(-c5c(F)cccc5F)c5ccc([nH]5)c(-c5c(F)cccc5F)c5nc(c(-c6c(F)cccc6F)c6ccc3[nH]6)C=C5)C=C4)cc2)CCCCC1)Nc1ccc(N2CCOC2=O)cc1
REMARK SMILES IDX 9 1 8 2 7 3 5 4 6 5 4 7 71 8 75 9 72 10 74 11 73 12 3 13
REMARK SMILES IDX 2 14 1 15 76 16 77 18 78 19 88 20 79 21 87 22 80 23 81 24
REMARK SMILES IDX 82 25 85 26 83 27 84 28 86 29 10 30 11 31 12 32 13 33 14 34
REMARK SMILES IDX 15 35 16 37 17 38 18 39 70 40 19 41 69 42 20 43 21 44 22 45
REMARK SMILES IDX 63 46 23 47 68 48 62 49 64 50 24 51 67 52 61 53 60 54 25 56
REMARK SMILES IDX 51 57 34 58 50 59 35 60 38 61 49 62 65 63 36 64 37 65 48 67
REMARK SMILES IDX 66 68 39 69 26 70 27 71 32 72 28 73 29 74 31 75 33 76 30 77
REMARK SMILES IDX 52 78 53 79 58 80 54 81 55 82 57 83 59 84 56 85 40 86 41 87
REMARK SMILES IDX 46 88 42 89 43 90 45 91 47 92 44 93
REMARK H PARENT 7 6 76 17 14 36 64 55 38 66
REMARK Flexibility Score: inf
ROOT
ATOM      1  C   UNL     1       4.564  -4.213  -3.704  1.00  0.00     0.021 C 
ENDROOT
BRANCH   1   2
ATOM      2  C   UNL     1       4.997  -2.922  -3.015  1.00  0.00     0.116 C 
BRANCH   2   3
ATOM      3  N   UNL     1       3.866  -2.090  -2.696  1.00  0.00    -0.356 N 
ATOM      4  C   UNL     1       3.264  -1.798  -1.522  1.00  0.00     0.226 C 
ATOM      5  O   UNL     1       2.066  -1.518  -1.640  1.00  0.00    -0.274 OA
ATOM      6  H   UNL     1       3.456  -1.654  -3.477  1.00  0.00     0.163 HD
BRANCH   4   7
ATOM      7  C   UNL     1       3.944  -1.796  -0.121  1.00  0.00     0.058 C 
ATOM      8  C   UNL     1       5.387  -1.233  -0.039  1.00  0.00     0.017 C 
ATOM      9  C   UNL     1       3.864  -3.208   0.515  1.00  0.00     0.017 C 
ATOM     10  C   UNL     1       6.568  -2.191  -0.216  1.00  0.00     0.001 C 
ATOM     11  C   UNL     1       4.959  -4.191   0.145  1.00  0.00     0.001 C 
ATOM     12  C   UNL     1       6.363  -3.617   0.290  1.00  0.00     0.000 C 
BRANCH   7  13
ATOM     13  C   UNL     1       3.049  -0.876   0.814  1.00  0.00     0.117 C 
BRANCH  13  14
ATOM     14  C   UNL     1       2.316   0.380   0.327  1.00  0.00     0.225 C 
ATOM     15  O   UNL     1       1.272   0.699   0.899  1.00  0.00    -0.275 OA
ATOM     16  N   UNL     1       2.906   1.096  -0.695  1.00  0.00    -0.326 N 
ATOM     17  H   UNL     1       3.812   0.827  -0.973  1.00  0.00     0.169 HD
BRANCH  16  18
ATOM     18  C   UNL     1       2.313   2.186  -1.372  1.00  0.00     0.041 A 
ATOM     19  C   UNL     1       2.729   2.429  -2.686  1.00  0.00     0.028 A 
ATOM     20  C   UNL     1       1.306   2.985  -0.828  1.00  0.00     0.028 A 
ATOM     21  C   UNL     1       2.062   3.372  -3.478  1.00  0.00     0.028 A 
ATOM     22  C   UNL     1       0.697   3.986  -1.592  1.00  0.00     0.028 A 
ATOM     23  C   UNL     1       1.039   4.152  -2.935  1.00  0.00     0.047 A 
BRANCH  23  24
ATOM     24  N   UNL     1       0.307   5.039  -3.739  1.00  0.00    -0.274 N 
ATOM     25  C   UNL     1      -0.172   4.698  -5.039  1.00  0.00     0.171 C 
ATOM     26  C   UNL     1      -0.116   6.302  -3.387  1.00  0.00     0.414 C 
ATOM     27  C   UNL     1      -1.256   5.728  -5.250  1.00  0.00     0.257 C 
ATOM     28  O   UNL     1      -0.912   6.810  -4.380  1.00  0.00    -0.447 OA
ATOM     29  O   UNL     1       0.179   6.941  -2.384  1.00  0.00    -0.224 OA
ENDBRANCH  23  24
ENDBRANCH  16  18
ENDBRANCH  13  14
ENDBRANCH   7  13
ENDBRANCH   4   7
ENDBRANCH   2   3
ENDBRANCH   1   2
BRANCH   1  30
ATOM     30  C   UNL     1       4.491  -4.101  -5.225  1.00  0.00     0.002 C 
BRANCH  30  31
ATOM     31  C   UNL     1       5.801  -3.671  -5.897  1.00  0.00     0.002 C 
BRANCH  31  32
ATOM     32  C   UNL     1       7.035  -4.488  -5.500  1.00  0.00     0.021 C 
BRANCH  32  33
ATOM     33  C   UNL     1       6.901  -5.990  -5.735  1.00  0.00     0.116 C 
BRANCH  33  34
ATOM     34  N   UNL     1       6.560  -6.286  -7.116  1.00  0.00    -0.352 N 
ATOM     35  C   UNL     1       7.245  -7.018  -8.049  1.00  0.00     0.251 C 
ATOM     36  H   UNL     1       5.708  -5.904  -7.428  1.00  0.00     0.163 HD
ATOM     37  O   UNL     1       6.941  -6.942  -9.235  1.00  0.00    -0.269 OA
BRANCH  35  38
ATOM     38  C   UNL     1       8.353  -7.895  -7.624  1.00  0.00     0.039 A 
ATOM     39  C   UNL     1       9.514  -7.935  -8.398  1.00  0.00     0.014 A 
ATOM     40  C   UNL     1       8.235  -8.696  -6.484  1.00  0.00     0.014 A 
ATOM     41  C   UNL     1      10.578  -8.744  -7.999  1.00  0.00     0.010 A 
ATOM     42  C   UNL     1       9.325  -9.440  -6.045  1.00  0.00     0.010 A 
ATOM     43  C   UNL     1      10.504  -9.478  -6.803  1.00  0.00    -0.014 A 
BRANCH  43  44
ATOM     44  C   UNL     1      11.659 -10.280  -6.332  1.00  0.00     0.031 A 
ATOM     45  C   UNL     1      11.551 -11.774  -6.213  1.00  0.00     0.074 A 
ATOM     46  C   UNL     1      12.793  -9.650  -5.970  1.00  0.00     0.049 A 
ATOM     47  N   UNL     1      12.447 -12.636  -5.801  1.00  0.00    -0.248 NA
ATOM     48  C   UNL     1      10.262 -12.380  -6.581  1.00  0.00     0.031 C 
ATOM     49  C   UNL     1      12.999  -8.200  -5.995  1.00  0.00     0.029 A 
ATOM     50  N   UNL     1      13.986 -10.146  -5.509  1.00  0.00    -0.354 N 
ATOM     51  C   UNL     1      11.828 -13.879  -5.855  1.00  0.00     0.074 A 
ATOM     52  C   UNL     1      10.464 -13.654  -6.281  1.00  0.00     0.031 C 
ATOM     53  C   UNL     1      14.252  -7.928  -5.600  1.00  0.00     0.029 A 
ATOM     54  C   UNL     1      14.923  -9.176  -5.253  1.00  0.00     0.049 A 
ATOM     55  H   UNL     1      14.153 -11.107  -5.374  1.00  0.00     0.167 HD
ATOM     56  C   UNL     1      12.358 -15.098  -5.597  1.00  0.00     0.037 A 
ATOM     57  C   UNL     1      16.181  -9.280  -4.785  1.00  0.00     0.037 A 
ATOM     58  C   UNL     1      13.720 -15.315  -5.184  1.00  0.00     0.049 A 
ATOM     59  C   UNL     1      16.738 -10.645  -4.486  1.00  0.00     0.074 A 
ATOM     60  C   UNL     1      14.369 -16.514  -4.950  1.00  0.00     0.029 A 
ATOM     61  N   UNL     1      14.640 -14.307  -4.933  1.00  0.00    -0.354 N 
ATOM     62  N   UNL     1      16.166 -11.818  -4.615  1.00  0.00    -0.248 NA
ATOM     63  C   UNL     1      18.116 -10.700  -3.983  1.00  0.00     0.031 C 
ATOM     64  C   UNL     1      15.663 -16.230  -4.501  1.00  0.00     0.029 A 
ATOM     65  C   UNL     1      15.842 -14.857  -4.517  1.00  0.00     0.049 A 
ATOM     66  H   UNL     1      14.465 -13.344  -5.036  1.00  0.00     0.167 HD
ATOM     67  C   UNL     1      17.123 -12.751  -4.237  1.00  0.00     0.074 A 
ATOM     68  C   UNL     1      18.317 -12.007  -3.893  1.00  0.00     0.031 C 
ATOM     69  C   UNL     1      17.022 -14.102  -4.178  1.00  0.00     0.037 A 
BRANCH  56  70
ATOM     70  C   UNL     1      11.459 -16.293  -5.752  1.00  0.00     0.057 A 
ATOM     71  C   UNL     1      10.998 -16.716  -7.006  1.00  0.00     0.134 A 
ATOM     72  C   UNL     1      11.081 -17.053  -4.638  1.00  0.00     0.134 A 
ATOM     73  F   UNL     1      11.313 -16.028  -8.114  1.00  0.00    -0.206 F 
ATOM     74  C   UNL     1      10.171 -17.832  -7.143  1.00  0.00     0.040 A 
ATOM     75  C   UNL     1      10.280 -18.189  -4.766  1.00  0.00     0.040 A 
ATOM     76  F   UNL     1      11.491 -16.710  -3.407  1.00  0.00    -0.206 F 
ATOM     77  C   UNL     1       9.816 -18.577  -6.021  1.00  0.00     0.006 A 
ENDBRANCH  56  70
BRANCH  57  78
ATOM     78  C   UNL     1      17.006  -8.061  -4.588  1.00  0.00     0.057 A 
ATOM     79  C   UNL     1      18.127  -7.808  -5.386  1.00  0.00     0.134 A 
ATOM     80  C   UNL     1      16.700  -7.125  -3.591  1.00  0.00     0.134 A 
ATOM     81  F   UNL     1      18.481  -8.674  -6.347  1.00  0.00    -0.206 F 
ATOM     82  C   UNL     1      18.929  -6.683  -5.187  1.00  0.00     0.040 A 
ATOM     83  C   UNL     1      17.476  -5.981  -3.400  1.00  0.00     0.040 A 
ATOM     84  F   UNL     1      15.633  -7.303  -2.799  1.00  0.00    -0.206 F 
ATOM     85  C   UNL     1      18.600  -5.762  -4.194  1.00  0.00     0.006 A 
ENDBRANCH  57  78
BRANCH  69  86
ATOM     86  C   UNL     1      18.247 -14.862  -3.756  1.00  0.00     0.057 A 
ATOM     87  C   UNL     1      18.729 -14.823  -2.441  1.00  0.00     0.134 A 
ATOM     88  C   UNL     1      18.936 -15.667  -4.672  1.00  0.00     0.134 A 
ATOM     89  F   UNL     1      18.123 -14.062  -1.516  1.00  0.00    -0.206 F 
ATOM     90  C   UNL     1      19.870 -15.533  -2.061  1.00  0.00     0.040 A 
ATOM     91  C   UNL     1      20.058 -16.406  -4.296  1.00  0.00     0.040 A 
ATOM     92  F   UNL     1      18.523 -15.758  -5.945  1.00  0.00    -0.206 F 
ATOM     93  C   UNL     1      20.533 -16.333  -2.989  1.00  0.00     0.006 A 
ENDBRANCH  69  86
ENDBRANCH  43  44
ENDBRANCH  35  38
ENDBRANCH  33  34
ENDBRANCH  32  33
ENDBRANCH  31  32
ENDBRANCH  30  31
ENDBRANCH   1  30
TORSDOF 17
