REMARK SMILES CSCC[C@H](C(=O)NCCCCCCNC(=O)c1ccc(-c2c3nc(c(-c4c(F)cccc4F)c4ccc([nH]4)c(-c4c(F)cccc4F)c4nc(c(-c5c(F)cccc5F)c5ccc2[nH]5)C=C4)C=C3)cc1)N1C(=O)/C(=C/c2cn(C)c3ccccc23)SC1=S
REMARK SMILES IDX 11 1 10 2 9 3 8 4 6 5 7 6 5 8 4 9 3 10 2 11 1 12 72 13 73 14
REMARK SMILES IDX 88 15 74 16 75 17 87 18 89 19 76 20 77 21 78 22 86 23 79 24
REMARK SMILES IDX 81 25 85 26 80 27 82 28 84 29 83 30 12 31 13 32 14 33 15 34
REMARK SMILES IDX 16 35 17 37 18 38 19 39 71 40 20 41 70 42 21 43 22 44 23 45
REMARK SMILES IDX 64 46 24 47 69 48 63 49 65 50 25 51 68 52 62 53 61 54 26 56
REMARK SMILES IDX 52 57 35 58 51 59 36 60 39 61 50 62 66 63 37 64 38 65 49 67
REMARK SMILES IDX 67 68 40 69 27 70 28 71 33 72 29 73 30 74 32 75 34 76 31 77
REMARK SMILES IDX 53 78 54 79 59 80 55 81 56 82 58 83 60 84 57 85 41 86 42 87
REMARK SMILES IDX 47 88 43 89 44 90 46 91 48 92 45 93
REMARK H PARENT 8 7 15 36 65 55 39 66
REMARK Flexibility Score: inf
ROOT
ATOM      1  C   UNL     1      -3.739  -1.684  -4.191  1.00  0.00     0.002 C 
ENDROOT
BRANCH   1   2
ATOM      2  C   UNL     1      -3.127  -0.311  -3.887  1.00  0.00     0.021 C 
BRANCH   2   3
ATOM      3  C   UNL     1      -2.146  -0.317  -2.715  1.00  0.00     0.116 C 
BRANCH   3   4
ATOM      4  N   UNL     1      -1.078  -1.261  -2.946  1.00  0.00    -0.354 N 
ATOM      5  C   UNL     1       0.215  -1.006  -3.289  1.00  0.00     0.243 C 
ATOM      6  O   UNL     1       0.856  -1.912  -3.831  1.00  0.00    -0.273 OA
ATOM      7  H   UNL     1      -1.315  -2.211  -2.842  1.00  0.00     0.163 HD
BRANCH   5   8
ATOM      8  C   UNL     1       0.863   0.369  -2.899  1.00  0.00     0.182 C 
BRANCH   8   9
ATOM      9  C   UNL     1       2.209  -0.213  -2.222  1.00  0.00     0.046 C 
BRANCH   9  10
ATOM     10  C   UNL     1       2.976   0.501  -1.100  1.00  0.00     0.072 C 
BRANCH  10  11
ATOM     11  S   UNL     1       2.478   0.120   0.622  1.00  0.00    -0.165 SA
ATOM     12  C   UNL     1       0.691   0.358   0.577  1.00  0.00     0.085 C 
ENDBRANCH  10  11
ENDBRANCH   9  10
ENDBRANCH   8   9
BRANCH   8  13
ATOM     13  N   UNL     1       0.868   1.671  -4.147  1.00  0.00    -0.280 N 
ATOM     14  C   UNL     1       0.172   1.105  -5.074  1.00  0.00     0.266 C 
ATOM     15  C   UNL     1       1.946   3.380  -4.142  1.00  0.00     0.149 C 
ATOM     16  O   UNL     1      -0.337   0.077  -5.411  1.00  0.00    -0.268 OA
ATOM     17  C   UNL     1       0.281   2.357  -5.580  1.00  0.00     0.081 C 
ATOM     18  S   UNL     1       1.848   4.275  -5.319  1.00  0.00    -0.054 SA
ATOM     19  S   UNL     1       3.303   4.263  -3.014  1.00  0.00    -0.052 S 
ATOM     20  C   UNL     1      -0.480   2.190  -6.791  1.00  0.00     0.031 C 
BRANCH  20  21
ATOM     21  C   UNL     1      -0.158   3.219  -7.676  1.00  0.00     0.001 A 
ATOM     22  C   UNL     1      -0.791   4.475  -7.655  1.00  0.00     0.094 A 
ATOM     23  C   UNL     1       0.988   3.389  -6.877  1.00  0.00     0.007 A 
ATOM     24  N   UNL     1      -0.864   5.028  -6.359  1.00  0.00    -0.350 N 
ATOM     25  C   UNL     1      -0.221   4.148  -5.500  1.00  0.00     0.048 A 
ATOM     26  C   UNL     1       2.296   2.180  -5.968  1.00  0.00     0.011 A 
ATOM     27  C   UNL     1      -0.896   6.455  -6.096  1.00  0.00     0.149 C 
ATOM     28  C   UNL     1       0.039   3.650  -3.638  1.00  0.00     0.027 A 
ATOM     29  C   UNL     1       2.676   1.770  -4.078  1.00  0.00     0.001 A 
ATOM     30  C   UNL     1       1.401   2.572  -2.716  1.00  0.00     0.002 A 
ENDBRANCH  20  21
ENDBRANCH   8  13
ENDBRANCH   5   8
ENDBRANCH   3   4
ENDBRANCH   2   3
ENDBRANCH   1   2
BRANCH   1  31
ATOM     31  C   UNL     1      -4.456  -2.322  -3.000  1.00  0.00     0.002 C 
BRANCH  31  32
ATOM     32  C   UNL     1      -5.521  -1.427  -2.366  1.00  0.00     0.021 C 
BRANCH  32  33
ATOM     33  C   UNL     1      -6.561  -0.920  -3.355  1.00  0.00     0.116 C 
BRANCH  33  34
ATOM     34  N   UNL     1      -7.316  -2.012  -3.943  1.00  0.00    -0.352 N 
ATOM     35  C   UNL     1      -8.675  -2.169  -4.007  1.00  0.00     0.251 C 
ATOM     36  H   UNL     1      -6.782  -2.733  -4.348  1.00  0.00     0.163 HD
ATOM     37  O   UNL     1      -9.167  -3.248  -4.319  1.00  0.00    -0.269 OA
BRANCH  35  38
ATOM     38  C   UNL     1      -9.543  -1.020  -3.680  1.00  0.00     0.039 A 
ATOM     39  C   UNL     1     -10.658  -1.225  -2.867  1.00  0.00     0.014 A 
ATOM     40  C   UNL     1      -9.249   0.254  -4.175  1.00  0.00     0.014 A 
ATOM     41  C   UNL     1     -11.464  -0.140  -2.526  1.00  0.00     0.010 A 
ATOM     42  C   UNL     1      -9.999   1.347  -3.759  1.00  0.00     0.010 A 
ATOM     43  C   UNL     1     -11.130   1.157  -2.952  1.00  0.00    -0.014 A 
BRANCH  43  44
ATOM     44  C   UNL     1     -11.987   2.319  -2.608  1.00  0.00     0.031 A 
ATOM     45  C   UNL     1     -12.666   3.096  -3.705  1.00  0.00     0.074 A 
ATOM     46  C   UNL     1     -12.132   2.691  -1.322  1.00  0.00     0.049 A 
ATOM     47  N   UNL     1     -13.410   4.169  -3.620  1.00  0.00    -0.248 NA
ATOM     48  C   UNL     1     -12.463   2.618  -5.084  1.00  0.00     0.031 C 
ATOM     49  C   UNL     1     -11.494   2.043  -0.174  1.00  0.00     0.029 A 
ATOM     50  N   UNL     1     -12.861   3.710  -0.764  1.00  0.00    -0.354 N 
ATOM     51  C   UNL     1     -13.763   4.488  -4.925  1.00  0.00     0.074 A 
ATOM     52  C   UNL     1     -13.089   3.547  -5.790  1.00  0.00     0.031 C 
ATOM     53  C   UNL     1     -11.878   2.665   0.952  1.00  0.00     0.029 A 
ATOM     54  C   UNL     1     -12.754   3.780   0.605  1.00  0.00     0.049 A 
ATOM     55  H   UNL     1     -13.410   4.332  -1.293  1.00  0.00     0.167 HD
ATOM     56  C   UNL     1     -14.604   5.454  -5.364  1.00  0.00     0.037 A 
ATOM     57  C   UNL     1     -13.292   4.653   1.477  1.00  0.00     0.037 A 
ATOM     58  C   UNL     1     -15.284   6.383  -4.501  1.00  0.00     0.049 A 
ATOM     59  C   UNL     1     -14.194   5.741   0.956  1.00  0.00     0.074 A 
ATOM     60  C   UNL     1     -16.165   7.392  -4.845  1.00  0.00     0.029 A 
ATOM     61  N   UNL     1     -15.161   6.411  -3.120  1.00  0.00    -0.354 N 
ATOM     62  N   UNL     1     -14.554   6.002  -0.278  1.00  0.00    -0.248 NA
ATOM     63  C   UNL     1     -14.779   6.649   1.954  1.00  0.00     0.031 C 
ATOM     64  C   UNL     1     -16.541   8.061  -3.676  1.00  0.00     0.029 A 
ATOM     65  C   UNL     1     -15.945   7.426  -2.598  1.00  0.00     0.049 A 
ATOM     66  H   UNL     1     -14.599   5.801  -2.589  1.00  0.00     0.167 HD
ATOM     67  C   UNL     1     -15.441   7.069  -0.199  1.00  0.00     0.074 A 
ATOM     68  C   UNL     1     -15.574   7.397   1.205  1.00  0.00     0.031 C 
ATOM     69  C   UNL     1     -16.088   7.720  -1.196  1.00  0.00     0.037 A 
BRANCH  56  70
ATOM     70  C   UNL     1     -14.854   5.539  -6.842  1.00  0.00     0.057 A 
ATOM     71  C   UNL     1     -15.577   4.549  -7.522  1.00  0.00     0.134 A 
ATOM     72  C   UNL     1     -14.417   6.643  -7.585  1.00  0.00     0.134 A 
ATOM     73  F   UNL     1     -16.012   3.458  -6.874  1.00  0.00    -0.206 F 
ATOM     74  C   UNL     1     -15.838   4.644  -8.890  1.00  0.00     0.040 A 
ATOM     75  C   UNL     1     -14.699   6.764  -8.946  1.00  0.00     0.040 A 
ATOM     76  F   UNL     1     -13.723   7.629  -6.996  1.00  0.00    -0.206 F 
ATOM     77  C   UNL     1     -15.408   5.760  -9.604  1.00  0.00     0.006 A 
ENDBRANCH  56  70
BRANCH  57  78
ATOM     78  C   UNL     1     -13.001   4.547   2.931  1.00  0.00     0.057 A 
ATOM     79  C   UNL     1     -14.009   4.250   3.857  1.00  0.00     0.134 A 
ATOM     80  C   UNL     1     -11.720   4.799   3.437  1.00  0.00     0.134 A 
ATOM     81  F   UNL     1     -15.261   4.013   3.439  1.00  0.00    -0.206 F 
ATOM     82  C   UNL     1     -13.767   4.256   5.232  1.00  0.00     0.040 A 
ATOM     83  C   UNL     1     -11.455   4.773   4.807  1.00  0.00     0.040 A 
ATOM     84  F   UNL     1     -10.704   5.075   2.606  1.00  0.00    -0.206 F 
ATOM     85  C   UNL     1     -12.485   4.518   5.710  1.00  0.00     0.006 A 
ENDBRANCH  57  78
BRANCH  69  86
ATOM     86  C   UNL     1     -17.058   8.797  -0.801  1.00  0.00     0.057 A 
ATOM     87  C   UNL     1     -16.643  10.016  -0.249  1.00  0.00     0.134 A 
ATOM     88  C   UNL     1     -18.433   8.616  -1.004  1.00  0.00     0.134 A 
ATOM     89  F   UNL     1     -15.342  10.251  -0.020  1.00  0.00    -0.206 F 
ATOM     90  C   UNL     1     -17.562  10.999   0.123  1.00  0.00     0.040 A 
ATOM     91  C   UNL     1     -19.358   9.606  -0.670  1.00  0.00     0.040 A 
ATOM     92  F   UNL     1     -18.900   7.479  -1.542  1.00  0.00    -0.206 F 
ATOM     93  C   UNL     1     -18.924  10.797  -0.094  1.00  0.00     0.006 A 
ENDBRANCH  69  86
ENDBRANCH  43  44
ENDBRANCH  35  38
ENDBRANCH  33  34
ENDBRANCH  32  33
ENDBRANCH  31  32
ENDBRANCH   1  31
TORSDOF 18
