REMARK SMILES CC[C@H](CCO)CNc1cc(C(=O)NCCCCCCNC(=O)c2ccc(-c3c4nc(c(-c5c(F)cccc5F)c5ccc([nH]5)c(-c5c(F)cccc5F)c5nc(c(-c6c(F)cccc6F)c6ccc3[nH]6)C=C5)C=C4)cc2)ccn1
REMARK SMILES IDX 15 1 14 2 12 3 13 4 11 6 9 7 10 8 80 9 79 10 78 11 8 12 7 14
REMARK SMILES IDX 3 15 2 16 1 17 4 18 5 19 6 20 16 22 17 23 18 24 19 25 20 26
REMARK SMILES IDX 21 27 22 28 23 30 24 31 25 32 77 33 26 34 76 35 27 36 28 37
REMARK SMILES IDX 29 38 70 39 30 40 75 41 69 42 71 43 31 44 74 45 68 46 67 47
REMARK SMILES IDX 32 49 58 50 41 51 57 52 42 53 45 54 56 55 72 56 43 57 44 58
REMARK SMILES IDX 55 60 73 61 46 62 33 63 34 64 39 65 35 66 36 67 38 68 40 69
REMARK SMILES IDX 37 70 59 71 60 72 65 73 61 74 62 75 64 76 66 77 63 78 47 79
REMARK SMILES IDX 48 80 53 81 49 82 50 83 52 84 54 85 51 86
REMARK H PARENT 14 5 8 13 6 21 21 29 71 48 45 59
REMARK Flexibility Score: inf
ROOT
ATOM      1  C   UNL     1       0.231  -6.525  -5.177  1.00  0.00     0.116 C 
ENDROOT
BRANCH   1   2
ATOM      2  N   UNL     1       1.244  -6.598  -6.213  1.00  0.00    -0.352 N 
ATOM      3  C   UNL     1       2.193  -5.725  -6.674  1.00  0.00     0.251 C 
ATOM      4  O   UNL     1       2.896  -6.113  -7.609  1.00  0.00    -0.269 OA
ATOM      5  H   UNL     1       1.251  -7.461  -6.686  1.00  0.00     0.163 HD
BRANCH   3   6
ATOM      6  C   UNL     1       2.468  -4.385  -6.086  1.00  0.00     0.044 A 
ATOM      7  C   UNL     1       2.000  -2.458  -4.729  1.00  0.00     0.126 A 
ATOM      8  C   UNL     1       1.574  -3.641  -5.322  1.00  0.00     0.060 A 
ATOM      9  N   UNL     1       3.209  -1.929  -4.975  1.00  0.00    -0.240 NA
ATOM     10  C   UNL     1       4.043  -2.616  -5.782  1.00  0.00     0.114 A 
ATOM     11  C   UNL     1       3.731  -3.842  -6.334  1.00  0.00     0.034 A 
BRANCH   7  12
ATOM     12  N   UNL     1       1.229  -1.780  -3.804  1.00  0.00    -0.370 N 
ATOM     13  H   UNL     1       1.104  -0.806  -3.879  1.00  0.00     0.162 HD
BRANCH  12  14
ATOM     14  C   UNL     1       0.603  -2.521  -2.717  1.00  0.00     0.118 C 
BRANCH  14  15
ATOM     15  C   UNL     1       0.935  -1.865  -1.356  1.00  0.00     0.010 C 
BRANCH  15  16
ATOM     16  C   UNL     1       0.646  -2.875  -0.222  1.00  0.00     0.002 C 
ATOM     17  C   UNL     1       1.155  -2.433   1.142  1.00  0.00     0.004 C 
ENDBRANCH  15  16
BRANCH  15  18
ATOM     18  C   UNL     1       0.133  -0.552  -1.181  1.00  0.00     0.033 C 
BRANCH  18  19
ATOM     19  C   UNL     1       0.943   0.587  -0.569  1.00  0.00     0.156 C 
BRANCH  19  20
ATOM     20  O   UNL     1       1.969   0.997  -1.462  1.00  0.00    -0.396 OA
ATOM     21  H   UNL     1       2.563   0.251  -1.637  1.00  0.00     0.210 HD
ENDBRANCH  19  20
ENDBRANCH  18  19
ENDBRANCH  15  18
ENDBRANCH  14  15
ENDBRANCH  12  14
ENDBRANCH   7  12
ENDBRANCH   3   6
ENDBRANCH   1   2
BRANCH   1  22
ATOM     22  C   UNL     1      -1.138  -6.240  -5.799  1.00  0.00     0.021 C 
BRANCH  22  23
ATOM     23  C   UNL     1      -1.820  -7.498  -6.358  1.00  0.00     0.002 C 
BRANCH  23  24
ATOM     24  C   UNL     1      -2.214  -8.541  -5.304  1.00  0.00     0.002 C 
BRANCH  24  25
ATOM     25  C   UNL     1      -3.126  -8.028  -4.186  1.00  0.00     0.021 C 
BRANCH  25  26
ATOM     26  C   UNL     1      -4.476  -7.491  -4.658  1.00  0.00     0.116 C 
BRANCH  26  27
ATOM     27  N   UNL     1      -5.285  -8.530  -5.272  1.00  0.00    -0.352 N 
ATOM     28  C   UNL     1      -6.561  -8.941  -4.981  1.00  0.00     0.251 C 
ATOM     29  H   UNL     1      -4.851  -9.014  -6.011  1.00  0.00     0.163 HD
ATOM     30  O   UNL     1      -6.991  -9.981  -5.469  1.00  0.00    -0.269 OA
BRANCH  28  31
ATOM     31  C   UNL     1      -7.421  -8.147  -4.075  1.00  0.00     0.039 A 
ATOM     32  C   UNL     1      -8.225  -8.826  -3.155  1.00  0.00     0.014 A 
ATOM     33  C   UNL     1      -7.487  -6.753  -4.165  1.00  0.00     0.014 A 
ATOM     34  C   UNL     1      -9.061  -8.108  -2.298  1.00  0.00     0.010 A 
ATOM     35  C   UNL     1      -8.278  -6.033  -3.269  1.00  0.00     0.010 A 
ATOM     36  C   UNL     1      -9.078  -6.704  -2.333  1.00  0.00    -0.014 A 
BRANCH  36  37
ATOM     37  C   UNL     1      -9.931  -5.937  -1.391  1.00  0.00     0.031 A 
ATOM     38  C   UNL     1     -11.105  -5.143  -1.893  1.00  0.00     0.074 A 
ATOM     39  C   UNL     1      -9.629  -5.936  -0.078  1.00  0.00     0.049 A 
ATOM     40  N   UNL     1     -11.962  -4.419  -1.218  1.00  0.00    -0.248 NA
ATOM     41  C   UNL     1     -11.336  -5.146  -3.346  1.00  0.00     0.031 C 
ATOM     42  C   UNL     1      -8.488  -6.626   0.527  1.00  0.00     0.029 A 
ATOM     43  N   UNL     1     -10.257  -5.337   0.984  1.00  0.00    -0.354 N 
ATOM     44  C   UNL     1     -12.828  -3.879  -2.160  1.00  0.00     0.074 A 
ATOM     45  C   UNL     1     -12.364  -4.316  -3.459  1.00  0.00     0.031 C 
ATOM     46  C   UNL     1      -8.514  -6.434   1.856  1.00  0.00     0.029 A 
ATOM     47  C   UNL     1      -9.657  -5.591   2.193  1.00  0.00     0.049 A 
ATOM     48  H   UNL     1     -11.062  -4.777   0.889  1.00  0.00     0.167 HD
ATOM     49  C   UNL     1     -13.923  -3.107  -1.960  1.00  0.00     0.037 A 
ATOM     50  C   UNL     1      -9.994  -5.194   3.434  1.00  0.00     0.037 A 
ATOM     51  C   UNL     1     -14.398  -2.690  -0.667  1.00  0.00     0.049 A 
ATOM     52  C   UNL     1     -11.222  -4.350   3.629  1.00  0.00     0.074 A 
ATOM     53  C   UNL     1     -15.526  -1.948  -0.359  1.00  0.00     0.029 A 
ATOM     54  N   UNL     1     -13.771  -2.980   0.535  1.00  0.00    -0.354 N 
ATOM     55  N   UNL     1     -12.066  -3.901   2.733  1.00  0.00    -0.248 NA
ATOM     56  C   UNL     1     -11.549  -3.968   5.010  1.00  0.00     0.031 C 
ATOM     57  C   UNL     1     -15.564  -1.764   1.028  1.00  0.00     0.029 A 
ATOM     58  C   UNL     1     -14.481  -2.421   1.586  1.00  0.00     0.049 A 
ATOM     59  H   UNL     1     -12.944  -3.506   0.628  1.00  0.00     0.167 HD
ATOM     60  C   UNL     1     -13.035  -3.203   3.442  1.00  0.00     0.074 A 
ATOM     61  C   UNL     1     -12.684  -3.305   4.843  1.00  0.00     0.031 C 
ATOM     62  C   UNL     1     -14.118  -2.535   2.974  1.00  0.00     0.037 A 
BRANCH  49  63
ATOM     63  C   UNL     1     -14.694  -2.674  -3.172  1.00  0.00     0.057 A 
ATOM     64  C   UNL     1     -15.483  -3.573  -3.901  1.00  0.00     0.134 A 
ATOM     65  C   UNL     1     -14.685  -1.337  -3.590  1.00  0.00     0.134 A 
ATOM     66  F   UNL     1     -15.526  -4.870  -3.559  1.00  0.00    -0.206 F 
ATOM     67  C   UNL     1     -16.219  -3.163  -5.013  1.00  0.00     0.040 A 
ATOM     68  C   UNL     1     -15.435  -0.910  -4.687  1.00  0.00     0.040 A 
ATOM     69  F   UNL     1     -13.955  -0.423  -2.933  1.00  0.00    -0.206 F 
ATOM     70  C   UNL     1     -16.202  -1.826  -5.405  1.00  0.00     0.006 A 
ENDBRANCH  49  63
BRANCH  50  71
ATOM     71  C   UNL     1      -9.178  -5.620   4.598  1.00  0.00     0.057 A 
ATOM     72  C   UNL     1      -9.668  -6.555   5.517  1.00  0.00     0.134 A 
ATOM     73  C   UNL     1      -7.902  -5.093   4.828  1.00  0.00     0.134 A 
ATOM     74  F   UNL     1     -10.892  -7.080   5.358  1.00  0.00    -0.206 F 
ATOM     75  C   UNL     1      -8.927  -6.937   6.636  1.00  0.00     0.040 A 
ATOM     76  C   UNL     1      -7.141  -5.483   5.931  1.00  0.00     0.040 A 
ATOM     77  F   UNL     1      -7.375  -4.199   3.979  1.00  0.00    -0.206 F 
ATOM     78  C   UNL     1      -7.657  -6.402   6.843  1.00  0.00     0.006 A 
ENDBRANCH  50  71
BRANCH  62  79
ATOM     79  C   UNL     1     -15.007  -1.886   3.993  1.00  0.00     0.057 A 
ATOM     80  C   UNL     1     -14.620  -0.726   4.676  1.00  0.00     0.134 A 
ATOM     81  C   UNL     1     -16.269  -2.419   4.282  1.00  0.00     0.134 A 
ATOM     82  F   UNL     1     -13.416  -0.175   4.453  1.00  0.00    -0.206 F 
ATOM     83  C   UNL     1     -15.446  -0.134   5.632  1.00  0.00     0.040 A 
ATOM     84  C   UNL     1     -17.114  -1.823   5.219  1.00  0.00     0.040 A 
ATOM     85  F   UNL     1     -16.701  -3.524   3.658  1.00  0.00    -0.206 F 
ATOM     86  C   UNL     1     -16.700  -0.681   5.902  1.00  0.00     0.006 A 
ENDBRANCH  62  79
ENDBRANCH  36  37
ENDBRANCH  28  31
ENDBRANCH  26  27
ENDBRANCH  25  26
ENDBRANCH  24  25
ENDBRANCH  23  24
ENDBRANCH  22  23
ENDBRANCH   1  22
TORSDOF 20
