REMARK SMILES CC1(C)CN(CC(=O)NCCCCCCNC(=O)c2ccc(-c3c4nc(c(-c5c(F)cccc5F)c5ccc([nH]5)c(-c5c(F)cccc5F)c5nc(c(-c6c(F)cccc6F)c6ccc3[nH]6)C=C5)C=C4)cc2)c2ccc(S(=O)(=O)N3CCCCC3)cc21
REMARK SMILES IDX 12 1 11 2 10 3 9 4 7 5 8 6 6 8 5 9 1 10 2 11 3 12 4 13 87 14
REMARK SMILES IDX 73 15 86 16 74 17 76 18 75 19 77 20 78 21 79 22 80 23 81 24
REMARK SMILES IDX 85 25 82 26 84 27 83 28 13 29 14 30 15 31 16 32 17 33 18 35
REMARK SMILES IDX 19 36 20 37 72 38 21 39 71 40 22 41 23 42 24 43 65 44 25 45
REMARK SMILES IDX 70 46 64 47 66 48 26 49 69 50 63 51 62 52 27 54 53 55 36 56
REMARK SMILES IDX 52 57 37 58 40 59 51 60 67 61 38 62 39 63 50 65 68 66 41 67
REMARK SMILES IDX 28 68 29 69 34 70 30 71 31 72 33 73 35 74 32 75 54 76 55 77
REMARK SMILES IDX 60 78 56 79 57 80 59 81 61 82 58 83 42 84 43 85 48 86 44 87
REMARK SMILES IDX 45 88 47 89 49 90 46 91
REMARK H PARENT 9 7 16 34 66 53 40 64
REMARK Flexibility Score: inf
ROOT
ATOM      1  C   UNL     1       5.060   3.759   2.249  1.00  0.00     0.002 C 
ENDROOT
BRANCH   1   2
ATOM      2  C   UNL     1       3.681   3.084   2.228  1.00  0.00     0.021 C 
BRANCH   2   3
ATOM      3  C   UNL     1       2.682   3.662   3.231  1.00  0.00     0.116 C 
BRANCH   3   4
ATOM      4  N   UNL     1       2.264   4.998   2.864  1.00  0.00    -0.355 N 
ATOM      5  C   UNL     1       1.109   5.382   2.241  1.00  0.00     0.239 C 
ATOM      6  O   UNL     1       0.973   6.576   1.957  1.00  0.00    -0.273 OA
ATOM      7  H   UNL     1       2.892   5.722   3.091  1.00  0.00     0.163 HD
BRANCH   5   8
ATOM      8  C   UNL     1      -0.007   4.363   1.977  1.00  0.00     0.216 C 
BRANCH   8   9
ATOM      9  N   UNL     1       0.365   3.296   1.055  1.00  0.00    -0.361 N 
ATOM     10  C   UNL     1       1.170  -0.001   0.070  1.00  0.00     0.018 C 
ATOM     11  C   UNL     1       0.145   1.129  -0.052  1.00  0.00     0.009 C 
ATOM     12  C   UNL     1      -1.210   0.582  -0.519  1.00  0.00     0.018 C 
ATOM     13  C   UNL     1      -0.014   1.902   1.294  1.00  0.00     0.128 C 
ATOM     14  C   UNL     1       0.616   2.227  -0.973  1.00  0.00    -0.016 A 
ATOM     15  C   UNL     1       0.653   3.443  -0.285  1.00  0.00     0.041 A 
ATOM     16  C   UNL     1       0.925   2.138  -2.326  1.00  0.00     0.028 A 
ATOM     17  C   UNL     1       0.962   4.602  -0.974  1.00  0.00     0.027 A 
ATOM     18  C   UNL     1       1.261   3.309  -3.015  1.00  0.00     0.083 A 
ATOM     19  C   UNL     1       1.262   4.536  -2.341  1.00  0.00     0.024 A 
BRANCH  18  20
ATOM     20  S   UNL     1       1.629   3.133  -4.754  1.00  0.00     0.243 S 
ATOM     21  O   UNL     1       2.971   2.593  -4.828  1.00  0.00    -0.207 OA
ATOM     22  O   UNL     1       0.504   2.422  -5.327  1.00  0.00    -0.207 OA
BRANCH  20  23
ATOM     23  N   UNL     1       1.648   4.690  -5.452  1.00  0.00    -0.198 NA
ATOM     24  C   UNL     1       0.346   5.396  -5.512  1.00  0.00     0.102 C 
ATOM     25  C   UNL     1       2.868   5.504  -5.232  1.00  0.00     0.102 C 
ATOM     26  C   UNL     1       0.420   6.640  -6.388  1.00  0.00     0.017 C 
ATOM     27  C   UNL     1       2.878   6.760  -6.096  1.00  0.00     0.017 C 
ATOM     28  C   UNL     1       1.576   7.535  -5.970  1.00  0.00     0.003 C 
ENDBRANCH  20  23
ENDBRANCH  18  20
ENDBRANCH   8   9
ENDBRANCH   5   8
ENDBRANCH   3   4
ENDBRANCH   2   3
ENDBRANCH   1   2
BRANCH   1  29
ATOM     29  C   UNL     1       5.813   3.695   3.583  1.00  0.00     0.002 C 
BRANCH  29  30
ATOM     30  C   UNL     1       5.981   2.296   4.179  1.00  0.00     0.021 C 
BRANCH  30  31
ATOM     31  C   UNL     1       6.725   1.300   3.296  1.00  0.00     0.116 C 
BRANCH  31  32
ATOM     32  N   UNL     1       8.131   1.632   3.124  1.00  0.00    -0.352 N 
ATOM     33  C   UNL     1       9.235   0.815   3.220  1.00  0.00     0.251 C 
ATOM     34  H   UNL     1       8.320   2.574   2.908  1.00  0.00     0.163 HD
ATOM     35  O   UNL     1      10.365   1.288   3.173  1.00  0.00    -0.269 OA
BRANCH  33  36
ATOM     36  C   UNL     1       9.052  -0.639   3.430  1.00  0.00     0.039 A 
ATOM     37  C   UNL     1       8.126  -1.359   2.673  1.00  0.00     0.014 A 
ATOM     38  C   UNL     1       9.790  -1.279   4.431  1.00  0.00     0.014 A 
ATOM     39  C   UNL     1       7.807  -2.664   3.037  1.00  0.00     0.010 A 
ATOM     40  C   UNL     1       9.521  -2.615   4.745  1.00  0.00     0.010 A 
ATOM     41  C   UNL     1       8.482  -3.298   4.094  1.00  0.00    -0.014 A 
BRANCH  41  42
ATOM     42  C   UNL     1       8.042  -4.648   4.533  1.00  0.00     0.031 A 
ATOM     43  C   UNL     1       7.404  -4.841   5.885  1.00  0.00     0.074 A 
ATOM     44  C   UNL     1       8.141  -5.690   3.687  1.00  0.00     0.049 A 
ATOM     45  N   UNL     1       6.891  -5.927   6.410  1.00  0.00    -0.248 NA
ATOM     46  C   UNL     1       7.334  -3.664   6.763  1.00  0.00     0.031 C 
ATOM     47  C   UNL     1       8.726  -5.634   2.347  1.00  0.00     0.029 A 
ATOM     48  N   UNL     1       7.722  -6.989   3.816  1.00  0.00    -0.354 N 
ATOM     49  C   UNL     1       6.458  -5.568   7.681  1.00  0.00     0.074 A 
ATOM     50  C   UNL     1       6.796  -4.173   7.861  1.00  0.00     0.031 C 
ATOM     51  C   UNL     1       8.573  -6.828   1.753  1.00  0.00     0.029 A 
ATOM     52  C   UNL     1       7.924  -7.743   2.687  1.00  0.00     0.049 A 
ATOM     53  H   UNL     1       7.315  -7.346   4.638  1.00  0.00     0.167 HD
ATOM     54  C   UNL     1       5.824  -6.325   8.611  1.00  0.00     0.037 A 
ATOM     55  C   UNL     1       7.617  -9.028   2.429  1.00  0.00     0.037 A 
ATOM     56  C   UNL     1       5.466  -7.707   8.431  1.00  0.00     0.049 A 
ATOM     57  C   UNL     1       6.948  -9.854   3.489  1.00  0.00     0.074 A 
ATOM     58  C   UNL     1       4.797  -8.549   9.304  1.00  0.00     0.029 A 
ATOM     59  N   UNL     1       5.749  -8.453   7.297  1.00  0.00    -0.354 N 
ATOM     60  N   UNL     1       6.530  -9.496   4.678  1.00  0.00    -0.248 NA
ATOM     61  C   UNL     1       6.718 -11.270   3.170  1.00  0.00     0.031 C 
ATOM     62  C   UNL     1       4.706  -9.814   8.711  1.00  0.00     0.029 A 
ATOM     63  C   UNL     1       5.287  -9.750   7.455  1.00  0.00     0.049 A 
ATOM     64  H   UNL     1       6.211  -8.112   6.497  1.00  0.00     0.167 HD
ATOM     65  C   UNL     1       5.974 -10.635   5.244  1.00  0.00     0.074 A 
ATOM     66  C   UNL     1       6.092 -11.692   4.260  1.00  0.00     0.031 C 
ATOM     67  C   UNL     1       5.416 -10.792   6.469  1.00  0.00     0.037 A 
BRANCH  54  68
ATOM     68  C   UNL     1       5.497  -5.666   9.919  1.00  0.00     0.057 A 
ATOM     69  C   UNL     1       6.212  -5.989  11.079  1.00  0.00     0.134 A 
ATOM     70  C   UNL     1       4.476  -4.714  10.034  1.00  0.00     0.134 A 
ATOM     71  F   UNL     1       7.200  -6.896  11.040  1.00  0.00    -0.206 F 
ATOM     72  C   UNL     1       5.929  -5.383  12.304  1.00  0.00     0.040 A 
ATOM     73  C   UNL     1       4.198  -4.084  11.249  1.00  0.00     0.040 A 
ATOM     74  F   UNL     1       3.763  -4.348   8.957  1.00  0.00    -0.206 F 
ATOM     75  C   UNL     1       4.925  -4.420  12.389  1.00  0.00     0.006 A 
ENDBRANCH  54  68
BRANCH  55  76
ATOM     76  C   UNL     1       7.922  -9.608   1.100  1.00  0.00     0.057 A 
ATOM     77  C   UNL     1       9.236  -9.875   0.703  1.00  0.00     0.134 A 
ATOM     78  C   UNL     1       6.897  -9.907   0.195  1.00  0.00     0.134 A 
ATOM     79  F   UNL     1      10.260  -9.608   1.527  1.00  0.00    -0.206 F 
ATOM     80  C   UNL     1       9.524 -10.408  -0.554  1.00  0.00     0.040 A 
ATOM     81  C   UNL     1       7.168 -10.460  -1.057  1.00  0.00     0.040 A 
ATOM     82  F   UNL     1       5.617  -9.690   0.530  1.00  0.00    -0.206 F 
ATOM     83  C   UNL     1       8.487 -10.707  -1.436  1.00  0.00     0.006 A 
ENDBRANCH  55  76
BRANCH  67  84
ATOM     84  C   UNL     1       4.876 -12.152   6.797  1.00  0.00     0.057 A 
ATOM     85  C   UNL     1       3.496 -12.386   6.824  1.00  0.00     0.134 A 
ATOM     86  C   UNL     1       5.723 -13.229   7.088  1.00  0.00     0.134 A 
ATOM     87  F   UNL     1       2.632 -11.395   6.558  1.00  0.00    -0.206 F 
ATOM     88  C   UNL     1       2.977 -13.645   7.125  1.00  0.00     0.040 A 
ATOM     89  C   UNL     1       5.216 -14.498   7.370  1.00  0.00     0.040 A 
ATOM     90  F   UNL     1       7.055 -13.072   7.062  1.00  0.00    -0.206 F 
ATOM     91  C   UNL     1       3.838 -14.708   7.392  1.00  0.00     0.006 A 
ENDBRANCH  67  84
ENDBRANCH  41  42
ENDBRANCH  33  36
ENDBRANCH  31  32
ENDBRANCH  30  31
ENDBRANCH  29  30
ENDBRANCH   1  29
TORSDOF 16
