REMARK SMILES CCC[N@@H+]1CC2(CCN(C(=O)Cn3nnnc3C)CC2)C[C@H]1C(=O)NCCCCCCNC(=O)c1ccc(-c2c3nc(c(-c4c(F)cccc4F)c4ccc([nH]4)c(-c4c(F)cccc4F)c4nc(c(-c5c(F)cccc5F)c5ccc2[nH]5)C=C4)C=C3)cc1
REMARK SMILES IDX 28 1 27 2 26 3 25 4 23 5 24 6 22 8 4 9 5 10 6 12 21 13 7 14
REMARK SMILES IDX 20 15 8 16 19 17 9 18 10 19 11 20 3 21 2 22 1 23 12 24 13 25
REMARK SMILES IDX 14 26 17 27 15 28 16 29 18 30 29 31 30 32 31 33 32 34 33 35
REMARK SMILES IDX 34 37 35 38 36 39 88 40 37 41 87 42 38 43 39 44 40 45 81 46
REMARK SMILES IDX 41 47 86 48 80 49 82 50 42 51 85 52 79 53 78 54 43 56 69 57
REMARK SMILES IDX 52 58 68 59 53 60 56 61 67 62 83 63 54 64 55 65 66 67 84 68
REMARK SMILES IDX 57 69 44 70 45 71 50 72 46 73 47 74 49 75 51 76 48 77 70 78
REMARK SMILES IDX 71 79 76 80 72 81 73 82 75 83 77 84 74 85 58 86 59 87 64 88
REMARK SMILES IDX 60 89 61 90 63 91 65 92 62 93
REMARK H PARENT 25 7 4 11 32 36 82 55 56 66
REMARK Flexibility Score: inf
ROOT
ATOM      1  C   UNL     1      -2.751  -5.912   0.068  1.00  0.00     0.002 C 
ENDROOT
BRANCH   1   2
ATOM      2  C   UNL     1      -1.909  -4.714  -0.371  1.00  0.00     0.021 C 
BRANCH   2   3
ATOM      3  C   UNL     1      -0.463  -5.075  -0.698  1.00  0.00     0.116 C 
BRANCH   3   4
ATOM      4  N   UNL     1      -0.114  -5.017  -2.088  1.00  0.00    -0.351 N 
ATOM      5  C   UNL     1       0.762  -4.216  -2.754  1.00  0.00     0.278 C 
ATOM      6  O   UNL     1       0.991  -4.551  -3.926  1.00  0.00    -0.268 OA
ATOM      7  H   UNL     1      -0.588  -5.666  -2.657  1.00  0.00     0.163 HD
BRANCH   5   8
ATOM      8  C   UNL     1       1.498  -2.972  -2.168  1.00  0.00     0.274 C 
ATOM      9  N   UNL     1       0.580  -1.874  -1.747  1.00  0.00    -0.324 N 
ATOM     10  C   UNL     1       0.561  -1.900  -0.281  1.00  0.00     0.270 C 
ATOM     11  H   UNL     1      -0.382  -1.980  -2.071  1.00  0.00     0.348 HD
ATOM     12  C   UNL     1       1.911  -2.468   0.220  1.00  0.00     0.029 C 
ATOM     13  C   UNL     1       2.495  -3.170  -1.025  1.00  0.00     0.088 C 
ATOM     14  C   UNL     1       1.859  -3.482   1.389  1.00  0.00     0.034 C 
ATOM     15  C   UNL     1       2.785  -1.309   0.766  1.00  0.00     0.034 C 
ATOM     16  C   UNL     1       1.151  -2.907   2.594  1.00  0.00     0.120 C 
ATOM     17  C   UNL     1       2.216  -0.726   2.080  1.00  0.00     0.120 C 
ATOM     18  N   UNL     1       1.891  -1.750   3.081  1.00  0.00    -0.341 N 
ATOM     19  C   UNL     1       2.175  -1.507   4.417  1.00  0.00     0.244 C 
ATOM     20  O   UNL     1       2.804  -0.506   4.771  1.00  0.00    -0.273 OA
BRANCH   9  21
ATOM     21  C   UNL     1       1.056  -0.606  -2.349  1.00  0.00     0.262 C 
BRANCH  21  22
ATOM     22  C   UNL     1       0.300   0.685  -1.994  1.00  0.00     0.058 C 
ATOM     23  C   UNL     1       0.933   1.502  -0.874  1.00  0.00     0.010 C 
ENDBRANCH  21  22
ENDBRANCH   9  21
BRANCH  19  24
ATOM     24  C   UNL     1       1.714  -2.494   5.468  1.00  0.00     0.248 C 
BRANCH  24  25
ATOM     25  N   UNL     1       0.277  -2.577   5.586  1.00  0.00    -0.220 N 
ATOM     26  N   UNL     1      -0.308  -3.790   5.619  1.00  0.00    -0.044 NA
ATOM     27  C   UNL     1      -0.686  -1.605   5.660  1.00  0.00     0.148 A 
ATOM     28  N   UNL     1      -1.606  -3.552   5.702  1.00  0.00    -0.024 NA
ATOM     29  N   UNL     1      -1.858  -2.207   5.703  1.00  0.00    -0.114 NA
ATOM     30  C   UNL     1      -0.467  -0.145   5.677  1.00  0.00     0.091 C 
ENDBRANCH  24  25
ENDBRANCH  19  24
ENDBRANCH   5   8
ENDBRANCH   3   4
ENDBRANCH   2   3
ENDBRANCH   1   2
BRANCH   1  31
ATOM     31  C   UNL     1      -2.222  -6.702   1.281  1.00  0.00     0.002 C 
BRANCH  31  32
ATOM     32  C   UNL     1      -2.001  -5.924   2.588  1.00  0.00     0.021 C 
BRANCH  32  33
ATOM     33  C   UNL     1      -3.287  -5.411   3.213  1.00  0.00     0.116 C 
BRANCH  33  34
ATOM     34  N   UNL     1      -4.223  -6.494   3.547  1.00  0.00    -0.352 N 
ATOM     35  C   UNL     1      -5.506  -6.403   4.045  1.00  0.00     0.251 C 
ATOM     36  H   UNL     1      -3.889  -7.407   3.396  1.00  0.00     0.163 HD
ATOM     37  O   UNL     1      -6.048  -7.365   4.592  1.00  0.00    -0.269 OA
BRANCH  35  38
ATOM     38  C   UNL     1      -6.232  -5.137   3.891  1.00  0.00     0.039 A 
ATOM     39  C   UNL     1      -7.077  -4.621   4.878  1.00  0.00     0.014 A 
ATOM     40  C   UNL     1      -6.006  -4.439   2.711  1.00  0.00     0.014 A 
ATOM     41  C   UNL     1      -7.642  -3.365   4.675  1.00  0.00     0.010 A 
ATOM     42  C   UNL     1      -6.337  -3.122   2.639  1.00  0.00     0.010 A 
ATOM     43  C   UNL     1      -7.252  -2.624   3.550  1.00  0.00    -0.014 A 
BRANCH  43  44
ATOM     44  C   UNL     1      -7.722  -1.275   3.296  1.00  0.00     0.031 A 
ATOM     45  C   UNL     1      -7.391  -0.307   4.366  1.00  0.00     0.074 A 
ATOM     46  C   UNL     1      -8.187  -0.905   2.082  1.00  0.00     0.049 A 
ATOM     47  N   UNL     1      -8.219   0.271   5.168  1.00  0.00    -0.248 NA
ATOM     48  C   UNL     1      -5.976  -0.071   4.695  1.00  0.00     0.031 C 
ATOM     49  C   UNL     1      -8.273  -1.692   0.844  1.00  0.00     0.029 A 
ATOM     50  N   UNL     1      -8.595   0.324   1.674  1.00  0.00    -0.354 N 
ATOM     51  C   UNL     1      -7.453   1.111   5.968  1.00  0.00     0.074 A 
ATOM     52  C   UNL     1      -6.084   0.714   5.769  1.00  0.00     0.031 C 
ATOM     53  C   UNL     1      -8.481  -0.870  -0.208  1.00  0.00     0.029 A 
ATOM     54  C   UNL     1      -8.710   0.470   0.294  1.00  0.00     0.049 A 
ATOM     55  H   UNL     1      -8.794   1.054   2.304  1.00  0.00     0.167 HD
ATOM     56  C   UNL     1      -8.006   2.220   6.532  1.00  0.00     0.037 A 
ATOM     57  C   UNL     1      -8.948   1.632  -0.366  1.00  0.00     0.037 A 
ATOM     58  C   UNL     1      -9.448   2.166   6.457  1.00  0.00     0.049 A 
ATOM     59  C   UNL     1      -9.539   2.574   0.622  1.00  0.00     0.074 A 
ATOM     60  C   UNL     1     -10.408   1.292   6.933  1.00  0.00     0.029 A 
ATOM     61  N   UNL     1     -10.059   2.883   5.455  1.00  0.00    -0.354 N 
ATOM     62  N   UNL     1     -10.722   2.407   1.150  1.00  0.00    -0.248 NA
ATOM     63  C   UNL     1      -8.621   3.397   1.398  1.00  0.00     0.031 C 
ATOM     64  C   UNL     1     -11.357   1.180   5.874  1.00  0.00     0.029 A 
ATOM     65  C   UNL     1     -10.975   2.055   4.856  1.00  0.00     0.049 A 
ATOM     66  H   UNL     1      -9.873   3.818   5.211  1.00  0.00     0.167 HD
ATOM     67  C   UNL     1     -10.556   2.715   2.494  1.00  0.00     0.074 A 
ATOM     68  C   UNL     1      -9.258   3.386   2.573  1.00  0.00     0.031 C 
ATOM     69  C   UNL     1     -11.329   2.129   3.457  1.00  0.00     0.037 A 
BRANCH  56  70
ATOM     70  C   UNL     1      -7.275   3.513   6.794  1.00  0.00     0.057 A 
ATOM     71  C   UNL     1      -7.947   4.542   7.479  1.00  0.00     0.134 A 
ATOM     72  C   UNL     1      -6.080   3.900   6.157  1.00  0.00     0.134 A 
ATOM     73  F   UNL     1      -9.095   4.301   8.131  1.00  0.00    -0.206 F 
ATOM     74  C   UNL     1      -7.515   5.872   7.447  1.00  0.00     0.040 A 
ATOM     75  C   UNL     1      -5.613   5.217   6.162  1.00  0.00     0.040 A 
ATOM     76  F   UNL     1      -5.351   3.060   5.413  1.00  0.00    -0.206 F 
ATOM     77  C   UNL     1      -6.350   6.216   6.776  1.00  0.00     0.006 A 
ENDBRANCH  56  70
BRANCH  57  78
ATOM     78  C   UNL     1      -8.427   2.071  -1.683  1.00  0.00     0.057 A 
ATOM     79  C   UNL     1      -8.967   3.180  -2.349  1.00  0.00     0.134 A 
ATOM     80  C   UNL     1      -7.209   1.584  -2.192  1.00  0.00     0.134 A 
ATOM     81  F   UNL     1     -10.104   3.745  -1.917  1.00  0.00    -0.206 F 
ATOM     82  C   UNL     1      -8.323   3.786  -3.438  1.00  0.00     0.040 A 
ATOM     83  C   UNL     1      -6.559   2.175  -3.281  1.00  0.00     0.040 A 
ATOM     84  F   UNL     1      -6.563   0.573  -1.595  1.00  0.00    -0.206 F 
ATOM     85  C   UNL     1      -7.108   3.291  -3.900  1.00  0.00     0.006 A 
ENDBRANCH  57  78
BRANCH  69  86
ATOM     86  C   UNL     1     -12.506   1.298   3.016  1.00  0.00     0.057 A 
ATOM     87  C   UNL     1     -12.402   0.115   2.267  1.00  0.00     0.134 A 
ATOM     88  C   UNL     1     -13.773   1.614   3.514  1.00  0.00     0.134 A 
ATOM     89  F   UNL     1     -11.219  -0.330   1.831  1.00  0.00    -0.206 F 
ATOM     90  C   UNL     1     -13.513  -0.692   1.994  1.00  0.00     0.040 A 
ATOM     91  C   UNL     1     -14.884   0.801   3.278  1.00  0.00     0.040 A 
ATOM     92  F   UNL     1     -13.942   2.696   4.290  1.00  0.00    -0.206 F 
ATOM     93  C   UNL     1     -14.759  -0.352   2.507  1.00  0.00     0.006 A 
ENDBRANCH  69  86
ENDBRANCH  43  44
ENDBRANCH  35  38
ENDBRANCH  33  34
ENDBRANCH  32  33
ENDBRANCH  31  32
ENDBRANCH   1  31
TORSDOF 17
