REMARK SMILES O=C(NCCCCCCNC(=O)c1ccc(-c2c3nc(c(-c4c(F)cccc4F)c4ccc([nH]4)c(-c4c(F)cccc4F)c4nc(c(-c5c(F)cccc5F)c5ccc2[nH]5)C=C4)C=C3)cc1)C1=Cc2cc(Cl)cc(-c3ccc(Cl)cc3)c2O[C@@H]1C(F)(F)F
REMARK SMILES IDX 7 1 6 2 5 3 4 4 3 5 1 6 2 7 67 9 68 10 84 11 69 12 83 13
REMARK SMILES IDX 70 14 82 15 71 16 74 17 72 18 73 19 85 20 86 21 87 22 88 23
REMARK SMILES IDX 75 24 76 25 81 26 77 27 80 28 78 29 79 30 8 31 9 32 10 33
REMARK SMILES IDX 11 34 12 36 13 37 14 38 66 39 15 40 65 41 16 42 17 43 18 44
REMARK SMILES IDX 59 45 19 46 64 47 58 48 60 49 20 50 63 51 57 52 56 53 21 55
REMARK SMILES IDX 47 56 30 57 46 58 31 59 34 60 45 61 61 62 32 63 33 64 44 66
REMARK SMILES IDX 62 67 35 68 22 69 23 70 28 71 24 72 25 73 27 74 29 75 26 76
REMARK SMILES IDX 48 77 49 78 54 79 50 80 51 81 53 82 55 83 52 84 36 85 37 86
REMARK SMILES IDX 42 87 38 88 39 89 41 90 43 91 40 92
REMARK H PARENT 3 8 10 35 60 54 34 65
REMARK Flexibility Score: inf
ROOT
ATOM      1  C   UNL     1       4.330   4.896  -0.135  1.00  0.00     0.002 C 
ENDROOT
BRANCH   1   2
ATOM      2  C   UNL     1       3.737   4.458  -1.480  1.00  0.00     0.002 C 
BRANCH   2   3
ATOM      3  C   UNL     1       4.135   3.074  -1.995  1.00  0.00     0.021 C 
BRANCH   3   4
ATOM      4  C   UNL     1       3.904   1.894  -1.052  1.00  0.00     0.116 C 
BRANCH   4   5
ATOM      5  N   UNL     1       2.611   1.242  -1.179  1.00  0.00    -0.352 N 
ATOM      6  O   UNL     1       1.024  -0.313  -0.856  1.00  0.00    -0.270 OA
ATOM      7  C   UNL     1       2.214  -0.010  -0.789  1.00  0.00     0.251 C 
ATOM      8  H   UNL     1       1.912   1.783  -1.612  1.00  0.00     0.163 HD
BRANCH   7   9
ATOM      9  C   UNL     1       3.159  -1.003  -0.192  1.00  0.00     0.067 C 
ATOM     10  C   UNL     1       4.414  -1.143  -0.646  1.00  0.00     0.025 C 
ATOM     11  C   UNL     1       2.902  -1.235   1.278  1.00  0.00     0.314 C 
ATOM     12  C   UNL     1       5.430  -0.641   0.308  1.00  0.00     0.019 A 
ATOM     13  O   UNL     1       3.780  -0.411   2.089  1.00  0.00    -0.475 OA
ATOM     14  C   UNL     1       6.702  -0.355  -0.200  1.00  0.00     0.032 A 
ATOM     15  C   UNL     1       5.032  -0.154   1.573  1.00  0.00     0.135 A 
ATOM     16  C   UNL     1       7.545   0.483   0.516  1.00  0.00     0.042 A 
ATOM     17  C   UNL     1       5.862   0.741   2.272  1.00  0.00     0.026 A 
ATOM     18  Cl  UNL     1       9.040   0.979  -0.175  1.00  0.00    -0.084 Cl
ATOM     19  C   UNL     1       7.130   1.033   1.728  1.00  0.00     0.033 A 
BRANCH  11  20
ATOM     20  C   UNL     1       2.991  -2.732   1.638  1.00  0.00     0.429 C 
ATOM     21  F   UNL     1       2.631  -2.957   2.923  1.00  0.00    -0.167 F 
ATOM     22  F   UNL     1       2.169  -3.479   0.861  1.00  0.00    -0.167 F 
ATOM     23  F   UNL     1       4.241  -3.233   1.481  1.00  0.00    -0.167 F 
ENDBRANCH  11  20
BRANCH  17  24
ATOM     24  C   UNL     1       5.390   1.550   3.412  1.00  0.00    -0.015 A 
ATOM     25  C   UNL     1       5.230   2.936   3.233  1.00  0.00     0.010 A 
ATOM     26  C   UNL     1       5.125   1.021   4.678  1.00  0.00     0.010 A 
ATOM     27  C   UNL     1       4.869   3.784   4.279  1.00  0.00     0.021 A 
ATOM     28  C   UNL     1       4.758   1.866   5.736  1.00  0.00     0.021 A 
ATOM     29  C   UNL     1       4.646   3.242   5.536  1.00  0.00     0.041 A 
ATOM     30  Cl  UNL     1       4.242   4.280   6.846  1.00  0.00    -0.084 Cl
ENDBRANCH  17  24
ENDBRANCH   7   9
ENDBRANCH   4   5
ENDBRANCH   3   4
ENDBRANCH   2   3
ENDBRANCH   1   2
BRANCH   1  31
ATOM     31  C   UNL     1       5.843   4.724   0.040  1.00  0.00     0.021 C 
BRANCH  31  32
ATOM     32  C   UNL     1       6.727   5.538  -0.892  1.00  0.00     0.116 C 
BRANCH  32  33
ATOM     33  N   UNL     1       6.626   6.963  -0.624  1.00  0.00    -0.352 N 
ATOM     34  C   UNL     1       7.565   7.872  -0.201  1.00  0.00     0.251 C 
ATOM     35  H   UNL     1       5.729   7.343  -0.771  1.00  0.00     0.163 HD
ATOM     36  O   UNL     1       7.190   8.978   0.179  1.00  0.00    -0.269 OA
BRANCH  34  37
ATOM     37  C   UNL     1       9.015   7.553  -0.186  1.00  0.00     0.039 A 
ATOM     38  C   UNL     1       9.823   8.152   0.790  1.00  0.00     0.014 A 
ATOM     39  C   UNL     1       9.608   6.744  -1.158  1.00  0.00     0.014 A 
ATOM     40  C   UNL     1      11.201   7.910   0.811  1.00  0.00     0.010 A 
ATOM     41  C   UNL     1      10.964   6.430  -1.082  1.00  0.00     0.010 A 
ATOM     42  C   UNL     1      11.782   7.027  -0.111  1.00  0.00    -0.014 A 
BRANCH  42  43
ATOM     43  C   UNL     1      13.242   6.746  -0.108  1.00  0.00     0.031 A 
ATOM     44  C   UNL     1      14.083   7.111  -1.305  1.00  0.00     0.074 A 
ATOM     45  C   UNL     1      13.803   6.110   0.939  1.00  0.00     0.049 A 
ATOM     46  N   UNL     1      15.349   6.867  -1.535  1.00  0.00    -0.248 NA
ATOM     47  C   UNL     1      13.403   7.817  -2.403  1.00  0.00     0.031 C 
ATOM     48  C   UNL     1      13.094   5.667   2.141  1.00  0.00     0.029 A 
ATOM     49  N   UNL     1      15.100   5.716   1.155  1.00  0.00    -0.354 N 
ATOM     50  C   UNL     1      15.605   7.360  -2.809  1.00  0.00     0.074 A 
ATOM     51  C   UNL     1      14.355   7.876  -3.322  1.00  0.00     0.031 C 
ATOM     52  C   UNL     1      13.969   5.086   2.978  1.00  0.00     0.029 A 
ATOM     53  C   UNL     1      15.289   5.078   2.358  1.00  0.00     0.049 A 
ATOM     54  H   UNL     1      15.827   5.876   0.510  1.00  0.00     0.167 HD
ATOM     55  C   UNL     1      16.779   7.400  -3.482  1.00  0.00     0.037 A 
ATOM     56  C   UNL     1      16.401   4.541   2.896  1.00  0.00     0.037 A 
ATOM     57  C   UNL     1      18.032   6.933  -2.951  1.00  0.00     0.049 A 
ATOM     58  C   UNL     1      17.694   4.610   2.131  1.00  0.00     0.074 A 
ATOM     59  C   UNL     1      19.290   7.001  -3.523  1.00  0.00     0.029 A 
ATOM     60  N   UNL     1      18.184   6.316  -1.719  1.00  0.00    -0.354 N 
ATOM     61  N   UNL     1      17.933   5.137   0.955  1.00  0.00    -0.248 NA
ATOM     62  C   UNL     1      18.875   4.011   2.771  1.00  0.00     0.031 C 
ATOM     63  C   UNL     1      20.199   6.388  -2.654  1.00  0.00     0.029 A 
ATOM     64  C   UNL     1      19.513   5.979  -1.522  1.00  0.00     0.049 A 
ATOM     65  H   UNL     1      17.456   6.142  -1.079  1.00  0.00     0.167 HD
ATOM     66  C   UNL     1      19.292   4.963   0.729  1.00  0.00     0.074 A 
ATOM     67  C   UNL     1      19.828   4.293   1.895  1.00  0.00     0.031 C 
ATOM     68  C   UNL     1      20.031   5.326  -0.347  1.00  0.00     0.037 A 
BRANCH  55  69
ATOM     69  C   UNL     1      16.770   7.977  -4.869  1.00  0.00     0.057 A 
ATOM     70  C   UNL     1      16.595   9.347  -5.100  1.00  0.00     0.134 A 
ATOM     71  C   UNL     1      16.987   7.157  -5.984  1.00  0.00     0.134 A 
ATOM     72  F   UNL     1      16.372  10.186  -4.077  1.00  0.00    -0.206 F 
ATOM     73  C   UNL     1      16.612   9.879  -6.391  1.00  0.00     0.040 A 
ATOM     74  C   UNL     1      17.033   7.680  -7.278  1.00  0.00     0.040 A 
ATOM     75  F   UNL     1      17.169   5.836  -5.835  1.00  0.00    -0.206 F 
ATOM     76  C   UNL     1      16.840   9.045  -7.484  1.00  0.00     0.006 A 
ENDBRANCH  55  69
BRANCH  56  77
ATOM     77  C   UNL     1      16.353   3.911   4.240  1.00  0.00     0.057 A 
ATOM     78  C   UNL     1      16.986   4.509   5.337  1.00  0.00     0.134 A 
ATOM     79  C   UNL     1      15.696   2.695   4.459  1.00  0.00     0.134 A 
ATOM     80  F   UNL     1      17.649   5.665   5.185  1.00  0.00    -0.206 F 
ATOM     81  C   UNL     1      16.987   3.909   6.597  1.00  0.00     0.040 A 
ATOM     82  C   UNL     1      15.667   2.097   5.720  1.00  0.00     0.040 A 
ATOM     83  F   UNL     1      15.064   2.075   3.451  1.00  0.00    -0.206 F 
ATOM     84  C   UNL     1      16.323   2.700   6.792  1.00  0.00     0.006 A 
ENDBRANCH  56  77
BRANCH  68  85
ATOM     85  C   UNL     1      21.504   5.045  -0.296  1.00  0.00     0.057 A 
ATOM     86  C   UNL     1      22.014   3.748  -0.425  1.00  0.00     0.134 A 
ATOM     87  C   UNL     1      22.423   6.093  -0.154  1.00  0.00     0.134 A 
ATOM     88  F   UNL     1      21.185   2.700  -0.551  1.00  0.00    -0.206 F 
ATOM     89  C   UNL     1      23.387   3.500  -0.394  1.00  0.00     0.040 A 
ATOM     90  C   UNL     1      23.798   5.860  -0.148  1.00  0.00     0.040 A 
ATOM     91  F   UNL     1      21.999   7.360  -0.035  1.00  0.00    -0.206 F 
ATOM     92  C   UNL     1      24.283   4.559  -0.262  1.00  0.00     0.006 A 
ENDBRANCH  68  85
ENDBRANCH  42  43
ENDBRANCH  34  37
ENDBRANCH  32  33
ENDBRANCH  31  32
ENDBRANCH   1  31
TORSDOF 15
