REMARK SMILES O=C(NCCCCCCNC(=O)[C@@H]1CS[C@@H](C2CC2)N1C(=O)Cc1ccn[nH]1)c1ccc(-c2c3nc(c(-c4c(F)cccc4F)c4ccc([nH]4)c(-c4c(F)cccc4F)c4nc(c(-c5c(F)cccc5F)c5ccc2[nH]5)C=C4)C=C3)cc1
REMARK SMILES IDX 7 1 6 2 5 3 4 4 3 5 1 6 2 7 29 9 30 10 82 11 31 12 81 13
REMARK SMILES IDX 32 14 33 15 34 16 75 17 35 18 80 19 74 20 76 21 36 22 79 23
REMARK SMILES IDX 73 24 72 25 37 27 63 28 46 29 62 30 47 31 50 32 61 33 77 34
REMARK SMILES IDX 48 35 49 36 60 38 78 39 51 40 38 41 39 42 44 43 40 44 41 45
REMARK SMILES IDX 43 46 45 47 42 48 64 49 65 50 70 51 66 52 67 53 69 54 71 55
REMARK SMILES IDX 68 56 52 57 53 58 58 59 54 60 55 61 57 62 59 63 56 64 8 65
REMARK SMILES IDX 9 66 10 67 11 68 12 70 13 71 14 72 20 73 15 74 16 75 21 76
REMARK SMILES IDX 22 77 23 78 24 79 25 80 28 81 26 82 27 83 17 85 18 86 19 87
REMARK H PARENT 3 8 76 26 50 37 10 69 28 84
REMARK Flexibility Score: inf
ROOT
ATOM      1  C   UNL     1       5.665   1.297   3.075  1.00  0.00     0.002 C 
ENDROOT
BRANCH   1   2
ATOM      2  C   UNL     1       5.120  -0.135   3.050  1.00  0.00     0.002 C 
BRANCH   2   3
ATOM      3  C   UNL     1       3.794  -0.348   3.781  1.00  0.00     0.021 C 
BRANCH   3   4
ATOM      4  C   UNL     1       2.658   0.559   3.327  1.00  0.00     0.116 C 
BRANCH   4   5
ATOM      5  N   UNL     1       2.258   0.307   1.953  1.00  0.00    -0.352 N 
ATOM      6  O   UNL     1       0.868  -0.321   0.288  1.00  0.00    -0.269 OA
ATOM      7  C   UNL     1       1.008   0.030   1.456  1.00  0.00     0.251 C 
ATOM      8  H   UNL     1       2.982   0.338   1.288  1.00  0.00     0.163 HD
BRANCH   7   9
ATOM      9  C   UNL     1      -0.171   0.138   2.340  1.00  0.00     0.039 A 
ATOM     10  C   UNL     1      -0.333   1.247   3.176  1.00  0.00     0.014 A 
ATOM     11  C   UNL     1      -1.131  -0.878   2.325  1.00  0.00     0.014 A 
ATOM     12  C   UNL     1      -1.384   1.279   4.084  1.00  0.00     0.010 A 
ATOM     13  C   UNL     1      -2.233  -0.802   3.180  1.00  0.00     0.010 A 
ATOM     14  C   UNL     1      -2.357   0.267   4.081  1.00  0.00    -0.014 A 
BRANCH  14  15
ATOM     15  C   UNL     1      -3.537   0.391   4.972  1.00  0.00     0.031 A 
ATOM     16  C   UNL     1      -3.781  -0.584   6.088  1.00  0.00     0.074 A 
ATOM     17  C   UNL     1      -4.385   1.419   4.771  1.00  0.00     0.049 A 
ATOM     18  N   UNL     1      -4.761  -0.612   6.956  1.00  0.00    -0.248 NA
ATOM     19  C   UNL     1      -2.805  -1.671   6.250  1.00  0.00     0.031 C 
ATOM     20  C   UNL     1      -4.253   2.424   3.713  1.00  0.00     0.029 A 
ATOM     21  N   UNL     1      -5.512   1.800   5.451  1.00  0.00    -0.354 N 
ATOM     22  C   UNL     1      -4.529  -1.721   7.758  1.00  0.00     0.074 A 
ATOM     23  C   UNL     1      -3.329  -2.358   7.257  1.00  0.00     0.031 C 
ATOM     24  C   UNL     1      -5.231   3.331   3.843  1.00  0.00     0.029 A 
ATOM     25  C   UNL     1      -6.096   2.937   4.948  1.00  0.00     0.049 A 
ATOM     26  H   UNL     1      -5.869   1.307   6.225  1.00  0.00     0.167 HD
ATOM     27  C   UNL     1      -5.249  -2.161   8.819  1.00  0.00     0.037 A 
ATOM     28  C   UNL     1      -7.215   3.583   5.322  1.00  0.00     0.037 A 
ATOM     29  C   UNL     1      -6.440  -1.518   9.314  1.00  0.00     0.049 A 
ATOM     30  C   UNL     1      -8.014   3.049   6.473  1.00  0.00     0.074 A 
ATOM     31  C   UNL     1      -7.226  -1.874  10.397  1.00  0.00     0.029 A 
ATOM     32  N   UNL     1      -7.022  -0.390   8.754  1.00  0.00    -0.354 N 
ATOM     33  N   UNL     1      -7.767   2.013   7.238  1.00  0.00    -0.248 NA
ATOM     34  C   UNL     1      -9.249   3.768   6.809  1.00  0.00     0.031 C 
ATOM     35  C   UNL     1      -8.307  -0.988  10.465  1.00  0.00     0.029 A 
ATOM     36  C   UNL     1      -8.168  -0.050   9.456  1.00  0.00     0.049 A 
ATOM     37  H   UNL     1      -6.672   0.098   7.973  1.00  0.00     0.167 HD
ATOM     38  C   UNL     1      -8.805   1.966   8.158  1.00  0.00     0.074 A 
ATOM     39  C   UNL     1      -9.673   3.089   7.865  1.00  0.00     0.031 C 
ATOM     40  C   UNL     1      -9.021   1.072   9.152  1.00  0.00     0.037 A 
BRANCH  27  41
ATOM     41  C   UNL     1      -4.777  -3.407   9.512  1.00  0.00     0.057 A 
ATOM     42  C   UNL     1      -3.627  -3.420  10.312  1.00  0.00     0.134 A 
ATOM     43  C   UNL     1      -5.510  -4.598   9.419  1.00  0.00     0.134 A 
ATOM     44  F   UNL     1      -2.874  -2.317  10.437  1.00  0.00    -0.206 F 
ATOM     45  C   UNL     1      -3.213  -4.575  10.979  1.00  0.00     0.040 A 
ATOM     46  C   UNL     1      -5.120  -5.752  10.100  1.00  0.00     0.040 A 
ATOM     47  F   UNL     1      -6.626  -4.654   8.677  1.00  0.00    -0.206 F 
ATOM     48  C   UNL     1      -3.965  -5.744  10.879  1.00  0.00     0.006 A 
ENDBRANCH  27  41
BRANCH  28  49
ATOM     49  C   UNL     1      -7.641   4.802   4.591  1.00  0.00     0.057 A 
ATOM     50  C   UNL     1      -7.589   6.062   5.196  1.00  0.00     0.134 A 
ATOM     51  C   UNL     1      -8.095   4.737   3.268  1.00  0.00     0.134 A 
ATOM     52  F   UNL     1      -7.178   6.185   6.466  1.00  0.00    -0.206 F 
ATOM     53  C   UNL     1      -7.986   7.214   4.516  1.00  0.00     0.040 A 
ATOM     54  C   UNL     1      -8.468   5.884   2.567  1.00  0.00     0.040 A 
ATOM     55  F   UNL     1      -8.159   3.559   2.630  1.00  0.00    -0.206 F 
ATOM     56  C   UNL     1      -8.420   7.127   3.194  1.00  0.00     0.006 A 
ENDBRANCH  28  49
BRANCH  40  57
ATOM     57  C   UNL     1     -10.229   1.293  10.014  1.00  0.00     0.057 A 
ATOM     58  C   UNL     1     -11.526   1.053   9.544  1.00  0.00     0.134 A 
ATOM     59  C   UNL     1     -10.089   1.730  11.337  1.00  0.00     0.134 A 
ATOM     60  F   UNL     1     -11.727   0.649   8.280  1.00  0.00    -0.206 F 
ATOM     61  C   UNL     1     -12.644   1.263  10.353  1.00  0.00     0.040 A 
ATOM     62  C   UNL     1     -11.197   1.918  12.164  1.00  0.00     0.040 A 
ATOM     63  F   UNL     1      -8.873   1.972  11.851  1.00  0.00    -0.206 F 
ATOM     64  C   UNL     1     -12.480   1.690  11.669  1.00  0.00     0.006 A 
ENDBRANCH  40  57
ENDBRANCH  14  15
ENDBRANCH   7   9
ENDBRANCH   4   5
ENDBRANCH   3   4
ENDBRANCH   2   3
ENDBRANCH   1   2
BRANCH   1  65
ATOM     65  C   UNL     1       5.772   1.943   4.460  1.00  0.00     0.021 C 
BRANCH  65  66
ATOM     66  C   UNL     1       6.636   1.181   5.458  1.00  0.00     0.116 C 
BRANCH  66  67
ATOM     67  N   UNL     1       8.037   1.169   5.072  1.00  0.00    -0.354 N 
ATOM     68  C   UNL     1       9.136   1.324   5.864  1.00  0.00     0.243 C 
ATOM     69  H   UNL     1       8.215   1.031   4.114  1.00  0.00     0.163 HD
ATOM     70  O   UNL     1      10.239   0.980   5.420  1.00  0.00    -0.273 OA
BRANCH  68  71
ATOM     71  C   UNL     1       9.012   1.905   7.293  1.00  0.00     0.185 C 
ATOM     72  C   UNL     1       9.639   3.289   7.227  1.00  0.00     0.107 C 
ATOM     73  N   UNL     1       9.720   0.984   8.211  1.00  0.00    -0.317 N 
ATOM     74  S   UNL     1      10.809   3.376   8.570  1.00  0.00    -0.134 SA
ATOM     75  C   UNL     1      10.955   1.530   8.788  1.00  0.00     0.147 C 
BRANCH  73  76
ATOM     76  C   UNL     1       9.173  -0.290   8.213  1.00  0.00     0.230 C 
ATOM     77  O   UNL     1       8.023  -0.454   7.773  1.00  0.00    -0.274 OA
BRANCH  76  78
ATOM     78  C   UNL     1       9.877  -1.524   8.722  1.00  0.00     0.155 C 
BRANCH  78  79
ATOM     79  C   UNL     1      11.150  -1.918   8.059  1.00  0.00     0.044 A 
ATOM     80  C   UNL     1      11.897  -3.063   8.261  1.00  0.00     0.045 A 
ATOM     81  N   UNL     1      11.811  -1.224   7.078  1.00  0.00    -0.282 N 
ATOM     82  C   UNL     1      13.040  -2.898   7.466  1.00  0.00     0.135 A 
ATOM     83  N   UNL     1      13.010  -1.757   6.777  1.00  0.00    -0.184 NA
ATOM     84  H   UNL     1      11.447  -0.421   6.640  1.00  0.00     0.190 HD
ENDBRANCH  78  79
ENDBRANCH  76  78
ENDBRANCH  73  76
BRANCH  75  85
ATOM     85  C   UNL     1      11.221   1.446  10.277  1.00  0.00     0.022 C 
ATOM     86  C   UNL     1      10.334   0.766  11.287  1.00  0.00     0.007 C 
ATOM     87  C   UNL     1      11.689   0.187  10.963  1.00  0.00     0.007 C 
ENDBRANCH  75  85
ENDBRANCH  68  71
ENDBRANCH  66  67
ENDBRANCH  65  66
ENDBRANCH   1  65
TORSDOF 17
